REMARK  3 active torsions:
REMARK  status: ('A' for Active; 'I' for Inactive)
REMARK    1  A    between atoms: C_8  and  C_1 
REMARK    2  A    between atoms: C_9  and  C_14 
REMARK    3  A    between atoms: C_15  and  C_11 
ROOT
ATOM      1  N   UNL d   1      -1.033  -3.199  -0.990  0.00  0.00    -0.339 N 
ATOM      2  HN  UNL d   1      -1.328  -2.634  -1.786  1.00  0.00     0.167 HD
ATOM      3  C   UNL d   1      -0.332  -2.664   0.033  0.00  0.00     0.071 A 
ATOM      4  C   UNL d   1      -1.325  -4.510  -0.913  0.00  0.00     0.116 A 
ATOM      5  N   UNL d   1      -0.961  -5.305   0.112  0.00  0.00    -0.352 N 
ATOM      6  HN  UNL d   1      -1.195  -6.298   0.128  1.00  0.00     0.166 HD
ATOM      7  C   UNL d   1       0.065  -3.398   1.130  0.00  0.00     0.049 A 
ATOM      8  C   UNL d   1      -0.274  -4.728   1.113  0.00  0.00     0.092 A 
ENDROOT
BRANCH   4   9
ATOM      9  C   UNL d   1      -2.106  -5.114  -2.013  0.00  0.00     0.008 A 
ATOM     10  C   UNL d   1      -2.602  -4.343  -3.080  0.00  0.00     0.016 A 
ATOM     11  C   UNL d   1      -3.373  -4.912  -4.104  0.00  0.00     0.017 A 
ATOM     12  C   UNL d   1      -3.674  -6.278  -4.091  0.00  0.00     0.048 A 
ATOM     13  C   UNL d   1      -3.170  -7.065  -3.050  0.00  0.00     0.017 A 
ATOM     14  C   UNL d   1      -2.401  -6.491  -2.031  0.00  0.00     0.016 A 
BRANCH  12  15
ATOM     15  C   UNL d   1      -4.535  -6.904  -5.163  0.00  0.00     0.417 C 
ATOM     16  F   UNL d   1      -4.971  -6.019  -6.101  0.00  0.00    -0.166 F 
ATOM     17  F   UNL d   1      -3.886  -7.886  -5.848  0.00  0.00    -0.166 F 
ATOM     18  F   UNL d   1      -5.657  -7.485  -4.652  0.00  0.00    -0.166 F 
ENDBRANCH  12  15
ENDBRANCH   4   9
BRANCH   3  19
ATOM     19  C   UNL d   1       0.009  -1.260  -0.131  0.00  0.00     0.126 A 
ATOM     20  C   UNL d   1      -0.210  -0.303  -1.105  0.00  0.00     0.043 A 
ATOM     21  N   UNL d   1       0.401   0.879  -0.746  0.00  0.00    -0.342 N 
ATOM     22  C   UNL d   1      -0.936  -0.421  -2.387  0.00  0.00     0.071 C 
ATOM     23  C   UNL d   1       0.969   0.605   0.408  0.00  0.00     0.120 A 
ATOM     24  HN  UNL d   1       0.410   1.762  -1.257  1.00  0.00     0.167 HD
ATOM     25  O   UNL d   1       0.765  -0.671   0.854  0.00  0.00    -0.294 OA
ATOM     26  C   UNL d   1       1.814   1.481   1.245  0.00  0.00     0.098 C 
ENDBRANCH   3  19
TORSDOF 3
