REMARK  5 active torsions:
REMARK  status: ('A' for Active; 'I' for Inactive)
REMARK    1  A    between atoms: S_11  and  C_3 
REMARK    2  A    between atoms: C_14  and  S_11 
REMARK    3  A    between atoms: C_12  and  C_14 
REMARK    4  A    between atoms: O_15  and  C_12 
REMARK    5  A    between atoms: C_18  and  O_15 
ROOT
ATOM      1  N   UNL d   1       0.777  -0.751  -0.068  0.00  0.00    -0.268 N 
ATOM      2  C   UNL d   1       1.558   0.365  -0.008  0.00  0.00     0.173 A 
ATOM      3  C   UNL d   1       1.657  -1.790  -0.151  0.00  0.00     0.168 A 
ATOM      4  N   UNL d   1       2.828   0.066  -0.021  0.00  0.00    -0.277 N 
ATOM      5  HN  UNL d   1       3.613   0.716   0.025  1.00  0.00     0.189 HD
ATOM      6  S   UNL d   1       0.652   1.837   0.060  0.00  0.00    -0.050 SA
ATOM      7  N   UNL d   1       2.893  -1.322  -0.112  0.00  0.00    -0.277 N 
ATOM      8  HN  UNL d   1       3.746  -1.881  -0.143  1.00  0.00     0.189 HD
ATOM      9  C   UNL d   1      -0.598  -0.529  -0.037  0.00  0.00     0.061 A 
ATOM     10  C   UNL d   1      -0.851   0.853   0.019  0.00  0.00     0.035 A 
ATOM     11  C   UNL d   1      -1.614  -1.465  -0.053  0.00  0.00     0.031 A 
ATOM     12  C   UNL d   1      -2.154   1.322   0.036  0.00  0.00     0.021 A 
ATOM     13  C   UNL d   1      -2.928  -0.990  -0.029  0.00  0.00     0.002 A 
ATOM     14  C   UNL d   1      -3.196   0.390   0.010  0.00  0.00     0.002 A 
ENDROOT
BRANCH   3  15
ATOM     15  S   UNL d   1       1.214  -3.458  -0.278  0.00  0.00    -0.082 SA
BRANCH  15  16
ATOM     16  C   UNL d   1       2.512  -4.221   0.738  0.00  0.00     0.193 C 
BRANCH  16  17
ATOM     17  C   UNL d   1       2.581  -3.608   2.121  0.00  0.00     0.268 C 
ATOM     18  O   UNL d   1       1.668  -3.029   2.698  0.00  0.00    -0.264 OA
BRANCH  17  19
ATOM     19  O   UNL d   1       3.833  -3.798   2.629  0.00  0.00    -0.321 OA
BRANCH  19  20
ATOM     20  C   UNL d   1       4.167  -2.984   3.760  0.00  0.00     0.174 C 
ATOM     21  C   UNL d   1       4.705  -1.657   3.256  0.00  0.00     0.034 C 
ENDBRANCH  19  20
ENDBRANCH  17  19
ENDBRANCH  16  17
ENDBRANCH  15  16
ENDBRANCH   3  15
TORSDOF 5
