REMARK  4 active torsions:
REMARK  status: ('A' for Active; 'I' for Inactive)
REMARK    1  A    between atoms: C_8  and  C_3 
REMARK    2  A    between atoms: C_15  and  N_4 
REMARK    3  A    between atoms: C_12  and  N_5 
REMARK    4  A    between atoms: C_11  and  C_8 
ROOT
ATOM      1  C   UNL d   1       0.029  -0.249  -0.290  0.00  0.00     0.242 C 
ATOM      2  S   UNL d   1      -0.673  -0.694   1.356  0.00  0.00    -0.039 SA
ATOM      3  C   UNL d   1      -2.202  -0.188   0.709  0.00  0.00     0.141 C 
ATOM      4  N   UNL d   1       1.184  -1.047  -0.634  0.00  0.00    -0.270 N 
ATOM      5  N   UNL d   1      -1.139  -0.354  -1.198  0.00  0.00    -0.242 N 
ATOM      6  N   UNL d   1      -2.358  -0.105  -0.570  0.00  0.00    -0.284 N 
ATOM      7  HN  UNL d   1      -3.235   0.108  -1.046  1.00  0.00     0.188 HD
ATOM      8  S   UNL d   1       0.612   1.476  -0.106  0.00  0.00    -0.092 SA
ATOM      9  C   UNL d   1       2.409  -0.479  -0.258  0.00  0.00     0.237 C 
ATOM     10  C   UNL d   1       2.282   0.939   0.247  0.00  0.00     0.182 C 
ATOM     11  O   UNL d   1       3.505  -1.032  -0.279  0.00  0.00    -0.272 OA
ENDROOT
BRANCH   4  12
ATOM     12  C   UNL d   1       1.123  -2.336  -1.248  0.00  0.00     0.041 A 
ATOM     13  C   UNL d   1       0.077  -3.240  -1.022  0.00  0.00     0.030 A 
ATOM     14  C   UNL d   1       0.066  -4.499  -1.637  0.00  0.00     0.002 A 
ATOM     15  C   UNL d   1       1.078  -4.862  -2.518  0.00  0.00     0.000 A 
ATOM     16  C   UNL d   1       2.113  -3.971  -2.777  0.00  0.00     0.002 A 
ATOM     17  C   UNL d   1       2.139  -2.729  -2.140  0.00  0.00     0.030 A 
ENDBRANCH   4  12
BRANCH   5  18
ATOM     18  C   UNL d   1      -1.140  -0.198  -2.589  0.00  0.00     0.055 A 
ATOM     19  C   UNL d   1      -2.217  -0.728  -3.331  0.00  0.00     0.033 A 
ATOM     20  C   UNL d   1      -2.317  -0.569  -4.717  0.00  0.00     0.026 A 
ATOM     21  C   UNL d   1      -1.340   0.148  -5.394  0.00  0.00     0.034 A 
ATOM     22  C   UNL d   1      -0.255   0.667  -4.699  0.00  0.00     0.026 A 
ATOM     23 CL   UNL d   1      -1.477   0.401  -7.089  0.00  0.00    -0.084 Cl
ATOM     24  C   UNL d   1      -0.147   0.474  -3.314  0.00  0.00     0.033 A 
ENDBRANCH   5  18
BRANCH   3  25
ATOM     25  C   UNL d   1      -3.163   0.185   1.802  0.00  0.00     0.223 C 
ATOM     26  O   UNL d   1      -2.713   0.686   2.831  0.00  0.00    -0.284 OA
BRANCH  25  27
ATOM     27  C   UNL d   1      -4.586   0.005   1.532  0.00  0.00     0.057 A 
ATOM     28  S   UNL d   1      -5.705   0.471   2.755  0.00  0.00    -0.098 SA
ATOM     29  C   UNL d   1      -7.052   0.053   1.795  0.00  0.00     0.050 A 
ATOM     30  C   UNL d   1      -6.674  -0.443   0.569  0.00  0.00     0.009 A 
ATOM     31  C   UNL d   1      -5.254  -0.478   0.419  0.00  0.00     0.023 A 
ENDBRANCH  25  27
ENDBRANCH   3  25
TORSDOF 4
