REMARK  2 active torsions:
REMARK  status: ('A' for Active; 'I' for Inactive)
REMARK    1  A    between atoms: C_15  and  N_2 
REMARK    2  A    between atoms: N_11  and  C_6 
ROOT
ATOM      1  C   UNL d   1      -0.342   0.757   0.000  0.00  0.00     0.091 A 
ATOM      2  N   UNL d   1      -1.325  -1.375  -0.043  0.00  0.00    -0.281 N 
ATOM      3  C   UNL d   1      -0.117  -0.603  -0.030  0.00  0.00     0.136 A 
ATOM      4  C   UNL d   1      -2.490  -0.585  -0.036  0.00  0.00     0.152 A 
ATOM      5  S   UNL d   1      -2.054   1.138  -0.090  0.00  0.00    -0.053 SA
ATOM      6  C   UNL d   1       0.756   1.600   0.046  0.00  0.00     0.105 A 
ATOM      7  N   UNL d   1       1.119  -1.123  -0.070  0.00  0.00    -0.331 N 
ATOM      8  HN  UNL d   1       1.276  -2.129  -0.122  1.00  0.00     0.168 HD
ATOM      9  N   UNL d   1       2.005   1.088   0.021  0.00  0.00    -0.336 N 
ATOM     10  HN  UNL d   1       2.822   1.698   0.048  1.00  0.00     0.168 HD
ATOM     11  C   UNL d   1       2.140  -0.250  -0.040  0.00  0.00     0.079 A 
ATOM     12  S   UNL d   1      -4.105  -0.996   0.131  0.00  0.00    -0.052 SA
ATOM     13  C   UNL d   1       3.520  -0.825  -0.036  0.00  0.00     0.089 C 
ENDROOT
BRANCH   6  14
ATOM     14  N   UNL d   1       0.575   2.996   0.109  0.00  0.00    -0.265 NA
ATOM     15  C   UNL d   1       1.708   3.771  -0.437  0.00  0.00     0.127 C 
ATOM     16  C   UNL d   1       1.346   5.275  -0.440  0.00  0.00     0.286 C 
ATOM     17  N   UNL d   1       1.038   5.767   0.924  0.00  0.00     0.086 N 
ATOM     18  C   UNL d   1      -0.071   4.964   1.485  0.00  0.00     0.286 C 
ATOM     19  C   UNL d   1       0.698   7.187   0.903  0.00  0.00     0.310 C 
ATOM     20  C   UNL d   1       0.237   3.444   1.482  0.00  0.00     0.127 C 
ENDBRANCH   6  14
BRANCH   2  21
ATOM     21  C   UNL d   1      -1.262  -2.813  -0.024  0.00  0.00     0.042 A 
ATOM     22  C   UNL d   1      -0.229  -3.508   0.632  0.00  0.00     0.030 A 
ATOM     23  C   UNL d   1      -0.184  -4.907   0.672  0.00  0.00     0.002 A 
ATOM     24  C   UNL d   1      -1.189  -5.654   0.075  0.00  0.00     0.000 A 
ATOM     25  C   UNL d   1      -2.222  -5.000  -0.583  0.00  0.00     0.002 A 
ATOM     26  C   UNL d   1      -2.245  -3.600  -0.646  0.00  0.00     0.030 A 
ENDBRANCH   2  21
TORSDOF 2
