REMARK  5 active torsions:
REMARK  status: ('A' for Active; 'I' for Inactive)
REMARK    1  A    between atoms: C_3  and  C_1 
REMARK    2  A    between atoms: C_12  and  C_2 
REMARK    3  A    between atoms: C_15  and  N_4 
REMARK    4  A    between atoms: C_14  and  N_5 
REMARK    5  A    between atoms: O_28  and  C_23 
ROOT
ATOM      1  C   UNL d   1      -0.239   1.276  -0.020  0.00  0.00     0.061 A 
ATOM      2  C   UNL d   1       1.084   0.880  -0.122  0.00  0.00     0.155 A 
ATOM      3  N   UNL d   1       1.073  -0.509  -0.071  0.00  0.00    -0.251 N 
ATOM      4  N   UNL d   1      -0.198  -0.975   0.099  0.00  0.00    -0.304 N 
ATOM      5  HN  UNL d   1      -0.486  -1.946   0.217  1.00  0.00     0.186 HD
ATOM      6  C   UNL d   1      -0.979   0.094   0.078  0.00  0.00     0.125 A 
ENDROOT
BRANCH   1   7
ATOM      7  C   UNL d   1      -0.781   2.659   0.016  0.00  0.00     0.152 C 
ATOM      8  N   UNL d   1      -1.929   3.090   0.663  0.00  0.00    -0.224 N 
ATOM      9  N   UNL d   1      -2.273   4.290   0.148  0.00  0.00     0.001 NA
ATOM     10  N   UNL d   1      -1.243   4.663  -0.600  0.00  0.00    -0.007 NA
ATOM     11  N   UNL d   1      -0.300   3.669  -0.679  0.00  0.00    -0.269 N 
ATOM     12  HN  UNL d   1       0.591   3.705  -1.174  1.00  0.00     0.185 HD
BRANCH   8  13
ATOM     13  C   UNL d   1      -2.606   2.525   1.769  0.00  0.00     0.056 A 
ATOM     14  C   UNL d   1      -1.908   1.745   2.704  0.00  0.00     0.034 A 
ATOM     15  C   UNL d   1      -2.578   1.182   3.795  0.00  0.00     0.039 A 
ATOM     16  C   UNL d   1      -3.946   1.390   3.960  0.00  0.00     0.068 A 
ATOM     17  C   UNL d   1      -4.633   2.185   3.036  0.00  0.00     0.039 A 
ATOM     18  C   UNL d   1      -3.969   2.772   1.955  0.00  0.00     0.034 A 
BRANCH  16  19
ATOM     19  O   UNL d   1      -4.712   0.881   4.970  0.00  0.00    -0.356 OA
ATOM     20  C   UNL d   1      -4.040   0.129   5.973  0.00  0.00     0.210 C 
ENDBRANCH  16  19
ENDBRANCH   8  13
ENDBRANCH   1   7
BRANCH   2  21
ATOM     21  C   UNL d   1       2.310   1.689  -0.098  0.00  0.00     0.435 C 
ATOM     22  F   UNL d   1       2.094   2.962   0.314  0.00  0.00    -0.165 F 
ATOM     23  F   UNL d   1       3.229   1.190   0.767  0.00  0.00    -0.165 F 
ATOM     24  F   UNL d   1       2.898   1.763  -1.315  0.00  0.00    -0.165 F 
ENDBRANCH   2  21
BRANCH   3  25
ATOM     25  C   UNL d   1       2.119  -1.483  -0.110  0.00  0.00     0.059 A 
ATOM     26  C   UNL d   1       1.849  -2.766   0.404  0.00  0.00     0.073 A 
ATOM     27  C   UNL d   1       2.843  -3.739   0.428  0.00  0.00     0.118 A 
ATOM     28  F   UNL d   1       2.575  -4.942   0.951  0.00  0.00    -0.206 F 
ATOM     29  C   UNL d   1       4.109  -3.475  -0.070  0.00  0.00     0.042 A 
ATOM     30  C   UNL d   1       4.380  -2.223  -0.615  0.00  0.00     0.005 A 
ATOM     31  C   UNL d   1       3.389  -1.231  -0.642  0.00  0.00     0.032 A 
ENDBRANCH   3  25
TORSDOF 5
