REMARK  3 active torsions:
REMARK  status: ('A' for Active; 'I' for Inactive)
REMARK    1  A    between atoms: C_11  and  C_1 
REMARK       I    between atoms: C_5  and  N_12 
REMARK       I    between atoms: N_7  and  C_5 
REMARK    2  A    between atoms: C_9  and  N_7 
REMARK    3  A    between atoms: N_12  and  C_19 
ROOT
ATOM      1  C   UNL d   1      -3.376  -1.371   0.603  0.00  0.00    -0.002 A 
ATOM      2  C   UNL d   1      -4.394  -0.618  -0.005  0.00  0.00     0.016 A 
ATOM      3  C   UNL d   1      -3.715  -2.648   1.067  0.00  0.00     0.016 A 
ATOM      4  C   UNL d   1      -5.972  -2.466   0.181  0.00  0.00     0.036 A 
ATOM      5  C   UNL d   1      -4.991  -3.185   0.860  0.00  0.00     0.030 A 
ATOM      6  C   UNL d   1      -5.678  -1.155  -0.208  0.00  0.00     0.030 A 
ENDROOT
BRANCH   4   7
ATOM      7  N   UNL d   1      -7.218  -3.013  -0.198  0.00  0.00    -0.309 N 
ATOM      8  C   UNL d   1      -7.604  -4.319  -0.076  0.00  0.00     0.325 C 
ATOM      9  N   UNL d   1      -8.663  -4.736  -0.825  0.00  0.00    -0.307 N 
ATOM     10  O   UNL d   1      -6.987  -5.206   0.513  0.00  0.00    -0.247 OA
ATOM     11  H   UNL d   1      -8.595  -5.740  -0.953  0.00  0.00     0.170 HD
ATOM     12  H   UNL d   1      -7.854  -2.403  -0.690  0.00  0.00     0.170 HD
BRANCH   9  13
ATOM     13  C   UNL d   1      -9.738  -4.101  -1.474  0.00  0.00     0.058 A 
ATOM     14  C   UNL d   1     -10.424  -2.959  -1.036  0.00  0.00     0.062 A 
ATOM     15  C   UNL d   1     -11.558  -2.511  -1.731  0.00  0.00     0.050 A 
ATOM     16 CL   UNL d   1     -10.055  -2.125   0.430  0.00  0.00    -0.082 Cl
ATOM     17  C   UNL d   1     -12.005  -3.193  -2.860  0.00  0.00     0.035 A 
ATOM     18  C   UNL d   1     -11.331  -4.322  -3.309  0.00  0.00     0.026 A 
ATOM     19 CL   UNL d   1     -13.417  -2.660  -3.683  0.00  0.00    -0.084 Cl
ATOM     20  C   UNL d   1     -10.215  -4.780  -2.608  0.00  0.00     0.033 A 
ENDBRANCH   9  13
ENDBRANCH   4   7
BRANCH   1  21
ATOM     21  C   UNL d   1      -1.998  -0.833   0.675  0.00  0.00     0.085 A 
ATOM     22  N   UNL d   1      -1.612   0.304   0.125  0.00  0.00    -0.349 N 
ATOM     23  C   UNL d   1      -0.243   0.478   0.274  0.00  0.00     0.050 A 
ATOM     24  HN  UNL d   1      -2.234   0.962  -0.344  1.00  0.00     0.166 HD
ATOM     25  C   UNL d   1       0.517   1.560  -0.216  0.00  0.00     0.031 A 
ATOM     26  C   UNL d   1       0.415  -0.534   0.970  0.00  0.00     0.033 A 
ATOM     27  C   UNL d   1       1.901   1.596   0.002  0.00  0.00     0.002 A 
ATOM     28  C   UNL d   1       2.533   0.571   0.699  0.00  0.00     0.002 A 
ATOM     29  C   UNL d   1       1.802  -0.511   1.194  0.00  0.00     0.021 A 
ATOM     30  S   UNL d   1      -0.731  -1.712   1.452  0.00  0.00    -0.070 SA
ENDBRANCH   1  21
TORSDOF 3
