REMARK  3 active torsions:
REMARK  status: ('A' for Active; 'I' for Inactive)
REMARK    1  A    between atoms: C_9  and  N_1 
REMARK    2  A    between atoms: C_7  and  C_4 
REMARK    3  A    between atoms: C_8  and  C_10 
ROOT
ATOM      1  N   UNL d   1      -0.198  -1.246   0.113  0.00  0.00    -0.180 N 
ATOM      2  N   UNL d   1       1.075  -0.793   0.316  0.00  0.00    -0.266 N 
ATOM      3  HN  UNL d   1       1.897  -1.320   0.613  1.00  0.00     0.190 HD
ATOM      4  C   UNL d   1       0.984   0.464   0.040  0.00  0.00     0.180 A 
ATOM      5  C   UNL d   1      -1.037  -0.217  -0.256  0.00  0.00     0.394 A 
ATOM      6  O   UNL d   1      -0.250   0.913  -0.282  0.00  0.00    -0.240 OA
ATOM      7  O   UNL d   1      -2.225  -0.196  -0.524  0.00  0.00    -0.236 OA
ENDROOT
BRANCH   1   8
ATOM      8  C   UNL d   1      -0.444  -2.629   0.096  0.00  0.00     0.132 A 
ATOM      9  N   UNL d   1      -1.624  -3.105  -0.356  0.00  0.00    -0.350 N 
ATOM     10  C   UNL d   1      -1.778  -4.449  -0.454  0.00  0.00     0.106 A 
ATOM     11  HN  UNL d   1      -2.379  -2.471  -0.618  1.00  0.00     0.166 HD
ATOM     12  C   UNL d   1      -0.806  -5.372  -0.102  0.00  0.00     0.063 A 
ATOM     13  C   UNL d   1       0.397  -4.873   0.394  0.00  0.00     0.021 A 
ATOM     14  C   UNL d   1       0.579  -3.497   0.491  0.00  0.00     0.051 A 
BRANCH  12  15
ATOM     15  C   UNL d   1      -1.030  -6.843  -0.256  0.00  0.00     0.418 C 
ATOM     16  F   UNL d   1      -2.248  -7.162  -0.775  0.00  0.00    -0.166 F 
ATOM     17  F   UNL d   1      -0.111  -7.425  -1.075  0.00  0.00    -0.166 F 
ATOM     18  F   UNL d   1      -0.944  -7.508   0.929  0.00  0.00    -0.166 F 
ENDBRANCH  12  15
ENDBRANCH   1   8
BRANCH   4  19
ATOM     19  C   UNL d   1       2.085   1.427  -0.001  0.00  0.00     0.038 A 
ATOM     20  C   UNL d   1       3.372   1.043  -0.411  0.00  0.00     0.048 A 
ATOM     21 CL   UNL d   1       3.753  -0.529  -1.028  0.00  0.00    -0.083 Cl
ATOM     22  C   UNL d   1       4.419   1.968  -0.378  0.00  0.00     0.025 A 
ATOM     23  C   UNL d   1       4.189   3.273   0.054  0.00  0.00     0.002 A 
ATOM     24  C   UNL d   1       2.908   3.663   0.443  0.00  0.00     0.001 A 
ATOM     25  C   UNL d   1       1.854   2.746   0.415  0.00  0.00     0.017 A 
ENDBRANCH   4  19
TORSDOF 3
