REMARK  2 active torsions:
REMARK  status: ('A' for Active; 'I' for Inactive)
REMARK    1  A    between atoms: C_5  and  C_3 
REMARK    2  A    between atoms: C_10  and  C_4 
ROOT
ATOM      1  N   UNL d   1       1.389  -0.574  -0.130  0.00  0.00    -0.348 N 
ATOM      2  HN  UNL d   1       2.273  -1.065  -0.261  1.00  0.00     0.166 HD
ATOM      3  C   UNL d   1       1.258   0.802  -0.005  0.00  0.00     0.057 A 
ATOM      4  C   UNL d   1       0.207  -1.159  -0.055  0.00  0.00     0.086 A 
ATOM      5  S   UNL d   1      -1.116  -0.075   0.169  0.00  0.00    -0.081 SA
ATOM      6  C   UNL d   1      -0.034   1.248   0.171  0.00  0.00     0.082 A 
ENDROOT
BRANCH   4   7
ATOM      7  C   UNL d   1      -0.003  -2.612  -0.080  0.00  0.00     0.013 A 
ATOM      8  C   UNL d   1      -1.180  -3.210  -0.530  0.00  0.00     0.101 A 
ATOM      9  N   UNL d   1      -1.415  -4.547  -0.537  0.00  0.00    -0.374 N 
ATOM     10  C   UNL d   1      -0.423  -5.339  -0.078  0.00  0.00     0.087 A 
ATOM     11  HN  UNL d   1      -2.297  -4.934  -0.873  1.00  0.00     0.164 HD
ATOM     12  C   UNL d   1       0.792  -4.857   0.375  0.00  0.00     0.018 A 
ATOM     13  C   UNL d   1       1.003  -3.478   0.366  0.00  0.00     0.017 A 
ENDBRANCH   4   7
BRANCH   3  14
ATOM     14  C   UNL d   1       2.457   1.703  -0.047  0.00  0.00     0.033 A 
ATOM     15  S   UNL d   1       2.419   3.397   0.199  0.00  0.00    -0.076 SA
ATOM     16  C   UNL d   1       4.096   3.513   0.014  0.00  0.00     0.075 A 
ATOM     17 CL   UNL d   1       4.865   5.040   0.165  0.00  0.00    -0.076 Cl
ATOM     18  C   UNL d   1       4.700   2.312  -0.252  0.00  0.00     0.033 A 
ATOM     19  C   UNL d   1       3.742   1.252  -0.286  0.00  0.00     0.023 A 
ENDBRANCH   3  14
TORSDOF 2
