REMARK  7 active torsions:
REMARK  status: ('A' for Active; 'I' for Inactive)
REMARK    1  A    between atoms: N_4  and  C_1 
REMARK    2  A    between atoms: N_3  and  C_11 
REMARK       I    between atoms: C_10  and  N_4 
REMARK    3  A    between atoms: S_22  and  C_5 
REMARK    4  A    between atoms: C_13  and  C_10 
REMARK    5  A    between atoms: C_16  and  C_29 
REMARK       I    between atoms: N_19  and  C_16 
REMARK    6  A    between atoms: C_24  and  N_19 
REMARK    7  A    between atoms: C_29  and  S_22 
ROOT
ATOM      1  C   UNL d   1      -0.571   1.020   0.852  0.00  0.00     0.168 A 
ATOM      2  S   UNL d   1      -0.878  -0.191   2.011  0.00  0.00    -0.026 SA
ATOM      3  C   UNL d   1       0.146  -1.218   1.102  0.00  0.00     0.130 A 
ATOM      4  N   UNL d   1       0.200   0.638  -0.142  0.00  0.00    -0.278 N 
ATOM      5  HN  UNL d   1       0.452   1.235  -0.930  1.00  0.00     0.189 HD
ATOM      6  N   UNL d   1       0.629  -0.666   0.008  0.00  0.00    -0.286 N 
ATOM      7  HN  UNL d   1       1.245  -1.145  -0.649  1.00  0.00     0.188 HD
ENDROOT
BRANCH   3   8
ATOM      8  S   UNL d   1       0.539  -2.857   1.576  0.00  0.00    -0.094 SA
BRANCH   8   9
ATOM      9  C   UNL d   1       1.893  -3.196   0.413  0.00  0.00     0.184 C 
BRANCH   9  10
ATOM     10  C   UNL d   1       2.426  -4.620   0.434  0.00  0.00     0.231 C 
ATOM     11  N   UNL d   1       1.863  -5.484   1.351  0.00  0.00    -0.326 N 
ATOM     12  H   UNL d   1       1.354  -5.064   2.121  0.00  0.00     0.169 HD
ATOM     13  O   UNL d   1       3.316  -4.935  -0.357  0.00  0.00    -0.272 OA
BRANCH  11  14
ATOM     14  C   UNL d   1       1.855  -6.892   1.270  0.00  0.00     0.037 A 
ATOM     15  C   UNL d   1       2.187  -7.577   0.095  0.00  0.00     0.069 A 
ATOM     16  C   UNL d   1       1.940  -8.932   0.047  0.00  0.00     0.107 A 
ATOM     17  O   UNL d   1       2.080  -9.724  -1.052  0.00  0.00    -0.323 OA
ATOM     18  C   UNL d   1       1.446  -9.623   1.127  0.00  0.00     0.105 A 
ATOM     19  C   UNL d   1       1.428 -10.923  -0.590  0.00  0.00     0.352 C 
ATOM     20  O   UNL d   1       1.218 -10.933   0.839  0.00  0.00    -0.323 OA
ATOM     21  C   UNL d   1       1.184  -8.998   2.324  0.00  0.00     0.042 A 
ATOM     22  C   UNL d   1       1.369  -7.611   2.385  0.00  0.00     0.032 A 
ENDBRANCH  11  14
ENDBRANCH   9  10
ENDBRANCH   8   9
ENDBRANCH   3   8
BRANCH   1  23
ATOM     23  N   UNL d   1      -1.070   2.296   0.917  0.00  0.00    -0.302 N 
ATOM     24  C   UNL d   1      -1.774   2.848   1.963  0.00  0.00     0.257 C 
ATOM     25  O   UNL d   1      -2.098   2.302   3.009  0.00  0.00    -0.267 OA
ATOM     26  H   UNL d   1      -0.762   2.874   0.147  0.00  0.00     0.171 HD
BRANCH  24  27
ATOM     27  C   UNL d   1      -2.105   4.292   1.794  0.00  0.00     0.034 A 
ATOM     28  C   UNL d   1      -2.474   4.826   0.554  0.00  0.00     0.053 A 
ATOM     29  C   UNL d   1      -2.753   6.199   0.458  0.00  0.00     0.103 A 
ATOM     30  C   UNL d   1      -2.672   7.030   1.583  0.00  0.00     0.036 A 
ATOM     31  C   UNL d   1      -2.322   6.484   2.817  0.00  0.00     0.003 A 
ATOM     32  C   UNL d   1      -2.045   5.119   2.924  0.00  0.00     0.017 A 
BRANCH  29  33
ATOM     33  N   UNL d   1      -3.131   6.772  -0.841  0.00  0.00    -0.116 N 
ATOM     34  O   UNL d   1      -3.135   6.011  -1.820  0.00  0.00    -0.532 OA
ATOM     35  O   UNL d   1      -3.412   7.977  -0.882  0.00  0.00    -0.532 OA
ENDBRANCH  29  33
ENDBRANCH  24  27
ENDBRANCH   1  23
TORSDOF 7
