REMARK  2 active torsions:
REMARK  status: ('A' for Active; 'I' for Inactive)
REMARK       I    between atoms: C_10  and  N_8 
REMARK    1  A    between atoms: O_18  and  C_10 
REMARK    2  A    between atoms: C_19  and  O_18 
ROOT
ATOM      1  C   UNL d   1       0.975   0.968  -0.005  0.00  0.00     0.091 A 
ATOM      2  C   UNL d   1       0.595  -0.361  -0.012  0.00  0.00     0.073 A 
ATOM      3  C   UNL d   1      -1.466   0.705   0.031  0.00  0.00     0.010 A 
ATOM      4  C   UNL d   1      -0.823  -0.523  -0.005  0.00  0.00    -0.023 A 
ATOM      5  S   UNL d   1      -0.375   2.012   0.026  0.00  0.00    -0.074 SA
ATOM      6  N   UNL d   1       2.247   1.450  -0.019  0.00  0.00    -0.346 N 
ATOM      7  HN  UNL d   1       2.463   2.447  -0.017  1.00  0.00     0.167 HD
ATOM      8  N   UNL d   1      -3.609  -0.368   0.297  0.00  0.00    -0.323 N 
ATOM      9  C   UNL d   1       1.652  -1.355  -0.026  0.00  0.00     0.259 A 
ATOM     10  C   UNL d   1      -4.483  -0.468   1.360  0.00  0.00     0.363 C 
ATOM     11  N   UNL d   1       2.919  -0.819  -0.039  0.00  0.00    -0.319 N 
ATOM     12  C   UNL d   1      -2.955   0.917   0.043  0.00  0.00     0.174 C 
ATOM     13  C   UNL d   1       3.158   0.535  -0.036  0.00  0.00     0.184 A 
ATOM     14  C   UNL d   1      -1.608  -1.804  -0.006  0.00  0.00     0.061 C 
ATOM     15  C   UNL d   1      -3.068  -1.535  -0.418  0.00  0.00     0.133 C 
ATOM     16  O   UNL d   1      -4.832   0.477   2.056  0.00  0.00    -0.238 OA
ATOM     17  O   UNL d   1       1.459  -2.567  -0.029  0.00  0.00    -0.267 OA
ATOM     18  H   UNL d   1       3.679  -1.478  -0.050  0.00  0.00     0.169 HD
ENDROOT
BRANCH  10  19
ATOM     19  O   UNL d   1      -4.878  -1.751   1.575  0.00  0.00    -0.304 OA
BRANCH  19  20
ATOM     20  C   UNL d   1      -5.466  -2.016   2.855  0.00  0.00     0.176 C 
ATOM     21  C   UNL d   1      -4.346  -2.386   3.810  0.00  0.00     0.034 C 
ENDBRANCH  19  20
ENDBRANCH  10  19
TORSDOF 2
