REMARK  5 active torsions:
REMARK  status: ('A' for Active; 'I' for Inactive)
REMARK    1  A    between atoms: C_7  and  C_1 
REMARK    2  A    between atoms: C_8  and  C_4 
REMARK       I    between atoms: N_10  and  C_7 
REMARK    3  A    between atoms: C_12  and  N_10 
REMARK    4  A    between atoms: N_11  and  C_14 
REMARK    5  A    between atoms: C_14  and  C_12 
ROOT
ATOM      1  C   UNL d   1       0.019  -1.322  -0.033  0.00  0.00     0.092 A 
ATOM      2  N   UNL d   1      -1.291   0.543   0.060  0.00  0.00    -0.259 N 
ATOM      3  HN  UNL d   1      -2.096   1.168   0.085  1.00  0.00     0.195 HD
ATOM      4  C   UNL d   1      -1.318  -0.802   0.021  0.00  0.00     0.083 A 
ATOM      5  O   UNL d   1       0.032   0.910   0.059  0.00  0.00    -0.241 OA
ATOM      6  C   UNL d   1       0.817  -0.196   0.011  0.00  0.00     0.090 A 
ATOM      7  C   UNL d   1       2.270   0.062  -0.033  0.00  0.00     0.080 C 
ENDROOT
BRANCH   1   8
ATOM      8  C   UNL d   1       0.446  -2.697  -0.184  0.00  0.00     0.256 C 
ATOM      9  O   UNL d   1      -0.199  -3.511  -0.839  0.00  0.00    -0.267 OA
ATOM     10  N   UNL d   1       1.603  -3.053   0.479  0.00  0.00    -0.355 N 
ATOM     11  H   UNL d   1       1.953  -2.466   1.227  0.00  0.00     0.162 HD
BRANCH  10  12
ATOM     12  C   UNL d   1       2.006  -4.448   0.498  0.00  0.00     0.153 C 
BRANCH  12  13
ATOM     13  C   UNL d   1       3.324  -4.689   1.253  0.00  0.00     0.291 C 
BRANCH  13  14
ATOM     14  N   UNL d   1       3.320  -4.239   2.663  0.00  0.00     0.081 N 
ATOM     15  C   UNL d   1       2.343  -4.986   3.466  0.00  0.00     0.309 C 
ATOM     16  C   UNL d   1       4.659  -4.442   3.237  0.00  0.00     0.309 C 
ENDBRANCH  13  14
ENDBRANCH  12  13
ENDBRANCH  10  12
ENDBRANCH   1   8
BRANCH   4  17
ATOM     17  C   UNL d   1      -2.603  -1.508   0.073  0.00  0.00    -0.006 A 
ATOM     18  C   UNL d   1      -3.744  -0.956  -0.534  0.00  0.00     0.014 A 
ATOM     19  C   UNL d   1      -4.979  -1.605  -0.465  0.00  0.00     0.001 A 
ATOM     20  C   UNL d   1      -5.092  -2.816   0.211  0.00  0.00     0.000 A 
ATOM     21  C   UNL d   1      -3.973  -3.374   0.825  0.00  0.00     0.001 A 
ATOM     22  C   UNL d   1      -2.739  -2.722   0.762  0.00  0.00     0.014 A 
ENDBRANCH   4  17
TORSDOF 5
