REMARK  2 active torsions:
REMARK  status: ('A' for Active; 'I' for Inactive)
REMARK    1  A    between atoms: N_9  and  N_2 
REMARK    2  A    between atoms: C_11  and  N_9 
ROOT
ATOM      1  C   UNL d   1      -1.005   0.899   0.024  0.00  0.00     0.109 A 
ATOM      2  N   UNL d   1      -1.280   2.174   0.002  0.00  0.00    -0.296 N 
ATOM      3  HN  UNL d   1      -0.530   2.865  -0.035  1.00  0.00     0.187 HD
ATOM      4  C   UNL d   1       0.418   0.473  -0.006  0.00  0.00     0.006 A 
ATOM      5  C   UNL d   1      -2.064  -0.203   0.085  0.00  0.00     0.200 A 
ATOM      6  C   UNL d   1      -1.607  -1.607   0.049  0.00  0.00     0.058 A 
ATOM      7  C   UNL d   1      -0.307  -1.915   0.023  0.00  0.00     0.016 A 
ATOM      8  C   UNL d   1       0.736  -0.891   0.013  0.00  0.00    -0.023 A 
ATOM      9  O   UNL d   1      -3.258   0.055   0.179  0.00  0.00    -0.286 OA
ATOM     10  C   UNL d   1       1.437   1.437  -0.045  0.00  0.00     0.015 A 
ATOM     11  C   UNL d   1       2.084  -1.274   0.013  0.00  0.00     0.012 A 
ATOM     12  C   UNL d   1       2.774   1.043  -0.050  0.00  0.00     0.001 A 
ATOM     13  C   UNL d   1       3.097  -0.312  -0.015  0.00  0.00     0.001 A 
ENDROOT
BRANCH   2  14
ATOM     14  N   UNL d   1      -2.573   2.564   0.029  0.00  0.00    -0.300 N 
ATOM     15  H   UNL d   1      -3.321   1.897   0.242  0.00  0.00     0.187 HD
BRANCH  14  16
ATOM     16  C   UNL d   1      -2.882   3.932   0.098  0.00  0.00     0.048 A 
ATOM     17  C   UNL d   1      -1.892   4.922   0.002  0.00  0.00     0.034 A 
ATOM     18  C   UNL d   1      -2.226   6.279   0.006  0.00  0.00     0.044 A 
ATOM     19  C   UNL d   1      -3.559   6.652   0.097  0.00  0.00     0.116 A 
ATOM     20  C   UNL d   1      -4.562   5.695   0.187  0.00  0.00     0.044 A 
ATOM     21  F   UNL d   1      -3.885   7.951   0.090  0.00  0.00    -0.206 F 
ATOM     22  C   UNL d   1      -4.222   4.337   0.182  0.00  0.00     0.034 A 
ENDBRANCH  14  16
ENDBRANCH   2  14
TORSDOF 2
