REMARK  5 active torsions:
REMARK  status: ('A' for Active; 'I' for Inactive)
REMARK    1  A    between atoms: C_13  and  N_1 
REMARK       I    between atoms: C_6  and  N_11 
REMARK    2  A    between atoms: O_9  and  C_6 
REMARK    3  A    between atoms: C_12  and  O_9 
REMARK    4  A    between atoms: N_11  and  C_14 
REMARK    5  A    between atoms: C_14  and  C_13 
ROOT
ATOM      1  N   UNL d   1       1.906  -0.448   0.113  0.00  0.00    -0.286 N 
ATOM      2  C   UNL d   1       1.188  -0.032   1.197  0.00  0.00     0.235 C 
ATOM      3  C   UNL d   1       1.271  -0.178  -1.062  0.00  0.00     0.227 C 
ATOM      4  C   UNL d   1       0.033   0.824   0.723  0.00  0.00     0.050 C 
ATOM      5  C   UNL d   1       0.035   0.635  -0.796  0.00  0.00     0.122 C 
ATOM      6  O   UNL d   1       1.426  -0.312   2.363  0.00  0.00    -0.272 OA
ATOM      7  O   UNL d   1       1.605  -0.575  -2.172  0.00  0.00    -0.273 OA
ATOM      8  C   UNL d   1      -1.293   0.447   1.384  0.00  0.00     0.020 C 
ATOM      9  C   UNL d   1       0.208   2.285   1.143  0.00  0.00     0.020 C 
ATOM     10  C   UNL d   1      -2.163   1.694   1.266  0.00  0.00     0.001 C 
ATOM     11  C   UNL d   1      -1.201   2.874   1.139  0.00  0.00     0.001 C 
ENDROOT
BRANCH   1  12
ATOM     12  C   UNL d   1       3.071  -1.326   0.210  0.00  0.00     0.154 C 
BRANCH  12  13
ATOM     13  C   UNL d   1       2.657  -2.790   0.419  0.00  0.00     0.145 C 
BRANCH  13  14
ATOM     14  N   UNL d   1       3.671  -3.787   0.126  0.00  0.00    -0.335 N 
ATOM     15  C   UNL d   1       4.862  -4.011   0.748  0.00  0.00     0.361 C 
ATOM     16  O   UNL d   1       5.500  -5.025   0.499  0.00  0.00    -0.238 OA
ATOM     17  H   UNL d   1       3.403  -4.571  -0.455  0.00  0.00     0.164 HD
BRANCH  15  18
ATOM     18  O   UNL d   1       5.247  -3.017   1.583  0.00  0.00    -0.294 OA
BRANCH  18  19
ATOM     19  C   UNL d   1       6.591  -3.046   2.147  0.00  0.00     0.061 C 
ATOM     20  C   UNL d   1       7.656  -3.088   1.040  0.00  0.00     0.046 C 
ATOM     21  C   UNL d   1       6.741  -1.723   2.913  0.00  0.00     0.046 C 
ATOM     22  C   UNL d   1       6.769  -4.203   3.140  0.00  0.00     0.046 C 
ENDBRANCH  18  19
ENDBRANCH  15  18
ENDBRANCH  13  14
ENDBRANCH  12  13
ENDBRANCH   1  12
TORSDOF 5
