REMARK  5 active torsions:
REMARK  status: ('A' for Active; 'I' for Inactive)
REMARK    1  A    between atoms: N_6  and  C_1 
REMARK    2  A    between atoms: C_2  and  C_3 
REMARK       I    between atoms: C_9  and  N_7 
REMARK    3  A    between atoms: C_16  and  C_9 
REMARK    4  A    between atoms: S_18  and  C_16 
REMARK    5  A    between atoms: C_23  and  S_18 
ROOT
ATOM      1  N   UNL d   1       0.689   2.166  -0.103  0.00  0.00    -0.363 N 
ATOM      2  N   UNL d   1       2.335   4.482  -0.091  0.00  0.00    -0.348 N 
ATOM      3  C   UNL d   1       3.086   5.637  -0.248  0.00  0.00     0.229 C 
ATOM      4  C   UNL d   1       1.339   2.596  -1.354  0.00  0.00     0.144 C 
ATOM      5  C   UNL d   1       0.256   3.313   0.712  0.00  0.00     0.144 C 
ATOM      6  C   UNL d   1       2.631   3.336  -0.970  0.00  0.00     0.145 C 
ATOM      7  C   UNL d   1       1.500   4.156   1.083  0.00  0.00     0.145 C 
ATOM      8  O   UNL d   1       3.920   5.749  -1.151  0.00  0.00    -0.273 OA
ENDROOT
BRANCH   1   9
ATOM      9  C   UNL d   1      -0.131   1.043  -0.129  0.00  0.00     0.125 A 
ATOM     10  N   UNL d   1      -1.404   1.185   0.321  0.00  0.00    -0.350 N 
ATOM     11  C   UNL d   1      -2.204   0.094   0.394  0.00  0.00     0.106 A 
ATOM     12  HN  UNL d   1      -1.754   2.102   0.601  1.00  0.00     0.166 HD
ATOM     13  C   UNL d   1      -1.814  -1.183   0.027  0.00  0.00     0.065 A 
ATOM     14  C   UNL d   1      -0.509  -1.335  -0.436  0.00  0.00     0.045 A 
ATOM     15  C   UNL d   1       0.343  -0.229  -0.501  0.00  0.00     0.078 A 
ATOM     16 CL   UNL d   1       1.994  -0.559  -0.913  0.00  0.00    -0.080 Cl
BRANCH  13  17
ATOM     17  C   UNL d   1      -2.751  -2.337   0.182  0.00  0.00     0.418 C 
ATOM     18  F   UNL d   1      -2.262  -3.501  -0.323  0.00  0.00    -0.166 F 
ATOM     19  F   UNL d   1      -3.048  -2.591   1.486  0.00  0.00    -0.166 F 
ATOM     20  F   UNL d   1      -3.943  -2.130  -0.440  0.00  0.00    -0.166 F 
ENDBRANCH  13  17
ENDBRANCH   1   9
BRANCH   3  21
ATOM     21  C   UNL d   1       2.829   6.815   0.677  0.00  0.00     0.182 C 
BRANCH  21  22
ATOM     22  S   UNL d   1       3.742   6.596   2.237  0.00  0.00    -0.121 SA
BRANCH  22  23
ATOM     23  C   UNL d   1       3.339   8.101   3.106  0.00  0.00     0.001 A 
ATOM     24  C   UNL d   1       3.094   8.021   4.482  0.00  0.00     0.020 A 
ATOM     25  C   UNL d   1       2.849   9.175   5.232  0.00  0.00     0.025 A 
ATOM     26  C   UNL d   1       2.851  10.418   4.606  0.00  0.00     0.034 A 
ATOM     27  C   UNL d   1       3.089  10.515   3.238  0.00  0.00     0.025 A 
ATOM     28 CL   UNL d   1       2.582  11.844   5.530  0.00  0.00    -0.084 Cl
ATOM     29  C   UNL d   1       3.338   9.358   2.490  0.00  0.00     0.020 A 
ENDBRANCH  22  23
ENDBRANCH  21  22
ENDBRANCH   3  21
TORSDOF 5
