REMARK  3 active torsions:
REMARK  status: ('A' for Active; 'I' for Inactive)
REMARK    1  A    between atoms: N_11  and  C_9 
REMARK    2  A    between atoms: C_18  and  N_11 
REMARK    3  A    between atoms: C_19  and  C_18 
ROOT
ATOM      1  C   UNL d   1      -0.479   1.029  -0.035  0.00  0.00     0.160 A 
ATOM      2  C   UNL d   1      -0.930  -0.255   0.035  0.00  0.00     0.164 A 
ATOM      3  N   UNL d   1      -1.499   1.925  -0.129  0.00  0.00    -0.174 N 
ATOM      4  HN  UNL d   1      -1.428   2.938  -0.220  1.00  0.00     0.186 HD
ATOM      5  N   UNL d   1       0.863   1.327  -0.023  0.00  0.00    -0.287 N 
ATOM      6  N   UNL d   1       1.298  -1.021   0.041  0.00  0.00    -0.269 N 
ATOM      7  C   UNL d   1       1.798   0.292   0.013  0.00  0.00     0.332 A 
ATOM      8  C   UNL d   1      -0.056  -1.376   0.076  0.00  0.00     0.282 A 
ATOM      9  C   UNL d   1      -2.597   1.200  -0.078  0.00  0.00     0.682 A 
ATOM     10  N   UNL d   1      -2.297  -0.144   0.040  0.00  0.00    -0.178 N 
ATOM     11  O   UNL d   1       3.010   0.527   0.019  0.00  0.00    -0.246 OA
ATOM     12  O   UNL d   1      -0.443  -2.540   0.133  0.00  0.00    -0.265 OA
ATOM     13  C   UNL d   1       1.344   2.694  -0.038  0.00  0.00     0.163 C 
ATOM     14  C   UNL d   1       2.245  -2.120   0.045  0.00  0.00     0.164 C 
ATOM     15  C   UNL d   1      -3.269  -1.209   0.075  0.00  0.00     0.176 C 
ENDROOT
BRANCH   9  16
ATOM     16  N   UNL d   1      -3.866   1.631  -0.172  0.00  0.00    -0.220 N 
ATOM     17  H   UNL d   1      -4.660   1.165   0.266  0.00  0.00     0.178 HD
BRANCH  16  18
ATOM     18  C   UNL d   1      -4.131   3.020  -0.499  0.00  0.00     0.195 C 
BRANCH  18  19
ATOM     19  C   UNL d   1      -5.612   3.348  -0.362  0.00  0.00     0.027 A 
ATOM     20  N   UNL d   1      -6.420   2.462   0.288  0.00  0.00    -0.368 N 
ATOM     21  C   UNL d   1      -7.724   2.799   0.418  0.00  0.00     0.088 A 
ATOM     22  HN  UNL d   1      -6.057   1.585   0.660  1.00  0.00     0.165 HD
ATOM     23  C   UNL d   1      -8.272   3.976  -0.065  0.00  0.00     0.017 A 
ATOM     24  C   UNL d   1      -7.437   4.868  -0.724  0.00  0.00     0.003 A 
ATOM     25  C   UNL d   1      -6.089   4.555  -0.875  0.00  0.00     0.027 A 
ENDBRANCH  18  19
ENDBRANCH  16  18
ENDBRANCH   9  16
TORSDOF 3
