REMARK  5 active torsions:
REMARK  status: ('A' for Active; 'I' for Inactive)
REMARK    1  A    between atoms: C_13  and  N_2 
REMARK       I    between atoms: C_5  and  N_10 
REMARK       I    between atoms: N_6  and  C_5 
REMARK    2  A    between atoms: C_8  and  N_6 
REMARK    3  A    between atoms: N_10  and  C_15 
REMARK    4  A    between atoms: O_17  and  C_12 
REMARK    5  A    between atoms: C_15  and  C_13 
ROOT
ATOM      1  C   UNL d   1      -3.928   4.143   1.172  0.00  0.00     0.320 C 
ATOM      2  N   UNL d   1      -4.290   5.299   1.828  0.00  0.00    -0.309 N 
ATOM      3  O   UNL d   1      -4.699   3.288   0.730  0.00  0.00    -0.247 OA
ATOM      4  N   UNL d   1      -2.560   3.982   1.077  0.00  0.00    -0.341 N 
ATOM      5  H   UNL d   1      -3.533   5.893   2.137  0.00  0.00     0.170 HD
ATOM      6  H   UNL d   1      -2.008   4.821   0.953  0.00  0.00     0.164 HD
ENDROOT
BRANCH   4   7
ATOM      7  C   UNL d   1      -2.071   2.790   0.386  0.00  0.00     0.144 C 
BRANCH   7   8
ATOM      8  C   UNL d   1      -0.547   2.667   0.285  0.00  0.00     0.143 C 
BRANCH   8   9
ATOM      9  N   UNL d   1       0.043   3.784  -0.446  0.00  0.00    -0.368 N 
ATOM     10  C   UNL d   1       1.059   4.577   0.035  0.00  0.00     0.071 C 
ATOM     11  N   UNL d   1       1.944   5.001  -0.830  0.00  0.00    -0.379 N 
ATOM     12  C   UNL d   1       1.141   5.030   1.462  0.00  0.00     0.088 C 
ATOM     13  C   UNL d   1       1.586   4.317  -2.099  0.00  0.00     0.141 C 
ATOM     14  HN  UNL d   1       2.709   5.655  -0.668  1.00  0.00     0.160 HD
ATOM     15  C   UNL d   1       0.201   3.691  -1.890  0.00  0.00     0.143 C 
ENDBRANCH   8   9
ENDBRANCH   7   8
ENDBRANCH   4   7
BRANCH   2  16
ATOM     16  C   UNL d   1      -5.607   5.770   2.083  0.00  0.00     0.039 A 
ATOM     17  C   UNL d   1      -6.759   5.075   1.691  0.00  0.00     0.066 A 
ATOM     18  C   UNL d   1      -8.031   5.643   1.829  0.00  0.00     0.070 A 
ATOM     19  C   UNL d   1      -8.163   6.888   2.441  0.00  0.00     0.037 A 
ATOM     20  C   UNL d   1      -7.035   7.558   2.913  0.00  0.00     0.005 A 
ATOM     21  C   UNL d   1      -5.763   7.003   2.727  0.00  0.00     0.030 A 
BRANCH  18  22
ATOM     22  O   UNL d   1      -9.201   5.087   1.385  0.00  0.00    -0.356 OA
ATOM     23  C   UNL d   1      -9.087   3.894   0.615  0.00  0.00     0.210 C 
ENDBRANCH  18  22
ENDBRANCH   2  16
TORSDOF 5
