REMARK  4 active torsions:
REMARK  status: ('A' for Active; 'I' for Inactive)
REMARK    1  A    between atoms: C_12  and  C_3 
REMARK    2  A    between atoms: C_13  and  C_5 
REMARK    3  A    between atoms: C_8  and  C_11 
REMARK    4  A    between atoms: C_10  and  C_14 
ROOT
ATOM      1  N   UNL d   1      -2.310   0.670  -0.015  0.00  0.00    -0.344 N 
ATOM      2  HN  UNL d   1      -3.217   1.135  -0.051  1.00  0.00     0.167 HD
ATOM      3  C   UNL d   1      -1.158   1.397  -0.043  0.00  0.00     0.057 A 
ATOM      4  C   UNL d   1       0.136   0.800   0.057  0.00  0.00     0.033 A 
ATOM      5  C   UNL d   1      -2.233  -0.661   0.059  0.00  0.00     0.089 A 
ATOM      6  N   UNL d   1      -1.071  -1.312   0.030  0.00  0.00    -0.344 N 
ATOM      7  HN  UNL d   1      -1.047  -2.331   0.009  1.00  0.00     0.167 HD
ATOM      8  C   UNL d   1       0.059  -0.609   0.030  0.00  0.00     0.046 A 
ATOM      9  C   UNL d   1       1.467   1.372   0.186  0.00  0.00     0.062 C 
ATOM     10  C   UNL d   1       1.205  -1.383  -0.013  0.00  0.00     0.030 C 
ATOM     11  C   UNL d   1       2.607   0.537   0.102  0.00  0.00     0.017 C 
ATOM     12  C   UNL d   1       2.479  -0.833  -0.010  0.00  0.00     0.003 C 
ENDROOT
BRANCH   3  13
ATOM     13  C   UNL d   1      -1.474   2.824  -0.298  0.00  0.00    -0.008 A 
ATOM     14  C   UNL d   1      -2.603   3.423   0.302  0.00  0.00     0.014 A 
ATOM     15  C   UNL d   1      -2.977   4.743   0.023  0.00  0.00     0.017 A 
ATOM     16  C   UNL d   1      -2.212   5.526  -0.847  0.00  0.00     0.048 A 
ATOM     17  C   UNL d   1      -1.093   4.947  -1.457  0.00  0.00     0.017 A 
ATOM     18  C   UNL d   1      -0.762   3.606  -1.220  0.00  0.00     0.014 A 
BRANCH  16  19
ATOM     19  C   UNL d   1      -2.626   6.942  -1.163  0.00  0.00     0.417 C 
ATOM     20  F   UNL d   1      -1.694   7.635  -1.877  0.00  0.00    -0.166 F 
ATOM     21  F   UNL d   1      -3.771   6.993  -1.899  0.00  0.00    -0.166 F 
ATOM     22  F   UNL d   1      -2.867   7.685  -0.047  0.00  0.00    -0.166 F 
ENDBRANCH  16  19
ENDBRANCH   3  13
BRANCH   5  23
ATOM     23  C   UNL d   1      -3.527  -1.469   0.064  0.00  0.00     0.007 C 
ATOM     24  C   UNL d   1      -3.942  -1.738  -1.391  0.00  0.00     0.022 C 
ATOM     25  C   UNL d   1      -3.333  -2.815   0.792  0.00  0.00     0.022 C 
ATOM     26  C   UNL d   1      -4.658  -0.705   0.780  0.00  0.00     0.022 C 
ENDBRANCH   5  23
BRANCH   9  27
ATOM     27  C   UNL d   1       1.783   2.828   0.455  0.00  0.00     0.418 C 
ATOM     28  F   UNL d   1       0.809   3.524   1.092  0.00  0.00    -0.166 F 
ATOM     29  F   UNL d   1       2.885   2.973   1.254  0.00  0.00    -0.166 F 
ATOM     30  F   UNL d   1       2.088   3.508  -0.684  0.00  0.00    -0.166 F 
ENDBRANCH   9  27
TORSDOF 4
