REMARK  2 active torsions:
REMARK  status: ('A' for Active; 'I' for Inactive)
REMARK       I    between atoms: C_4  and  N_1 
REMARK    1  A    between atoms: C_11  and  C_3 
REMARK    2  A    between atoms: C_9  and  C_4 
ROOT
ATOM      1  N   UNL d   1      -2.502   0.305  -0.382  0.00  0.00    -0.335 N 
ATOM      2  C   UNL d   1      -0.149   0.755   0.140  0.00  0.00    -0.017 A 
ATOM      3  C   UNL d   1      -1.555   1.312   0.148  0.00  0.00     0.155 C 
ATOM      4  C   UNL d   1      -3.585   0.570  -1.232  0.00  0.00     0.254 C 
ATOM      5  C   UNL d   1       0.128  -0.592   0.006  0.00  0.00    -0.007 A 
ATOM      6  C   UNL d   1      -2.304  -1.092   0.085  0.00  0.00     0.132 C 
ATOM      7  S   UNL d   1       1.793  -0.941  -0.004  0.00  0.00    -0.106 SA
ATOM      8  C   UNL d   1      -0.903  -1.648  -0.208  0.00  0.00     0.067 C 
ATOM      9  C   UNL d   1       1.070   1.516   0.093  0.00  0.00     0.018 A 
ATOM     10  C   UNL d   1       2.193   0.719   0.054  0.00  0.00     0.051 A 
ATOM     11  O   UNL d   1      -4.347  -0.324  -1.599  0.00  0.00    -0.267 OA
ENDROOT
BRANCH   3  12
ATOM     12  C   UNL d   1      -1.880   1.790   1.576  0.00  0.00    -0.031 A 
ATOM     13  C   UNL d   1      -1.142   2.829   2.178  0.00  0.00     0.011 A 
ATOM     14  C   UNL d   1      -1.456   3.318   3.451  0.00  0.00     0.024 A 
ATOM     15  C   UNL d   1      -2.535   2.791   4.152  0.00  0.00     0.034 A 
ATOM     16  C   UNL d   1      -3.309   1.791   3.579  0.00  0.00     0.024 A 
ATOM     17 CL   UNL d   1      -2.928   3.397   5.711  0.00  0.00    -0.084 Cl
ATOM     18  C   UNL d   1      -2.991   1.308   2.301  0.00  0.00     0.011 A 
ENDBRANCH   3  12
BRANCH   4  19
ATOM     19  C   UNL d   1      -3.846   1.935  -1.802  0.00  0.00     0.032 A 
ATOM     20  C   UNL d   1      -4.336   2.003  -3.119  0.00  0.00     0.018 A 
ATOM     21  C   UNL d   1      -4.566   3.238  -3.739  0.00  0.00     0.025 A 
ATOM     22  C   UNL d   1      -4.288   4.417  -3.054  0.00  0.00     0.034 A 
ATOM     23  C   UNL d   1      -3.847   4.370  -1.737  0.00  0.00     0.025 A 
ATOM     24 CL   UNL d   1      -4.513   5.938  -3.824  0.00  0.00    -0.084 Cl
ATOM     25  C   UNL d   1      -3.680   3.134  -1.101  0.00  0.00     0.018 A 
ENDBRANCH   4  19
TORSDOF 2
