REMARK  4 active torsions:
REMARK  status: ('A' for Active; 'I' for Inactive)
REMARK       I    between atoms: C_2  and  N_1 
REMARK    1  A    between atoms: C_10  and  C_2 
REMARK    2  A    between atoms: C_5  and  C_3 
REMARK    3  A    between atoms: C_6  and  C_5 
REMARK       I    between atoms: N_8  and  C_6 
REMARK    4  A    between atoms: C_7  and  N_8 
ROOT
ATOM      1  N   UNL d   1      -1.533  -1.239   0.216  0.00  0.00    -0.333 N 
ATOM      2  C   UNL d   1      -2.344  -2.086   0.978  0.00  0.00     0.254 C 
ATOM      3  C   UNL d   1      -0.051  -1.261   0.360  0.00  0.00     0.188 C 
ATOM      4  C   UNL d   1       0.430  -0.062   1.215  0.00  0.00     0.241 C 
ATOM      5  N   UNL d   1      -0.217   1.137   1.000  0.00  0.00    -0.358 N 
ATOM      6  O   UNL d   1      -1.900  -2.904   1.782  0.00  0.00    -0.267 OA
ATOM      7  O   UNL d   1       1.447  -0.069   1.904  0.00  0.00    -0.271 OA
ATOM      8  C   UNL d   1      -2.000   0.039  -0.351  0.00  0.00     0.147 C 
ATOM      9  C   UNL d   1      -1.593   1.206   0.552  0.00  0.00     0.142 C 
ATOM     10  H   UNL d   1       0.148   1.895   1.565  0.00  0.00     0.162 HD
ENDROOT
BRANCH   3  11
ATOM     11  C   UNL d   1       0.645  -2.549   0.802  0.00  0.00     0.138 C 
BRANCH  11  12
ATOM     12  C   UNL d   1       0.556  -3.615  -0.263  0.00  0.00     0.224 C 
ATOM     13  N   UNL d   1       0.001  -4.797   0.178  0.00  0.00    -0.326 N 
ATOM     14  H   UNL d   1      -0.589  -4.743   1.010  0.00  0.00     0.169 HD
ATOM     15  O   UNL d   1       0.998  -3.407  -1.392  0.00  0.00    -0.273 OA
BRANCH  13  16
ATOM     16  C   UNL d   1       0.097  -6.070  -0.441  0.00  0.00     0.058 A 
ATOM     17  C   UNL d   1       0.985  -6.330  -1.494  0.00  0.00     0.055 A 
ATOM     18  C   UNL d   1       1.115  -7.623  -2.010  0.00  0.00     0.036 A 
ATOM     19 CL   UNL d   1       2.215  -7.924  -3.299  0.00  0.00    -0.084 Cl
ATOM     20  C   UNL d   1       0.374  -8.677  -1.485  0.00  0.00     0.026 A 
ATOM     21  C   UNL d   1      -0.530  -8.432  -0.450  0.00  0.00     0.028 A 
ATOM     22  C   UNL d   1      -0.671  -7.136   0.062  0.00  0.00     0.060 A 
ATOM     23 CL   UNL d   1      -1.834  -6.887   1.320  0.00  0.00    -0.082 Cl
ENDBRANCH  13  16
ENDBRANCH  11  12
ENDBRANCH   3  11
BRANCH   2  24
ATOM     24  C   UNL d   1      -3.825  -2.070   0.816  0.00  0.00     0.032 A 
ATOM     25  C   UNL d   1      -4.433  -1.932  -0.437  0.00  0.00     0.018 A 
ATOM     26  C   UNL d   1      -5.826  -1.905  -0.545  0.00  0.00     0.025 A 
ATOM     27  C   UNL d   1      -6.614  -2.092   0.590  0.00  0.00     0.034 A 
ATOM     28  C   UNL d   1      -6.020  -2.307   1.833  0.00  0.00     0.025 A 
ATOM     29 CL   UNL d   1      -8.327  -2.073   0.450  0.00  0.00    -0.084 Cl
ATOM     30  C   UNL d   1      -4.626  -2.293   1.947  0.00  0.00     0.018 A 
ENDBRANCH   2  24
TORSDOF 4
