REMARK  4 active torsions:
REMARK  status: ('A' for Active; 'I' for Inactive)
REMARK    1  A    between atoms: S_2  and  C_9 
REMARK    2  A    between atoms: C_13  and  S_2 
REMARK    3  A    between atoms: C_9  and  C_8 
REMARK    4  A    between atoms: C_11  and  C_14 
ROOT
ATOM      1  C   UNL d   1      -3.838  -0.105  -0.002  0.00  0.00     0.210 C 
ENDROOT
BRANCH   1   2
ATOM      2  S   UNL d   1      -4.543  -1.745   0.085  0.00  0.00     0.181 S 
ATOM      3  O   UNL d   1      -3.947  -2.470   1.190  0.00  0.00    -0.222 OA
ATOM      4  O   UNL d   1      -5.987  -1.646  -0.043  0.00  0.00    -0.222 OA
BRANCH   2   5
ATOM      5  C   UNL d   1      -3.955  -2.524  -1.411  0.00  0.00     0.060 A 
ATOM      6  C   UNL d   1      -2.744  -3.228  -1.396  0.00  0.00     0.039 A 
ATOM      7  C   UNL d   1      -2.314  -3.906  -2.549  0.00  0.00     0.049 A 
ATOM      8  C   UNL d   1      -3.118  -3.867  -3.701  0.00  0.00     0.016 A 
ATOM      9  C   UNL d   1      -4.330  -3.172  -3.704  0.00  0.00     0.002 A 
ATOM     10  C   UNL d   1      -4.754  -2.503  -2.557  0.00  0.00     0.023 A 
BRANCH   7  11
ATOM     11  C   UNL d   1      -1.023  -4.692  -2.564  0.00  0.00     0.417 C 
ATOM     12  F   UNL d   1      -0.333  -4.625  -1.393  0.00  0.00    -0.166 F 
ATOM     13  F   UNL d   1      -1.221  -6.015  -2.811  0.00  0.00    -0.166 F 
ATOM     14  F   UNL d   1      -0.166  -4.254  -3.527  0.00  0.00    -0.166 F 
ENDBRANCH   7  11
ENDBRANCH   2   5
ENDBRANCH   1   2
BRANCH   1  15
ATOM     15  C   UNL d   1      -4.266   0.674   1.189  0.00  0.00     0.069 A 
ATOM     16  C   UNL d   1      -5.493   1.047   1.703  0.00  0.00     0.051 A 
ATOM     17  C   UNL d   1      -5.235   1.821   2.865  0.00  0.00     0.045 A 
ATOM     18  C   UNL d   1      -3.850   1.883   2.981  0.00  0.00     0.131 A 
ATOM     19  C   UNL d   1      -6.009   2.482   3.833  0.00  0.00     0.171 A 
ATOM     20  C   UNL d   1      -3.196   2.566   4.004  0.00  0.00     0.192 A 
ATOM     21  O   UNL d   1      -3.264   1.195   1.960  0.00  0.00    -0.310 OA
ATOM     22  F   UNL d   1      -1.860   2.610   4.080  0.00  0.00    -0.200 F 
ATOM     23  C   UNL d   1      -3.988   3.214   4.950  0.00  0.00     0.199 A 
ATOM     24  C   UNL d   1      -5.376   3.174   4.867  0.00  0.00     0.197 A 
ATOM     25  F   UNL d   1      -3.404   3.892   5.949  0.00  0.00    -0.199 F 
ATOM     26  F   UNL d   1      -6.114   3.812   5.787  0.00  0.00    -0.199 F 
ATOM     27  F   UNL d   1      -7.348   2.460   3.762  0.00  0.00    -0.202 F 
ENDBRANCH   1  15
TORSDOF 4
