REMARK  5 active torsions:
REMARK  status: ('A' for Active; 'I' for Inactive)
REMARK    1  A    between atoms: N_7  and  C_1 
REMARK    2  A    between atoms: N_10  and  C_1 
REMARK    3  A    between atoms: C_2  and  N_8 
REMARK    4  A    between atoms: C_3  and  C_4 
REMARK    5  A    between atoms: C_18  and  N_10 
ROOT
ATOM      1  N   UNL d   1       0.518  -0.949  -0.966  0.00  0.00    -0.355 N 
ATOM      2  N   UNL d   1      -0.276  -2.640  -3.082  0.00  0.00    -0.363 N 
ATOM      3  C   UNL d   1       1.026  -2.333  -1.058  0.00  0.00     0.145 C 
ATOM      4  C   UNL d   1      -0.716  -0.661  -1.738  0.00  0.00     0.145 C 
ATOM      5  C   UNL d   1       1.059  -2.842  -2.507  0.00  0.00     0.144 C 
ATOM      6  C   UNL d   1      -0.652  -1.225  -3.177  0.00  0.00     0.144 C 
ENDROOT
BRANCH   2   7
ATOM      7  C   UNL d   1      -0.881  -3.578  -3.885  0.00  0.00     0.125 A 
ATOM      8  N   UNL d   1      -1.379  -3.152  -5.073  0.00  0.00    -0.350 N 
ATOM      9  C   UNL d   1      -2.014  -4.038  -5.879  0.00  0.00     0.106 A 
ATOM     10  HN  UNL d   1      -1.277  -2.178  -5.356  1.00  0.00     0.166 HD
ATOM     11  C   UNL d   1      -2.198  -5.374  -5.571  0.00  0.00     0.065 A 
ATOM     12  C   UNL d   1      -1.714  -5.813  -4.340  0.00  0.00     0.045 A 
ATOM     13  C   UNL d   1      -1.063  -4.918  -3.489  0.00  0.00     0.078 A 
ATOM     14 CL   UNL d   1      -0.653  -5.521  -1.917  0.00  0.00    -0.080 Cl
BRANCH  11  15
ATOM     15  C   UNL d   1      -2.914  -6.278  -6.519  0.00  0.00     0.418 C 
ATOM     16  F   UNL d   1      -2.975  -7.571  -6.090  0.00  0.00    -0.166 F 
ATOM     17  F   UNL d   1      -4.203  -5.898  -6.734  0.00  0.00    -0.166 F 
ATOM     18  F   UNL d   1      -2.325  -6.323  -7.744  0.00  0.00    -0.166 F 
ENDBRANCH  11  15
ENDBRANCH   2   7
BRANCH   1  19
ATOM     19  C   UNL d   1       1.028  -0.048  -0.058  0.00  0.00     0.174 C 
ATOM     20  S   UNL d   1       2.654   0.347   0.012  0.00  0.00    -0.041 SA
BRANCH  19  21
ATOM     21  N   UNL d   1       0.144   0.663   0.709  0.00  0.00    -0.333 N 
ATOM     22  H   UNL d   1       0.491   1.550   1.055  0.00  0.00     0.168 HD
BRANCH  21  23
ATOM     23  C   UNL d   1      -1.038   0.184   1.317  0.00  0.00     0.034 A 
ATOM     24  C   UNL d   1      -1.276  -1.177   1.524  0.00  0.00     0.036 A 
ATOM     25  C   UNL d   1      -2.477  -1.627   2.094  0.00  0.00    -0.060 A 
ATOM     26  C   UNL d   1      -2.739  -3.092   2.269  0.00  0.00     0.048 C 
ATOM     27  C   UNL d   1      -3.441  -0.684   2.465  0.00  0.00     0.007 A 
ATOM     28  C   UNL d   1      -3.187   0.679   2.310  0.00  0.00     0.003 A 
ATOM     29  C   UNL d   1      -1.979   1.115   1.756  0.00  0.00     0.029 A 
ENDBRANCH  21  23
ENDBRANCH  19  21
ENDBRANCH   1  19
TORSDOF 5
