REMARK  3 active torsions:
REMARK  status: ('A' for Active; 'I' for Inactive)
REMARK    1  A    between atoms: C_3  and  C_1 
REMARK    2  A    between atoms: C_11  and  C_2 
REMARK    3  A    between atoms: C_15  and  C_12 
ROOT
ATOM      1  C   UNL d   1      -2.688   1.531   0.005  0.00  0.00     0.194 A 
ATOM      2  O   UNL d   1      -3.018   2.542  -0.860  0.00  0.00    -0.271 OA
ATOM      3  N   UNL d   1      -3.637   1.332   0.902  0.00  0.00    -0.276 N 
ATOM      4  HN  UNL d   1      -3.630   0.636   1.648  1.00  0.00     0.189 HD
ATOM      5  N   UNL d   1      -4.641   2.244   0.640  0.00  0.00    -0.277 N 
ATOM      6  HN  UNL d   1      -5.512   2.361   1.158  1.00  0.00     0.189 HD
ATOM      7  C   UNL d   1      -4.249   2.933  -0.411  0.00  0.00     0.174 A 
ENDROOT
BRANCH   1   8
ATOM      8  C   UNL d   1      -1.431   0.734  -0.084  0.00  0.00     0.126 A 
ATOM      9  C   UNL d   1      -0.375   0.958  -0.940  0.00  0.00     0.192 A 
ATOM     10  O   UNL d   1       0.541  -0.048  -0.726  0.00  0.00    -0.291 OA
ATOM     11  C   UNL d   1      -0.015  -0.814   0.258  0.00  0.00     0.121 A 
ATOM     12  N   UNL d   1      -1.178  -0.381   0.690  0.00  0.00    -0.335 N 
ATOM     13  C   UNL d   1       0.746  -2.011   0.669  0.00  0.00     0.098 C 
ATOM     14  HN  UNL d   1      -1.760  -0.778   1.427  1.00  0.00     0.168 HD
BRANCH   9  15
ATOM     15  C   UNL d   1      -0.035   1.956  -1.967  0.00  0.00     0.442 C 
ATOM     16  F   UNL d   1      -0.836   3.051  -1.951  0.00  0.00    -0.164 F 
ATOM     17  F   UNL d   1       1.234   2.420  -1.819  0.00  0.00    -0.164 F 
ATOM     18  F   UNL d   1      -0.117   1.437  -3.218  0.00  0.00    -0.164 F 
ENDBRANCH   9  15
ENDBRANCH   1   8
BRANCH   7  19
ATOM     19  C   UNL d   1      -4.920   3.993  -1.152  0.00  0.00     0.017 A 
ATOM     20  C   UNL d   1      -4.347   4.561  -2.303  0.00  0.00     0.017 A 
ATOM     21  C   UNL d   1      -5.017   5.562  -3.014  0.00  0.00     0.025 A 
ATOM     22  C   UNL d   1      -6.260   6.010  -2.577  0.00  0.00     0.034 A 
ATOM     23  C   UNL d   1      -6.842   5.463  -1.437  0.00  0.00     0.025 A 
ATOM     24 CL   UNL d   1      -7.082   7.239  -3.453  0.00  0.00    -0.084 Cl
ATOM     25  C   UNL d   1      -6.173   4.458  -0.727  0.00  0.00     0.017 A 
ENDBRANCH   7  19
TORSDOF 3
