REMARK  3 active torsions:
REMARK  status: ('A' for Active; 'I' for Inactive)
REMARK       I    between atoms: N_2  and  C_1 
REMARK       I    between atoms: N_4  and  C_1 
REMARK    1  A    between atoms: C_5  and  N_3 
REMARK    2  A    between atoms: C_12  and  N_4 
REMARK    3  A    between atoms: O_19  and  C_11 
ROOT
ATOM      1  C   UNL d   1       1.173   0.002   0.079  0.00  0.00     0.323 C 
ATOM      2  N   UNL d   1       0.559   1.251   0.253  0.00  0.00    -0.331 N 
ATOM      3  N   UNL d   1      -0.881   3.744   0.076  0.00  0.00    -0.376 N 
ATOM      4  N   UNL d   1       0.673  -1.000   0.880  0.00  0.00    -0.309 N 
ATOM      5  O   UNL d   1       2.082  -0.151  -0.738  0.00  0.00    -0.247 OA
ATOM      6  C   UNL d   1       0.947   2.290  -0.727  0.00  0.00     0.147 C 
ATOM      7  C   UNL d   1      -0.800   1.407   0.799  0.00  0.00     0.147 C 
ATOM      8  C   UNL d   1       0.532   3.732  -0.346  0.00  0.00     0.143 C 
ATOM      9  C   UNL d   1      -1.130   2.848   1.210  0.00  0.00     0.143 C 
ATOM     10  H   UNL d   1       0.077  -0.715   1.635  0.00  0.00     0.170 HD
ENDROOT
BRANCH   4  11
ATOM     11  C   UNL d   1       1.004  -2.371   0.888  0.00  0.00     0.036 A 
ATOM     12  C   UNL d   1       1.924  -2.965   0.023  0.00  0.00     0.031 A 
ATOM     13  C   UNL d   1       2.196  -4.336   0.111  0.00  0.00     0.026 A 
ATOM     14  C   UNL d   1       1.540  -5.119   1.058  0.00  0.00     0.034 A 
ATOM     15  C   UNL d   1       0.611  -4.542   1.919  0.00  0.00     0.026 A 
ATOM     16 CL   UNL d   1       1.876  -6.801   1.165  0.00  0.00    -0.084 Cl
ATOM     17  C   UNL d   1       0.346  -3.173   1.833  0.00  0.00     0.031 A 
ENDBRANCH   4  11
BRANCH   3  18
ATOM     18  C   UNL d   1      -1.631   4.915  -0.041  0.00  0.00     0.064 A 
ATOM     19  C   UNL d   1      -1.846   5.567  -1.277  0.00  0.00     0.094 A 
ATOM     20  C   UNL d   1      -2.721   6.659  -1.386  0.00  0.00     0.039 A 
ATOM     21  C   UNL d   1      -3.407   7.131  -0.271  0.00  0.00     0.003 A 
ATOM     22  C   UNL d   1      -3.181   6.545   0.966  0.00  0.00     0.002 A 
ATOM     23  C   UNL d   1      -2.302   5.462   1.073  0.00  0.00     0.032 A 
BRANCH  19  24
ATOM     24  O   UNL d   1      -1.198   5.241  -2.444  0.00  0.00    -0.354 OA
ATOM     25  C   UNL d   1      -1.537   3.953  -2.947  0.00  0.00     0.210 C 
ENDBRANCH  19  24
ENDBRANCH   3  18
TORSDOF 3
