REMARK  2 active torsions:
REMARK  status: ('A' for Active; 'I' for Inactive)
REMARK    1  A    between atoms: O_9  and  C_3 
REMARK    2  A    between atoms: O_10  and  C_4 
ROOT
ATOM      1  N   UNL d   1       2.450  -0.584   0.059  0.00  0.00    -0.277 N 
ATOM      2  HN  UNL d   1       3.351  -1.062   0.077  1.00  0.00     0.189 HD
ATOM      3  C   UNL d   1       2.383   0.752   0.033  0.00  0.00     0.190 A 
ATOM      4  C   UNL d   1       1.198   1.456   0.011  0.00  0.00     0.130 A 
ATOM      5  N   UNL d   1       1.281  -1.292   0.062  0.00  0.00    -0.298 N 
ATOM      6  HN  UNL d   1       1.311  -2.311   0.090  1.00  0.00     0.187 HD
ATOM      7  C   UNL d   1      -0.002   0.741   0.002  0.00  0.00     0.029 A 
ATOM      8  C   UNL d   1       0.086  -0.665   0.029  0.00  0.00     0.061 A 
ATOM      9  C   UNL d   1      -1.268   1.363  -0.040  0.00  0.00     0.017 A 
ATOM     10  C   UNL d   1      -1.092  -1.403   0.015  0.00  0.00     0.032 A 
ATOM     11  C   UNL d   1      -2.434   0.600  -0.061  0.00  0.00     0.001 A 
ATOM     12  C   UNL d   1      -2.346  -0.786  -0.034  0.00  0.00     0.002 A 
ENDROOT
BRANCH   3  13
ATOM     13  O   UNL d   1       3.575   1.414   0.013  0.00  0.00    -0.343 OA
ATOM     14  H   UNL d   1       4.200   0.666   0.000  0.00  0.00     0.219 HD
ENDBRANCH   3  13
BRANCH   4  15
ATOM     15  O   UNL d   1       1.208   2.826  -0.011  0.00  0.00    -0.356 OA
ATOM     16  H   UNL d   1       2.151   3.087   0.002  0.00  0.00     0.218 HD
ENDBRANCH   4  15
TORSDOF 2
