REMARK  4 active torsions:
REMARK  status: ('A' for Active; 'I' for Inactive)
REMARK    1  A    between atoms: N_2  and  C_1 
REMARK    2  A    between atoms: N_6  and  C_3 
REMARK    3  A    between atoms: C_4  and  O_10 
REMARK       I    between atoms: C_8  and  N_6 
REMARK    4  A    between atoms: O_10  and  C_11 
ROOT
ATOM      1  C   UNL d   1       1.449  -0.084   0.234  0.00  0.00     0.132 A 
ATOM      2  C   UNL d   1       0.678  -1.256   0.259  0.00  0.00     0.068 A 
ATOM      3  C   UNL d   1       0.852   1.187   0.140  0.00  0.00     0.075 A 
ATOM      4  C   UNL d   1      -0.534   1.306   0.029  0.00  0.00     0.080 A 
ATOM      5  C   UNL d   1      -0.715  -1.107   0.191  0.00  0.00     0.035 A 
ATOM      6  C   UNL d   1      -1.312   0.159   0.088  0.00  0.00     0.039 A 
ENDROOT
BRANCH   2   7
ATOM      7  N   UNL d   1       1.281  -2.539   0.318  0.00  0.00    -0.325 N 
ATOM      8  C   UNL d   1       0.691  -3.710   0.749  0.00  0.00     0.218 C 
ATOM      9  O   UNL d   1      -0.425  -3.806   1.244  0.00  0.00    -0.274 OA
ATOM     10  C   UNL d   1       1.565  -4.925   0.576  0.00  0.00     0.117 C 
ATOM     11  H   UNL d   1       2.285  -2.572   0.135  0.00  0.00     0.169 HD
ENDBRANCH   2   7
BRANCH   1  12
ATOM     12  N   UNL d   1       2.904  -0.133   0.374  0.00  0.00    -0.113 N 
ATOM     13  O   UNL d   1       3.492  -1.102  -0.129  0.00  0.00    -0.532 OA
ATOM     14  O   UNL d   1       3.456   0.789   0.986  0.00  0.00    -0.532 OA
ENDBRANCH   1  12
BRANCH   4  15
ATOM     15  O   UNL d   1      -0.966   2.593  -0.116  0.00  0.00    -0.255 OA
BRANCH  15  16
ATOM     16  C   UNL d   1      -2.273   2.820  -0.627  0.00  0.00     0.530 C 
ATOM     17  F   UNL d   1      -2.636   1.908  -1.549  0.00  0.00    -0.144 F 
ATOM     18  F   UNL d   1      -3.166   2.827   0.382  0.00  0.00    -0.144 F 
ATOM     19  F   UNL d   1      -2.286   4.036  -1.217  0.00  0.00    -0.144 F 
ENDBRANCH  15  16
ENDBRANCH   4  15
TORSDOF 4
