REMARK  5 active torsions:
REMARK  status: ('A' for Active; 'I' for Inactive)
REMARK    1  A    between atoms: C_11  and  C_2 
REMARK    2  A    between atoms: N_10  and  C_5 
REMARK    3  A    between atoms: C_14  and  N_10 
REMARK    4  A    between atoms: N_13  and  C_21 
REMARK    5  A    between atoms: C_21  and  C_23 
ROOT
ATOM      1  C   UNL d   1       7.001  -6.056  -1.185  0.00  0.00     0.172 C 
ATOM      2  S   UNL d   1       8.589  -5.631  -0.876  0.00  0.00    -0.041 SA
ATOM      3  N   UNL d   1       5.921  -5.239  -1.038  0.00  0.00    -0.363 N 
ATOM      4  H   UNL d   1       5.176  -5.386  -1.707  0.00  0.00     0.162 HD
ENDROOT
BRANCH   3   5
ATOM      5  C   UNL d   1       5.908  -3.980  -0.307  0.00  0.00     0.160 C 
BRANCH   5   6
ATOM      6  C   UNL d   1       4.597  -3.246  -0.440  0.00  0.00    -0.041 A 
ATOM      7  C   UNL d   1       3.382  -3.850  -0.088  0.00  0.00     0.010 A 
ATOM      8  C   UNL d   1       2.175  -3.151  -0.204  0.00  0.00     0.014 A 
ATOM      9  C   UNL d   1       2.157  -1.825  -0.655  0.00  0.00    -0.008 A 
ATOM     10  C   UNL d   1       3.372  -1.217  -0.993  0.00  0.00     0.014 A 
ATOM     11  C   UNL d   1       4.578  -1.919  -0.885  0.00  0.00     0.010 A 
BRANCH   9  12
ATOM     12  C   UNL d   1       0.912  -1.078  -0.790  0.00  0.00     0.063 A 
ATOM     13  N   UNL d   1       0.792  -0.039  -1.709  0.00  0.00    -0.292 N 
ATOM     14  N   UNL d   1      -0.413   0.504  -1.689  0.00  0.00    -0.061 NA
ATOM     15  HN  UNL d   1       1.546   0.266  -2.325  1.00  0.00     0.183 HD
ATOM     16  S   UNL d   1      -1.424  -0.200  -0.560  0.00  0.00    -0.010 SA
ATOM     17  C   UNL d   1      -0.226  -1.310  -0.035  0.00  0.00     0.096 A 
ENDBRANCH   9  12
ENDBRANCH   5   6
ENDBRANCH   3   5
BRANCH   1  18
ATOM     18  N   UNL d   1       6.770  -7.328  -1.631  0.00  0.00    -0.333 N 
ATOM     19  H   UNL d   1       7.628  -7.787  -1.924  0.00  0.00     0.168 HD
BRANCH  18  20
ATOM     20  C   UNL d   1       5.705  -8.209  -1.328  0.00  0.00     0.035 A 
ATOM     21  C   UNL d   1       4.582  -7.864  -0.577  0.00  0.00     0.055 A 
ATOM     22  C   UNL d   1       3.641  -8.829  -0.199  0.00  0.00     0.058 A 
ATOM     23 CL   UNL d   1       2.290  -8.301   0.743  0.00  0.00    -0.082 Cl
ATOM     24  C   UNL d   1       3.827 -10.166  -0.560  0.00  0.00     0.055 A 
ATOM     25  C   UNL d   1       4.938 -10.521  -1.326  0.00  0.00     0.028 A 
ATOM     26 CL   UNL d   1       2.748 -11.419  -0.066  0.00  0.00    -0.083 Cl
ATOM     27  C   UNL d   1       5.865  -9.546  -1.716  0.00  0.00     0.031 A 
ENDBRANCH  18  20
ENDBRANCH   1  18
TORSDOF 5
