REMARK  3 active torsions:
REMARK  status: ('A' for Active; 'I' for Inactive)
REMARK    1  A    between atoms: C_8  and  N_1 
REMARK    2  A    between atoms: C_3  and  C_2 
REMARK    3  A    between atoms: C_9  and  C_10 
ROOT
ATOM      1  N   UNL d   1      -0.205  -1.311   0.009  0.00  0.00    -0.222 N 
ATOM      2  C   UNL d   1       1.048  -0.689  -0.061  0.00  0.00     0.151 A 
ATOM      3  N   UNL d   1      -1.149  -0.347  -0.106  0.00  0.00     0.001 NA
ATOM      4  N   UNL d   1      -0.506   0.803  -0.193  0.00  0.00    -0.007 NA
ATOM      5  N   UNL d   1       0.844   0.612  -0.177  0.00  0.00    -0.269 N 
ATOM      6  HN  UNL d   1       1.561   1.336  -0.241  1.00  0.00     0.185 HD
ENDROOT
BRANCH   2   7
ATOM      7  C   UNL d   1       2.366  -1.318  -0.149  0.00  0.00     0.041 A 
ATOM      8  C   UNL d   1       3.502  -0.841   0.532  0.00  0.00     0.064 A 
ATOM      9  C   UNL d   1       4.733  -1.500   0.334  0.00  0.00     0.034 A 
ATOM     10  C   UNL d   1       4.793  -2.598  -0.503  0.00  0.00     0.088 A 
ATOM     11  N   UNL d   1       3.726  -3.072  -1.167  0.00  0.00    -0.374 N 
ATOM     12  C   UNL d   1       2.556  -2.414  -0.997  0.00  0.00     0.103 A 
ATOM     13  HN  UNL d   1       3.794  -3.891  -1.771  1.00  0.00     0.164 HD
BRANCH   8  14
ATOM     14  C   UNL d   1       3.509   0.364   1.444  0.00  0.00     0.418 C 
ATOM     15  F   UNL d   1       2.314   0.677   2.004  0.00  0.00    -0.166 F 
ATOM     16  F   UNL d   1       4.349   0.176   2.507  0.00  0.00    -0.166 F 
ATOM     17  F   UNL d   1       3.965   1.484   0.820  0.00  0.00    -0.166 F 
ENDBRANCH   8  14
ENDBRANCH   2   7
BRANCH   1  18
ATOM     18  C   UNL d   1      -0.555  -2.671   0.231  0.00  0.00     0.078 A 
ATOM     19  C   UNL d   1      -1.705  -3.244  -0.341  0.00  0.00     0.062 A 
ATOM     20 CL   UNL d   1      -2.761  -2.436  -1.447  0.00  0.00    -0.082 Cl
ATOM     21  C   UNL d   1      -1.993  -4.599  -0.117  0.00  0.00     0.026 A 
ATOM     22  C   UNL d   1      -1.155  -5.386   0.670  0.00  0.00     0.002 A 
ATOM     23  C   UNL d   1      -0.026  -4.820   1.252  0.00  0.00     0.002 A 
ATOM     24  C   UNL d   1       0.272  -3.471   1.042  0.00  0.00     0.033 A 
ENDBRANCH   1  18
TORSDOF 3
