REMARK  3 active torsions:
REMARK  status: ('A' for Active; 'I' for Inactive)
REMARK    1  A    between atoms: C_7  and  C_1 
REMARK    2  A    between atoms: O_8  and  C_4 
REMARK    3  A    between atoms: O_9  and  C_5 
ROOT
ATOM      1  C   UNL d   1      -0.250  -1.324   0.031  0.00  0.00     0.087 A 
ATOM      2  N   UNL d   1      -0.484   0.946  -0.285  0.00  0.00    -0.236 N 
ATOM      3  HN  UNL d   1      -0.867   1.852  -0.554  1.00  0.00     0.197 HD
ATOM      4  C   UNL d   1       0.861  -0.665   0.520  0.00  0.00     0.220 A 
ATOM      5  C   UNL d   1      -1.020  -0.255  -0.467  0.00  0.00     0.176 A 
ATOM      6  O   UNL d   1       0.723   0.681   0.358  0.00  0.00    -0.209 OA
ENDROOT
BRANCH   1   7
ATOM      7  C   UNL d   1      -0.482  -2.760   0.038  0.00  0.00    -0.017 A 
ATOM      8  C   UNL d   1      -0.017  -3.572   1.083  0.00  0.00     0.012 A 
ATOM      9  C   UNL d   1      -0.241  -4.952   1.072  0.00  0.00     0.001 A 
ATOM     10  C   UNL d   1      -0.958  -5.534   0.030  0.00  0.00     0.000 A 
ATOM     11  C   UNL d   1      -1.450  -4.739  -1.001  0.00  0.00     0.001 A 
ATOM     12  C   UNL d   1      -1.209  -3.360  -0.999  0.00  0.00     0.012 A 
ENDBRANCH   1   7
BRANCH   4  13
ATOM     13  O   UNL d   1       2.013  -1.021   1.071  0.00  0.00    -0.339 OA
ATOM     14  H   UNL d   1       2.095  -1.982   0.958  0.00  0.00     0.220 HD
ENDBRANCH   4  13
BRANCH   5  15
ATOM     15  O   UNL d   1      -2.205  -0.269  -1.084  0.00  0.00    -0.344 OA
ATOM     16  H   UNL d   1      -2.417   0.662  -1.263  0.00  0.00     0.219 HD
ENDBRANCH   5  15
TORSDOF 3
