REMARK  6 active torsions:
REMARK  status: ('A' for Active; 'I' for Inactive)
REMARK    1  A    between atoms: C_5  and  N_1 
REMARK    2  A    between atoms: N_6  and  C_2 
REMARK    3  A    between atoms: C_3  and  O_13 
REMARK       I    between atoms: C_4  and  N_7 
REMARK       I    between atoms: N_10  and  C_4 
REMARK    4  A    between atoms: N_7  and  N_6 
REMARK    5  A    between atoms: C_20  and  N_10 
REMARK    6  A    between atoms: O_13  and  C_21 
ROOT
ATOM      1  C   UNL d   1       1.383  -1.077   3.368  0.00  0.00     0.335 C 
ATOM      2  N   UNL d   1       0.424  -1.058   2.391  0.00  0.00    -0.267 N 
ATOM      3  N   UNL d   1       2.521  -0.349   3.141  0.00  0.00    -0.308 N 
ATOM      4  O   UNL d   1       1.299  -1.777   4.380  0.00  0.00    -0.246 OA
ATOM      5  H   UNL d   1       0.744  -0.937   1.429  0.00  0.00     0.186 HD
ATOM      6  H   UNL d   1       3.264  -0.622   3.773  0.00  0.00     0.170 HD
ENDROOT
BRANCH   2   7
ATOM      7  N   UNL d   1      -0.584  -2.057   2.475  0.00  0.00    -0.184 NA
ATOM      8  H   UNL d   1      -0.294  -2.809   3.108  0.00  0.00     0.154 HD
BRANCH   7   9
ATOM      9  C   UNL d   1      -0.927  -2.572   1.202  0.00  0.00     0.126 A 
ATOM     10  C   UNL d   1      -1.864  -3.607   1.039  0.00  0.00     0.078 A 
ATOM     11  C   UNL d   1      -2.100  -4.080  -0.265  0.00  0.00     0.035 A 
ATOM     12  C   UNL d   1      -1.450  -3.503  -1.351  0.00  0.00     0.019 A 
ATOM     13  C   UNL d   1      -0.566  -2.476  -1.105  0.00  0.00     0.089 A 
ATOM     14  N   UNL d   1      -0.290  -2.010   0.131  0.00  0.00    -0.354 N 
ATOM     15  HN  UNL d   1       0.380  -1.252   0.264  1.00  0.00     0.166 HD
BRANCH  10  16
ATOM     16  N   UNL d   1      -2.605  -4.178   2.119  0.00  0.00    -0.330 N 
ATOM     17  C   UNL d   1      -2.893  -3.609   3.345  0.00  0.00     0.097 A 
ATOM     18  C   UNL d   1      -3.642  -4.484   4.099  0.00  0.00     0.019 A 
ATOM     19  C   UNL d   1      -3.848  -5.635   3.317  0.00  0.00     0.019 A 
ATOM     20  C   UNL d   1      -3.213  -5.424   2.112  0.00  0.00     0.097 A 
ENDBRANCH  10  16
ENDBRANCH   7   9
ENDBRANCH   2   7
BRANCH   3  21
ATOM     21  C   UNL d   1       2.857   0.494   2.070  0.00  0.00     0.036 A 
ATOM     22  C   UNL d   1       1.932   1.280   1.377  0.00  0.00     0.032 A 
ATOM     23  C   UNL d   1       2.332   2.053   0.278  0.00  0.00     0.039 A 
ATOM     24  C   UNL d   1       3.667   2.054  -0.129  0.00  0.00     0.078 A 
ATOM     25  C   UNL d   1       4.592   1.288   0.583  0.00  0.00     0.039 A 
ATOM     26  C   UNL d   1       4.199   0.536   1.690  0.00  0.00     0.032 A 
BRANCH  24  27
ATOM     27  O   UNL d   1       4.200   2.741  -1.180  0.00  0.00    -0.255 OA
BRANCH  27  28
ATOM     28  C   UNL d   1       3.380   3.686  -1.843  0.00  0.00     0.530 C 
ATOM     29  F   UNL d   1       2.856   4.579  -0.977  0.00  0.00    -0.144 F 
ATOM     30  F   UNL d   1       4.138   4.362  -2.734  0.00  0.00    -0.144 F 
ATOM     31  F   UNL d   1       2.384   3.071  -2.517  0.00  0.00    -0.144 F 
ENDBRANCH  27  28
ENDBRANCH  24  27
ENDBRANCH   3  21
TORSDOF 6
