REMARK  5 active torsions:
REMARK  status: ('A' for Active; 'I' for Inactive)
REMARK    1  A    between atoms: C_8  and  C_3 
REMARK    2  A    between atoms: O_9  and  C_4 
REMARK    3  A    between atoms: O_17  and  C_8 
REMARK    4  A    between atoms: C_10  and  O_9 
REMARK    5  A    between atoms: C_20  and  O_17 
ROOT
ATOM      1  N   UNL d   1       1.257   0.186   0.021  0.00  0.00    -0.294 N 
ATOM      2  HN  UNL d   1       2.259   0.356   0.114  1.00  0.00     0.171 HD
ATOM      3  C   UNL d   1       0.236   1.092  -0.221  0.00  0.00     0.206 A 
ATOM      4  C   UNL d   1       0.602  -0.941   0.101  0.00  0.00     0.294 A 
ATOM      5  N   UNL d   1      -0.989   0.533  -0.275  0.00  0.00    -0.235 N 
ATOM      6  HN  UNL d   1      -1.887   0.993  -0.426  1.00  0.00     0.197 HD
ATOM      7  O   UNL d   1      -0.739  -0.829  -0.075  0.00  0.00    -0.192 OA
ENDROOT
BRANCH   4   8
ATOM      8  O   UNL d   1       1.061  -2.165   0.336  0.00  0.00    -0.271 OA
BRANCH   8   9
ATOM      9  C   UNL d   1       2.339  -2.348   0.810  0.00  0.00     0.101 A 
ATOM     10  C   UNL d   1       3.124  -3.372   0.265  0.00  0.00     0.069 A 
ATOM     11  C   UNL d   1       4.405  -3.620   0.763  0.00  0.00     0.050 A 
ATOM     12 CL   UNL d   1       2.543  -4.348  -1.035  0.00  0.00    -0.081 Cl
ATOM     13  C   UNL d   1       4.894  -2.850   1.815  0.00  0.00     0.035 A 
ATOM     14  C   UNL d   1       4.117  -1.837   2.375  0.00  0.00     0.026 A 
ATOM     15 CL   UNL d   1       6.469  -3.155   2.438  0.00  0.00    -0.084 Cl
ATOM     16  C   UNL d   1       2.835  -1.592   1.881  0.00  0.00     0.041 A 
ENDBRANCH   8   9
ENDBRANCH   4   8
BRANCH   3  17
ATOM     17  C   UNL d   1       0.461   2.526  -0.431  0.00  0.00     0.329 C 
ATOM     18  O   UNL d   1      -0.431   3.349  -0.618  0.00  0.00    -0.256 OA
BRANCH  17  19
ATOM     19  O   UNL d   1       1.796   2.836  -0.429  0.00  0.00    -0.316 OA
BRANCH  19  20
ATOM     20  C   UNL d   1       2.132   4.178  -0.803  0.00  0.00     0.175 C 
ATOM     21  C   UNL d   1       2.213   4.276  -2.316  0.00  0.00     0.034 C 
ENDBRANCH  19  20
ENDBRANCH  17  19
ENDBRANCH   3  17
TORSDOF 5
