REMARK  4 active torsions:
REMARK  status: ('A' for Active; 'I' for Inactive)
REMARK    1  A    between atoms: C_9  and  C_7 
REMARK    2  A    between atoms: C_11  and  C_8 
REMARK    3  A    between atoms: N_14  and  C_10 
REMARK    4  A    between atoms: C_12  and  N_14 
ROOT
ATOM      1  N   UNL d   1      -3.730   4.415   0.144  0.00  0.00    -0.246 N 
ATOM      2  HN  UNL d   1      -4.390   5.142   0.423  1.00  0.00     0.208 HD
ATOM      3  N   UNL d   1      -3.917   3.043   0.394  0.00  0.00    -0.288 N 
ATOM      4  HN  UNL d   1      -4.709   2.613   0.871  1.00  0.00     0.188 HD
ATOM      5  N   UNL d   1      -2.652   4.639  -0.463  0.00  0.00    -0.307 N 
ATOM      6  HN  UNL d   1      -2.319   5.565  -0.730  1.00  0.00     0.182 HD
ATOM      7  C   UNL d   1      -2.891   2.436  -0.098  0.00  0.00     0.057 A 
ATOM      8  C   UNL d   1      -1.937   3.386  -0.737  0.00  0.00     0.185 A 
ENDROOT
BRANCH   7   9
ATOM      9  C   UNL d   1      -2.634   0.983  -0.067  0.00  0.00     0.046 C 
ATOM     10  C   UNL d   1      -3.632   0.094  -0.079  0.00  0.00     0.090 C 
BRANCH  10  11
ATOM     11  N   UNL d   1      -4.977   0.331  -0.165  0.00  0.00    -0.364 N 
ATOM     12  H   UNL d   1      -5.267   1.307  -0.248  0.00  0.00     0.165 HD
BRANCH  11  13
ATOM     13  C   UNL d   1      -6.043  -0.575   0.012  0.00  0.00     0.053 A 
ATOM     14  C   UNL d   1      -7.297  -0.321  -0.580  0.00  0.00     0.060 A 
ATOM     15 CL   UNL d   1      -7.571   1.123  -1.495  0.00  0.00    -0.082 Cl
ATOM     16  C   UNL d   1      -8.350  -1.234  -0.465  0.00  0.00     0.026 A 
ATOM     17  C   UNL d   1      -8.168  -2.419   0.245  0.00  0.00     0.002 A 
ATOM     18  C   UNL d   1      -6.935  -2.692   0.830  0.00  0.00     0.002 A 
ATOM     19  C   UNL d   1      -5.879  -1.785   0.702  0.00  0.00     0.031 A 
ENDBRANCH  11  13
ENDBRANCH  10  11
ENDBRANCH   7   9
BRANCH   8  20
ATOM     20  C   UNL d   1      -0.538   3.366  -0.165  0.00  0.00    -0.028 A 
ATOM     21  C   UNL d   1      -0.314   3.488   1.217  0.00  0.00     0.011 A 
ATOM     22  C   UNL d   1       0.984   3.469   1.732  0.00  0.00     0.019 A 
ATOM     23  C   UNL d   1       2.068   3.338   0.868  0.00  0.00     0.011 A 
ATOM     24  C   UNL d   1       1.866   3.222  -0.505  0.00  0.00     0.019 A 
ATOM     25 BR   UNL d   1       3.825   3.329   1.562  0.00  0.00    -0.051 Br
ATOM     26  C   UNL d   1       0.567   3.237  -1.020  0.00  0.00     0.011 A 
ENDBRANCH   8  20
TORSDOF 4
