REMARK  4 active torsions:
REMARK  status: ('A' for Active; 'I' for Inactive)
REMARK    1  A    between atoms: C_2  and  N_1 
REMARK    2  A    between atoms: C_14  and  C_3 
REMARK    3  A    between atoms: C_13  and  O_15 
REMARK    4  A    between atoms: O_15  and  C_14 
ROOT
ATOM      1  C   UNL d   1       0.186  -0.702   0.931  0.00  0.00     0.104 A 
ATOM      2  C   UNL d   1      -0.110  -1.512   3.205  0.00  0.00     0.002 A 
ATOM      3  C   UNL d   1      -1.723  -2.096   1.461  0.00  0.00     0.002 A 
ATOM      4  C   UNL d   1      -1.296  -2.148   2.795  0.00  0.00     0.088 A 
ATOM      5  C   UNL d   1      -0.984  -1.360   0.527  0.00  0.00     0.048 A 
ATOM      6  C   UNL d   1       0.627  -0.777   2.260  0.00  0.00     0.048 A 
ATOM      7  O   UNL d   1      -2.007  -2.844   3.740  0.00  0.00    -0.325 OA
ATOM      8  O   UNL d   1      -3.358  -3.772   2.022  0.00  0.00    -0.362 OA
ATOM      9  C   UNL d   1      -3.325  -3.189   3.316  0.00  0.00     0.345 C 
ATOM     10  C   UNL d   1      -2.981  -2.805   1.051  0.00  0.00     0.212 C 
ENDROOT
BRANCH   2  11
ATOM     11  C   UNL d   1       0.392  -1.623   4.628  0.00  0.00     0.217 C 
BRANCH  11  12
ATOM     12  O   UNL d   1       0.416  -0.325   5.228  0.00  0.00    -0.345 OA
BRANCH  12  13
ATOM     13  C   UNL d   1       0.783  -0.284   6.551  0.00  0.00     0.090 A 
ATOM     14  C   UNL d   1       1.492   0.842   7.004  0.00  0.00     0.069 A 
ATOM     15  C   UNL d   1       1.857   0.964   8.348  0.00  0.00     0.050 A 
ATOM     16 CL   UNL d   1       1.950   2.108   5.921  0.00  0.00    -0.081 Cl
ATOM     17  C   UNL d   1       1.505  -0.035   9.250  0.00  0.00     0.035 A 
ATOM     18  C   UNL d   1       0.786  -1.147   8.822  0.00  0.00     0.026 A 
ATOM     19 CL   UNL d   1       1.942   0.108  10.907  0.00  0.00    -0.084 Cl
ATOM     20  C   UNL d   1       0.420  -1.269   7.478  0.00  0.00     0.040 A 
ENDBRANCH  12  13
ENDBRANCH  11  12
ENDBRANCH   2  11
BRANCH   1  21
ATOM     21  N   UNL d   1       0.960   0.065  -0.056  0.00  0.00    -0.116 N 
ATOM     22  O   UNL d   1       0.506   0.146  -1.205  0.00  0.00    -0.532 OA
ATOM     23  O   UNL d   1       2.023   0.580   0.318  0.00  0.00    -0.532 OA
ENDBRANCH   1  21
TORSDOF 4
