REMARK  4 active torsions:
REMARK  status: ('A' for Active; 'I' for Inactive)
REMARK    1  A    between atoms: O_11  and  C_3 
REMARK    2  A    between atoms: N_9  and  N_4 
REMARK    3  A    between atoms: C_12  and  N_9 
REMARK    4  A    between atoms: O_19  and  C_13 
ROOT
ATOM      1  C   UNL d   1       1.227   1.483  -0.041  0.00  0.00     0.112 A 
ATOM      2  C   UNL d   1      -0.105   0.742   0.059  0.00  0.00     0.233 A 
ATOM      3  C   UNL d   1      -0.096  -0.740  -0.003  0.00  0.00     0.119 A 
ATOM      4  N   UNL d   1       1.323   2.780  -0.148  0.00  0.00    -0.296 N 
ATOM      5  HN  UNL d   1       2.234   3.237  -0.203  1.00  0.00     0.187 HD
ATOM      6  C   UNL d   1       1.056  -1.417  -0.035  0.00  0.00     0.053 A 
ATOM      7  C   UNL d   1       2.461   0.651  -0.024  0.00  0.00     0.006 A 
ATOM      8  C   UNL d   1       2.355  -0.747  -0.018  0.00  0.00    -0.021 A 
ATOM      9  O   UNL d   1      -1.178   1.326   0.202  0.00  0.00    -0.283 OA
ATOM     10  C   UNL d   1       3.724   1.261  -0.023  0.00  0.00     0.015 A 
ATOM     11  C   UNL d   1       3.523  -1.522  -0.005  0.00  0.00     0.012 A 
ATOM     12  C   UNL d   1       4.880   0.478  -0.009  0.00  0.00     0.001 A 
ATOM     13  C   UNL d   1       4.779  -0.911   0.001  0.00  0.00     0.001 A 
ENDROOT
BRANCH   4  14
ATOM     14  N   UNL d   1       0.176   3.503  -0.184  0.00  0.00    -0.300 N 
ATOM     15  H   UNL d   1      -0.700   3.097   0.163  0.00  0.00     0.187 HD
BRANCH  14  16
ATOM     16  C   UNL d   1       0.225   4.908  -0.207  0.00  0.00     0.048 A 
ATOM     17  C   UNL d   1       1.421   5.615  -0.361  0.00  0.00     0.034 A 
ATOM     18  C   UNL d   1       1.426   7.012  -0.429  0.00  0.00     0.039 A 
ATOM     19  C   UNL d   1       0.232   7.730  -0.384  0.00  0.00     0.068 A 
ATOM     20  C   UNL d   1      -0.971   7.040  -0.259  0.00  0.00     0.039 A 
ATOM     21  C   UNL d   1      -0.971   5.639  -0.179  0.00  0.00     0.034 A 
BRANCH  19  22
ATOM     22  O   UNL d   1       0.368   9.090  -0.411  0.00  0.00    -0.356 OA
ATOM     23  C   UNL d   1      -0.709   9.820  -0.985  0.00  0.00     0.210 C 
ENDBRANCH  19  22
ENDBRANCH  14  16
ENDBRANCH   4  14
BRANCH   3  24
ATOM     24  O   UNL d   1      -1.310  -1.402  -0.003  0.00  0.00    -0.357 OA
ATOM     25  H   UNL d   1      -1.991  -0.697   0.046  0.00  0.00     0.218 HD
ENDBRANCH   3  24
TORSDOF 4
