REMARK  8 active torsions:
REMARK  status: ('A' for Active; 'I' for Inactive)
REMARK    1  A    between atoms: N_4  and  C_1 
REMARK    2  A    between atoms: S_2  and  N_4 
REMARK    3  A    between atoms: C_10  and  S_2 
REMARK    4  A    between atoms: C_9  and  C_3 
REMARK    5  A    between atoms: C_14  and  C_5 
REMARK    6  A    between atoms: C_8  and  C_13 
REMARK    7  A    between atoms: O_23  and  C_9 
REMARK    8  A    between atoms: C_27  and  O_23 
ROOT
ATOM      1  C   UNL d   1      -1.779  -0.156   0.299  0.00  0.00     0.081 A 
ATOM      2  C   UNL d   1      -1.375  -1.483   0.316  0.00  0.00     0.080 A 
ATOM      3  C   UNL d   1       0.084  -1.571   0.318  0.00  0.00     0.005 A 
ATOM      4  S   UNL d   1      -0.482   0.935   0.351  0.00  0.00    -0.080 SA
ATOM      5  C   UNL d   1       0.679  -0.314   0.298  0.00  0.00    -0.007 A 
ATOM      6  C   UNL d   1       2.128   0.060   0.235  0.00  0.00     0.057 C 
ENDROOT
BRANCH   1   7
ATOM      7  N   UNL d   1      -3.134   0.274   0.137  0.00  0.00    -0.174 NA
ATOM      8  H   UNL d   1      -3.791  -0.444  -0.176  0.00  0.00     0.146 HD
BRANCH   7   9
ATOM      9  S   UNL d   1      -3.838   1.208   1.358  0.00  0.00     0.246 S 
ATOM     10  O   UNL d   1      -3.079   2.415   1.583  0.00  0.00    -0.206 OA
ATOM     11  O   UNL d   1      -5.256   1.262   1.054  0.00  0.00    -0.206 OA
BRANCH   9  12
ATOM     12  C   UNL d   1      -3.675   0.157   2.790  0.00  0.00     0.074 A 
ATOM     13  C   UNL d   1      -2.736   0.457   3.777  0.00  0.00     0.025 A 
ATOM     14  C   UNL d   1      -2.656  -0.349   4.914  0.00  0.00     0.018 A 
ATOM     15  C   UNL d   1      -3.510  -1.455   5.074  0.00  0.00     0.048 A 
ATOM     16  C   UNL d   1      -4.453  -1.740   4.073  0.00  0.00     0.018 A 
ATOM     17  C   UNL d   1      -4.543  -0.933   2.936  0.00  0.00     0.025 A 
BRANCH  15  18
ATOM     18  C   UNL d   1      -3.422  -2.300   6.324  0.00  0.00     0.417 C 
ATOM     19  F   UNL d   1      -4.235  -3.393   6.301  0.00  0.00    -0.166 F 
ATOM     20  F   UNL d   1      -2.165  -2.775   6.545  0.00  0.00    -0.166 F 
ATOM     21  F   UNL d   1      -3.762  -1.604   7.444  0.00  0.00    -0.166 F 
ENDBRANCH  15  18
ENDBRANCH   9  12
ENDBRANCH   7   9
ENDBRANCH   1   7
BRANCH   2  22
ATOM     22  C   UNL d   1      -2.300  -2.622   0.329  0.00  0.00     0.296 C 
ATOM     23  O   UNL d   1      -2.018  -3.736   0.747  0.00  0.00    -0.259 OA
BRANCH  22  24
ATOM     24  O   UNL d   1      -3.538  -2.309  -0.174  0.00  0.00    -0.318 OA
BRANCH  24  25
ATOM     25  C   UNL d   1      -4.434  -3.420  -0.331  0.00  0.00     0.174 C 
ATOM     26  C   UNL d   1      -4.150  -4.109  -1.653  0.00  0.00     0.034 C 
ENDBRANCH  24  25
ENDBRANCH  22  24
ENDBRANCH   2  22
BRANCH   3  27
ATOM     27  C   UNL d   1       0.907  -2.787   0.285  0.00  0.00    -0.024 A 
ATOM     28  C   UNL d   1       1.805  -3.017  -0.768  0.00  0.00     0.012 A 
ATOM     29  C   UNL d   1       2.611  -4.158  -0.782  0.00  0.00     0.001 A 
ATOM     30  C   UNL d   1       2.501  -5.102   0.236  0.00  0.00     0.000 A 
ATOM     31  C   UNL d   1       1.597  -4.896   1.276  0.00  0.00     0.001 A 
ATOM     32  C   UNL d   1       0.818  -3.736   1.310  0.00  0.00     0.012 A 
ENDBRANCH   3  27
TORSDOF 8
