REMARK  3 active torsions:
REMARK  status: ('A' for Active; 'I' for Inactive)
REMARK    1  A    between atoms: C_14  and  N_3 
REMARK    2  A    between atoms: C_12  and  C_4 
REMARK    3  A    between atoms: C_17  and  C_7 
ROOT
ATOM      1  C   UNL d   1      -2.508  -0.725  -0.125  0.00  0.00     0.091 C 
ATOM      2  C   UNL d   1      -3.767  -1.203  -0.021  0.00  0.00     0.068 C 
ATOM      3  N   UNL d   1      -4.966  -0.525   0.163  0.00  0.00    -0.258 N 
ATOM      4  C   UNL d   1      -4.098  -2.697   0.090  0.00  0.00     0.131 C 
ATOM      5  N   UNL d   1      -6.002  -1.326   0.571  0.00  0.00    -0.296 N 
ATOM      6  HN  UNL d   1      -6.944  -1.027   0.824  1.00  0.00     0.187 HD
ATOM      7  C   UNL d   1      -5.541  -2.545   0.571  0.00  0.00     0.051 C 
ATOM      8  C   UNL d   1      -1.328  -1.585  -0.433  0.00  0.00     0.199 C 
ATOM      9  C   UNL d   1      -1.980   0.664   0.095  0.00  0.00     0.199 C 
ATOM     10  C   UNL d   1      -0.516   0.551   0.012  0.00  0.00     0.029 A 
ATOM     11  C   UNL d   1      -0.149  -0.771  -0.186  0.00  0.00     0.029 A 
ATOM     12  O   UNL d   1      -2.552   1.690   0.380  0.00  0.00    -0.286 OA
ATOM     13  O   UNL d   1      -1.311  -2.678  -0.956  0.00  0.00    -0.286 OA
ATOM     14  C   UNL d   1       1.174  -1.175  -0.194  0.00  0.00     0.016 A 
ATOM     15  C   UNL d   1       0.437   1.547   0.135  0.00  0.00     0.016 A 
ATOM     16  C   UNL d   1       1.783   1.166   0.097  0.00  0.00     0.001 A 
ATOM     17  C   UNL d   1       2.149  -0.188  -0.039  0.00  0.00     0.001 A 
ENDROOT
BRANCH   3  18
ATOM     18  C   UNL d   1      -5.316   0.754  -0.353  0.00  0.00     0.056 A 
ATOM     19  C   UNL d   1      -4.772   1.251  -1.551  0.00  0.00     0.031 A 
ATOM     20  C   UNL d   1      -5.015   2.563  -1.968  0.00  0.00     0.002 A 
ATOM     21  C   UNL d   1      -5.836   3.392  -1.208  0.00  0.00     0.000 A 
ATOM     22  C   UNL d   1      -6.447   2.895  -0.060  0.00  0.00     0.002 A 
ATOM     23  C   UNL d   1      -6.202   1.581   0.354  0.00  0.00     0.031 A 
ENDBRANCH   3  18
BRANCH   4  24
ATOM     24  C   UNL d   1      -3.298  -3.554   1.049  0.00  0.00    -0.002 A 
ATOM     25  S   UNL d   1      -3.202  -3.209   2.728  0.00  0.00    -0.105 SA
ATOM     26  C   UNL d   1      -2.204  -4.567   3.018  0.00  0.00     0.050 A 
ATOM     27  C   UNL d   1      -1.910  -5.251   1.862  0.00  0.00     0.008 A 
ATOM     28  C   UNL d   1      -2.552  -4.676   0.732  0.00  0.00     0.016 A 
ENDBRANCH   4  24
BRANCH   7  29
ATOM     29  C   UNL d   1      -6.361  -3.711   1.010  0.00  0.00    -0.011 A 
ATOM     30  C   UNL d   1      -7.346  -3.517   1.986  0.00  0.00     0.013 A 
ATOM     31  C   UNL d   1      -8.076  -4.604   2.478  0.00  0.00     0.001 A 
ATOM     32  C   UNL d   1      -7.833  -5.887   1.991  0.00  0.00     0.000 A 
ATOM     33  C   UNL d   1      -6.866  -6.085   1.008  0.00  0.00     0.001 A 
ATOM     34  C   UNL d   1      -6.133  -5.001   0.514  0.00  0.00     0.013 A 
ENDBRANCH   7  29
TORSDOF 3
