REMARK  4 active torsions:
REMARK  status: ('A' for Active; 'I' for Inactive)
REMARK    1  A    between atoms: C_2  and  N_1 
REMARK    2  A    between atoms: C_6  and  C_4 
REMARK    3  A    between atoms: O_12  and  C_7 
REMARK    4  A    between atoms: C_13  and  O_12 
ROOT
ATOM      1  C   UNL d   1       0.113   2.036  -3.069  0.00  0.00    -0.035 A 
ATOM      2  C   UNL d   1      -1.248   3.433  -5.107  0.00  0.00     0.068 A 
ATOM      3  C   UNL d   1      -0.961   2.885  -2.767  0.00  0.00     0.014 A 
ATOM      4  C   UNL d   1       0.529   1.937  -4.402  0.00  0.00     0.014 A 
ATOM      5  C   UNL d   1      -0.145   2.634  -5.411  0.00  0.00     0.037 A 
ATOM      6  C   UNL d   1      -1.640   3.573  -3.778  0.00  0.00     0.037 A 
ENDROOT
BRANCH   1   7
ATOM      7  C   UNL d   1       0.840   1.293  -2.028  0.00  0.00     0.035 C 
ATOM      8  C   UNL d   1       0.249   0.869  -0.903  0.00  0.00     0.168 C 
BRANCH   8   9
ATOM      9  N   UNL d   1       1.006   0.146   0.090  0.00  0.00    -0.127 N 
ATOM     10  O   UNL d   1       0.380  -0.187   1.102  0.00  0.00    -0.532 OA
ATOM     11  O   UNL d   1       2.202  -0.089  -0.120  0.00  0.00    -0.532 OA
ENDBRANCH   8   9
ENDBRANCH   1   7
BRANCH   2  12
ATOM     12  O   UNL d   1      -1.833   4.069  -6.167  0.00  0.00    -0.352 OA
BRANCH  12  13
ATOM     13  C   UNL d   1      -3.228   4.345  -6.026  0.00  0.00     0.171 C 
ATOM     14  C   UNL d   1      -3.718   4.986  -7.311  0.00  0.00     0.034 C 
ENDBRANCH  12  13
ENDBRANCH   2  12
TORSDOF 4
