REMARK  3 active torsions:
REMARK  status: ('A' for Active; 'I' for Inactive)
REMARK    1  A    between atoms: C_4  and  C_1 
REMARK       I    between atoms: N_7  and  C_4 
REMARK    2  A    between atoms: C_15  and  N_7 
REMARK    3  A    between atoms: C_14  and  C_15 
ROOT
ATOM      1  C   UNL d   1       2.252   0.606  -0.040  0.00  0.00     0.116 A 
ATOM      2  N   UNL d   1       2.359  -0.752  -0.037  0.00  0.00    -0.349 N 
ATOM      3  HN  UNL d   1       3.262  -1.226  -0.076  1.00  0.00     0.166 HD
ATOM      4  N   UNL d   1      -0.142   0.584   0.058  0.00  0.00    -0.362 N 
ATOM      5  HN  UNL d   1      -1.039   1.069   0.088  1.00  0.00     0.165 HD
ATOM      6  C   UNL d   1       1.190  -1.431   0.020  0.00  0.00     0.059 A 
ATOM      7  C   UNL d   1       1.032   1.256   0.008  0.00  0.00     0.123 A 
ATOM      8  C   UNL d   1      -0.063  -0.760   0.067  0.00  0.00     0.059 A 
ATOM      9  C   UNL d   1       1.197  -2.823   0.039  0.00  0.00     0.032 A 
ATOM     10  C   UNL d   1      -1.234  -1.504   0.124  0.00  0.00     0.032 A 
ATOM     11  C   UNL d   1       0.010  -3.559   0.098  0.00  0.00     0.002 A 
ATOM     12  C   UNL d   1      -1.209  -2.897   0.139  0.00  0.00     0.002 A 
ENDROOT
BRANCH   1  13
ATOM     13  C   UNL d   1       3.505   1.410  -0.066  0.00  0.00     0.269 C 
ATOM     14  N   UNL d   1       4.677   0.688  -0.145  0.00  0.00    -0.351 N 
ATOM     15  H   UNL d   1       4.601  -0.325  -0.175  0.00  0.00     0.163 HD
ATOM     16  O   UNL d   1       3.463   2.634  -0.003  0.00  0.00    -0.266 OA
BRANCH  14  17
ATOM     17  C   UNL d   1       5.976   1.314  -0.031  0.00  0.00     0.162 C 
BRANCH  17  18
ATOM     18  C   UNL d   1       6.662   1.629  -1.332  0.00  0.00    -0.025 A 
ATOM     19  C   UNL d   1       7.930   2.210  -1.295  0.00  0.00     0.096 A 
ATOM     20  N   UNL d   1       8.658   2.548  -2.384  0.00  0.00    -0.375 N 
ATOM     21  C   UNL d   1       8.091   2.308  -3.584  0.00  0.00     0.087 A 
ATOM     22  HN  UNL d   1       9.586   2.963  -2.302  1.00  0.00     0.164 HD
ATOM     23  C   UNL d   1       6.838   1.740  -3.740  0.00  0.00     0.018 A 
ATOM     24  C   UNL d   1       6.116   1.396  -2.597  0.00  0.00     0.011 A 
ENDBRANCH  17  18
ENDBRANCH  14  17
ENDBRANCH   1  13
TORSDOF 3
