REMARK  4 active torsions:
REMARK  status: ('A' for Active; 'I' for Inactive)
REMARK    1  A    between atoms: N_2  and  S_1 
REMARK    2  A    between atoms: C_3  and  S_1 
REMARK    3  A    between atoms: C_11  and  C_4 
REMARK    4  A    between atoms: C_6  and  C_12 
ROOT
ATOM      1  S   UNL d   1       0.856  -0.021  -0.114  0.00  0.00     0.272 S 
ATOM      2  O   UNL d   1       0.086   1.025   0.526  0.00  0.00    -0.199 OA
ATOM      3  O   UNL d   1       2.304   0.051  -0.147  0.00  0.00    -0.199 OA
ENDROOT
BRANCH   1   4
ATOM      4  N   UNL d   1       0.317  -0.216  -1.711  0.00  0.00    -0.264 N 
ATOM      5  C   UNL d   1      -1.083  -0.194  -1.968  0.00  0.00     0.072 A 
ATOM      6  C   UNL d   1      -1.815  -1.352  -2.253  0.00  0.00     0.062 A 
ATOM      7  C   UNL d   1      -1.704   1.062  -2.029  0.00  0.00     0.033 A 
ATOM      8  N   UNL d   1      -1.292  -2.643  -2.432  0.00  0.00    -0.325 N 
ATOM      9  C   UNL d   1      -3.187  -1.227  -2.513  0.00  0.00     0.032 A 
ATOM     10  C   UNL d   1      -0.068  -3.070  -2.830  0.00  0.00     0.224 C 
ATOM     11  H   UNL d   1      -1.974  -3.372  -2.610  0.00  0.00     0.169 HD
ATOM     12  C   UNL d   1       1.217  -2.307  -2.655  0.00  0.00     0.129 C 
ATOM     13  O   UNL d   1      -0.016  -4.214  -3.304  0.00  0.00    -0.273 OA
ATOM     14  C   UNL d   1       1.198  -0.800  -2.735  0.00  0.00     0.107 C 
ATOM     15  C   UNL d   1       0.865  -0.266  -4.133  0.00  0.00     0.034 C 
ATOM     16  C   UNL d   1      -3.795   0.027  -2.608  0.00  0.00     0.002 A 
ATOM     17  C   UNL d   1      -3.050   1.173  -2.377  0.00  0.00     0.002 A 
ENDBRANCH   1   4
BRANCH   1  18
ATOM     18  C   UNL d   1       0.548  -1.504   0.850  0.00  0.00     0.121 A 
ATOM     19  S   UNL d   1      -0.944  -1.603   1.683  0.00  0.00    -0.074 SA
ATOM     20  C   UNL d   1      -0.463  -3.007   2.536  0.00  0.00     0.035 A 
ATOM     21  C   UNL d   1       0.764  -3.464   2.100  0.00  0.00     0.023 A 
ATOM     22  C   UNL d   1       1.351  -2.591   1.135  0.00  0.00     0.034 A 
BRANCH  20  23
ATOM     23  C   UNL d   1      -1.252  -3.657   3.635  0.00  0.00     0.074 A 
ATOM     24  C   UNL d   1      -2.495  -3.225   4.158  0.00  0.00     0.077 A 
ATOM     25  C   UNL d   1      -2.772  -4.114   5.172  0.00  0.00     0.184 A 
ATOM     26  O   UNL d   1      -1.763  -5.027   5.247  0.00  0.00    -0.233 OA
ATOM     27  N   UNL d   1      -0.813  -4.738   4.287  0.00  0.00    -0.260 N 
ATOM     28  HN  UNL d   1       0.053  -5.248   4.111  1.00  0.00     0.195 HD
BRANCH  25  29
ATOM     29  C   UNL d   1      -3.871  -4.271   6.140  0.00  0.00     0.441 C 
ATOM     30  F   UNL d   1      -4.853  -3.353   5.936  0.00  0.00    -0.164 F 
ATOM     31  F   UNL d   1      -4.460  -5.491   6.058  0.00  0.00    -0.164 F 
ATOM     32  F   UNL d   1      -3.455  -4.115   7.421  0.00  0.00    -0.164 F 
ENDBRANCH  25  29
ENDBRANCH  20  23
ENDBRANCH   1  18
TORSDOF 4
