REMARK  2 active torsions:
REMARK  status: ('A' for Active; 'I' for Inactive)
REMARK    1  A    between atoms: N_9  and  N_1 
REMARK    2  A    between atoms: C_7  and  C_2 
ROOT
ATOM      1  N   UNL d   1      -1.860   0.941  -0.560  0.00  0.00    -0.235 N 
ATOM      2  C   UNL d   1      -1.890  -0.322  -0.026  0.00  0.00     0.149 A 
ATOM      3  C   UNL d   1      -0.587   1.421  -0.329  0.00  0.00     0.209 A 
ATOM      4  N   UNL d   1      -0.754  -0.677   0.521  0.00  0.00    -0.281 N 
ATOM      5  HN  UNL d   1      -0.539  -1.557   0.990  1.00  0.00     0.188 HD
ATOM      6  N   UNL d   1       0.084   0.394   0.326  0.00  0.00    -0.273 N 
ATOM      7  S   UNL d   1       0.060   2.904  -0.689  0.00  0.00    -0.038 SA
ATOM      8  H   UNL d   1       1.037   0.402   0.661  0.00  0.00     0.189 HD
ENDROOT
BRANCH   2   9
ATOM      9  C   UNL d   1      -3.090  -1.182  -0.032  0.00  0.00     0.011 A 
ATOM     10  C   UNL d   1      -4.022  -1.149  -1.073  0.00  0.00     0.017 A 
ATOM     11  C   UNL d   1      -5.155  -1.968  -1.032  0.00  0.00     0.025 A 
ATOM     12  C   UNL d   1      -5.340  -2.841   0.037  0.00  0.00     0.034 A 
ATOM     13  C   UNL d   1      -4.400  -2.908   1.064  0.00  0.00     0.025 A 
ATOM     14 CL   UNL d   1      -6.734  -3.847   0.086  0.00  0.00    -0.084 Cl
ATOM     15  C   UNL d   1      -3.274  -2.081   1.028  0.00  0.00     0.017 A 
ENDBRANCH   2   9
BRANCH   1  16
ATOM     16  N   UNL d   1      -2.930   1.691  -1.063  0.00  0.00    -0.239 NA
ATOM     17  H   UNL d   1      -3.644   1.739  -0.335  0.00  0.00     0.143 HD
ATOM     18  H   UNL d   1      -2.597   2.654  -1.174  0.00  0.00     0.143 HD
ENDBRANCH   1  16
TORSDOF 2
