REMARK  7 active torsions:
REMARK  status: ('A' for Active; 'I' for Inactive)
REMARK    1  A    between atoms: O_11  and  S_1 
REMARK    2  A    between atoms: C_13  and  S_1 
REMARK    3  A    between atoms: S_2  and  O_10 
REMARK    4  A    between atoms: C_14  and  S_2 
REMARK    5  A    between atoms: O_10  and  C_5 
REMARK    6  A    between atoms: C_6  and  O_11 
REMARK    7  A    between atoms: C_12  and  O_24 
ROOT
ATOM      1  C   UNL d   1       0.164  -2.779   1.478  0.00  0.00     0.199 C 
ATOM      2  C   UNL d   1       0.153  -3.679   2.694  0.00  0.00     0.197 C 
ATOM      3  C   UNL d   1       0.364  -5.090   2.197  0.00  0.00     0.273 C 
ATOM      4  C   UNL d   1       1.148  -1.659   1.823  0.00  0.00     0.230 C 
ATOM      5  O   UNL d   1       0.687  -3.577   0.405  0.00  0.00    -0.308 OA
ATOM      6  C   UNL d   1       0.994  -4.838   0.842  0.00  0.00     0.292 C 
ATOM      7  O   UNL d   1       1.235  -3.257   3.524  0.00  0.00    -0.347 OA
ATOM      8  C   UNL d   1       1.371  -1.857   3.325  0.00  0.00     0.292 C 
ATOM      9  O   UNL d   1       1.615  -5.651   0.176  0.00  0.00    -0.262 OA
ENDROOT
BRANCH   3  10
ATOM     10  O   UNL d   1       1.131  -5.881   3.083  0.00  0.00    -0.253 OA
BRANCH  10  11
ATOM     11  S   UNL d   1       0.418  -6.341   4.473  0.00  0.00     0.298 S 
ATOM     12  O   UNL d   1       0.155  -5.167   5.277  0.00  0.00    -0.193 OA
ATOM     13  O   UNL d   1      -0.666  -7.238   4.115  0.00  0.00    -0.193 OA
BRANCH  11  14
ATOM     14  C   UNL d   1       1.613  -7.304   5.361  0.00  0.00     0.086 A 
ATOM     15  C   UNL d   1       2.857  -7.610   4.812  0.00  0.00     0.026 A 
ATOM     16  C   UNL d   1       3.772  -8.348   5.568  0.00  0.00     0.008 A 
ATOM     17  C   UNL d   1       3.449  -8.781   6.864  0.00  0.00    -0.062 A 
ATOM     18  C   UNL d   1       2.196  -8.463   7.401  0.00  0.00     0.008 A 
ATOM     19  C   UNL d   1       4.454  -9.555   7.669  0.00  0.00     0.048 C 
ATOM     20  C   UNL d   1       1.278  -7.725   6.653  0.00  0.00     0.026 A 
ENDBRANCH  11  14
ENDBRANCH  10  11
ENDBRANCH   3  10
BRANCH   4  21
ATOM     21  O   UNL d   1       0.625  -0.366   1.507  0.00  0.00    -0.259 OA
BRANCH  21  22
ATOM     22  S   UNL d   1       1.626   0.901   1.770  0.00  0.00     0.298 S 
ATOM     23  O   UNL d   1       2.815   0.715   0.966  0.00  0.00    -0.193 OA
ATOM     24  O   UNL d   1       1.698   1.125   3.200  0.00  0.00    -0.193 OA
BRANCH  22  25
ATOM     25  C   UNL d   1       0.761   2.314   1.116  0.00  0.00     0.086 A 
ATOM     26  C   UNL d   1      -0.114   3.010   1.957  0.00  0.00     0.026 A 
ATOM     27  C   UNL d   1      -0.647   4.229   1.539  0.00  0.00     0.008 A 
ATOM     28  C   UNL d   1      -0.307   4.758   0.288  0.00  0.00    -0.062 A 
ATOM     29  C   UNL d   1       0.556   4.041  -0.553  0.00  0.00     0.008 A 
ATOM     30  C   UNL d   1      -0.836   6.104  -0.114  0.00  0.00     0.048 C 
ATOM     31  C   UNL d   1       1.096   2.821  -0.141  0.00  0.00     0.026 A 
ENDBRANCH  22  25
ENDBRANCH  21  22
ENDBRANCH   4  21
BRANCH   8  32
ATOM     32  O   UNL d   1       2.673  -1.438   3.688  0.00  0.00    -0.363 OA
ATOM     33  C   UNL d   1       2.870  -1.511   5.094  0.00  0.00     0.204 C 
ENDBRANCH   8  32
TORSDOF 7
