REMARK  7 active torsions:
REMARK  status: ('A' for Active; 'I' for Inactive)
REMARK    1  A    between atoms: N_9  and  S_1 
REMARK    2  A    between atoms: C_10  and  S_1 
REMARK    3  A    between atoms: C_2  and  C_13 
REMARK    4  A    between atoms: C_15  and  C_3 
REMARK    5  A    between atoms: N_6  and  C_14 
REMARK    6  A    between atoms: N_11  and  N_9 
REMARK    7  A    between atoms: C_16  and  C_21 
ROOT
ATOM      1  C   UNL d   1       0.294   1.463  -0.383  0.00  0.00     0.081 A 
ATOM      2  C   UNL d   1      -0.522   3.990  -1.257  0.00  0.00    -0.006 A 
ATOM      3  C   UNL d   1      -0.866   1.586  -1.153  0.00  0.00     0.026 A 
ATOM      4  C   UNL d   1       0.998   2.595   0.032  0.00  0.00     0.026 A 
ATOM      5  C   UNL d   1       0.576   3.856  -0.392  0.00  0.00     0.015 A 
ATOM      6  C   UNL d   1      -1.271   2.852  -1.590  0.00  0.00     0.015 A 
ENDROOT
BRANCH   2   7
ATOM      7  C   UNL d   1      -0.840   5.267  -1.869  0.00  0.00     0.079 A 
ATOM      8  C   UNL d   1       0.068   6.171  -2.399  0.00  0.00     0.115 A 
ATOM      9  O   UNL d   1      -0.654   7.230  -2.887  0.00  0.00    -0.295 OA
ATOM     10  C   UNL d   1      -1.958   6.884  -2.666  0.00  0.00     0.121 A 
ATOM     11  N   UNL d   1      -2.126   5.719  -2.074  0.00  0.00    -0.338 N 
ATOM     12  C   UNL d   1      -2.971   7.847  -3.139  0.00  0.00     0.098 C 
ATOM     13  HN  UNL d   1      -3.001   5.259  -1.825  1.00  0.00     0.168 HD
BRANCH   8  14
ATOM     14  C   UNL d   1       1.511   6.240  -2.591  0.00  0.00     0.000 A 
ATOM     15  C   UNL d   1       2.252   5.082  -2.877  0.00  0.00     0.017 A 
ATOM     16  C   UNL d   1       3.644   5.123  -2.988  0.00  0.00     0.037 A 
ATOM     17  C   UNL d   1       4.307   6.346  -2.845  0.00  0.00     0.102 A 
ATOM     18  C   UNL d   1       3.586   7.519  -2.597  0.00  0.00     0.037 A 
ATOM     19  C   UNL d   1       2.193   7.460  -2.470  0.00  0.00     0.017 A 
BRANCH  17  20
ATOM     20  N   UNL d   1       5.769   6.394  -2.958  0.00  0.00    -0.116 N 
ATOM     21  O   UNL d   1       6.368   5.321  -3.128  0.00  0.00    -0.532 OA
ATOM     22  O   UNL d   1       6.318   7.501  -2.878  0.00  0.00    -0.532 OA
ENDBRANCH  17  20
ENDBRANCH   8  14
ENDBRANCH   2   7
BRANCH   1  23
ATOM     23  S   UNL d   1       0.879  -0.149   0.097  0.00  0.00     0.276 S 
ATOM     24  O   UNL d   1       1.695   0.024   1.280  0.00  0.00    -0.199 OA
ATOM     25  O   UNL d   1      -0.260  -1.044   0.075  0.00  0.00    -0.199 OA
BRANCH  23  26
ATOM     26  N   UNL d   1       1.893  -0.518  -1.224  0.00  0.00    -0.223 N 
ATOM     27  H   UNL d   1       1.920   0.142  -2.000  0.00  0.00     0.200 HD
BRANCH  26  28
ATOM     28  N   UNL d   1       2.630  -1.752  -1.205  0.00  0.00    -0.300 N 
ATOM     29  C   UNL d   1       3.381  -1.985  -2.235  0.00  0.00     0.145 C 
ATOM     30  HN  UNL d   1       2.566  -2.408  -0.426  1.00  0.00     0.186 HD
BRANCH  29  31
ATOM     31  C   UNL d   1       4.160  -3.187  -2.307  0.00  0.00     0.091 A 
ATOM     32  O   UNL d   1       4.942  -3.390  -3.409  0.00  0.00    -0.321 OA
ATOM     33  C   UNL d   1       5.574  -4.581  -3.237  0.00  0.00     0.142 A 
ATOM     34  C   UNL d   1       5.210  -5.151  -2.040  0.00  0.00     0.027 A 
ATOM     35  C   UNL d   1       4.298  -4.252  -1.438  0.00  0.00     0.040 A 
ENDBRANCH  29  31
ENDBRANCH  26  28
ENDBRANCH  23  26
ENDBRANCH   1  23
TORSDOF 7
