REMARK  5 active torsions:
REMARK  status: ('A' for Active; 'I' for Inactive)
REMARK    1  A    between atoms: C_2  and  S_1 
REMARK    2  A    between atoms: O_8  and  S_1 
REMARK    3  A    between atoms: C_11  and  C_3 
REMARK    4  A    between atoms: C_7  and  C_4 
REMARK    5  A    between atoms: C_15  and  O_8 
ROOT
ATOM      1  C   UNL d   1       0.621   1.311  -0.753  0.00  0.00     0.105 A 
ATOM      2  C   UNL d   1       0.976   2.668  -0.377  0.00  0.00     0.020 A 
ATOM      3  C   UNL d   1       0.479   3.587  -1.305  0.00  0.00     0.101 A 
ATOM      4  S   UNL d   1      -0.377   2.804  -2.580  0.00  0.00    -0.095 SA
ATOM      5  C   UNL d   1      -0.122   1.265  -1.914  0.00  0.00     0.077 A 
ENDROOT
BRANCH   1   6
ATOM      6  S   UNL d   1       1.043  -0.154   0.103  0.00  0.00     0.304 S 
ATOM      7  O   UNL d   1       2.407   0.036   0.533  0.00  0.00    -0.193 OA
ATOM      8  O   UNL d   1       0.646  -1.231  -0.787  0.00  0.00    -0.193 OA
BRANCH   6   9
ATOM      9  O   UNL d   1       0.003  -0.079   1.353  0.00  0.00    -0.229 OA
BRANCH   9  10
ATOM     10  C   UNL d   1       0.111  -0.895   2.449  0.00  0.00     0.089 A 
ATOM     11  C   UNL d   1       0.794  -2.113   2.479  0.00  0.00     0.040 A 
ATOM     12  C   UNL d   1       0.817  -2.866   3.658  0.00  0.00     0.026 A 
ATOM     13  C   UNL d   1       0.158  -2.405   4.798  0.00  0.00     0.034 A 
ATOM     14  C   UNL d   1      -0.527  -1.194   4.771  0.00  0.00     0.026 A 
ATOM     15 CL   UNL d   1       0.183  -3.340   6.241  0.00  0.00    -0.084 Cl
ATOM     16  C   UNL d   1      -0.554  -0.445   3.594  0.00  0.00     0.040 A 
ENDBRANCH   9  10
ENDBRANCH   6   9
ENDBRANCH   1   6
BRANCH   2  17
ATOM     17  C   UNL d   1       1.728   3.102   0.808  0.00  0.00    -0.023 A 
ATOM     18  C   UNL d   1       2.875   3.900   0.692  0.00  0.00     0.012 A 
ATOM     19  C   UNL d   1       3.551   4.341   1.835  0.00  0.00     0.001 A 
ATOM     20  C   UNL d   1       3.126   3.943   3.100  0.00  0.00     0.000 A 
ATOM     21  C   UNL d   1       2.006   3.130   3.227  0.00  0.00     0.001 A 
ATOM     22  C   UNL d   1       1.294   2.740   2.090  0.00  0.00     0.012 A 
ENDBRANCH   2  17
BRANCH   3  23
ATOM     23  C   UNL d   1       0.572   5.086  -1.388  0.00  0.00     0.424 C 
ATOM     24  F   UNL d   1       0.974   5.684  -0.240  0.00  0.00    -0.166 F 
ATOM     25  F   UNL d   1       1.450   5.470  -2.353  0.00  0.00    -0.166 F 
ATOM     26  F   UNL d   1      -0.624   5.654  -1.702  0.00  0.00    -0.166 F 
ENDBRANCH   3  23
TORSDOF 5
