REMARK  6 active torsions:
REMARK  status: ('A' for Active; 'I' for Inactive)
REMARK    1  A    between atoms: C_3  and  C_1 
REMARK    2  A    between atoms: C_2  and  N_4 
REMARK    3  A    between atoms: N_8  and  C_2 
REMARK    4  A    between atoms: N_4  and  C_17 
REMARK    5  A    between atoms: C_19  and  N_8 
REMARK    6  A    between atoms: C_18  and  C_19 
ROOT
ATOM      1  C   UNL d   1       0.650  -6.129  -1.937  0.00  0.00     0.172 C 
ATOM      2  S   UNL d   1       2.304  -5.858  -1.904  0.00  0.00    -0.041 SA
ENDROOT
BRANCH   1   3
ATOM      3  N   UNL d   1      -0.323  -5.236  -1.504  0.00  0.00    -0.333 N 
ATOM      4  H   UNL d   1      -1.089  -5.096  -2.147  0.00  0.00     0.168 HD
BRANCH   3   5
ATOM      5  C   UNL d   1      -0.208  -4.308  -0.446  0.00  0.00     0.034 A 
ATOM      6  C   UNL d   1      -0.994  -3.156  -0.476  0.00  0.00     0.030 A 
ATOM      7  C   UNL d   1      -0.872  -2.199   0.539  0.00  0.00     0.018 A 
ATOM      8  C   UNL d   1       0.015  -2.397   1.611  0.00  0.00     0.048 A 
ATOM      9  C   UNL d   1       0.743  -3.591   1.671  0.00  0.00     0.018 A 
ATOM     10  C   UNL d   1       0.622  -4.540   0.655  0.00  0.00     0.030 A 
BRANCH   8  11
ATOM     11  C   UNL d   1       0.187  -1.333   2.665  0.00  0.00     0.417 C 
ATOM     12  F   UNL d   1       1.068  -1.676   3.647  0.00  0.00    -0.166 F 
ATOM     13  F   UNL d   1      -0.979  -1.032   3.298  0.00  0.00    -0.166 F 
ATOM     14  F   UNL d   1       0.646  -0.161   2.147  0.00  0.00    -0.166 F 
ENDBRANCH   8  11
ENDBRANCH   3   5
ENDBRANCH   1   3
BRANCH   1  15
ATOM     15  N   UNL d   1       0.055  -7.266  -2.447  0.00  0.00    -0.363 N 
ATOM     16  H   UNL d   1      -0.953  -7.309  -2.383  0.00  0.00     0.162 HD
BRANCH  15  17
ATOM     17  C   UNL d   1       0.706  -8.560  -2.596  0.00  0.00     0.160 C 
BRANCH  17  18
ATOM     18  C   UNL d   1       0.286  -9.567  -1.544  0.00  0.00    -0.040 A 
ATOM     19  C   UNL d   1       0.718 -10.895  -1.706  0.00  0.00     0.018 A 
ATOM     20  C   UNL d   1       0.254 -11.859  -0.830  0.00  0.00    -0.022 A 
ATOM     21  C   UNL d   1       0.535 -13.311  -0.788  0.00  0.00     0.068 C 
ATOM     22  C   UNL d   1      -0.584 -11.526   0.220  0.00  0.00     0.075 A 
ATOM     23  C   UNL d   1      -0.594 -13.735   0.152  0.00  0.00     0.180 C 
ATOM     24  O   UNL d   1      -0.971 -12.604   0.974  0.00  0.00    -0.350 OA
ATOM     25  C   UNL d   1      -0.972 -10.227   0.456  0.00  0.00     0.038 A 
ATOM     26  C   UNL d   1      -0.533  -9.242  -0.435  0.00  0.00     0.011 A 
ENDBRANCH  17  18
ENDBRANCH  15  17
ENDBRANCH   1  15
TORSDOF 6
