REMARK  5 active torsions:
REMARK  status: ('A' for Active; 'I' for Inactive)
REMARK    1  A    between atoms: N_5  and  C_1 
REMARK    2  A    between atoms: C_2  and  C_7 
REMARK       I    between atoms: C_3  and  N_5 
REMARK       I    between atoms: N_9  and  C_3 
REMARK    3  A    between atoms: N_6  and  C_4 
REMARK    4  A    between atoms: C_13  and  N_9 
REMARK    5  A    between atoms: O_21  and  C_18 
ROOT
ATOM      1  C   UNL d   1       2.101  -0.167   0.420  0.00  0.00     0.058 A 
ATOM      2  C   UNL d   1       1.354  -1.233  -0.139  0.00  0.00     0.037 A 
ATOM      3  C   UNL d   1       0.293   1.402   0.053  0.00  0.00     0.050 A 
ATOM      4  C   UNL d   1       1.602   1.139   0.470  0.00  0.00     0.047 A 
ATOM      5  C   UNL d   1       0.031  -0.960  -0.501  0.00  0.00     0.027 A 
ATOM      6  C   UNL d   1      -0.497   0.334  -0.398  0.00  0.00     0.018 A 
ENDROOT
BRANCH   1   7
ATOM      7  N   UNL d   1       3.293  -0.490   1.100  0.00  0.00    -0.307 N 
ATOM      8  C   UNL d   1       4.466   0.203   0.997  0.00  0.00     0.325 C 
ATOM      9  N   UNL d   1       5.443  -0.171   1.882  0.00  0.00    -0.309 N 
ATOM     10  O   UNL d   1       4.717   1.025   0.117  0.00  0.00    -0.247 OA
ATOM     11  H   UNL d   1       6.369   0.093   1.570  0.00  0.00     0.170 HD
ATOM     12  H   UNL d   1       3.412  -1.483   1.265  0.00  0.00     0.170 HD
BRANCH   9  13
ATOM     13  C   UNL d   1       5.316  -0.473   3.254  0.00  0.00     0.039 A 
ATOM     14  C   UNL d   1       4.133  -0.303   3.983  0.00  0.00     0.066 A 
ATOM     15  C   UNL d   1       4.112  -0.468   5.372  0.00  0.00     0.070 A 
ATOM     16  C   UNL d   1       5.275  -0.853   6.038  0.00  0.00     0.037 A 
ATOM     17  C   UNL d   1       6.453  -1.047   5.321  0.00  0.00     0.005 A 
ATOM     18  C   UNL d   1       6.478  -0.847   3.938  0.00  0.00     0.030 A 
BRANCH  15  19
ATOM     19  O   UNL d   1       2.902  -0.222   5.965  0.00  0.00    -0.356 OA
ATOM     20  C   UNL d   1       2.932   0.066   7.359  0.00  0.00     0.210 C 
ENDBRANCH  15  19
ENDBRANCH   9  13
ENDBRANCH   1   7
BRANCH   2  21
ATOM     21  N   UNL d   1       1.975  -2.473  -0.352  0.00  0.00    -0.281 NA
ATOM     22  C   UNL d   1       1.198  -3.678  -0.647  0.00  0.00     0.096 C 
ATOM     23  C   UNL d   1       2.280  -4.664  -1.062  0.00  0.00     0.016 C 
ATOM     24  C   UNL d   1       3.192  -3.809  -1.927  0.00  0.00     0.016 C 
ATOM     25  C   UNL d   1       3.117  -2.414  -1.299  0.00  0.00     0.096 C 
ENDBRANCH   2  21
BRANCH   3  26
ATOM     26  C   UNL d   1      -0.285   2.789   0.171  0.00  0.00     0.417 C 
ATOM     27  F   UNL d   1       0.636   3.777  -0.001  0.00  0.00    -0.166 F 
ATOM     28  F   UNL d   1      -1.266   3.037  -0.743  0.00  0.00    -0.166 F 
ATOM     29  F   UNL d   1      -0.850   3.012   1.389  0.00  0.00    -0.166 F 
ENDBRANCH   3  26
TORSDOF 5
