REMARK  6 active torsions:
REMARK  status: ('A' for Active; 'I' for Inactive)
REMARK    1  A    between atoms: C_3  and  C_1 
REMARK    2  A    between atoms: N_4  and  C_1 
REMARK    3  A    between atoms: C_6  and  C_2 
REMARK       I    between atoms: N_10  and  C_3 
REMARK       I    between atoms: C_5  and  N_4 
REMARK    4  A    between atoms: C_14  and  C_5 
REMARK    5  A    between atoms: N_8  and  N_10 
REMARK    6  A    between atoms: C_18  and  C_17 
ROOT
ATOM      1  C   UNL d   1       1.052   0.169   0.006  0.00  0.00     0.086 C 
ATOM      2  C   UNL d   1       0.380   1.093   0.722  0.00  0.00     0.048 C 
ENDROOT
BRANCH   1   3
ATOM      3  C   UNL d   1       0.328  -0.824  -0.875  0.00  0.00     0.281 C 
ATOM      4  N   UNL d   1      -0.963  -1.145  -0.493  0.00  0.00    -0.265 N 
ATOM      5  H   UNL d   1      -1.348  -0.825   0.387  0.00  0.00     0.190 HD
ATOM      6  O   UNL d   1       0.938  -1.306  -1.831  0.00  0.00    -0.265 OA
BRANCH   4   7
ATOM      7  N   UNL d   1      -1.686  -2.035  -1.231  0.00  0.00    -0.308 N 
ATOM      8  C   UNL d   1      -2.905  -2.232  -0.849  0.00  0.00     0.118 C 
ATOM      9  HN  UNL d   1      -1.288  -2.516  -2.038  1.00  0.00     0.186 HD
BRANCH   8  10
ATOM     10  C   UNL d   1      -3.784  -3.193  -1.546  0.00  0.00    -0.019 A 
ATOM     11  C   UNL d   1      -3.279  -3.978  -2.590  0.00  0.00     0.013 A 
ATOM     12  C   UNL d   1      -4.112  -4.891  -3.234  0.00  0.00     0.001 A 
ATOM     13  C   UNL d   1      -5.445  -5.020  -2.842  0.00  0.00     0.000 A 
ATOM     14  C   UNL d   1      -5.949  -4.230  -1.806  0.00  0.00     0.001 A 
ATOM     15  C   UNL d   1      -5.118  -3.318  -1.154  0.00  0.00     0.013 A 
ENDBRANCH   8  10
ENDBRANCH   4   7
ENDBRANCH   1   3
BRANCH   1  16
ATOM     16  N   UNL d   1       2.440   0.106  -0.087  0.00  0.00    -0.220 NA
ATOM     17  C   UNL d   1       3.191  -0.404   0.965  0.00  0.00     0.235 C 
ATOM     18  O   UNL d   1       2.722  -0.868   1.998  0.00  0.00    -0.274 OA
ATOM     19  H   UNL d   1       2.757  -0.277  -0.979  0.00  0.00     0.137 HD
BRANCH  17  20
ATOM     20  C   UNL d   1       4.665  -0.423   0.742  0.00  0.00     0.026 A 
ATOM     21  C   UNL d   1       5.309   0.655   0.122  0.00  0.00     0.016 A 
ATOM     22  C   UNL d   1       6.700   0.653  -0.015  0.00  0.00     0.001 A 
ATOM     23  C   UNL d   1       7.447  -0.428   0.452  0.00  0.00     0.000 A 
ATOM     24  C   UNL d   1       6.808  -1.506   1.067  0.00  0.00     0.001 A 
ATOM     25  C   UNL d   1       5.418  -1.500   1.221  0.00  0.00     0.016 A 
ENDBRANCH  17  20
ENDBRANCH   1  16
BRANCH   2  26
ATOM     26  C   UNL d   1       0.990   2.158   1.451  0.00  0.00     0.006 A 
ATOM     27  S   UNL d   1       0.238   2.731   2.894  0.00  0.00    -0.102 SA
ATOM     28  C   UNL d   1       1.483   3.864   3.186  0.00  0.00     0.050 A 
ATOM     29  C   UNL d   1       2.426   3.861   2.186  0.00  0.00     0.008 A 
ATOM     30  C   UNL d   1       2.118   2.911   1.172  0.00  0.00     0.019 A 
ENDBRANCH   2  26
TORSDOF 6
