REMARK  7 active torsions:
REMARK  status: ('A' for Active; 'I' for Inactive)
REMARK    1  A    between atoms: S_5  and  C_1 
REMARK    2  A    between atoms: C_4  and  C_3 
REMARK    3  A    between atoms: O_6  and  C_4 
REMARK    4  A    between atoms: C_15  and  S_5 
REMARK    5  A    between atoms: C_10  and  O_6 
REMARK    6  A    between atoms: C_7  and  C_10 
REMARK    7  A    between atoms: C_8  and  C_7 
ROOT
ATOM      1  C   UNL d   1       1.395  -1.362  -0.229  0.00  0.00     0.017 A 
ATOM      2  C   UNL d   1       0.088  -0.745  -0.094  0.00  0.00     0.007 A 
ATOM      3  C   UNL d   1      -1.234  -1.338  -0.006  0.00  0.00     0.051 A 
ATOM      4  C   UNL d   1       0.100   0.687  -0.039  0.00  0.00    -0.024 A 
ATOM      5  C   UNL d   1       2.575  -0.591  -0.183  0.00  0.00     0.020 A 
ATOM      6  C   UNL d   1      -2.405  -0.543   0.018  0.00  0.00     0.018 A 
ATOM      7  C   UNL d   1       2.529   0.786  -0.063  0.00  0.00     0.002 A 
ATOM      8  C   UNL d   1      -2.328   0.835   0.010  0.00  0.00     0.002 A 
ATOM      9  C   UNL d   1       1.298   1.413  -0.015  0.00  0.00     0.012 A 
ATOM     10  C   UNL d   1      -1.084   1.441  -0.003  0.00  0.00     0.012 A 
ENDROOT
BRANCH   3  11
ATOM     11  C   UNL d   1      -1.547  -2.784   0.153  0.00  0.00     0.294 C 
ATOM     12  O   UNL d   1      -2.563  -3.313  -0.274  0.00  0.00    -0.259 OA
BRANCH  11  13
ATOM     13  O   UNL d   1      -0.663  -3.349   0.989  0.00  0.00    -0.310 OA
BRANCH  13  14
ATOM     14  C   UNL d   1      -0.901  -4.700   1.399  0.00  0.00     0.263 C 
BRANCH  14  15
ATOM     15  C   UNL d   1      -0.862  -4.682   2.912  0.00  0.00     0.183 C 
ATOM     16  O   UNL d   1      -0.678  -3.658   3.574  0.00  0.00    -0.290 OA
BRANCH  15  17
ATOM     17  C   UNL d   1      -1.013  -5.963   3.642  0.00  0.00     0.012 A 
ATOM     18  C   UNL d   1      -0.418  -6.061   4.908  0.00  0.00     0.016 A 
ATOM     19  C   UNL d   1      -0.558  -7.224   5.662  0.00  0.00     0.020 A 
ATOM     20  C   UNL d   1      -1.301  -8.287   5.151  0.00  0.00     0.011 A 
ATOM     21  C   UNL d   1      -1.893  -8.198   3.890  0.00  0.00     0.020 A 
ATOM     22 BR   UNL d   1      -1.519  -9.853   6.185  0.00  0.00    -0.051 Br
ATOM     23  C   UNL d   1      -1.748  -7.036   3.127  0.00  0.00     0.016 A 
ENDBRANCH  15  17
ENDBRANCH  14  15
ENDBRANCH  13  14
ENDBRANCH  11  13
ENDBRANCH   3  11
BRANCH   1  24
ATOM     24  S   UNL d   1       1.747  -3.106  -0.458  0.00  0.00    -0.090 SA
BRANCH  24  25
ATOM     25  C   UNL d   1       1.728  -3.403  -2.211  0.00  0.00     0.005 A 
ATOM     26  C   UNL d   1       1.612  -2.413  -3.190  0.00  0.00     0.019 A 
ATOM     27  C   UNL d   1       1.651  -2.752  -4.546  0.00  0.00     0.001 A 
ATOM     28  C   UNL d   1       1.803  -4.082  -4.936  0.00  0.00     0.000 A 
ATOM     29  C   UNL d   1       1.911  -5.078  -3.971  0.00  0.00     0.001 A 
ATOM     30  C   UNL d   1       1.873  -4.738  -2.618  0.00  0.00     0.019 A 
ENDBRANCH  24  25
ENDBRANCH   1  24
TORSDOF 7
