REMARK  3 active torsions:
REMARK  status: ('A' for Active; 'I' for Inactive)
REMARK    1  A    between atoms: C_2  and  C_1 
REMARK    2  A    between atoms: N_13  and  C_6 
REMARK    3  A    between atoms: C_12  and  C_9 
ROOT
ATOM      1  C   UNL d   1      -1.540  -0.689  -0.004  0.00  0.00     0.024 A 
ATOM      2  C   UNL d   1      -0.233  -1.236   0.024  0.00  0.00     0.049 A 
ATOM      3  C   UNL d   1       0.645  -0.170   0.019  0.00  0.00     0.061 A 
ATOM      4  C   UNL d   1      -1.388   0.681  -0.001  0.00  0.00     0.062 A 
ATOM      5  O   UNL d   1      -0.060   1.001   0.015  0.00  0.00    -0.318 OA
ATOM      6  C   UNL d   1      -2.326   1.822   0.007  0.00  0.00     0.077 C 
ENDROOT
BRANCH   1   7
ATOM      7  C   UNL d   1      -2.769  -1.473  -0.055  0.00  0.00     0.064 A 
ATOM      8  N   UNL d   1      -3.886  -1.048  -0.655  0.00  0.00    -0.296 N 
ATOM      9  N   UNL d   1      -4.731  -2.091  -0.534  0.00  0.00    -0.281 N 
ATOM     10  HN  UNL d   1      -4.058  -0.146  -1.100  1.00  0.00     0.187 HD
ATOM     11  C   UNL d   1      -6.030  -2.023  -1.157  0.00  0.00     0.179 C 
ATOM     12  C   UNL d   1      -4.200  -3.146   0.171  0.00  0.00     0.117 A 
ATOM     13  C   UNL d   1      -2.918  -2.766   0.491  0.00  0.00     0.081 A 
BRANCH  12  14
ATOM     14  N   UNL d   1      -4.860  -4.291   0.433  0.00  0.00    -0.384 N 
ATOM     15  H   UNL d   1      -4.459  -4.994   1.050  0.00  0.00     0.157 HD
ATOM     16  H   UNL d   1      -5.853  -4.417   0.262  0.00  0.00     0.157 HD
ENDBRANCH  12  14
ENDBRANCH   1   7
BRANCH   3  17
ATOM     17  C   UNL d   1       2.149  -0.055   0.011  0.00  0.00    -0.002 C 
ATOM     18  C   UNL d   1       2.802  -1.451   0.028  0.00  0.00     0.021 C 
ATOM     19  C   UNL d   1       2.610   0.684  -1.258  0.00  0.00     0.021 C 
ATOM     20  C   UNL d   1       2.621   0.720   1.252  0.00  0.00     0.021 C 
ENDBRANCH   3  17
TORSDOF 3
