REMARK  1 active torsions:
REMARK  status: ('A' for Active; 'I' for Inactive)
REMARK    1  A    between atoms: C_7  and  N_1 
ROOT
ATOM      1  N   UNL d   1       0.604   1.070   0.125  0.00  0.00    -0.224 N 
ATOM      2  C   UNL d   1       1.141  -0.218  -0.023  0.00  0.00     0.248 A 
ATOM      3  N   UNL d   1      -0.780   1.089   0.199  0.00  0.00    -0.299 N 
ATOM      4  HN  UNL d   1      -1.375   1.909   0.314  1.00  0.00     0.187 HD
ATOM      5  C   UNL d   1      -0.049  -1.129  -0.009  0.00  0.00     0.158 A 
ATOM      6  C   UNL d   1      -1.165  -0.143   0.092  0.00  0.00     0.009 A 
ATOM      7  O   UNL d   1       2.296  -0.600  -0.130  0.00  0.00    -0.271 OA
ATOM      8  C   UNL d   1      -2.592  -0.568   0.076  0.00  0.00     0.065 C 
ENDROOT
BRANCH   1   9
ATOM      9  C   UNL d   1       1.298   2.305   0.143  0.00  0.00     0.059 A 
ATOM     10  C   UNL d   1       2.667   2.389  -0.141  0.00  0.00     0.031 A 
ATOM     11  C   UNL d   1       3.325   3.624  -0.149  0.00  0.00     0.002 A 
ATOM     12  C   UNL d   1       2.627   4.793   0.144  0.00  0.00     0.000 A 
ATOM     13  C   UNL d   1       1.271   4.728   0.444  0.00  0.00     0.002 A 
ATOM     14  C   UNL d   1       0.612   3.495   0.437  0.00  0.00     0.031 A 
ENDBRANCH   1   9
TORSDOF 1
