REMARK  9 active torsions:
REMARK  status: ('A' for Active; 'I' for Inactive)
REMARK    1  A    between atoms: N_7  and  C_2 
REMARK       I    between atoms: C_11  and  N_7 
REMARK    2  A    between atoms: C_15  and  C_11 
REMARK    3  A    between atoms: C_16  and  C_15 
REMARK    4  A    between atoms: C_21  and  C_16 
REMARK    5  A    between atoms: C_17  and  C_18 
REMARK    6  A    between atoms: C_18  and  C_20 
REMARK    7  A    between atoms: C_19  and  C_22 
REMARK    8  A    between atoms: C_20  and  C_19 
REMARK    9  A    between atoms: C_22  and  C_21 
ROOT
ATOM      1  C   UNL d   1      -6.195  -3.490  -5.871  0.00  0.00     0.058 A 
ATOM      2  C   UNL d   1      -6.499  -3.334  -3.726  0.00  0.00     0.152 A 
ATOM      3  C   UNL d   1      -6.407  -4.816  -5.596  0.00  0.00     0.018 A 
ATOM      4  N   UNL d   1      -6.281  -2.617  -4.823  0.00  0.00    -0.335 N 
ATOM      5  HN  UNL d   1      -6.194  -1.602  -4.874  1.00  0.00     0.168 HD
ATOM      6  S   UNL d   1      -6.687  -5.044  -3.962  0.00  0.00    -0.056 SA
ATOM      7  C   UNL d   1      -5.950  -3.374  -7.285  0.00  0.00    -0.002 A 
ATOM      8  C   UNL d   1      -6.027  -4.675  -7.864  0.00  0.00    -0.041 A 
ATOM      9  C   UNL d   1      -6.338  -5.713  -6.785  0.00  0.00     0.088 A 
ATOM     10  C   UNL d   1      -5.674  -2.262  -8.051  0.00  0.00     0.014 A 
ATOM     11  C   UNL d   1      -5.831  -4.861  -9.222  0.00  0.00     0.008 A 
ATOM     12  C   UNL d   1      -5.476  -2.452  -9.426  0.00  0.00     0.001 A 
ATOM     13  C   UNL d   1      -5.554  -3.734  -9.999  0.00  0.00     0.001 A 
ENDROOT
BRANCH   2  14
ATOM     14  N   UNL d   1      -6.650  -2.747  -2.485  0.00  0.00    -0.307 N 
ATOM     15  C   UNL d   1      -6.556  -3.392  -1.275  0.00  0.00     0.223 C 
ATOM     16  O   UNL d   1      -6.296  -4.572  -1.096  0.00  0.00    -0.273 OA
ATOM     17  H   UNL d   1      -6.706  -1.741  -2.515  0.00  0.00     0.171 HD
BRANCH  15  18
ATOM     18  C   UNL d   1      -6.743  -2.496  -0.050  0.00  0.00     0.103 C 
BRANCH  18  19
ATOM     19  C   UNL d   1      -8.103  -1.803  -0.011  0.00  0.00     0.009 C 
BRANCH  19  20
ATOM     20  C   UNL d   1      -9.286  -2.778   0.003  0.00  0.00     0.000 C 
BRANCH  20  21
ATOM     21  C   UNL d   1     -10.613  -2.015   0.006  0.00  0.00     0.000 C 
BRANCH  21  22
ATOM     22  C   UNL d   1     -11.809  -2.965   0.006  0.00  0.00     0.000 C 
BRANCH  22  23
ATOM     23  C   UNL d   1     -13.131  -2.195   0.005  0.00  0.00     0.000 C 
BRANCH  23  24
ATOM     24  C   UNL d   1     -14.320  -3.154   0.006  0.00  0.00    -0.000 C 
BRANCH  24  25
ATOM     25  C   UNL d   1     -15.647  -2.397   0.008  0.00  0.00    -0.005 C 
ATOM     26  C   UNL d   1     -16.824  -3.359   0.008  0.00  0.00     0.005 C 
ENDBRANCH  24  25
ENDBRANCH  23  24
ENDBRANCH  22  23
ENDBRANCH  21  22
ENDBRANCH  20  21
ENDBRANCH  19  20
ENDBRANCH  18  19
ENDBRANCH  15  18
ENDBRANCH   2  14
TORSDOF 9
