REMARK  4 active torsions:
REMARK  status: ('A' for Active; 'I' for Inactive)
REMARK    1  A    between atoms: N_2  and  C_1 
REMARK    2  A    between atoms: N_4  and  C_1 
REMARK    3  A    between atoms: C_3  and  N_2 
REMARK    4  A    between atoms: C_5  and  N_4 
ROOT
ATOM      1  C   UNL d   1       1.007  -0.221  -0.118  0.00  0.00     0.176 C 
ATOM      2  S   UNL d   1       2.596   0.286  -0.263  0.00  0.00    -0.041 SA
ENDROOT
BRANCH   1   3
ATOM      3  N   UNL d   1       0.497  -1.053   0.853  0.00  0.00    -0.333 N 
ATOM      4  H   UNL d   1      -0.158  -1.736   0.492  0.00  0.00     0.168 HD
BRANCH   3   5
ATOM      5  C   UNL d   1       0.927  -1.220   2.183  0.00  0.00     0.040 A 
ATOM      6  C   UNL d   1       0.805  -2.467   2.826  0.00  0.00    -0.034 A 
ATOM      7  C   UNL d   1       1.099  -2.555   4.200  0.00  0.00     0.028 A 
ATOM      8  C   UNL d   1       0.409  -3.739   2.125  0.00  0.00     0.050 C 
ATOM      9  C   UNL d   1       1.515  -1.430   4.913  0.00  0.00     0.011 A 
ATOM     10  C   UNL d   1       1.653  -0.206   4.272  0.00  0.00     0.021 A 
ATOM     11 BR   UNL d   1       1.877  -1.568   6.762  0.00  0.00    -0.051 Br
ATOM     12  C   UNL d   1       1.361  -0.104   2.914  0.00  0.00     0.031 A 
ENDBRANCH   3   5
ENDBRANCH   1   3
BRANCH   1  13
ATOM     13  N   UNL d   1       0.145   0.069  -1.146  0.00  0.00    -0.333 N 
ATOM     14  H   UNL d   1       0.600   0.360  -2.005  0.00  0.00     0.168 HD
BRANCH  13  15
ATOM     15  C   UNL d   1      -1.258   0.184  -1.112  0.00  0.00     0.035 A 
ATOM     16  C   UNL d   1      -1.971   0.467   0.059  0.00  0.00     0.036 A 
ATOM     17  C   UNL d   1      -3.362   0.637   0.022  0.00  0.00    -0.059 A 
ATOM     18  C   UNL d   1      -4.132   0.997   1.260  0.00  0.00     0.048 C 
ATOM     19  C   UNL d   1      -4.038   0.468  -1.192  0.00  0.00     0.013 A 
ATOM     20  C   UNL d   1      -3.337   0.183  -2.370  0.00  0.00    -0.059 A 
ATOM     21  C   UNL d   1      -1.941   0.079  -2.325  0.00  0.00     0.036 A 
ATOM     22  C   UNL d   1      -4.082  -0.029  -3.654  0.00  0.00     0.048 C 
ENDBRANCH  13  15
ENDBRANCH   1  13
TORSDOF 4
