REMARK  4 active torsions:
REMARK  status: ('A' for Active; 'I' for Inactive)
REMARK    1  A    between atoms: C_7  and  C_1 
REMARK    2  A    between atoms: C_8  and  C_2 
REMARK    3  A    between atoms: O_15  and  C_7 
REMARK    4  A    between atoms: C_17  and  O_15 
ROOT
ATOM      1  C   UNL d   1       1.457   1.043   0.037  0.00  0.00     0.068 C 
ATOM      2  C   UNL d   1       0.231   1.919  -0.034  0.00  0.00     0.185 C 
ATOM      3  C   UNL d   1       1.362  -0.303  -0.010  0.00  0.00     0.024 C 
ATOM      4  C   UNL d   1      -1.073  -0.195  -0.033  0.00  0.00     0.321 C 
ATOM      5  N   UNL d   1       0.107  -0.867  -0.098  0.00  0.00    -0.312 N 
ATOM      6  N   UNL d   1      -0.989   1.146   0.122  0.00  0.00    -0.328 N 
ATOM      7  O   UNL d   1      -2.152  -0.773  -0.078  0.00  0.00    -0.247 OA
ATOM      8  C   UNL d   1       2.478  -1.314   0.002  0.00  0.00     0.069 C 
ATOM      9  H   UNL d   1       0.008  -1.875  -0.157  0.00  0.00     0.170 HD
ATOM     10  H   UNL d   1      -1.875   1.631   0.125  0.00  0.00     0.165 HD
ENDROOT
BRANCH   1  11
ATOM     11  C   UNL d   1       2.771   1.726   0.169  0.00  0.00     0.293 C 
ATOM     12  O   UNL d   1       3.751   1.235   0.708  0.00  0.00    -0.259 OA
BRANCH  11  13
ATOM     13  O   UNL d   1       2.726   2.971  -0.366  0.00  0.00    -0.318 OA
BRANCH  13  14
ATOM     14  C   UNL d   1       3.925   3.753  -0.234  0.00  0.00     0.174 C 
ATOM     15  C   UNL d   1       4.138   4.239   1.193  0.00  0.00     0.034 C 
ENDBRANCH  13  14
ENDBRANCH  11  13
ENDBRANCH   1  11
BRANCH   2  16
ATOM     16  C   UNL d   1       0.146   3.023   0.976  0.00  0.00     0.080 A 
ATOM     17  O   UNL d   1       0.004   4.290   0.484  0.00  0.00    -0.325 OA
ATOM     18  C   UNL d   1       0.009   5.131   1.548  0.00  0.00     0.142 A 
ATOM     19  C   UNL d   1       0.135   4.425   2.721  0.00  0.00     0.027 A 
ATOM     20  C   UNL d   1       0.211   3.060   2.354  0.00  0.00     0.037 A 
ENDBRANCH   2  16
TORSDOF 4
