REMARK  7 active torsions:
REMARK  status: ('A' for Active; 'I' for Inactive)
REMARK    1  A    between atoms: C_4  and  C_1 
REMARK    2  A    between atoms: N_2  and  C_3 
REMARK    3  A    between atoms: O_8  and  C_4 
REMARK    4  A    between atoms: C_5  and  C_11 
REMARK    5  A    between atoms: O_19  and  C_5 
REMARK    6  A    between atoms: C_17  and  O_8 
REMARK    7  A    between atoms: C_23  and  O_19 
ROOT
ATOM      1  C   UNL d   1       5.003  -0.232  -1.016  0.00  0.00     0.301 C 
ATOM      2  O   UNL d   1       5.001  -0.450  -2.214  0.00  0.00    -0.259 OA
ENDROOT
BRANCH   1   3
ATOM      3  C   UNL d   1       5.195   1.117  -0.435  0.00  0.00     0.072 A 
ATOM      4  C   UNL d   1       5.924   1.391   0.729  0.00  0.00     0.120 A 
ATOM      5  C   UNL d   1       5.969   2.686   1.271  0.00  0.00     0.060 A 
ATOM      6  C   UNL d   1       5.296   3.717   0.621  0.00  0.00     0.036 A 
ATOM      7  C   UNL d   1       4.596   3.472  -0.560  0.00  0.00     0.025 A 
ATOM      8 CL   UNL d   1       5.340   5.308   1.271  0.00  0.00    -0.084 Cl
ATOM      9  C   UNL d   1       4.545   2.177  -1.088  0.00  0.00     0.022 A 
BRANCH   4  10
ATOM     10  N   UNL d   1       6.718   0.361   1.381  0.00  0.00    -0.115 N 
ATOM     11  O   UNL d   1       7.358  -0.408   0.656  0.00  0.00    -0.532 OA
ATOM     12  O   UNL d   1       6.727   0.355   2.619  0.00  0.00    -0.532 OA
ENDBRANCH   4  10
ENDBRANCH   1   3
BRANCH   1  13
ATOM     13  O   UNL d   1       4.660  -1.087   0.013  0.00  0.00    -0.275 OA
BRANCH  13  14
ATOM     14  C   UNL d   1       4.179  -2.385  -0.251  0.00  0.00     0.079 A 
ATOM     15  C   UNL d   1       4.565  -3.368   0.661  0.00  0.00     0.038 A 
ATOM     16  C   UNL d   1       3.983  -4.635   0.596  0.00  0.00     0.020 A 
ATOM     17  C   UNL d   1       3.003  -4.913  -0.370  0.00  0.00     0.039 A 
ATOM     18  C   UNL d   1       2.663  -3.930  -1.311  0.00  0.00     0.020 A 
ATOM     19  C   UNL d   1       3.245  -2.660  -1.248  0.00  0.00     0.038 A 
BRANCH  17  20
ATOM     20  C   UNL d   1       2.213  -6.175  -0.351  0.00  0.00     0.293 C 
ATOM     21  O   UNL d   1       1.305  -6.418  -1.131  0.00  0.00    -0.259 OA
BRANCH  20  22
ATOM     22  O   UNL d   1       2.564  -6.916   0.728  0.00  0.00    -0.318 OA
BRANCH  22  23
ATOM     23  C   UNL d   1       1.620  -7.908   1.154  0.00  0.00     0.174 C 
ATOM     24  C   UNL d   1       0.757  -7.293   2.241  0.00  0.00     0.034 C 
ENDBRANCH  22  23
ENDBRANCH  20  22
ENDBRANCH  17  20
ENDBRANCH  13  14
ENDBRANCH   1  13
TORSDOF 7
