REMARK  6 active torsions:
REMARK  status: ('A' for Active; 'I' for Inactive)
REMARK    1  A    between atoms: N_6  and  C_1 
REMARK    2  A    between atoms: C_3  and  C_2 
REMARK       I    between atoms: N_8  and  C_3 
REMARK    3  A    between atoms: C_16  and  N_7 
REMARK    4  A    between atoms: C_18  and  N_8 
REMARK    5  A    between atoms: C_14  and  C_18 
REMARK    6  A    between atoms: C_21  and  C_16 
ROOT
ATOM      1  C   UNL d   1       1.337   3.019   1.075  0.00  0.00     0.253 C 
ATOM      2  N   UNL d   1       0.648   3.666   0.070  0.00  0.00    -0.354 N 
ATOM      3  O   UNL d   1       0.766   2.531   2.044  0.00  0.00    -0.268 OA
ATOM      4  H   UNL d   1       1.110   4.126  -0.701  0.00  0.00     0.162 HD
ENDROOT
BRANCH   2   5
ATOM      5  C   UNL d   1      -0.811   3.763   0.084  0.00  0.00     0.156 C 
BRANCH   5   6
ATOM      6  C   UNL d   1      -1.288   5.210   0.283  0.00  0.00     0.167 C 
ATOM      7  O   UNL d   1      -0.938   5.977  -0.890  0.00  0.00    -0.381 OA
ATOM      8  C   UNL d   1      -1.393   7.333  -0.773  0.00  0.00     0.198 C 
ATOM      9  C   UNL d   1      -2.907   7.425  -0.488  0.00  0.00     0.299 C 
ATOM     10  N   UNL d   1      -3.357   6.616   0.668  0.00  0.00     0.097 N 
ATOM     11  C   UNL d   1      -2.819   5.247   0.491  0.00  0.00     0.306 C 
BRANCH  10  12
ATOM     12  C   UNL d   1      -2.943   7.247   1.935  0.00  0.00     0.311 C 
BRANCH  12  13
ATOM     13  C   UNL d   1      -3.357   6.493   3.181  0.00  0.00    -0.030 A 
ATOM     14  C   UNL d   1      -2.388   5.909   4.012  0.00  0.00     0.009 A 
ATOM     15  C   UNL d   1      -2.762   5.239   5.178  0.00  0.00     0.001 A 
ATOM     16  C   UNL d   1      -4.108   5.145   5.525  0.00  0.00     0.000 A 
ATOM     17  C   UNL d   1      -5.081   5.711   4.703  0.00  0.00     0.001 A 
ATOM     18  C   UNL d   1      -4.708   6.379   3.534  0.00  0.00     0.009 A 
ENDBRANCH  12  13
ENDBRANCH  10  12
ENDBRANCH   5   6
ENDBRANCH   2   5
BRANCH   1  19
ATOM     19  C   UNL d   1       2.821   2.913   0.980  0.00  0.00     0.047 A 
ATOM     20  C   UNL d   1       3.488   2.206   1.979  0.00  0.00     0.022 A 
ATOM     21  C   UNL d   1       4.877   2.103   1.943  0.00  0.00     0.043 A 
ATOM     22  C   UNL d   1       5.604   2.707   0.917  0.00  0.00     0.082 A 
ATOM     23  N   UNL d   1       4.973   3.363  -0.080  0.00  0.00    -0.356 N 
ATOM     24  C   UNL d   1       3.609   3.458  -0.021  0.00  0.00     0.106 A 
ATOM     25  HN  UNL d   1       5.496   3.774  -0.852  1.00  0.00     0.166 HD
BRANCH  22  26
ATOM     26  N   UNL d   1       6.992   2.570   0.939  0.00  0.00    -0.265 NA
ATOM     27  C   UNL d   1       7.715   2.799  -0.322  0.00  0.00     0.123 C 
ATOM     28  C   UNL d   1       9.158   2.282  -0.133  0.00  0.00     0.182 C 
ATOM     29  O   UNL d   1       9.820   2.928   0.973  0.00  0.00    -0.389 OA
ATOM     30  C   UNL d   1       9.079   2.736   2.191  0.00  0.00     0.182 C 
ATOM     31  C   UNL d   1       7.646   3.274   2.060  0.00  0.00     0.123 C 
ENDBRANCH  22  26
ENDBRANCH   1  19
TORSDOF 6
