REMARK  1 active torsions:
REMARK  status: ('A' for Active; 'I' for Inactive)
REMARK       I    between atoms: C_2  and  N_1 
REMARK       I    between atoms: N_9  and  C_2 
REMARK    1  A    between atoms: C_12  and  N_9 
ROOT
ATOM      1  N   UNL d   1       0.633   1.492   0.610  0.00  0.00    -0.293 N 
ATOM      2  C   UNL d   1       0.904   2.280   1.756  0.00  0.00     0.328 C 
ATOM      3  C   UNL d   1       1.631   1.474  -0.464  0.00  0.00     0.099 C 
ATOM      4  N   UNL d   1       0.931  -1.441  -0.036  0.00  0.00    -0.325 N 
ATOM      5  C   UNL d   1      -0.454   0.599   0.461  0.00  0.00     0.066 A 
ATOM      6  C   UNL d   1       2.195  -1.032  -0.305  0.00  0.00     0.224 C 
ATOM      7  C   UNL d   1       2.663   0.391  -0.220  0.00  0.00     0.128 C 
ATOM      8  C   UNL d   1      -0.284  -0.766   0.172  0.00  0.00     0.062 A 
ATOM      9  N   UNL d   1       0.006   2.142   2.798  0.00  0.00    -0.309 N 
ATOM     10  O   UNL d   1       1.899   3.002   1.795  0.00  0.00    -0.246 OA
ATOM     11  O   UNL d   1       3.008  -1.916  -0.604  0.00  0.00    -0.273 OA
ATOM     12  C   UNL d   1       1.030   1.463  -1.876  0.00  0.00     0.033 C 
ATOM     13  C   UNL d   1      -1.753   1.144   0.475  0.00  0.00     0.032 A 
ATOM     14  C   UNL d   1      -1.430  -1.571   0.017  0.00  0.00     0.032 A 
ATOM     15  C   UNL d   1      -2.868   0.343   0.241  0.00  0.00     0.002 A 
ATOM     16  C   UNL d   1      -2.708  -1.018   0.029  0.00  0.00     0.002 A 
ATOM     17  H   UNL d   1       0.870  -2.447  -0.162  0.00  0.00     0.169 HD
ATOM     18  H   UNL d   1      -0.802   1.570   2.628  0.00  0.00     0.170 HD
ENDROOT
BRANCH   9  19
ATOM     19  C   UNL d   1       0.082   2.698   4.093  0.00  0.00     0.036 A 
ATOM     20  C   UNL d   1       1.193   3.389   4.595  0.00  0.00     0.029 A 
ATOM     21  C   UNL d   1       1.206   3.847   5.916  0.00  0.00     0.002 A 
ATOM     22  C   UNL d   1       0.113   3.635   6.750  0.00  0.00     0.000 A 
ATOM     23  C   UNL d   1      -1.009   2.971   6.256  0.00  0.00     0.002 A 
ATOM     24  C   UNL d   1      -1.019   2.505   4.938  0.00  0.00     0.029 A 
ENDBRANCH   9  19
TORSDOF 1
