REMARK  6 active torsions:
REMARK  status: ('A' for Active; 'I' for Inactive)
REMARK    1  A    between atoms: C_3  and  C_1 
REMARK    2  A    between atoms: C_2  and  C_4 
REMARK       I    between atoms: C_5  and  N_11 
REMARK    3  A    between atoms: O_21  and  C_5 
REMARK    4  A    between atoms: N_11  and  N_7 
REMARK    5  A    between atoms: C_20  and  C_12 
REMARK    6  A    between atoms: C_22  and  O_21 
ROOT
ATOM      1  C   UNL d   1       0.698  -0.583   1.430  0.00  0.00     0.049 A 
ATOM      2  C   UNL d   1       0.525  -2.678   2.686  0.00  0.00     0.049 A 
ATOM      3  C   UNL d   1       0.689  -1.989   1.473  0.00  0.00     0.032 A 
ATOM      4  C   UNL d   1       0.363  -1.938   3.864  0.00  0.00     0.029 A 
ATOM      5  C   UNL d   1       0.533   0.140   2.625  0.00  0.00     0.029 A 
ATOM      6  C   UNL d   1       0.373  -0.539   3.834  0.00  0.00    -0.018 A 
ENDROOT
BRANCH   6   7
ATOM      7  C   UNL d   1       0.234   0.225   5.091  0.00  0.00     0.118 C 
ATOM      8  N   UNL d   1       0.102  -0.401   6.214  0.00  0.00    -0.307 N 
ATOM      9  HN  UNL d   1       0.077  -1.420   6.259  1.00  0.00     0.186 HD
BRANCH   8  10
ATOM     10  N   UNL d   1      -0.002   0.363   7.330  0.00  0.00    -0.246 N 
ATOM     11  C   UNL d   1      -0.278  -0.222   8.543  0.00  0.00     0.379 C 
ATOM     12  O   UNL d   1      -0.438  -1.417   8.754  0.00  0.00    -0.237 OA
ATOM     13  H   UNL d   1       0.054   1.371   7.290  0.00  0.00     0.192 HD
BRANCH  11  14
ATOM     14  O   UNL d   1      -0.393   0.752   9.487  0.00  0.00    -0.303 OA
BRANCH  14  15
ATOM     15  C   UNL d   1      -0.848   0.299  10.771  0.00  0.00     0.176 C 
ATOM     16  C   UNL d   1      -2.365   0.328  10.798  0.00  0.00     0.034 C 
ENDBRANCH  14  15
ENDBRANCH  11  14
ENDBRANCH   8  10
ENDBRANCH   6   7
BRANCH   2  17
ATOM     17  C   UNL d   1       0.523  -4.188   2.749  0.00  0.00     0.417 C 
ATOM     18  F   UNL d   1       0.776  -4.776   1.547  0.00  0.00    -0.166 F 
ATOM     19  F   UNL d   1       1.462  -4.674   3.606  0.00  0.00    -0.166 F 
ATOM     20  F   UNL d   1      -0.670  -4.689   3.167  0.00  0.00    -0.166 F 
ENDBRANCH   2  17
BRANCH   1  21
ATOM     21  C   UNL d   1       0.881   0.156   0.124  0.00  0.00     0.417 C 
ATOM     22  F   UNL d   1       1.168  -0.658  -0.927  0.00  0.00    -0.166 F 
ATOM     23  F   UNL d   1       1.894   1.064   0.183  0.00  0.00    -0.166 F 
ATOM     24  F   UNL d   1      -0.230   0.857  -0.232  0.00  0.00    -0.166 F 
ENDBRANCH   1  21
TORSDOF 6
