REMARK  7 active torsions:
REMARK  status: ('A' for Active; 'I' for Inactive)
REMARK    1  A    between atoms: C_6  and  C_1 
REMARK    2  A    between atoms: C_21  and  C_5 
REMARK       I    between atoms: C_7  and  N_14 
REMARK       I    between atoms: N_12  and  C_7 
REMARK    3  A    between atoms: O_13  and  C_8 
REMARK    4  A    between atoms: C_15  and  N_12 
REMARK    5  A    between atoms: C_24  and  O_13 
REMARK    6  A    between atoms: N_14  and  C_21 
REMARK    7  A    between atoms: O_25  and  C_16 
ROOT
ATOM      1  C   UNL d   1       5.315   2.240  -1.545  0.00  0.00     0.321 C 
ATOM      2  N   UNL d   1       4.980   2.818  -0.346  0.00  0.00    -0.309 N 
ATOM      3  N   UNL d   1       4.449   2.437  -2.576  0.00  0.00    -0.337 N 
ATOM      4  O   UNL d   1       6.300   1.512  -1.622  0.00  0.00    -0.247 OA
ATOM      5  H   UNL d   1       5.383   2.320   0.438  0.00  0.00     0.170 HD
ATOM      6  H   UNL d   1       3.566   2.888  -2.399  0.00  0.00     0.164 HD
ENDROOT
BRANCH   3   7
ATOM      7  C   UNL d   1       4.585   1.805  -3.866  0.00  0.00     0.181 C 
BRANCH   7   8
ATOM      8  C   UNL d   1       4.825   2.872  -4.877  0.00  0.00     0.034 A 
ATOM      9  N   UNL d   1       3.747   3.452  -5.535  0.00  0.00    -0.351 N 
ATOM     10  C   UNL d   1       4.160   4.375  -6.383  0.00  0.00     0.091 A 
ATOM     11  HN  UNL d   1       2.770   3.198  -5.383  1.00  0.00     0.166 HD
ATOM     12  S   UNL d   1       5.869   4.604  -6.414  0.00  0.00    -0.081 SA
ATOM     13  C   UNL d   1       6.057   3.389  -5.231  0.00  0.00     0.078 A 
BRANCH  10  14
ATOM     14  C   UNL d   1       3.264   5.144  -7.221  0.00  0.00     0.038 A 
ATOM     15  S   UNL d   1       1.558   4.918  -7.147  0.00  0.00    -0.099 SA
ATOM     16  C   UNL d   1       1.269   6.101  -8.347  0.00  0.00     0.050 A 
ATOM     17  C   UNL d   1       2.435   6.667  -8.805  0.00  0.00     0.008 A 
ATOM     18  C   UNL d   1       3.581   6.117  -8.158  0.00  0.00     0.022 A 
ENDBRANCH  10  14
ENDBRANCH   7   8
ENDBRANCH   3   7
BRANCH   2  19
ATOM     19  C   UNL d   1       3.935   3.722  -0.103  0.00  0.00     0.039 A 
ATOM     20  C   UNL d   1       3.088   3.486   0.981  0.00  0.00     0.069 A 
ATOM     21  C   UNL d   1       1.899   4.217   1.121  0.00  0.00     0.104 A 
ATOM     22  C   UNL d   1       1.644   5.289   0.246  0.00  0.00     0.101 A 
ATOM     23  C   UNL d   1       2.561   5.581  -0.771  0.00  0.00     0.042 A 
ATOM     24  C   UNL d   1       3.698   4.802  -0.950  0.00  0.00     0.032 A 
BRANCH  21  25
ATOM     25  O   UNL d   1       0.963   3.898   2.069  0.00  0.00    -0.343 OA
BRANCH  25  26
ATOM     26  C   UNL d   1       0.821   2.526   2.444  0.00  0.00     0.129 C 
ATOM     27  C   UNL d   1       0.433   1.594   1.293  0.00  0.00     0.032 C 
ATOM     28  C   UNL d   1      -0.391   0.472   1.921  0.00  0.00     0.002 C 
ATOM     29  C   UNL d   1      -0.745   0.934   3.331  0.00  0.00     0.002 C 
ATOM     30  C   UNL d   1      -0.382   2.408   3.377  0.00  0.00     0.032 C 
ENDBRANCH  25  26
ENDBRANCH  21  25
BRANCH  22  31
ATOM     31  O   UNL d   1       0.541   6.098   0.188  0.00  0.00    -0.353 OA
ATOM     32  C   UNL d   1      -0.272   6.208   1.345  0.00  0.00     0.210 C 
ENDBRANCH  22  31
ENDBRANCH   2  19
TORSDOF 7
