REMARK  7 active torsions:
REMARK  status: ('A' for Active; 'I' for Inactive)
REMARK    1  A    between atoms: C_8  and  N_1 
REMARK    2  A    between atoms: S_9  and  C_2 
REMARK    3  A    between atoms: O_13  and  C_3 
REMARK    4  A    between atoms: C_12  and  C_8 
REMARK    5  A    between atoms: C_10  and  S_9 
REMARK    6  A    between atoms: C_11  and  C_10 
REMARK    7  A    between atoms: C_16  and  C_14 
ROOT
ATOM      1  N   UNL d   1      -0.415  -1.330  -0.158  0.00  0.00    -0.282 N 
ATOM      2  C   UNL d   1       0.850  -0.922  -0.515  0.00  0.00     0.165 A 
ATOM      3  C   UNL d   1      -1.079  -0.166   0.153  0.00  0.00     0.241 A 
ATOM      4  N   UNL d   1       0.959   0.375  -0.361  0.00  0.00    -0.277 N 
ATOM      5  HN  UNL d   1       1.801   0.930  -0.519  1.00  0.00     0.189 HD
ATOM      6  N   UNL d   1      -0.259   0.855   0.052  0.00  0.00    -0.263 N 
ATOM      7  HN  UNL d   1      -0.487   1.830   0.245  1.00  0.00     0.190 HD
ENDROOT
BRANCH   2   8
ATOM      8  S   UNL d   1       2.087  -1.975  -1.109  0.00  0.00    -0.088 SA
BRANCH   8   9
ATOM      9  C   UNL d   1       3.502  -0.831  -1.252  0.00  0.00     0.121 C 
BRANCH   9  10
ATOM     10  C   UNL d   1       4.770  -1.364  -1.913  0.00  0.00    -0.042 A 
ATOM     11  C   UNL d   1       5.904  -0.521  -2.056  0.00  0.00    -0.051 A 
ATOM     12  C   UNL d   1       7.084  -1.027  -2.646  0.00  0.00     0.007 A 
ATOM     13  C   UNL d   1       7.152  -2.335  -3.111  0.00  0.00     0.001 A 
ATOM     14  C   UNL d   1       6.045  -3.160  -2.993  0.00  0.00     0.001 A 
ATOM     15  C   UNL d   1       4.873  -2.683  -2.400  0.00  0.00     0.008 A 
BRANCH  11  16
ATOM     16  C   UNL d   1       5.939   0.921  -1.590  0.00  0.00     0.034 C 
ATOM     17  C   UNL d   1       6.507   1.062  -0.186  0.00  0.00     0.010 C 
ENDBRANCH  11  16
ENDBRANCH   9  10
ENDBRANCH   8   9
ENDBRANCH   2   8
BRANCH   1  18
ATOM     18  C   UNL d   1      -0.945  -2.695  -0.129  0.00  0.00     0.124 C 
ATOM     19  C   UNL d   1      -1.942  -2.894  -1.279  0.00  0.00     0.038 C 
BRANCH  18  20
ATOM     20  C   UNL d   1      -1.448  -3.083   1.266  0.00  0.00    -0.035 A 
ATOM     21  C   UNL d   1      -2.608  -3.858   1.457  0.00  0.00     0.009 A 
ATOM     22  C   UNL d   1      -3.019  -4.236   2.740  0.00  0.00     0.001 A 
ATOM     23  C   UNL d   1      -2.282  -3.854   3.856  0.00  0.00     0.000 A 
ATOM     24  C   UNL d   1      -1.123  -3.102   3.691  0.00  0.00     0.001 A 
ATOM     25  C   UNL d   1      -0.705  -2.732   2.409  0.00  0.00     0.009 A 
ENDBRANCH  18  20
ENDBRANCH   1  18
BRANCH   3  26
ATOM     26  O   UNL d   1      -2.349  -0.038   0.502  0.00  0.00    -0.331 OA
ATOM     27  H   UNL d   1      -2.739  -0.911   0.656  0.00  0.00     0.221 HD
ENDBRANCH   3  26
TORSDOF 7
