REMARK  2 active torsions:
REMARK  status: ('A' for Active; 'I' for Inactive)
REMARK    1  A    between atoms: N_7  and  C_2 
REMARK       I    between atoms: C_4  and  N_6 
REMARK       I    between atoms: N_12  and  C_4 
REMARK    2  A    between atoms: C_21  and  N_12 
ROOT
ATOM      1  C   UNL d   1       2.655  -6.733  -0.822  0.00  0.00     0.323 C 
ATOM      2  N   UNL d   1       2.271  -5.474  -0.381  0.00  0.00    -0.332 N 
ATOM      3  N   UNL d   1       1.537  -2.729  -0.017  0.00  0.00    -0.265 NA
ATOM      4  N   UNL d   1       3.838  -7.211  -0.310  0.00  0.00    -0.309 N 
ATOM      5  O   UNL d   1       1.958  -7.345  -1.632  0.00  0.00    -0.247 OA
ATOM      6  C   UNL d   1       0.964  -4.966  -0.839  0.00  0.00     0.142 C 
ATOM      7  C   UNL d   1       2.882  -4.661   0.690  0.00  0.00     0.142 C 
ATOM      8  C   UNL d   1       2.899  -3.160   0.339  0.00  0.00     0.117 C 
ATOM      9  C   UNL d   1       1.019  -3.468  -1.187  0.00  0.00     0.117 C 
ATOM     10  H   UNL d   1       4.304  -6.657   0.382  0.00  0.00     0.170 HD
ENDROOT
BRANCH   3  11
ATOM     11  C   UNL d   1       1.378  -1.345  -0.114  0.00  0.00     0.103 A 
ATOM     12  C   UNL d   1       0.134  -0.713   0.071  0.00  0.00     0.070 A 
ATOM     13  S   UNL d   1      -1.414  -1.399   0.400  0.00  0.00    -0.096 SA
ATOM     14  C   UNL d   1       0.057   0.676   0.038  0.00  0.00     0.060 A 
ATOM     15  C   UNL d   1      -2.164   0.128   0.460  0.00  0.00     0.059 A 
ATOM     16  C   UNL d   1      -1.276   1.166   0.262  0.00  0.00    -0.027 A 
ATOM     17  C   UNL d   1      -1.663   2.606   0.290  0.00  0.00     0.051 C 
ATOM     18  N   UNL d   1       1.145   1.460  -0.168  0.00  0.00    -0.351 N 
ATOM     19  C   UNL d   1       2.285   0.783  -0.312  0.00  0.00     0.182 A 
ATOM     20  HN  UNL d   1       1.096   2.478  -0.209  1.00  0.00     0.166 HD
ATOM     21  N   UNL d   1       2.457  -0.546  -0.289  0.00  0.00    -0.342 N 
ATOM     22  HN  UNL d   1       3.387  -0.950  -0.402  1.00  0.00     0.167 HD
ENDBRANCH   3  11
BRANCH   4  23
ATOM     23  C   UNL d   1       4.459  -8.449  -0.588  0.00  0.00     0.036 A 
ATOM     24  C   UNL d   1       3.972  -9.386  -1.502  0.00  0.00     0.029 A 
ATOM     25  C   UNL d   1       4.624 -10.611  -1.681  0.00  0.00     0.002 A 
ATOM     26  C   UNL d   1       5.773 -10.906  -0.955  0.00  0.00     0.000 A 
ATOM     27  C   UNL d   1       6.284  -9.969  -0.061  0.00  0.00     0.002 A 
ATOM     28  C   UNL d   1       5.633  -8.747   0.119  0.00  0.00     0.029 A 
ENDBRANCH   4  23
TORSDOF 2
