REMARK  1 active torsions:
REMARK  status: ('A' for Active; 'I' for Inactive)
REMARK    1  A    between atoms: C_9  and  C_5 
ROOT
ATOM      1  C   UNL d   1      -0.733   0.362  -0.022  0.00  0.00     0.050 C 
ATOM      2  C   UNL d   1      -1.386  -0.814  -0.028  0.00  0.00    -0.025 C 
ATOM      3  N   UNL d   1      -1.472   1.521  -0.084  0.00  0.00    -0.332 N 
ATOM      4  C   UNL d   1      -2.825   1.582   0.029  0.00  0.00     0.173 C 
ATOM      5  C   UNL d   1      -2.892  -0.869  -0.155  0.00  0.00     0.150 C 
ATOM      6  N   UNL d   1      -3.481   0.408   0.193  0.00  0.00    -0.354 N 
ATOM      7  C   UNL d   1       0.748   0.415   0.030  0.00  0.00    -0.003 A 
ATOM      8  C   UNL d   1      -0.692  -2.144   0.073  0.00  0.00     0.043 C 
ATOM      9  S   UNL d   1      -3.637   3.031  -0.001  0.00  0.00    -0.041 SA
ATOM     10  C   UNL d   1       1.492  -0.780   0.015  0.00  0.00    -0.045 A 
ATOM     11  C   UNL d   1       0.831  -2.130  -0.059  0.00  0.00     0.044 C 
ATOM     12  C   UNL d   1       1.458   1.630   0.085  0.00  0.00     0.014 A 
ATOM     13  C   UNL d   1       2.900  -0.739   0.026  0.00  0.00     0.008 A 
ATOM     14  C   UNL d   1       2.856   1.660   0.097  0.00  0.00     0.001 A 
ATOM     15  C   UNL d   1       3.578   0.475   0.063  0.00  0.00     0.001 A 
ATOM     16  H   UNL d   1      -1.010   2.416  -0.159  0.00  0.00     0.168 HD
ATOM     17  H   UNL d   1      -4.491   0.470   0.221  0.00  0.00     0.163 HD
ENDROOT
BRANCH   5  18
ATOM     18  C   UNL d   1      -3.351  -1.286  -1.537  0.00  0.00    -0.016 A 
ATOM     19  C   UNL d   1      -4.113  -2.436  -1.717  0.00  0.00     0.097 A 
ATOM     20  N   UNL d   1      -4.574  -2.864  -2.917  0.00  0.00    -0.375 N 
ATOM     21  C   UNL d   1      -4.267  -2.108  -3.991  0.00  0.00     0.087 A 
ATOM     22  HN  UNL d   1      -5.127  -3.716  -3.003  1.00  0.00     0.164 HD
ATOM     23  C   UNL d   1      -3.513  -0.950  -3.928  0.00  0.00     0.018 A 
ATOM     24  C   UNL d   1      -3.049  -0.539  -2.682  0.00  0.00     0.012 A 
ENDBRANCH   5  18
TORSDOF 1
