REMARK  6 active torsions:
REMARK  status: ('A' for Active; 'I' for Inactive)
REMARK    1  A    between atoms: N_3  and  S_1 
REMARK    2  A    between atoms: C_4  and  S_1 
REMARK    3  A    between atoms: N_2  and  C_8 
REMARK    4  A    between atoms: C_17  and  N_3 
REMARK    5  A    between atoms: C_18  and  C_17 
REMARK    6  A    between atoms: C_25  and  C_23 
ROOT
ATOM      1  C   UNL d   1       1.055   0.704   2.539  0.00  0.00     0.170 C 
ENDROOT
BRANCH   1   2
ATOM      2  N   UNL d   1      -0.024   0.093   1.763  0.00  0.00    -0.311 N 
ATOM      3  H   UNL d   1      -0.870  -0.164   2.266  0.00  0.00     0.172 HD
BRANCH   2   4
ATOM      4  S   UNL d   1       0.412  -1.035   0.594  0.00  0.00     0.259 S 
ATOM      5  O   UNL d   1       1.501  -0.474  -0.178  0.00  0.00    -0.201 OA
ATOM      6  O   UNL d   1      -0.804  -1.511  -0.018  0.00  0.00    -0.201 OA
BRANCH   4   7
ATOM      7  C   UNL d   1       1.059  -2.362   1.582  0.00  0.00     0.079 A 
ATOM      8  C   UNL d   1       0.190  -3.052   2.432  0.00  0.00     0.026 A 
ATOM      9  C   UNL d   1       0.687  -4.071   3.243  0.00  0.00     0.009 A 
ATOM     10  C   UNL d   1       2.045  -4.418   3.196  0.00  0.00    -0.058 A 
ATOM     11  C   UNL d   1       2.899  -3.728   2.326  0.00  0.00     0.009 A 
ATOM     12  C   UNL d   1       2.411  -2.700   1.516  0.00  0.00     0.026 A 
BRANCH  10  13
ATOM     13  C   UNL d   1       2.586  -5.506   4.090  0.00  0.00     0.034 C 
ATOM     14  C   UNL d   1       3.050  -4.958   5.432  0.00  0.00     0.010 C 
ENDBRANCH  10  13
ENDBRANCH   4   7
ENDBRANCH   2   4
ENDBRANCH   1   2
BRANCH   1  15
ATOM     15  C   UNL d   1       0.547   1.688   3.562  0.00  0.00    -0.040 A 
ATOM     16  C   UNL d   1      -0.298   1.286   4.599  0.00  0.00     0.011 A 
ATOM     17  C   UNL d   1      -0.727   2.204   5.565  0.00  0.00     0.030 A 
ATOM     18  C   UNL d   1      -0.327   3.550   5.554  0.00  0.00     0.030 A 
ATOM     19  C   UNL d   1       0.527   3.929   4.508  0.00  0.00     0.030 A 
ATOM     20  C   UNL d   1       0.952   3.024   3.525  0.00  0.00     0.011 A 
BRANCH  18  21
ATOM     21  N   UNL d   1      -0.798   4.449   6.489  0.00  0.00    -0.378 N 
ATOM     22  C   UNL d   1      -0.757   5.906   6.280  0.00  0.00     0.153 C 
ATOM     23  C   UNL d   1      -2.064   6.545   6.811  0.00  0.00     0.291 C 
ATOM     24  N   UNL d   1      -2.338   6.205   8.226  0.00  0.00     0.087 N 
ATOM     25  C   UNL d   1      -2.381   4.731   8.363  0.00  0.00     0.291 C 
ATOM     26  C   UNL d   1      -3.594   6.805   8.666  0.00  0.00     0.310 C 
ATOM     27  C   UNL d   1      -1.069   4.066   7.887  0.00  0.00     0.153 C 
ENDBRANCH  18  21
ENDBRANCH   1  15
TORSDOF 6
