REMARK  6 active torsions:
REMARK  status: ('A' for Active; 'I' for Inactive)
REMARK    1  A    between atoms: C_3  and  S_1 
REMARK    2  A    between atoms: C_5  and  S_1 
REMARK    3  A    between atoms: N_2  and  C_8 
REMARK    4  A    between atoms: C_9  and  C_3 
REMARK    5  A    between atoms: C_8  and  C_9 
REMARK    6  A    between atoms: O_16  and  C_9 
ROOT
ATOM      1  C   UNL d   1       0.283  -1.534  -0.503  0.00  0.00     0.179 C 
ENDROOT
BRANCH   1   2
ATOM      2  S   UNL d   1       0.561   0.073   0.203  0.00  0.00     0.178 S 
ATOM      3  O   UNL d   1      -0.195   1.035  -0.576  0.00  0.00    -0.223 OA
ATOM      4  O   UNL d   1       1.982   0.264   0.429  0.00  0.00    -0.223 OA
BRANCH   2   5
ATOM      5  C   UNL d   1      -0.174  -0.043   1.816  0.00  0.00     0.059 A 
ATOM      6  C   UNL d   1       0.407  -0.900   2.752  0.00  0.00     0.024 A 
ATOM      7  C   UNL d   1      -0.152  -0.993   4.028  0.00  0.00     0.008 A 
ATOM      8  C   UNL d   1      -1.275  -0.224   4.367  0.00  0.00    -0.062 A 
ATOM      9  C   UNL d   1      -1.828   0.645   3.414  0.00  0.00     0.008 A 
ATOM     10  C   UNL d   1      -1.856  -0.331   5.743  0.00  0.00     0.048 C 
ATOM     11  C   UNL d   1      -1.283   0.737   2.134  0.00  0.00     0.024 A 
ENDBRANCH   2   5
ENDBRANCH   1   2
BRANCH   1  12
ATOM     12  C   UNL d   1       0.827  -1.667  -1.915  0.00  0.00     0.150 C 
BRANCH  12  13
ATOM     13  C   UNL d   1       2.352  -1.480  -2.096  0.00  0.00     0.158 C 
BRANCH  13  14
ATOM     14  N   UNL d   1       3.158  -2.473  -1.388  0.00  0.00    -0.350 N 
ATOM     15  C   UNL d   1       3.596  -3.654  -1.953  0.00  0.00     0.219 C 
ATOM     16  O   UNL d   1       3.387  -4.023  -3.096  0.00  0.00    -0.273 OA
ATOM     17  C   UNL d   1       4.256  -4.477  -0.886  0.00  0.00     0.104 C 
ATOM     18  C   UNL d   1       4.434  -3.528   0.290  0.00  0.00     0.029 C 
ATOM     19  C   UNL d   1       3.639  -2.281  -0.044  0.00  0.00     0.126 C 
ENDBRANCH  13  14
ENDBRANCH  12  13
BRANCH  12  20
ATOM     20  O   UNL d   1       0.412  -2.959  -2.393  0.00  0.00    -0.393 OA
ATOM     21  H   UNL d   1       1.154  -3.582  -2.265  0.00  0.00     0.210 HD
ENDBRANCH  12  20
ENDBRANCH   1  12
TORSDOF 6
