REMARK  1 active torsions:
REMARK  status: ('A' for Active; 'I' for Inactive)
REMARK    1  A    between atoms: C_2  and  S_1 
ROOT
ATOM      1  C   UNL d   1       0.339  -1.583   0.125  0.00  0.00     0.202 A 
ATOM      2  N   UNL d   1      -0.987  -1.758   0.317  0.00  0.00    -0.341 N 
ATOM      3  HN  UNL d   1      -1.638  -0.980   0.418  1.00  0.00     0.167 HD
ATOM      4  N   UNL d   1       1.280  -2.541  -0.020  0.00  0.00    -0.341 N 
ATOM      5  HN  UNL d   1       2.266  -2.325  -0.162  1.00  0.00     0.167 HD
ATOM      6  C   UNL d   1      -0.517  -4.123   0.230  0.00  0.00     0.064 A 
ATOM      7  C   UNL d   1       0.813  -3.808   0.038  0.00  0.00     0.115 A 
ATOM      8  C   UNL d   1      -1.379  -3.052   0.364  0.00  0.00     0.115 A 
ATOM      9 CL   UNL d   1      -1.068  -5.740   0.298  0.00  0.00    -0.081 Cl
ENDROOT
BRANCH   1  10
ATOM     10  S   UNL d   1       0.918   0.106   0.051  0.00  0.00     0.203 S 
ATOM     11  O   UNL d   1       1.396   0.365  -1.297  0.00  0.00    -0.220 OA
ATOM     12  O   UNL d   1       1.762   0.350   1.210  0.00  0.00    -0.220 OA
ATOM     13  C   UNL d   1      -0.548   1.080   0.271  0.00  0.00     0.170 C 
ENDBRANCH   1  10
TORSDOF 1
