REMARK  3 active torsions:
REMARK  status: ('A' for Active; 'I' for Inactive)
REMARK    1  A    between atoms: N_8  and  C_2 
REMARK       I    between atoms: C_11  and  N_8 
REMARK    2  A    between atoms: C_15  and  C_11 
REMARK    3  A    between atoms: N_12  and  C_15 
ROOT
ATOM      1  C   UNL d   1       5.966  -0.105  -0.617  0.00  0.00     0.085 C 
ATOM      2  C   UNL d   1       4.890  -0.388   0.196  0.00  0.00     0.093 C 
ATOM      3  C   UNL d   1       6.877   0.796   0.026  0.00  0.00     0.003 C 
ATOM      4  C   UNL d   1       6.201  -0.560  -1.981  0.00  0.00     0.302 C 
ATOM      5  O   UNL d   1       7.499  -0.312  -2.479  0.00  0.00    -0.274 OA
ATOM      6  S   UNL d   1       4.881   0.551   1.617  0.00  0.00    -0.082 SA
ATOM      7  C   UNL d   1       6.437   1.190   1.271  0.00  0.00     0.065 C 
ATOM      8  C   UNL d   1       8.096   1.220  -0.636  0.00  0.00     0.010 A 
ATOM      9  C   UNL d   1       8.389   0.610  -1.864  0.00  0.00     0.090 A 
ATOM     10  O   UNL d   1       5.334  -1.035  -2.714  0.00  0.00    -0.259 OA
ATOM     11  C   UNL d   1       8.957   2.211  -0.158  0.00  0.00     0.015 A 
ATOM     12  C   UNL d   1       9.532   0.939  -2.591  0.00  0.00     0.038 A 
ATOM     13  C   UNL d   1      10.088   2.574  -0.901  0.00  0.00     0.001 A 
ATOM     14  C   UNL d   1      10.380   1.933  -2.108  0.00  0.00     0.003 A 
ENDROOT
BRANCH   2  15
ATOM     15  N   UNL d   1       3.836  -1.271   0.115  0.00  0.00    -0.319 N 
ATOM     16  C   UNL d   1       4.023  -2.560  -0.358  0.00  0.00     0.251 C 
ATOM     17  O   UNL d   1       5.109  -3.031  -0.703  0.00  0.00    -0.271 OA
ATOM     18  H   UNL d   1       3.030  -1.124   0.710  0.00  0.00     0.169 HD
BRANCH  16  19
ATOM     19  C   UNL d   1       2.784  -3.458  -0.250  0.00  0.00     0.375 C 
BRANCH  19  20
ATOM     20  N   UNL d   1       1.513  -2.777  -0.600  0.00  0.00     0.100 N 
ATOM     21  C   UNL d   1       1.530  -2.300  -2.004  0.00  0.00     0.303 C 
ATOM     22  C   UNL d   1       0.172  -1.683  -2.415  0.00  0.00     0.302 C 
ATOM     23  N   UNL d   1      -0.989  -2.580  -2.264  0.00  0.00     0.087 N 
ATOM     24  C   UNL d   1      -0.974  -3.176  -0.914  0.00  0.00     0.302 C 
ATOM     25  C   UNL d   1      -1.022  -3.598  -3.312  0.00  0.00     0.310 C 
ATOM     26  C   UNL d   1       0.393  -3.741  -0.453  0.00  0.00     0.303 C 
ENDBRANCH  19  20
ENDBRANCH  16  19
ENDBRANCH   2  15
TORSDOF 3
