REMARK  3 active torsions:
REMARK  status: ('A' for Active; 'I' for Inactive)
REMARK    1  A    between atoms: C_3  and  C_1 
REMARK       I    between atoms: N_7  and  C_3 
REMARK    2  A    between atoms: C_14  and  N_7 
REMARK    3  A    between atoms: C_8  and  C_14 
ROOT
ATOM      1  C   UNL d   1       1.522   2.548  -0.001  0.00  0.00     0.254 C 
ATOM      2  N   UNL d   1       0.904   3.784  -0.001  0.00  0.00    -0.351 N 
ATOM      3  O   UNL d   1       2.751   2.457  -0.007  0.00  0.00    -0.268 OA
ATOM      4  H   UNL d   1      -0.100   3.886  -0.000  0.00  0.00     0.163 HD
ENDROOT
BRANCH   1   5
ATOM      5  C   UNL d   1       0.659   1.372   0.005  0.00  0.00     0.063 A 
ATOM      6  C   UNL d   1       1.101   0.051   0.004  0.00  0.00     0.065 A 
ATOM      7  O   UNL d   1       0.044  -0.808   0.010  0.00  0.00    -0.319 OA
ATOM      8  C   UNL d   1       2.424  -0.616   0.001  0.00  0.00     0.077 C 
ATOM      9  C   UNL d   1      -1.089  -0.062   0.017  0.00  0.00     0.050 A 
ATOM     10  C   UNL d   1      -0.769   1.279   0.016  0.00  0.00     0.051 A 
ATOM     11  C   UNL d   1      -2.358  -0.817   0.026  0.00  0.00     0.076 C 
ENDBRANCH   1   5
BRANCH   2  12
ATOM     12  C   UNL d   1       1.728   4.970  -0.010  0.00  0.00     0.187 C 
BRANCH  12  13
ATOM     13  C   UNL d   1       0.959   6.243  -0.009  0.00  0.00     0.070 A 
ATOM     14  O   UNL d   1      -0.408   6.204   0.001  0.00  0.00    -0.325 OA
ATOM     15  C   UNL d   1      -0.838   7.496   0.001  0.00  0.00     0.142 A 
ATOM     16  C   UNL d   1       0.228   8.365  -0.011  0.00  0.00     0.027 A 
ATOM     17  C   UNL d   1       1.388   7.557  -0.017  0.00  0.00     0.036 A 
ENDBRANCH  12  13
ENDBRANCH   2  12
TORSDOF 3
