REMARK  6 active torsions:
REMARK  status: ('A' for Active; 'I' for Inactive)
REMARK    1  A    between atoms: N_5  and  C_1 
REMARK    2  A    between atoms: C_8  and  C_2 
REMARK       I    between atoms: C_7  and  N_5 
REMARK    3  A    between atoms: C_11  and  C_6 
REMARK       I    between atoms: N_9  and  C_7 
REMARK    4  A    between atoms: O_16  and  C_8 
REMARK    5  A    between atoms: C_12  and  N_9 
REMARK    6  A    between atoms: C_23  and  O_16 
ROOT
ATOM      1  C   UNL d   1       0.469   1.231   0.090  0.00  0.00     0.074 C 
ATOM      2  C   UNL d   1       1.722   0.675  -0.075  0.00  0.00     0.069 C 
ATOM      3  S   UNL d   1      -0.750   0.069   0.362  0.00  0.00    -0.076 SA
ATOM      4  C   UNL d   1       1.605  -0.772   0.017  0.00  0.00     0.040 C 
ATOM      5  C   UNL d   1       0.311  -1.253   0.135  0.00  0.00     0.018 C 
ENDROOT
BRANCH   1   6
ATOM      6  N   UNL d   1      -0.055   2.507   0.215  0.00  0.00    -0.208 NA
ATOM      7  C   UNL d   1      -0.312   3.314  -0.868  0.00  0.00     0.282 C 
ATOM      8  N   UNL d   1       0.683   3.419  -1.805  0.00  0.00    -0.215 NA
ATOM      9  O   UNL d   1      -1.364   3.950  -0.880  0.00  0.00    -0.260 OA
ATOM     10  H   UNL d   1       1.575   3.318  -1.337  0.00  0.00     0.138 HD
ATOM     11  H   UNL d   1      -0.932   2.498   0.730  0.00  0.00     0.138 HD
BRANCH   8  12
ATOM     12  C   UNL d   1       0.622   4.485  -2.728  0.00  0.00     0.018 A 
ATOM     13  C   UNL d   1       1.484   5.568  -2.552  0.00  0.00     0.047 A 
ATOM     14  C   UNL d   1       1.385   6.667  -3.400  0.00  0.00     0.035 A 
ATOM     15 CL   UNL d   1       2.387   8.039  -3.126  0.00  0.00    -0.084 Cl
ATOM     16  C   UNL d   1       0.466   6.673  -4.448  0.00  0.00     0.024 A 
ATOM     17  C   UNL d   1      -0.373   5.574  -4.640  0.00  0.00     0.003 A 
ATOM     18  C   UNL d   1      -0.306   4.483  -3.771  0.00  0.00     0.024 A 
ENDBRANCH   8  12
ENDBRANCH   1   6
BRANCH   2  19
ATOM     19  C   UNL d   1       3.030   1.304  -0.276  0.00  0.00     0.295 C 
ATOM     20  O   UNL d   1       4.071   0.666  -0.205  0.00  0.00    -0.259 OA
BRANCH  19  21
ATOM     21  O   UNL d   1       2.986   2.620  -0.652  0.00  0.00    -0.318 OA
BRANCH  21  22
ATOM     22  C   UNL d   1       4.194   3.127  -1.259  0.00  0.00     0.174 C 
ATOM     23  C   UNL d   1       5.002   3.955  -0.282  0.00  0.00     0.034 C 
ENDBRANCH  21  22
ENDBRANCH  19  21
ENDBRANCH   2  19
BRANCH   5  24
ATOM     24  C   UNL d   1      -0.181  -2.651   0.074  0.00  0.00    -0.019 A 
ATOM     25  C   UNL d   1       0.667  -3.675  -0.384  0.00  0.00     0.013 A 
ATOM     26  C   UNL d   1       0.214  -4.992  -0.528  0.00  0.00     0.001 A 
ATOM     27  C   UNL d   1      -1.102  -5.315  -0.216  0.00  0.00     0.000 A 
ATOM     28  C   UNL d   1      -1.958  -4.326   0.256  0.00  0.00     0.001 A 
ATOM     29  C   UNL d   1      -1.501  -3.010   0.404  0.00  0.00     0.013 A 
ENDBRANCH   5  24
TORSDOF 6
