REMARK  4 active torsions:
REMARK  status: ('A' for Active; 'I' for Inactive)
REMARK    1  A    between atoms: N_3  and  S_1 
REMARK    2  A    between atoms: C_4  and  S_1 
REMARK    3  A    between atoms: N_2  and  C_8 
REMARK    4  A    between atoms: C_13  and  N_3 
ROOT
ATOM      1  C   UNL d   1       1.581   3.397  -4.036  0.00  0.00     0.030 A 
ATOM      2  C   UNL d   1       0.878   1.265  -2.325  0.00  0.00     0.042 A 
ATOM      3  C   UNL d   1       0.273   2.886  -3.996  0.00  0.00     0.031 A 
ATOM      4  C   UNL d   1       2.516   2.817  -3.166  0.00  0.00     0.031 A 
ATOM      5  C   UNL d   1      -0.079   1.825  -3.158  0.00  0.00     0.032 A 
ATOM      6  C   UNL d   1       2.169   1.773  -2.305  0.00  0.00     0.032 A 
ENDROOT
BRANCH   2   7
ATOM      7  N   UNL d   1       0.535   0.167  -1.504  0.00  0.00    -0.281 N 
ATOM      8  H   UNL d   1       0.410   0.291  -0.502  0.00  0.00     0.179 HD
BRANCH   7   9
ATOM      9  S   UNL d   1       0.696  -1.402  -2.066  0.00  0.00     0.263 S 
ATOM     10  O   UNL d   1       0.019  -1.526  -3.338  0.00  0.00    -0.200 OA
ATOM     11  O   UNL d   1       0.362  -2.264  -0.955  0.00  0.00    -0.200 OA
BRANCH   9  12
ATOM     12  C   UNL d   1       2.444  -1.582  -2.359  0.00  0.00     0.080 A 
ATOM     13  C   UNL d   1       3.283  -1.988  -1.311  0.00  0.00     0.027 A 
ATOM     14  C   UNL d   1       4.638  -2.220  -1.559  0.00  0.00     0.025 A 
ATOM     15  C   UNL d   1       5.148  -2.051  -2.847  0.00  0.00     0.034 A 
ATOM     16  C   UNL d   1       4.318  -1.635  -3.890  0.00  0.00     0.025 A 
ATOM     17 CL   UNL d   1       6.809  -2.374  -3.156  0.00  0.00    -0.084 Cl
ATOM     18  C   UNL d   1       2.961  -1.404  -3.649  0.00  0.00     0.027 A 
ENDBRANCH   9  12
ENDBRANCH   7   9
ENDBRANCH   2   7
BRANCH   1  19
ATOM     19  N   UNL d   1       1.921   4.367  -4.961  0.00  0.00    -0.378 N 
ATOM     20  C   UNL d   1       3.313   4.564  -5.394  0.00  0.00     0.153 C 
ATOM     21  C   UNL d   1       3.323   5.061  -6.860  0.00  0.00     0.291 C 
ATOM     22  N   UNL d   1       2.533   6.298  -7.049  0.00  0.00     0.087 N 
ATOM     23  C   UNL d   1       1.146   6.064  -6.578  0.00  0.00     0.291 C 
ATOM     24  C   UNL d   1       2.539   6.697  -8.454  0.00  0.00     0.310 C 
ATOM     25  C   UNL d   1       1.087   5.575  -5.110  0.00  0.00     0.153 C 
ENDBRANCH   1  19
TORSDOF 4
