REMARK  8 active torsions:
REMARK  status: ('A' for Active; 'I' for Inactive)
REMARK    1  A    between atoms: N_2  and  C_1 
REMARK    2  A    between atoms: N_3  and  C_1 
REMARK    3  A    between atoms: C_12  and  N_3 
REMARK    4  A    between atoms: C_4  and  C_8 
REMARK    5  A    between atoms: O_13  and  C_4 
REMARK    6  A    between atoms: C_20  and  O_13 
REMARK    7  A    between atoms: O_19  and  C_14 
REMARK    8  A    between atoms: C_21  and  O_19 
ROOT
ATOM      1  C   UNL d   1       0.909   0.154   0.013  0.00  0.00     0.174 C 
ATOM      2  S   UNL d   1       2.552  -0.066  -0.209  0.00  0.00    -0.041 SA
ENDROOT
BRANCH   1   3
ATOM      3  N   UNL d   1       0.189  -0.323   1.101  0.00  0.00    -0.358 N 
ATOM      4  C   UNL d   1      -0.874  -1.302   0.880  0.00  0.00     0.126 C 
ATOM      5  C   UNL d   1      -2.092  -1.001   1.746  0.00  0.00     0.034 C 
ATOM      6  C   UNL d   1      -1.731  -0.714   3.211  0.00  0.00     0.088 C 
ATOM      7  C   UNL d   1      -0.457   0.122   3.402  0.00  0.00     0.034 C 
ATOM      8  C   UNL d   1       0.686  -0.286   2.470  0.00  0.00     0.126 C 
BRANCH   6   9
ATOM      9  C   UNL d   1      -1.632  -2.036   3.939  0.00  0.00     0.263 C 
ATOM     10  O   UNL d   1      -0.613  -2.691   4.068  0.00  0.00    -0.265 OA
BRANCH   9  11
ATOM     11  O   UNL d   1      -2.885  -2.435   4.305  0.00  0.00    -0.322 OA
BRANCH  11  12
ATOM     12  C   UNL d   1      -3.017  -3.831   4.592  0.00  0.00     0.174 C 
ATOM     13  C   UNL d   1      -3.267  -4.555   3.281  0.00  0.00     0.034 C 
ENDBRANCH  11  12
ENDBRANCH   9  11
ENDBRANCH   6   9
ENDBRANCH   1   3
BRANCH   1  14
ATOM     14  N   UNL d   1       0.174   0.768  -0.980  0.00  0.00    -0.333 N 
ATOM     15  H   UNL d   1       0.590   0.769  -1.903  0.00  0.00     0.168 HD
BRANCH  14  16
ATOM     16  C   UNL d   1      -1.032   1.477  -0.804  0.00  0.00     0.034 C 
ATOM     17  C   UNL d   1      -1.331   2.115   0.402  0.00  0.00     0.032 C 
ATOM     18  C   UNL d   1      -2.594   2.658   0.632  0.00  0.00     0.039 C 
ATOM     19  C   UNL d   1      -3.568   2.578  -0.357  0.00  0.00     0.068 C 
ATOM     20  C   UNL d   1      -3.226   2.074  -1.615  0.00  0.00     0.039 C 
ATOM     21  C   UNL d   1      -1.953   1.536  -1.847  0.00  0.00     0.032 C 
BRANCH  19  22
ATOM     22  O   UNL d   1      -4.865   2.987  -0.193  0.00  0.00    -0.352 OA
BRANCH  22  23
ATOM     23  C   UNL d   1      -5.386   2.779   1.126  0.00  0.00     0.171 C 
ATOM     24  C   UNL d   1      -6.873   3.080   1.115  0.00  0.00     0.034 C 
ENDBRANCH  22  23
ENDBRANCH  19  22
ENDBRANCH  14  16
ENDBRANCH   1  14
TORSDOF 8
