REMARK  4 active torsions:
REMARK  status: ('A' for Active; 'I' for Inactive)
REMARK    1  A    between atoms: N_5  and  C_1 
REMARK    2  A    between atoms: C_8  and  C_9 
REMARK    3  A    between atoms: O_18  and  C_8 
REMARK    4  A    between atoms: C_19  and  O_18 
ROOT
ATOM      1  C   UNL d   1      -1.976  -0.851  -0.052  0.00  0.00     0.156 A 
ATOM      2  N   UNL d   1      -0.925  -1.630   0.102  0.00  0.00    -0.335 N 
ATOM      3  HN  UNL d   1      -0.950  -2.643   0.216  1.00  0.00     0.168 HD
ATOM      4  S   UNL d   1      -1.685   0.816  -0.200  0.00  0.00    -0.051 SA
ATOM      5  C   UNL d   1       0.007   0.523  -0.054  0.00  0.00     0.036 A 
ATOM      6  C   UNL d   1       0.218  -0.850   0.082  0.00  0.00     0.051 A 
ATOM      7  C   UNL d   1       2.375   0.954   0.022  0.00  0.00     0.041 A 
ATOM      8  C   UNL d   1       1.063   1.443  -0.075  0.00  0.00     0.038 A 
ATOM      9  C   UNL d   1       1.542  -1.325   0.180  0.00  0.00     0.032 A 
ATOM     10  C   UNL d   1       2.609  -0.420   0.146  0.00  0.00     0.020 A 
ENDROOT
BRANCH   1  11
ATOM     11  N   UNL d   1      -3.287  -1.343  -0.090  0.00  0.00    -0.313 N 
ATOM     12  C   UNL d   1      -4.468  -0.657  -0.336  0.00  0.00     0.098 A 
ATOM     13  C   UNL d   1      -5.528  -1.537  -0.291  0.00  0.00     0.019 A 
ATOM     14  C   UNL d   1      -5.002  -2.811   0.004  0.00  0.00     0.019 A 
ATOM     15  C   UNL d   1      -3.638  -2.670   0.117  0.00  0.00     0.098 A 
ENDBRANCH   1  11
BRANCH   7  16
ATOM     16  C   UNL d   1       3.480   1.942  -0.092  0.00  0.00     0.293 C 
ATOM     17  O   UNL d   1       3.298   3.136  -0.263  0.00  0.00    -0.259 OA
BRANCH  16  18
ATOM     18  O   UNL d   1       4.676   1.305  -0.092  0.00  0.00    -0.318 OA
BRANCH  18  19
ATOM     19  C   UNL d   1       5.772   2.063  -0.620  0.00  0.00     0.174 C 
ATOM     20  C   UNL d   1       5.812   1.841  -2.121  0.00  0.00     0.034 C 
ENDBRANCH  18  19
ENDBRANCH  16  18
ENDBRANCH   7  16
TORSDOF 4
