REMARK  8 active torsions:
REMARK  status: ('A' for Active; 'I' for Inactive)
REMARK    1  A    between atoms: C_2  and  C_1 
REMARK       I    between atoms: N_3  and  C_1 
REMARK       I    between atoms: C_5  and  N_3 
REMARK    2  A    between atoms: C_4  and  N_6 
REMARK       I    between atoms: N_6  and  C_5 
REMARK    3  A    between atoms: C_9  and  C_19 
REMARK    4  A    between atoms: C_10  and  C_20 
REMARK    5  A    between atoms: O_18  and  C_11 
REMARK    6  A    between atoms: C_19  and  O_18 
REMARK    7  A    between atoms: C_20  and  O_29 
REMARK    8  A    between atoms: O_29  and  C_28 
ROOT
ATOM      1  C   UNL d   1       0.520  -1.169   0.632  0.00  0.00     0.062 A 
ATOM      2  C   UNL d   1       0.919  -1.169   1.987  0.00  0.00     0.084 A 
ATOM      3  C   UNL d   1      -0.662  -1.841   0.270  0.00  0.00     0.056 A 
ATOM      4  C   UNL d   1       0.146  -1.865   2.927  0.00  0.00     0.040 A 
ATOM      5  C   UNL d   1      -1.440  -2.504   1.224  0.00  0.00     0.070 A 
ATOM      6  C   UNL d   1      -1.026  -2.525   2.551  0.00  0.00     0.039 A 
ENDROOT
BRANCH   1   7
ATOM      7  C   UNL d   1       1.280  -0.387  -0.409  0.00  0.00     0.242 C 
ATOM      8  N   UNL d   1       0.633  -0.165  -1.611  0.00  0.00    -0.175 NA
ATOM      9  C   UNL d   1       0.944  -0.792  -2.796  0.00  0.00     0.305 C 
ATOM     10  H   UNL d   1       0.807   0.803  -1.862  0.00  0.00     0.141 HD
ATOM     11  N   UNL d   1       1.093  -2.156  -2.772  0.00  0.00    -0.308 N 
ATOM     12  O   UNL d   1       1.089  -0.088  -3.794  0.00  0.00    -0.253 OA
ATOM     13  H   UNL d   1       1.639  -2.519  -2.004  0.00  0.00     0.170 HD
ATOM     14  O   UNL d   1       2.323   0.211  -0.166  0.00  0.00    -0.273 OA
BRANCH  11  15
ATOM     15  C   UNL d   1       1.204  -2.884  -4.001  0.00  0.00     0.114 A 
ATOM     16  C   UNL d   1       2.147  -3.909  -4.108  0.00  0.00     0.149 A 
ATOM     17  C   UNL d   1       2.353  -4.588  -5.308  0.00  0.00     0.087 A 
ATOM     18  F   UNL d   1       2.907  -4.225  -3.047  0.00  0.00    -0.203 F 
ATOM     19  C   UNL d   1       1.578  -4.258  -6.413  0.00  0.00     0.122 A 
ATOM     20  C   UNL d   1       0.589  -3.289  -6.327  0.00  0.00     0.087 A 
ATOM     21  F   UNL d   1       1.779  -4.893  -7.575  0.00  0.00    -0.206 F 
ATOM     22  C   UNL d   1       0.405  -2.615  -5.122  0.00  0.00     0.149 A 
ATOM     23  F   UNL d   1      -0.612  -1.741  -5.041  0.00  0.00    -0.203 F 
ENDBRANCH  11  15
ENDBRANCH   1   7
BRANCH   2  24
ATOM     24  O   UNL d   1       2.070  -0.510   2.332  0.00  0.00    -0.341 OA
BRANCH  24  25
ATOM     25  C   UNL d   1       2.208  -0.069   3.690  0.00  0.00     0.293 C 
BRANCH  25  26
ATOM     26  C   UNL d   1       3.457   0.784   3.874  0.00  0.00     0.408 C 
ATOM     27  F   UNL d   1       4.524   0.287   3.216  0.00  0.00    -0.169 F 
ATOM     28  F   UNL d   1       3.260   2.058   3.474  0.00  0.00    -0.169 F 
ATOM     29  F   UNL d   1       3.789   0.827   5.191  0.00  0.00    -0.169 F 
ENDBRANCH  25  26
ENDBRANCH  24  25
ENDBRANCH   2  24
BRANCH   5  30
ATOM     30  O   UNL d   1      -2.569  -3.107   0.740  0.00  0.00    -0.342 OA
BRANCH  30  31
ATOM     31  C   UNL d   1      -3.587  -3.417   1.703  0.00  0.00     0.293 C 
BRANCH  31  32
ATOM     32  C   UNL d   1      -4.897  -3.776   1.017  0.00  0.00     0.408 C 
ATOM     33  F   UNL d   1      -5.237  -2.877   0.070  0.00  0.00    -0.169 F 
ATOM     34  F   UNL d   1      -4.838  -4.996   0.440  0.00  0.00    -0.169 F 
ATOM     35  F   UNL d   1      -5.904  -3.807   1.924  0.00  0.00    -0.169 F 
ENDBRANCH  31  32
ENDBRANCH  30  31
ENDBRANCH   5  30
TORSDOF 8
