REMARK  6 active torsions:
REMARK  status: ('A' for Active; 'I' for Inactive)
REMARK    1  A    between atoms: C_3  and  C_5 
REMARK       I    between atoms: N_8  and  C_3 
REMARK    2  A    between atoms: C_4  and  C_14 
REMARK    3  A    between atoms: O_13  and  C_6 
REMARK    4  A    between atoms: N_11  and  N_8 
REMARK    5  A    between atoms: C_18  and  N_11 
REMARK    6  A    between atoms: C_14  and  O_13 
ROOT
ATOM      1  N   UNL d   1       0.181  -1.128   0.070  0.00  0.00    -0.327 N 
ATOM      2  HN  UNL d   1      -0.408  -1.960   0.106  1.00  0.00     0.169 HD
ATOM      3  C   UNL d   1       1.797   1.156  -0.007  0.00  0.00     0.040 A 
ATOM      4  C   UNL d   1       1.523  -1.207   0.077  0.00  0.00     0.144 A 
ATOM      5  C   UNL d   1      -0.340   0.112   0.011  0.00  0.00     0.106 A 
ATOM      6  C   UNL d   1       2.371  -0.116   0.021  0.00  0.00     0.073 A 
ATOM      7  C   UNL d   1       0.406   1.274  -0.016  0.00  0.00     0.059 A 
ATOM      8 CL   UNL d   1      -2.052   0.157  -0.034  0.00  0.00    -0.064 Cl
ENDROOT
BRANCH   3   9
ATOM      9  C   UNL d   1       2.607   2.404  -0.060  0.00  0.00     0.266 C 
ATOM     10  N   UNL d   1       3.975   2.289   0.139  0.00  0.00    -0.283 N 
ATOM     11  H   UNL d   1       4.371   1.516   0.664  0.00  0.00     0.184 HD
ATOM     12  O   UNL d   1       2.058   3.488  -0.262  0.00  0.00    -0.266 OA
BRANCH  10  13
ATOM     13  N   UNL d   1       4.703   3.492   0.226  0.00  0.00    -0.203 NA
ATOM     14  H   UNL d   1       4.088   4.295   0.031  0.00  0.00     0.153 HD
BRANCH  13  15
ATOM     15  C   UNL d   1       5.859   3.532  -0.597  0.00  0.00     0.027 A 
ATOM     16  C   UNL d   1       6.371   4.784  -0.981  0.00  0.00     0.028 A 
ATOM     17  C   UNL d   1       7.544   4.882  -1.737  0.00  0.00     0.044 A 
ATOM     18  C   UNL d   1       8.230   3.728  -2.086  0.00  0.00     0.116 A 
ATOM     19  C   UNL d   1       7.779   2.482  -1.675  0.00  0.00     0.044 A 
ATOM     20  F   UNL d   1       9.349   3.818  -2.817  0.00  0.00    -0.206 F 
ATOM     21  C   UNL d   1       6.607   2.388  -0.919  0.00  0.00     0.028 A 
ENDBRANCH  13  15
ENDBRANCH  10  13
ENDBRANCH   3   9
BRANCH   4  22
ATOM     22  O   UNL d   1       2.119  -2.449   0.154  0.00  0.00    -0.327 OA
BRANCH  22  23
ATOM     23  C   UNL d   1       1.232  -3.461   0.667  0.00  0.00     0.294 C 
BRANCH  23  24
ATOM     24  C   UNL d   1       0.885  -3.294   2.147  0.00  0.00     0.408 C 
ATOM     25  F   UNL d   1       1.437  -2.187   2.697  0.00  0.00    -0.169 F 
ATOM     26  F   UNL d   1      -0.450  -3.231   2.346  0.00  0.00    -0.169 F 
ATOM     27  F   UNL d   1       1.344  -4.352   2.861  0.00  0.00    -0.169 F 
ENDBRANCH  23  24
ENDBRANCH  22  23
ENDBRANCH   4  22
TORSDOF 6
