REMARK  3 active torsions:
REMARK  status: ('A' for Active; 'I' for Inactive)
REMARK    1  A    between atoms: C_2  and  C_1 
REMARK    2  A    between atoms: O_3  and  C_1 
REMARK    3  A    between atoms: C_4  and  O_3 
ROOT
ATOM      1  C   UNL d   1      -1.213   0.911  -0.916  0.00  0.00     0.107 A 
ATOM      2  C   UNL d   1      -1.855   0.842  -2.162  0.00  0.00     0.076 A 
ATOM      3  N   UNL d   1      -1.156   0.734  -3.317  0.00  0.00    -0.363 N 
ATOM      4  HN  UNL d   1      -0.137   0.687  -3.307  1.00  0.00     0.165 HD
ATOM      5  C   UNL d   1      -3.266   0.894  -2.165  0.00  0.00    -0.007 A 
ATOM      6  C   UNL d   1      -1.920   1.089   0.278  0.00  0.00     0.040 A 
ATOM      7  C   UNL d   1      -3.309   1.131   0.253  0.00  0.00     0.004 A 
ATOM      8  C   UNL d   1      -1.837   0.690  -4.484  0.00  0.00     0.088 A 
ATOM      9  C   UNL d   1      -3.982   1.021  -0.961  0.00  0.00     0.014 A 
ATOM     10  C   UNL d   1      -3.938   0.823  -3.393  0.00  0.00     0.015 A 
ATOM     11  C   UNL d   1      -3.213   0.726  -4.574  0.00  0.00     0.018 A 
ENDROOT
BRANCH   1  12
ATOM     12  O   UNL d   1       0.210   0.831  -0.939  0.00  0.00    -0.272 OA
BRANCH  12  13
ATOM     13  C   UNL d   1       0.946   0.191   0.061  0.00  0.00     0.305 C 
ATOM     14  O   UNL d   1       0.482  -0.220   1.120  0.00  0.00    -0.258 OA
BRANCH  13  15
ATOM     15  C   UNL d   1       2.347   0.048  -0.310  0.00  0.00     0.080 A 
ATOM     16  S   UNL d   1       2.961   0.508  -1.842  0.00  0.00    -0.096 SA
ATOM     17  C   UNL d   1       4.528  -0.065  -1.468  0.00  0.00     0.050 A 
ATOM     18  C   UNL d   1       4.602  -0.572  -0.191  0.00  0.00     0.009 A 
ATOM     19  C   UNL d   1       3.347  -0.497   0.479  0.00  0.00     0.025 A 
ENDBRANCH  13  15
ENDBRANCH  12  13
ENDBRANCH   1  12
TORSDOF 3
