REMARK  7 active torsions:
REMARK  status: ('A' for Active; 'I' for Inactive)
REMARK    1  A    between atoms: N_3  and  C_1 
REMARK    2  A    between atoms: C_8  and  C_2 
REMARK    3  A    between atoms: C_4  and  N_3 
REMARK    4  A    between atoms: N_10  and  C_4 
REMARK    5  A    between atoms: O_14  and  C_8 
REMARK    6  A    between atoms: C_13  and  N_10 
REMARK    7  A    between atoms: C_21  and  O_14 
ROOT
ATOM      1  N   UNL d   1       1.490  -1.666  -0.489  0.00  0.00    -0.317 N 
ATOM      2  H   UNL d   1       1.008  -2.567  -0.442  0.00  0.00     0.170 HD
ENDROOT
BRANCH   1   3
ATOM      3  C   UNL d   1       0.713  -0.543  -0.730  0.00  0.00     0.140 C 
ATOM      4  C   UNL d   1      -0.572  -0.490  -1.241  0.00  0.00     0.101 C 
ATOM      5  C   UNL d   1      -0.955   0.859  -1.041  0.00  0.00     0.128 C 
ATOM      6  N   UNL d   1       0.023   1.609  -0.524  0.00  0.00    -0.309 N 
ATOM      7  N   UNL d   1       1.050   0.758  -0.430  0.00  0.00    -0.285 N 
ATOM      8  HN  UNL d   1      -0.007   2.594  -0.264  1.00  0.00     0.186 HD
ATOM      9  H   UNL d   1       1.937   1.111  -0.087  0.00  0.00     0.188 HD
BRANCH   4  10
ATOM     10  C   UNL d   1      -1.351  -1.555  -1.840  0.00  0.00     0.298 C 
ATOM     11  O   UNL d   1      -1.015  -2.734  -1.768  0.00  0.00    -0.259 OA
BRANCH  10  12
ATOM     12  O   UNL d   1      -2.457  -1.090  -2.485  0.00  0.00    -0.318 OA
BRANCH  12  13
ATOM     13  C   UNL d   1      -3.392  -2.032  -3.056  0.00  0.00     0.174 C 
ATOM     14  C   UNL d   1      -3.248  -2.114  -4.567  0.00  0.00     0.034 C 
ENDBRANCH  12  13
ENDBRANCH  10  12
ENDBRANCH   4  10
ENDBRANCH   1   3
BRANCH   1  15
ATOM     15  C   UNL d   1       2.909  -1.647  -0.269  0.00  0.00     0.177 C 
ATOM     16  S   UNL d   1       4.015  -0.637  -0.992  0.00  0.00    -0.040 SA
BRANCH  15  17
ATOM     17  N   UNL d   1       3.296  -2.692   0.516  0.00  0.00    -0.333 N 
ATOM     18  H   UNL d   1       4.260  -3.006   0.395  0.00  0.00     0.168 HD
BRANCH  17  19
ATOM     19  C   UNL d   1       2.724  -3.019   1.765  0.00  0.00     0.034 A 
ATOM     20  C   UNL d   1       2.960  -4.292   2.284  0.00  0.00     0.031 A 
ATOM     21  C   UNL d   1       2.366  -4.678   3.490  0.00  0.00     0.026 A 
ATOM     22  C   UNL d   1       1.590  -3.769   4.207  0.00  0.00     0.034 A 
ATOM     23  C   UNL d   1       1.423  -2.469   3.739  0.00  0.00     0.026 A 
ATOM     24 CL   UNL d   1       0.828  -4.255   5.669  0.00  0.00    -0.084 Cl
ATOM     25  C   UNL d   1       1.982  -2.094   2.514  0.00  0.00     0.031 A 
ENDBRANCH  17  19
ENDBRANCH  15  17
ENDBRANCH   1  15
TORSDOF 7
