REMARK  1 active torsions:
REMARK  status: ('A' for Active; 'I' for Inactive)
REMARK       I    between atoms: N_2  and  C_1 
REMARK    1  A    between atoms: C_4  and  N_2 
ROOT
ATOM      1  C   UNL d   1       0.913  -1.944  -1.737  0.00  0.00     0.084 C 
ATOM      2  C   UNL d   1       2.421  -1.678  -1.678  0.00  0.00     0.025 C 
ATOM      3  C   UNL d   1       0.593  -3.327  -1.160  0.00  0.00     0.025 C 
ATOM      4  C   UNL d   1       1.379  -4.444  -1.848  0.00  0.00     0.006 C 
ATOM      5  C   UNL d   1       3.231  -2.775  -2.372  0.00  0.00     0.006 C 
ATOM      6  C   UNL d   1       2.890  -4.177  -1.846  0.00  0.00    -0.019 C 
ATOM      7  C   UNL d   1       3.614  -5.241  -2.671  0.00  0.00     0.010 C 
ENDROOT
BRANCH   1   8
ATOM      8  N   UNL d   1       0.410  -1.836  -3.104  0.00  0.00    -0.357 N 
ATOM      9  C   UNL d   1       0.017  -0.638  -3.654  0.00  0.00     0.213 C 
ATOM     10  O   UNL d   1      -0.035   0.419  -3.036  0.00  0.00    -0.274 OA
ATOM     11  C   UNL d   1      -0.393  -0.741  -5.101  0.00  0.00     0.117 C 
ATOM     12  H   UNL d   1       0.586  -2.606  -3.734  0.00  0.00     0.162 HD
ENDBRANCH   1   8
TORSDOF 1
