REMARK  7 active torsions:
REMARK  status: ('A' for Active; 'I' for Inactive)
REMARK    1  A    between atoms: C_6  and  C_1 
REMARK    2  A    between atoms: N_15  and  C_4 
REMARK    3  A    between atoms: C_11  and  C_6 
REMARK    4  A    between atoms: S_18  and  C_9 
REMARK    5  A    between atoms: N_13  and  C_21 
REMARK    6  A    between atoms: C_20  and  S_18 
REMARK    7  A    between atoms: C_21  and  C_20 
ROOT
ATOM      1  C   UNL d   1       7.056   3.819   2.831  0.00  0.00     0.085 A 
ATOM      2  C   UNL d   1       4.938   2.986   2.161  0.00  0.00     0.051 A 
ATOM      3  C   UNL d   1       5.005   2.815   3.537  0.00  0.00     0.095 A 
ATOM      4  C   UNL d   1       6.148   3.627   1.761  0.00  0.00     0.062 A 
ATOM      5  S   UNL d   1       6.405   3.377   4.428  0.00  0.00    -0.065 SA
ATOM      6  N   UNL d   1       4.046   2.248   4.207  0.00  0.00    -0.319 N 
ATOM      7  HN  UNL d   1       3.999   2.078   5.211  1.00  0.00     0.175 HD
ATOM      8  C   UNL d   1       3.766   2.510   1.662  0.00  0.00     0.073 A 
ATOM      9  S   UNL d   1       2.891   1.856   3.029  0.00  0.00    -0.006 SA
ENDROOT
BRANCH   8  10
ATOM     10  S   UNL d   1       3.162   2.438   0.029  0.00  0.00    -0.118 SA
BRANCH  10  11
ATOM     11  C   UNL d   1       1.930   3.788   0.056  0.00  0.00     0.110 C 
BRANCH  11  12
ATOM     12  C   UNL d   1       2.635   5.147  -0.071  0.00  0.00     0.283 C 
BRANCH  12  13
ATOM     13  N   UNL d   1       1.740   6.320  -0.138  0.00  0.00     0.089 N 
ATOM     14  C   UNL d   1       2.561   7.546  -0.199  0.00  0.00     0.272 C 
ATOM     15  C   UNL d   1       1.699   8.808  -0.204  0.00  0.00     0.030 C 
ATOM     16  C   UNL d   1       0.679   8.780  -1.335  0.00  0.00     0.003 C 
ATOM     17  C   UNL d   1      -0.108   7.479  -1.307  0.00  0.00     0.030 C 
ATOM     18  C   UNL d   1       0.821   6.265  -1.286  0.00  0.00     0.272 C 
ENDBRANCH  12  13
ENDBRANCH  11  12
ENDBRANCH  10  11
ENDBRANCH   8  10
BRANCH   4  19
ATOM     19  N   UNL d   1       6.425   4.001   0.488  0.00  0.00    -0.397 N 
ATOM     20  H   UNL d   1       5.719   3.997  -0.243  0.00  0.00     0.156 HD
ATOM     21  H   UNL d   1       7.202   4.635   0.293  0.00  0.00     0.156 HD
ENDBRANCH   4  19
BRANCH   1  22
ATOM     22  C   UNL d   1       8.390   4.430   2.740  0.00  0.00     0.208 C 
ATOM     23  O   UNL d   1       8.645   5.272   1.877  0.00  0.00    -0.285 OA
BRANCH  22  24
ATOM     24  C   UNL d   1       9.397   3.956   3.692  0.00  0.00     0.056 A 
ATOM     25  S   UNL d   1      10.574   5.069   4.267  0.00  0.00    -0.098 SA
ATOM     26  C   UNL d   1      11.293   3.898   5.283  0.00  0.00     0.050 A 
ATOM     27  C   UNL d   1      10.686   2.669   5.164  0.00  0.00     0.009 A 
ATOM     28  C   UNL d   1       9.613   2.695   4.224  0.00  0.00     0.023 A 
ENDBRANCH  22  24
ENDBRANCH   1  22
TORSDOF 7
