REMARK  5 active torsions:
REMARK  status: ('A' for Active; 'I' for Inactive)
REMARK    1  A    between atoms: N_2  and  S_1 
REMARK    2  A    between atoms: C_5  and  S_1 
REMARK    3  A    between atoms: C_15  and  C_4 
REMARK    4  A    between atoms: C_7  and  O_17 
REMARK    5  A    between atoms: O_17  and  C_24 
ROOT
ATOM      1  N   UNL d   1       0.384  -1.458  -0.408  0.00  0.00    -0.293 N 
ATOM      2  C   UNL d   1       0.704  -3.908  -0.253  0.00  0.00    -0.017 A 
ATOM      3  C   UNL d   1       1.232  -2.545   0.171  0.00  0.00     0.163 C 
ATOM      4  C   UNL d   1      -0.548  -4.092  -0.802  0.00  0.00    -0.007 A 
ATOM      5  C   UNL d   1      -1.095  -1.691  -0.441  0.00  0.00     0.142 C 
ATOM      6  S   UNL d   1      -0.928  -5.724  -1.094  0.00  0.00    -0.106 SA
ATOM      7  C   UNL d   1      -1.489  -2.992  -1.149  0.00  0.00     0.067 C 
ATOM      8  C   UNL d   1       1.394  -5.168  -0.161  0.00  0.00     0.018 A 
ATOM      9  C   UNL d   1       0.608  -6.232  -0.547  0.00  0.00     0.051 A 
ENDROOT
BRANCH   3  10
ATOM     10  C   UNL d   1       1.392  -2.691   1.681  0.00  0.00    -0.030 A 
ATOM     11  C   UNL d   1       2.633  -3.116   2.199  0.00  0.00     0.012 A 
ATOM     12  C   UNL d   1       2.780  -3.469   3.547  0.00  0.00     0.037 A 
ATOM     13  C   UNL d   1       1.687  -3.411   4.404  0.00  0.00     0.078 A 
ATOM     14  C   UNL d   1       0.482  -2.896   3.934  0.00  0.00     0.037 A 
ATOM     15  C   UNL d   1       0.333  -2.549   2.588  0.00  0.00     0.012 A 
BRANCH  13  16
ATOM     16  O   UNL d   1       1.716  -3.744   5.723  0.00  0.00    -0.255 OA
BRANCH  16  17
ATOM     17  C   UNL d   1       2.340  -4.972   6.082  0.00  0.00     0.530 C 
ATOM     18  F   UNL d   1       2.953  -5.611   5.063  0.00  0.00    -0.144 F 
ATOM     19  F   UNL d   1       3.259  -4.725   7.041  0.00  0.00    -0.144 F 
ATOM     20  F   UNL d   1       1.409  -5.805   6.599  0.00  0.00    -0.144 F 
ENDBRANCH  16  17
ENDBRANCH  13  16
ENDBRANCH   3  10
BRANCH   1  21
ATOM     21  S   UNL d   1       0.822   0.145  -0.060  0.00  0.00     0.261 S 
ATOM     22  O   UNL d   1       0.839   0.317   1.373  0.00  0.00    -0.200 OA
ATOM     23  O   UNL d   1       0.022   1.015  -0.898  0.00  0.00    -0.200 OA
BRANCH  21  24
ATOM     24  C   UNL d   1       2.487   0.277  -0.662  0.00  0.00     0.082 A 
ATOM     25  C   UNL d   1       2.731   0.054  -2.020  0.00  0.00     0.067 A 
ATOM     26  C   UNL d   1       4.024   0.203  -2.499  0.00  0.00     0.117 A 
ATOM     27  F   UNL d   1       4.275  -0.011  -3.796  0.00  0.00    -0.206 F 
ATOM     28  C   UNL d   1       5.067   0.575  -1.653  0.00  0.00     0.042 A 
ATOM     29  C   UNL d   1       4.814   0.805  -0.300  0.00  0.00     0.005 A 
ATOM     30  C   UNL d   1       3.520   0.655   0.200  0.00  0.00     0.025 A 
ENDBRANCH  21  24
ENDBRANCH   1  21
TORSDOF 5
