REMARK  1 active torsions:
REMARK  status: ('A' for Active; 'I' for Inactive)
REMARK    1  A    between atoms: C_12  and  C_7 
ROOT
ATOM      1  C   UNL d   1       2.184   0.583   0.030  0.00  0.00     0.151 A 
ATOM      2  N   UNL d   1       2.587  -0.711  -0.040  0.00  0.00    -0.284 N 
ATOM      3  C   UNL d   1      -0.029   0.063  -0.011  0.00  0.00     0.049 C 
ATOM      4  C   UNL d   1       0.219  -1.257  -0.121  0.00  0.00    -0.024 C 
ATOM      5  N   UNL d   1       0.968   1.006   0.027  0.00  0.00    -0.336 N 
ATOM      6  HN  UNL d   1       0.754   2.003   0.052  1.00  0.00     0.168 HD
ATOM      7  C   UNL d   1       1.629  -1.780  -0.233  0.00  0.00     0.159 C 
ATOM      8  S   UNL d   1       3.529   1.672   0.145  0.00  0.00    -0.084 SA
ATOM      9  C   UNL d   1       3.932  -0.954   0.099  0.00  0.00     0.236 A 
ATOM     10  C   UNL d   1      -1.443   0.524   0.015  0.00  0.00    -0.003 A 
ATOM     11  C   UNL d   1      -0.893  -2.277  -0.184  0.00  0.00     0.043 C 
ATOM     12  C   UNL d   1       4.732   0.325   0.150  0.00  0.00     0.185 A 
ATOM     13  C   UNL d   1      -2.486  -0.393   0.255  0.00  0.00    -0.045 A 
ATOM     14  O   UNL d   1       4.447  -2.062   0.179  0.00  0.00    -0.272 OA
ATOM     15  C   UNL d   1      -2.154  -1.830   0.555  0.00  0.00     0.044 C 
ATOM     16  C   UNL d   1      -1.771   1.869  -0.208  0.00  0.00     0.014 A 
ATOM     17  C   UNL d   1      -3.819   0.040   0.275  0.00  0.00     0.008 A 
ATOM     18  C   UNL d   1      -3.103   2.292  -0.205  0.00  0.00     0.001 A 
ATOM     19  C   UNL d   1      -4.125   1.377   0.035  0.00  0.00     0.001 A 
ENDROOT
BRANCH   7  20
ATOM     20  C   UNL d   1       1.863  -2.482  -1.570  0.00  0.00    -0.030 A 
ATOM     21  C   UNL d   1       2.164  -3.856  -1.597  0.00  0.00     0.012 A 
ATOM     22  C   UNL d   1       2.430  -4.497  -2.807  0.00  0.00     0.043 A 
ATOM     23  C   UNL d   1       2.394  -3.770  -3.991  0.00  0.00     0.116 A 
ATOM     24  C   UNL d   1       2.080  -2.417  -3.991  0.00  0.00     0.043 A 
ATOM     25  F   UNL d   1       2.672  -4.383  -5.149  0.00  0.00    -0.206 F 
ATOM     26  C   UNL d   1       1.809  -1.772  -2.785  0.00  0.00     0.012 A 
ENDBRANCH   7  20
TORSDOF 1
