REMARK  6 active torsions:
REMARK  status: ('A' for Active; 'I' for Inactive)
REMARK    1  A    between atoms: N_2  and  S_1 
REMARK    2  A    between atoms: C_3  and  S_1 
REMARK    3  A    between atoms: C_6  and  N_2 
REMARK    4  A    between atoms: C_7  and  N_2 
REMARK    5  A    between atoms: C_10  and  C_6 
REMARK    6  A    between atoms: C_13  and  C_7 
ROOT
ATOM      1  N   UNL d   1       0.436  -0.672   1.214  0.00  0.00    -0.198 NA
ENDROOT
BRANCH   1   2
ATOM      2  S   UNL d   1       1.112  -0.168  -0.273  0.00  0.00     0.244 S 
ATOM      3  O   UNL d   1       0.191  -0.529  -1.329  0.00  0.00    -0.206 OA
ATOM      4  O   UNL d   1       2.502  -0.558  -0.310  0.00  0.00    -0.206 OA
BRANCH   2   5
ATOM      5  C   UNL d   1       1.162   1.614  -0.184  0.00  0.00     0.074 A 
ATOM      6  C   UNL d   1       2.053   2.208   0.717  0.00  0.00     0.026 A 
ATOM      7  C   UNL d   1       2.311   3.578   0.628  0.00  0.00     0.025 A 
ATOM      8  C   UNL d   1       1.684   4.339  -0.359  0.00  0.00     0.034 A 
ATOM      9  C   UNL d   1       0.785   3.747  -1.248  0.00  0.00     0.025 A 
ATOM     10 CL   UNL d   1       2.055   6.013  -0.509  0.00  0.00    -0.084 Cl
ATOM     11  C   UNL d   1       0.521   2.377  -1.163  0.00  0.00     0.026 A 
ENDBRANCH   2   5
ENDBRANCH   1   2
BRANCH   1  12
ATOM     12  C   UNL d   1      -1.050  -0.536   1.298  0.00  0.00     0.147 C 
BRANCH  12  13
ATOM     13  C   UNL d   1      -1.637  -0.838   2.658  0.00  0.00    -0.029 A 
ATOM     14  C   UNL d   1      -2.571  -1.859   2.823  0.00  0.00     0.096 A 
ATOM     15  N   UNL d   1      -3.044  -2.275   4.019  0.00  0.00    -0.375 N 
ATOM     16  C   UNL d   1      -2.602  -1.616   5.109  0.00  0.00     0.087 A 
ATOM     17  HN  UNL d   1      -3.703  -3.050   4.093  1.00  0.00     0.164 HD
ATOM     18  C   UNL d   1      -1.729  -0.543   5.052  0.00  0.00     0.018 A 
ATOM     19  C   UNL d   1      -1.242  -0.148   3.807  0.00  0.00     0.011 A 
ENDBRANCH  12  13
ENDBRANCH   1  12
BRANCH   1  20
ATOM     20  C   UNL d   1       0.985  -1.979   1.712  0.00  0.00     0.146 C 
BRANCH  20  21
ATOM     21  C   UNL d   1       0.746  -3.198   0.845  0.00  0.00    -0.044 A 
ATOM     22  C   UNL d   1       1.647  -3.537  -0.177  0.00  0.00     0.010 A 
ATOM     23  C   UNL d   1       1.391  -4.606  -1.038  0.00  0.00     0.024 A 
ATOM     24  C   UNL d   1       0.240  -5.366  -0.870  0.00  0.00     0.034 A 
ATOM     25  C   UNL d   1      -0.639  -5.084   0.171  0.00  0.00     0.024 A 
ATOM     26 CL   UNL d   1      -0.092  -6.667  -1.945  0.00  0.00    -0.084 Cl
ATOM     27  C   UNL d   1      -0.378  -4.013   1.032  0.00  0.00     0.010 A 
ENDBRANCH  20  21
ENDBRANCH   1  20
TORSDOF 6
