REMARK  3 active torsions:
REMARK  status: ('A' for Active; 'I' for Inactive)
REMARK    1  A    between atoms: C_6  and  C_1 
REMARK       I    between atoms: N_7  and  C_6 
REMARK    2  A    between atoms: C_11  and  N_7 
REMARK    3  A    between atoms: C_13  and  C_11 
ROOT
ATOM      1  C   UNL d   1      -3.751  -1.681   1.180  0.00  0.00     0.259 C 
ATOM      2  N   UNL d   1      -4.359  -1.218   0.030  0.00  0.00    -0.348 N 
ATOM      3  O   UNL d   1      -3.318  -0.910   2.034  0.00  0.00    -0.267 OA
ATOM      4  H   UNL d   1      -4.696  -1.895  -0.637  0.00  0.00     0.163 HD
ENDROOT
BRANCH   1   5
ATOM      5  C   UNL d   1      -3.673  -3.130   1.342  0.00  0.00     0.074 A 
ATOM      6  S   UNL d   1      -4.508  -4.216   0.307  0.00  0.00    -0.084 SA
ATOM      7  C   UNL d   1      -4.029  -5.570   1.301  0.00  0.00     0.023 A 
ATOM      8  C   UNL d   1      -4.313  -6.970   1.317  0.00  0.00     0.027 A 
ATOM      9  C   UNL d   1      -3.195  -5.186   2.313  0.00  0.00     0.023 A 
ATOM     10  C   UNL d   1      -3.656  -7.589   2.356  0.00  0.00     0.052 A 
ATOM     11  S   UNL d   1      -2.677  -6.537   3.288  0.00  0.00    -0.101 SA
ATOM     12  C   UNL d   1      -2.972  -3.779   2.344  0.00  0.00     0.044 A 
ENDBRANCH   1   5
BRANCH   2  13
ATOM     13  C   UNL d   1      -4.690   0.186  -0.154  0.00  0.00     0.114 C 
ATOM     14  C   UNL d   1      -6.200   0.398  -0.037  0.00  0.00     0.037 C 
BRANCH  13  15
ATOM     15  C   UNL d   1      -4.175   0.731  -1.472  0.00  0.00    -0.036 A 
ATOM     16  C   UNL d   1      -4.503   0.139  -2.702  0.00  0.00     0.009 A 
ATOM     17  C   UNL d   1      -4.078   0.713  -3.902  0.00  0.00     0.001 A 
ATOM     18  C   UNL d   1      -3.323   1.884  -3.891  0.00  0.00     0.000 A 
ATOM     19  C   UNL d   1      -2.981   2.478  -2.679  0.00  0.00     0.001 A 
ATOM     20  C   UNL d   1      -3.401   1.904  -1.478  0.00  0.00     0.009 A 
ENDBRANCH  13  15
ENDBRANCH   2  13
TORSDOF 3
