REMARK  1 active torsions:
REMARK  status: ('A' for Active; 'I' for Inactive)
REMARK    1  A    between atoms: C_4  and  C_2 
ROOT
ATOM      1  C   UNL d   1      -0.834  -0.380   0.021  0.00  0.00     0.127 A 
ATOM      2  C   UNL d   1      -0.074  -1.496   0.039  0.00  0.00     0.075 A 
ATOM      3  C   UNL d   1      -0.165   0.952  -0.000  0.00  0.00     0.267 A 
ATOM      4  N   UNL d   1       1.208   0.944  -0.032  0.00  0.00    -0.326 N 
ATOM      5  C   UNL d   1       1.384  -1.386   0.037  0.00  0.00     0.042 A 
ATOM      6  C   UNL d   1      -2.256  -0.411   0.002  0.00  0.00     0.106 C 
ATOM      7  C   UNL d   1       1.984  -0.187  -0.016  0.00  0.00     0.009 A 
ATOM      8  N   UNL d   1      -3.410  -0.498  -0.022  0.00  0.00    -0.191 NA
ATOM      9  O   UNL d   1      -0.791   2.005   0.002  0.00  0.00    -0.267 OA
ATOM     10  C   UNL d   1       3.472  -0.012  -0.065  0.00  0.00     0.068 C 
ATOM     11  H   UNL d   1       1.641   1.862  -0.060  0.00  0.00     0.169 HD
ENDROOT
BRANCH   2  12
ATOM     12  C   UNL d   1      -0.678  -2.872   0.047  0.00  0.00     0.419 C 
ATOM     13  F   UNL d   1       0.266  -3.848   0.046  0.00  0.00    -0.166 F 
ATOM     14  F   UNL d   1      -1.447  -3.073   1.145  0.00  0.00    -0.166 F 
ATOM     15  F   UNL d   1      -1.461  -3.093  -1.038  0.00  0.00    -0.166 F 
ENDBRANCH   2  12
TORSDOF 1
