REMARK  4 active torsions:
REMARK  status: ('A' for Active; 'I' for Inactive)
REMARK    1  A    between atoms: O_22  and  C_19 
REMARK    2  A    between atoms: C_24  and  O_22 
REMARK    3  A    between atoms: C_23  and  C_25 
REMARK    4  A    between atoms: C_25  and  C_24 
ROOT
ATOM      1  N   UNL d   1      -4.863 -10.723  -3.384  0.00  0.00    -0.197 NA
ATOM      2  C   UNL d   1      -4.623  -9.616  -3.438  0.00  0.00     0.059 C 
ATOM      3  C   UNL d   1      -4.319  -8.155  -3.500  0.00  0.00     0.126 C 
ENDROOT
BRANCH   3   4
ATOM      4  C   UNL d   1      -4.288  -7.643  -4.943  0.00  0.00     0.041 C 
BRANCH   4   5
ATOM      5  C   UNL d   1      -4.115  -6.119  -5.043  0.00  0.00     0.176 C 
BRANCH   5   6
ATOM      6  O   UNL d   1      -2.894  -5.741  -4.423  0.00  0.00    -0.351 OA
BRANCH   6   7
ATOM      7  C   UNL d   1      -2.476  -4.455  -4.652  0.00  0.00     0.069 C 
ATOM      8  C   UNL d   1      -1.121  -4.343  -4.945  0.00  0.00     0.037 C 
ATOM      9  C   UNL d   1      -0.540  -3.083  -5.052  0.00  0.00     0.011 C 
ATOM     10  C   UNL d   1      -1.237  -1.944  -4.584  0.00  0.00    -0.047 C 
ATOM     11  C   UNL d   1      -0.397  -0.891  -3.841  0.00  0.00     0.024 C 
ATOM     12  C   UNL d   1      -2.605  -2.014  -4.384  0.00  0.00    -0.049 C 
ATOM     13  C   UNL d   1       0.234  -1.800  -2.785  0.00  0.00     0.011 C 
ATOM     14  C   UNL d   1      -0.968   0.263  -2.927  0.00  0.00    -0.000 C 
ATOM     15  C   UNL d   1      -0.874  -2.007  -1.610  0.00  0.00     0.018 C 
ATOM     16  C   UNL d   1      -1.037  -0.829  -0.575  0.00  0.00     0.021 C 
ATOM     17  C   UNL d   1      -0.174   0.140  -1.352  0.00  0.00     0.006 C 
ATOM     18  C   UNL d   1      -1.957   0.400  -0.126  0.00  0.00     0.135 C 
ATOM     19  C   UNL d   1      -1.011  -1.554   0.780  0.00  0.00     0.024 C 
ATOM     20  C   UNL d   1       0.159   1.324  -0.495  0.00  0.00     0.013 C 
ATOM     21  C   UNL d   1      -1.178   1.734  -0.006  0.00  0.00     0.079 C 
ATOM     22  O   UNL d   1      -3.136   0.339   0.209  0.00  0.00    -0.297 OA
ATOM     23  C   UNL d   1      -2.564   0.234  -3.036  0.00  0.00     0.010 C 
ATOM     24  C   UNL d   1      -3.312  -0.746  -4.010  0.00  0.00     0.039 C 
ATOM     25  C   UNL d   1      -3.238  -3.291  -4.469  0.00  0.00     0.044 C 
ENDBRANCH   6   7
ENDBRANCH   5   6
ENDBRANCH   4   5
ENDBRANCH   3   4
TORSDOF 4
