REMARK  3 active torsions:
REMARK  status: ('A' for Active; 'I' for Inactive)
REMARK    1  A    between atoms: N_3  and  C_1 
REMARK    2  A    between atoms: C_10  and  N_2 
REMARK       I    between atoms: C_7  and  N_3 
REMARK       I    between atoms: N_9  and  C_7 
REMARK    3  A    between atoms: C_12  and  N_9 
ROOT
ATOM      1  C   UNL d   1      -0.121  -1.118   0.411  0.00  0.00     0.133 C 
ATOM      2  N   UNL d   1       1.196  -0.745   0.140  0.00  0.00    -0.240 N 
ATOM      3  N   UNL d   1       1.339   0.605   0.234  0.00  0.00    -0.297 N 
ATOM      4  HN  UNL d   1       2.162   1.159  -0.007  1.00  0.00     0.187 HD
ATOM      5  C   UNL d   1      -0.743  -0.003   0.929  0.00  0.00     0.076 C 
ATOM      6  C   UNL d   1       0.173   1.049   0.708  0.00  0.00     0.026 C 
ATOM      7  C   UNL d   1      -0.045   2.511   0.857  0.00  0.00     0.070 C 
ENDROOT
BRANCH   1   8
ATOM      8  N   UNL d   1      -0.661  -2.335   0.044  0.00  0.00    -0.293 N 
ATOM      9  C   UNL d   1      -1.496  -3.157   0.749  0.00  0.00     0.326 C 
ATOM     10  N   UNL d   1      -1.610  -2.912   2.093  0.00  0.00    -0.309 N 
ATOM     11  O   UNL d   1      -1.961  -4.119   0.145  0.00  0.00    -0.247 OA
ATOM     12  H   UNL d   1      -1.168  -2.073   2.437  0.00  0.00     0.170 HD
ATOM     13  H   UNL d   1      -0.336  -2.763  -0.816  0.00  0.00     0.172 HD
BRANCH  10  14
ATOM     14  C   UNL d   1      -2.216  -3.746   3.061  0.00  0.00     0.036 A 
ATOM     15  C   UNL d   1      -2.774  -4.995   2.774  0.00  0.00     0.029 A 
ATOM     16  C   UNL d   1      -3.381  -5.757   3.778  0.00  0.00     0.002 A 
ATOM     17  C   UNL d   1      -3.430  -5.280   5.083  0.00  0.00     0.000 A 
ATOM     18  C   UNL d   1      -2.853  -4.051   5.390  0.00  0.00     0.002 A 
ATOM     19  C   UNL d   1      -2.242  -3.291   4.385  0.00  0.00     0.029 A 
ENDBRANCH  10  14
ENDBRANCH   1   8
BRANCH   2  20
ATOM     20  C   UNL d   1       2.334  -1.572  -0.115  0.00  0.00     0.058 A 
ATOM     21  C   UNL d   1       2.287  -2.966   0.043  0.00  0.00     0.031 A 
ATOM     22  C   UNL d   1       3.425  -3.745  -0.183  0.00  0.00     0.002 A 
ATOM     23  C   UNL d   1       4.625  -3.140  -0.544  0.00  0.00     0.000 A 
ATOM     24  C   UNL d   1       4.690  -1.756  -0.680  0.00  0.00     0.002 A 
ATOM     25  C   UNL d   1       3.552  -0.973  -0.468  0.00  0.00     0.031 A 
ENDBRANCH   2  20
TORSDOF 3
