REMARK  6 active torsions:
REMARK  status: ('A' for Active; 'I' for Inactive)
REMARK    1  A    between atoms: N_5  and  C_4 
REMARK       I    between atoms: C_6  and  N_5 
REMARK    2  A    between atoms: C_14  and  C_6 
REMARK    3  A    between atoms: C_10  and  C_16 
REMARK    4  A    between atoms: O_18  and  C_10 
REMARK    5  A    between atoms: C_11  and  C_14 
REMARK    6  A    between atoms: C_16  and  C_11 
ROOT
ATOM      1  C   UNL d   1      -2.016  -0.651  -0.894  0.00  0.00     0.021 A 
ATOM      2  N   UNL d   1      -2.397   1.444  -2.013  0.00  0.00    -0.300 N 
ATOM      3  HN  UNL d   1      -2.153   2.426  -2.141  1.00  0.00     0.187 HD
ATOM      4  C   UNL d   1      -1.265  -1.375   0.083  0.00  0.00     0.047 A 
ATOM      5  N   UNL d   1      -3.374   0.887  -2.794  0.00  0.00    -0.305 N 
ATOM      6  HN  UNL d   1      -3.864   1.454  -3.486  1.00  0.00     0.186 HD
ATOM      7  C   UNL d   1      -1.754   0.720  -1.082  0.00  0.00     0.060 A 
ATOM      8  C   UNL d   1      -2.997  -1.204  -1.737  0.00  0.00     0.042 A 
ATOM      9  C   UNL d   1      -3.682  -0.410  -2.641  0.00  0.00     0.023 A 
ATOM     10  C   UNL d   1      -0.300  -0.711   0.850  0.00  0.00     0.030 A 
ATOM     11  C   UNL d   1      -0.088   0.654   0.683  0.00  0.00     0.005 A 
ATOM     12  C   UNL d   1      -0.799   1.348  -0.293  0.00  0.00     0.032 A 
ATOM     13  C   UNL d   1      -4.819  -0.968  -3.434  0.00  0.00     0.070 C 
ENDROOT
BRANCH   4  14
ATOM     14  N   UNL d   1      -1.377  -2.774   0.286  0.00  0.00    -0.326 N 
ATOM     15  C   UNL d   1      -2.573  -3.429   0.523  0.00  0.00     0.222 C 
ATOM     16  O   UNL d   1      -3.667  -2.882   0.636  0.00  0.00    -0.273 OA
ATOM     17  H   UNL d   1      -0.540  -3.259   0.601  0.00  0.00     0.169 HD
BRANCH  15  18
ATOM     18  C   UNL d   1      -2.456  -4.943   0.608  0.00  0.00     0.112 C 
BRANCH  18  19
ATOM     19  C   UNL d   1      -2.659  -5.682  -0.744  0.00  0.00    -0.030 C 
ATOM     20  C   UNL d   1      -2.613  -7.202  -0.479  0.00  0.00     0.016 C 
ATOM     21  C   UNL d   1      -4.062  -5.371  -1.312  0.00  0.00     0.016 C 
BRANCH  19  22
ATOM     22  C   UNL d   1      -1.614  -5.303  -1.822  0.00  0.00     0.119 C 
BRANCH  22  23
ATOM     23  C   UNL d   1      -0.181  -5.595  -1.436  0.00  0.00     0.140 C 
ATOM     24  O   UNL d   1       0.386  -5.061  -0.489  0.00  0.00    -0.650 OA
BRANCH  23  25
ATOM     25  O   UNL d   1       0.430  -6.497  -2.228  0.00  0.00    -0.776 OA
ATOM     26  H   UNL d   1      -0.109  -6.839  -2.967  0.00  0.00     0.167 HD
ENDBRANCH  23  25
ENDBRANCH  22  23
ENDBRANCH  19  22
ENDBRANCH  18  19
ENDBRANCH  15  18
ENDBRANCH   4  14
TORSDOF 6
