REMARK  7 active torsions:
REMARK  status: ('A' for Active; 'I' for Inactive)
REMARK       I    between atoms: N_4  and  C_1 
REMARK    1  A    between atoms: C_16  and  C_1 
REMARK       I    between atoms: C_2  and  N_3 
REMARK    2  A    between atoms: N_3  and  C_9 
REMARK    3  A    between atoms: C_10  and  N_4 
REMARK    4  A    between atoms: C_5  and  C_17 
REMARK    5  A    between atoms: O_11  and  C_5 
REMARK    6  A    between atoms: C_18  and  C_16 
REMARK    7  A    between atoms: C_17  and  C_18 
ROOT
ATOM      1  C   UNL d   1       2.271  -0.826   4.942  0.00  0.00     0.034 A 
ATOM      2  C   UNL d   1       0.815  -0.552   2.536  0.00  0.00     0.034 A 
ATOM      3  C   UNL d   1       2.354   0.348   4.196  0.00  0.00     0.032 A 
ATOM      4  C   UNL d   1       0.685  -1.698   3.318  0.00  0.00     0.032 A 
ATOM      5  C   UNL d   1       1.406  -1.834   4.510  0.00  0.00     0.032 A 
ATOM      6  C   UNL d   1       1.634   0.483   3.000  0.00  0.00     0.032 A 
ENDROOT
BRANCH   2   7
ATOM      7  N   UNL d   1       0.214  -0.396   1.269  0.00  0.00    -0.327 N 
ATOM      8  C   UNL d   1      -0.634  -1.290   0.639  0.00  0.00     0.222 C 
ATOM      9  O   UNL d   1      -1.139  -2.289   1.144  0.00  0.00    -0.273 OA
ATOM     10  H   UNL d   1       0.462   0.443   0.757  0.00  0.00     0.169 HD
BRANCH   8  11
ATOM     11  C   UNL d   1      -0.887  -0.919  -0.813  0.00  0.00     0.103 C 
BRANCH  11  12
ATOM     12  C   UNL d   1      -1.892  -1.846  -1.509  0.00  0.00     0.019 C 
BRANCH  12  13
ATOM     13  C   UNL d   1      -3.324  -1.733  -0.978  0.00  0.00     0.110 C 
BRANCH  13  14
ATOM     14  C   UNL d   1      -3.923  -0.367  -1.208  0.00  0.00     0.139 C 
ATOM     15  O   UNL d   1      -3.590   0.399  -2.100  0.00  0.00    -0.650 OA
BRANCH  14  16
ATOM     16  O   UNL d   1      -4.902  -0.065  -0.326  0.00  0.00    -0.776 OA
ATOM     17  H   UNL d   1      -5.065  -0.763   0.338  0.00  0.00     0.167 HD
ENDBRANCH  14  16
ENDBRANCH  13  14
ENDBRANCH  12  13
ENDBRANCH  11  12
ENDBRANCH   8  11
ENDBRANCH   2   7
BRANCH   1  18
ATOM     18  N   UNL d   1       3.039  -1.095   6.093  0.00  0.00    -0.328 N 
ATOM     19  C   UNL d   1       4.028  -0.305   6.647  0.00  0.00     0.218 C 
ATOM     20  O   UNL d   1       4.351   0.823   6.291  0.00  0.00    -0.274 OA
ATOM     21  C   UNL d   1       4.754  -0.981   7.784  0.00  0.00     0.117 C 
ATOM     22  H   UNL d   1       2.890  -2.004   6.513  0.00  0.00     0.169 HD
ENDBRANCH   1  18
TORSDOF 7
