REMARK  4 active torsions:
REMARK  status: ('A' for Active; 'I' for Inactive)
REMARK    1  A    between atoms: N_12  and  C_2 
REMARK    2  A    between atoms: C_11  and  C_5 
REMARK    3  A    between atoms: C_10  and  C_6 
REMARK    4  A    between atoms: O_18  and  C_15 
ROOT
ATOM      1  C   UNL d   1      -0.467  -0.302   0.002  0.00  0.00     0.093 A 
ATOM      2  C   UNL d   1       0.237   0.906  -0.036  0.00  0.00     0.100 A 
ATOM      3  N   UNL d   1       1.583   0.969  -0.055  0.00  0.00    -0.345 N 
ATOM      4  HN  UNL d   1       2.063   1.868  -0.097  1.00  0.00     0.167 HD
ATOM      5  C   UNL d   1       0.234  -1.516   0.120  0.00  0.00     0.000 A 
ATOM      6  C   UNL d   1       2.282  -0.188  -0.018  0.00  0.00     0.044 A 
ATOM      7  C   UNL d   1       1.640  -1.418   0.123  0.00  0.00     0.044 A 
ATOM      8  C   UNL d   1      -1.885  -0.255  -0.104  0.00  0.00     0.103 C 
ATOM      9  N   UNL d   1      -3.046  -0.185  -0.138  0.00  0.00    -0.191 NA
ENDROOT
BRANCH   2  10
ATOM     10  N   UNL d   1      -0.396   2.143  -0.152  0.00  0.00    -0.287 NA
ATOM     11  H   UNL d   1      -1.158   2.287   0.501  0.00  0.00     0.125 HD
ATOM     12  H   UNL d   1       0.312   2.872  -0.092  0.00  0.00     0.125 HD
ENDBRANCH   2  10
BRANCH   5  13
ATOM     13  C   UNL d   1      -0.390  -2.869   0.214  0.00  0.00    -0.024 A 
ATOM     14  C   UNL d   1       0.200  -3.985  -0.416  0.00  0.00     0.012 A 
ATOM     15  C   UNL d   1      -0.351  -5.267  -0.320  0.00  0.00     0.001 A 
ATOM     16  C   UNL d   1      -1.531  -5.464   0.386  0.00  0.00     0.000 A 
ATOM     17  C   UNL d   1      -2.142  -4.385   1.012  0.00  0.00     0.001 A 
ATOM     18  C   UNL d   1      -1.566  -3.111   0.946  0.00  0.00     0.012 A 
ENDBRANCH   5  13
BRANCH   6  19
ATOM     19  C   UNL d   1       3.744  -0.080  -0.210  0.00  0.00    -0.009 A 
ATOM     20  C   UNL d   1       4.469  -1.071  -0.902  0.00  0.00     0.016 A 
ATOM     21  C   UNL d   1       5.849  -0.970  -1.111  0.00  0.00     0.037 A 
ATOM     22  C   UNL d   1       6.542   0.141  -0.637  0.00  0.00     0.068 A 
ATOM     23  C   UNL d   1       5.844   1.150   0.023  0.00  0.00     0.037 A 
ATOM     24  C   UNL d   1       4.463   1.041   0.236  0.00  0.00     0.016 A 
BRANCH  22  25
ATOM     25  O   UNL d   1       7.887   0.356  -0.801  0.00  0.00    -0.356 OA
ATOM     26  C   UNL d   1       8.687  -0.818  -0.897  0.00  0.00     0.210 C 
ENDBRANCH  22  25
ENDBRANCH   6  19
TORSDOF 4
