REMARK  5 active torsions:
REMARK  status: ('A' for Active; 'I' for Inactive)
REMARK    1  A    between atoms: C_2  and  S_1 
REMARK    2  A    between atoms: N_3  and  S_1 
REMARK    3  A    between atoms: C_9  and  N_3 
REMARK    4  A    between atoms: C_12  and  N_3 
REMARK    5  A    between atoms: N_10  and  C_8 
ROOT
ATOM      1  C   UNL d   1       0.768  -2.047   0.602  0.00  0.00     0.090 A 
ATOM      2  C   UNL d   1      -0.022  -2.962  -0.176  0.00  0.00    -0.001 A 
ATOM      3  C   UNL d   1      -0.098  -4.331   0.258  0.00  0.00    -0.003 A 
ATOM      4  C   UNL d   1      -0.834  -5.299  -0.489  0.00  0.00     0.017 A 
ATOM      5  C   UNL d   1       1.487  -2.522   1.716  0.00  0.00     0.026 A 
ATOM      6  C   UNL d   1      -0.705  -2.660  -1.383  0.00  0.00     0.014 A 
ATOM      7  C   UNL d   1       0.601  -4.720   1.420  0.00  0.00     0.014 A 
ATOM      8  C   UNL d   1       1.385  -3.834   2.140  0.00  0.00     0.002 A 
ATOM      9  C   UNL d   1      -1.352  -3.633  -2.150  0.00  0.00     0.003 A 
ATOM     10  C   UNL d   1      -1.392  -4.946  -1.716  0.00  0.00     0.024 A 
ENDROOT
BRANCH   1  11
ATOM     11  S   UNL d   1       1.201  -0.350   0.104  0.00  0.00     0.262 S 
ATOM     12  O   UNL d   1       0.626  -0.079  -1.197  0.00  0.00    -0.200 OA
ATOM     13  O   UNL d   1       2.641  -0.268   0.234  0.00  0.00    -0.200 OA
BRANCH  11  14
ATOM     14  N   UNL d   1       0.491   0.755   1.278  0.00  0.00    -0.302 N 
BRANCH  14  15
ATOM     15  C   UNL d   1      -0.995   1.091   1.103  0.00  0.00     0.096 C 
ATOM     16  C   UNL d   1      -1.290   1.917  -0.174  0.00  0.00     0.026 C 
ATOM     17  C   UNL d   1      -0.798   3.363  -0.111  0.00  0.00     0.002 C 
ATOM     18  C   UNL d   1      -1.425   4.102   1.063  0.00  0.00     0.000 C 
ATOM     19  C   UNL d   1      -1.162   3.354   2.364  0.00  0.00     0.002 C 
ATOM     20  C   UNL d   1      -1.628   1.893   2.276  0.00  0.00     0.026 C 
ENDBRANCH  14  15
BRANCH  14  21
ATOM     21  C   UNL d   1       0.924   0.551   2.705  0.00  0.00     0.131 C 
ATOM     22  C   UNL d   1       2.410   0.719   2.983  0.00  0.00     0.027 C 
ENDBRANCH  14  21
ENDBRANCH  11  14
ENDBRANCH   1  11
BRANCH   4  23
ATOM     23  N   UNL d   1      -0.832  -6.678  -0.158  0.00  0.00    -0.302 NA
ATOM     24  H   UNL d   1      -0.825  -6.861   0.838  0.00  0.00     0.124 HD
ATOM     25  H   UNL d   1      -1.567  -7.204  -0.621  0.00  0.00     0.124 HD
ENDBRANCH   4  23
TORSDOF 5
