REMARK  8 active torsions:
REMARK  status: ('A' for Active; 'I' for Inactive)
REMARK    1  A    between atoms: N_3  and  C_1 
REMARK    2  A    between atoms: C_8  and  C_2 
REMARK    3  A    between atoms: C_5  and  C_10 
REMARK    4  A    between atoms: C_6  and  C_11 
REMARK    5  A    between atoms: O_19  and  C_8 
REMARK    6  A    between atoms: C_12  and  C_13 
REMARK    7  A    between atoms: N_29  and  C_13 
REMARK    8  A    between atoms: N_14  and  O_19 
ROOT
ATOM      1  C   UNL d   1       1.131  -4.772  -0.019  0.00  0.00     0.109 C 
ATOM      2  N   UNL d   1       1.283  -3.510   0.234  0.00  0.00    -0.246 N 
ATOM      3  HN  UNL d   1       2.182  -3.092   0.474  1.00  0.00     0.196 HD
ENDROOT
BRANCH   1   4
ATOM      4  C   UNL d   1       2.380  -5.600  -0.018  0.00  0.00     0.005 A 
ATOM      5  C   UNL d   1       3.463  -5.214   0.784  0.00  0.00     0.031 A 
ATOM      6  C   UNL d   1       4.672  -5.925   0.750  0.00  0.00     0.049 A 
ATOM      7  C   UNL d   1       4.782  -7.030  -0.109  0.00  0.00     0.032 A 
ATOM      8  C   UNL d   1       3.709  -7.423  -0.929  0.00  0.00     0.049 A 
ATOM      9  C   UNL d   1       2.502  -6.705  -0.866  0.00  0.00     0.031 A 
BRANCH   6  10
ATOM     10  C   UNL d   1       5.830  -5.480   1.614  0.00  0.00     0.417 C 
ATOM     11  F   UNL d   1       6.942  -6.251   1.462  0.00  0.00    -0.166 F 
ATOM     12  F   UNL d   1       6.221  -4.205   1.348  0.00  0.00    -0.166 F 
ATOM     13  F   UNL d   1       5.530  -5.516   2.941  0.00  0.00    -0.166 F 
ENDBRANCH   6  10
BRANCH   8  14
ATOM     14  C   UNL d   1       3.848  -8.578  -1.894  0.00  0.00     0.417 C 
ATOM     15  F   UNL d   1       5.086  -9.143  -1.893  0.00  0.00    -0.166 F 
ATOM     16  F   UNL d   1       2.974  -9.585  -1.621  0.00  0.00    -0.166 F 
ATOM     17  F   UNL d   1       3.604  -8.208  -3.181  0.00  0.00    -0.166 F 
ENDBRANCH   8  14
ENDBRANCH   1   4
BRANCH   1  18
ATOM     18  N   UNL d   1      -0.072  -5.377  -0.287  0.00  0.00    -0.286 NA
ATOM     19  H   UNL d   1      -0.164  -6.338   0.028  0.00  0.00     0.125 HD
ATOM     20  H   UNL d   1      -0.869  -4.812  -0.013  0.00  0.00     0.125 HD
ENDBRANCH   1  18
BRANCH   2  21
ATOM     21  O   UNL d   1       0.086  -2.770   0.147  0.00  0.00    -0.193 OA
BRANCH  21  22
ATOM     22  C   UNL d   1       0.387  -1.434   0.333  0.00  0.00     0.315 C 
ATOM     23  O   UNL d   1       1.497  -0.984   0.605  0.00  0.00    -0.257 OA
BRANCH  22  24
ATOM     24  C   UNL d   1      -0.765  -0.542   0.179  0.00  0.00     0.050 A 
ATOM     25  C   UNL d   1      -0.686   0.890   0.334  0.00  0.00     0.062 A 
ATOM     26  C   UNL d   1      -1.899   1.511   0.146  0.00  0.00     0.144 A 
ATOM     27  S   UNL d   1      -3.139   0.411  -0.222  0.00  0.00    -0.077 SA
ATOM     28  C   UNL d   1      -2.058  -0.923  -0.134  0.00  0.00     0.069 A 
BRANCH  26  29
ATOM     29  N   UNL d   1      -2.160   2.925   0.234  0.00  0.00    -0.108 N 
ATOM     30  O   UNL d   1      -1.189   3.646   0.499  0.00  0.00    -0.531 OA
ATOM     31  O   UNL d   1      -3.317   3.321   0.046  0.00  0.00    -0.531 OA
ENDBRANCH  26  29
ENDBRANCH  22  24
ENDBRANCH  21  22
ENDBRANCH   2  21
TORSDOF 8
