REMARK  3 active torsions:
REMARK  status: ('A' for Active; 'I' for Inactive)
REMARK    1  A    between atoms: C_7  and  N_1 
REMARK    2  A    between atoms: C_13  and  N_5 
REMARK    3  A    between atoms: C_12  and  C_7 
ROOT
ATOM      1  N   UNL d   1      -0.379   0.997  -0.015  0.00  0.00    -0.293 N 
ATOM      2  C   UNL d   1       0.909   0.545   0.106  0.00  0.00     0.150 C 
ATOM      3  C   UNL d   1      -1.374   0.045  -0.052  0.00  0.00     0.235 C 
ATOM      4  S   UNL d   1       0.896  -1.146   0.544  0.00  0.00    -0.084 SA
ATOM      5  N   UNL d   1       1.927   1.314  -0.097  0.00  0.00    -0.337 N 
ATOM      6  HN  UNL d   1       1.752   2.300  -0.294  1.00  0.00     0.168 HD
ATOM      7  C   UNL d   1      -0.823  -1.350   0.038  0.00  0.00     0.185 C 
ATOM      8  O   UNL d   1      -2.569   0.277  -0.212  0.00  0.00    -0.272 OA
ENDROOT
BRANCH   1   9
ATOM      9  C   UNL d   1      -0.713   2.408  -0.124  0.00  0.00     0.174 C 
BRANCH   9  10
ATOM     10  C   UNL d   1      -0.933   3.025   1.235  0.00  0.00    -0.024 A 
ATOM     11  C   UNL d   1      -2.198   3.062   1.812  0.00  0.00     0.096 A 
ATOM     12  N   UNL d   1      -2.458   3.577   3.038  0.00  0.00    -0.375 N 
ATOM     13  C   UNL d   1      -1.407   4.070   3.726  0.00  0.00     0.087 A 
ATOM     14  HN  UNL d   1      -3.403   3.591   3.422  1.00  0.00     0.164 HD
ATOM     15  C   UNL d   1      -0.108   4.073   3.246  0.00  0.00     0.018 A 
ATOM     16  C   UNL d   1       0.130   3.541   1.983  0.00  0.00     0.011 A 
ENDBRANCH   9  10
ENDBRANCH   1   9
BRANCH   5  17
ATOM     17  C   UNL d   1       3.260   0.874  -0.064  0.00  0.00     0.034 A 
ATOM     18  C   UNL d   1       3.709  -0.266  -0.746  0.00  0.00     0.031 A 
ATOM     19  C   UNL d   1       5.050  -0.659  -0.697  0.00  0.00     0.026 A 
ATOM     20  C   UNL d   1       5.972   0.132  -0.021  0.00  0.00     0.034 A 
ATOM     21  C   UNL d   1       5.563   1.308   0.601  0.00  0.00     0.026 A 
ATOM     22 CL   UNL d   1       7.626  -0.337   0.023  0.00  0.00    -0.084 Cl
ATOM     23  C   UNL d   1       4.211   1.672   0.582  0.00  0.00     0.031 A 
ENDBRANCH   5  17
TORSDOF 3
