REMARK  3 active torsions:
REMARK  status: ('A' for Active; 'I' for Inactive)
REMARK       I    between atoms: C_7  and  N_1 
REMARK    1  A    between atoms: C_2  and  S_11 
REMARK    2  A    between atoms: C_13  and  C_7 
REMARK    3  A    between atoms: S_11  and  C_13 
ROOT
ATOM      1  S   UNL d   1       4.156   2.758   1.670  0.00  0.00    -0.085 SA
ENDROOT
BRANCH   1   2
ATOM      2  C   UNL d   1       5.714   3.456   1.429  0.00  0.00     0.145 A 
ATOM      3  N   UNL d   1       6.360   3.642   0.303  0.00  0.00    -0.335 N 
ATOM      4  C   UNL d   1       7.530   4.274   0.672  0.00  0.00     0.061 A 
ATOM      5  HN  UNL d   1       6.065   3.377  -0.637  1.00  0.00     0.168 HD
ATOM      6  C   UNL d   1       8.596   4.736  -0.117  0.00  0.00     0.032 A 
ATOM      7  C   UNL d   1       7.587   4.453   2.052  0.00  0.00     0.061 A 
ATOM      8  C   UNL d   1       9.678   5.369   0.514  0.00  0.00     0.002 A 
ATOM      9  C   UNL d   1       9.703   5.535   1.901  0.00  0.00     0.002 A 
ATOM     10  C   UNL d   1       8.654   5.075   2.706  0.00  0.00     0.032 A 
ATOM     11  N   UNL d   1       6.416   3.908   2.508  0.00  0.00    -0.335 N 
ATOM     12  H   UNL d   1       6.101   3.864   3.465  0.00  0.00     0.168 HD
ENDBRANCH   1   2
BRANCH   1  13
ATOM     13  C   UNL d   1       3.539   2.680  -0.035  0.00  0.00     0.185 C 
BRANCH  13  14
ATOM     14  C   UNL d   1       2.032   2.438  -0.039  0.00  0.00     0.234 C 
ATOM     15  N   UNL d   1       1.598   1.120  -0.053  0.00  0.00    -0.317 N 
ATOM     16  C   UNL d   1       0.251   0.700  -0.137  0.00  0.00     0.043 A 
ATOM     17  C   UNL d   1       2.432  -0.078   0.156  0.00  0.00     0.137 C 
ATOM     18  C   UNL d   1       0.177  -0.695  -0.103  0.00  0.00    -0.030 A 
ATOM     19  C   UNL d   1      -0.902   1.458  -0.257  0.00  0.00     0.030 A 
ATOM     20  C   UNL d   1      -1.039  -1.360  -0.180  0.00  0.00     0.009 A 
ATOM     21  C   UNL d   1       1.537  -1.309  -0.039  0.00  0.00     0.061 C 
ATOM     22  C   UNL d   1      -2.204  -0.601  -0.291  0.00  0.00     0.001 A 
ATOM     23  C   UNL d   1      -2.135   0.799  -0.332  0.00  0.00     0.002 A 
ATOM     24  O   UNL d   1       1.274   3.413  -0.048  0.00  0.00    -0.272 OA
ENDBRANCH  13  14
ENDBRANCH   1  13
TORSDOF 3
