REMARK  4 active torsions:
REMARK  status: ('A' for Active; 'I' for Inactive)
REMARK    1  A    between atoms: C_2  and  C_1 
REMARK    2  A    between atoms: C_4  and  C_2 
REMARK    3  A    between atoms: S_9  and  C_4 
REMARK    4  A    between atoms: C_17  and  S_9 
ROOT
ATOM      1  C   UNL d   1      -1.910   2.611   0.015  0.00  0.00     0.260 C 
ATOM      2  O   UNL d   1      -1.065   3.503   0.140  0.00  0.00    -0.283 OA
ENDROOT
BRANCH   1   3
ATOM      3  C   UNL d   1      -1.510   1.210  -0.034  0.00  0.00     0.109 A 
ATOM      4  N   UNL d   1      -0.207   0.733  -0.129  0.00  0.00    -0.304 N 
ATOM      5  C   UNL d   1      -0.285  -0.660  -0.111  0.00  0.00     0.112 A 
ATOM      6  C   UNL d   1       1.017   1.406  -0.234  0.00  0.00     0.099 A 
ATOM      7  C   UNL d   1       0.932  -1.397  -0.181  0.00  0.00     0.049 A 
ATOM      8  N   UNL d   1      -1.529  -1.075  -0.030  0.00  0.00    -0.350 N 
ATOM      9  C   UNL d   1       2.107  -0.745  -0.272  0.00  0.00     0.005 A 
ATOM     10  C   UNL d   1       2.162   0.707  -0.307  0.00  0.00     0.018 A 
ATOM     11  C   UNL d   1      -2.285   0.062   0.018  0.00  0.00     0.123 A 
ATOM     12  HN  UNL d   1      -1.859  -2.040  -0.007  1.00  0.00     0.166 HD
ENDBRANCH   1   3
BRANCH   1  13
ATOM     13  C   UNL d   1      -3.431   2.932  -0.007  0.00  0.00     0.362 C 
ATOM     14  F   UNL d   1      -4.138   1.996  -0.706  0.00  0.00    -0.184 F 
ATOM     15  F   UNL d   1      -3.946   2.925   1.256  0.00  0.00    -0.184 F 
BRANCH  13  16
ATOM     16  S   UNL d   1      -3.712   4.569  -0.783  0.00  0.00    -0.045 SA
BRANCH  16  17
ATOM     17  C   UNL d   1      -5.462   4.862  -0.578  0.00  0.00     0.006 A 
ATOM     18  C   UNL d   1      -5.870   6.201  -0.476  0.00  0.00     0.018 A 
ATOM     19  C   UNL d   1      -7.224   6.539  -0.401  0.00  0.00     0.001 A 
ATOM     20  C   UNL d   1      -8.192   5.540  -0.431  0.00  0.00     0.000 A 
ATOM     21  C   UNL d   1      -7.803   4.207  -0.530  0.00  0.00     0.001 A 
ATOM     22  C   UNL d   1      -6.446   3.870  -0.606  0.00  0.00     0.018 A 
ENDBRANCH  16  17
ENDBRANCH  13  16
ENDBRANCH   1  13
TORSDOF 4
