REMARK  2 active torsions:
REMARK  status: ('A' for Active; 'I' for Inactive)
REMARK    1  A    between atoms: C_17  and  C_13 
REMARK    2  A    between atoms: O_25  and  C_20 
ROOT
ATOM      1  N   UNL d   1       0.954  -0.548  -0.094  0.00  0.00    -0.196 N 
ATOM      2  C   UNL d   1      -1.466  -0.650   0.003  0.00  0.00     0.075 A 
ATOM      3  C   UNL d   1      -1.401   0.731  -0.016  0.00  0.00     0.092 A 
ATOM      4  C   UNL d   1      -0.195  -1.379  -0.032  0.00  0.00     0.282 A 
ATOM      5  C   UNL d   1       0.822   0.843  -0.183  0.00  0.00     0.170 A 
ATOM      6  N   UNL d   1      -0.293   1.492  -0.111  0.00  0.00    -0.329 N 
ATOM      7  HN  UNL d   1      -0.332   2.511  -0.126  1.00  0.00     0.168 HD
ATOM      8  N   UNL d   1       2.160  -1.233  -0.090  0.00  0.00    -0.292 N 
ATOM      9  HN  UNL d   1       2.142  -2.250  -0.163  1.00  0.00     0.187 HD
ATOM     10  S   UNL d   1      -2.936   1.454   0.041  0.00  0.00    -0.076 SA
ATOM     11  C   UNL d   1      -2.839  -1.123   0.017  0.00  0.00    -0.031 A 
ATOM     12  C   UNL d   1      -3.731  -0.059   0.031  0.00  0.00    -0.012 A 
ATOM     13  C   UNL d   1       3.313  -0.639   0.003  0.00  0.00     0.046 C 
ATOM     14  S   UNL d   1       2.213   1.836  -0.506  0.00  0.00    -0.086 SA
ATOM     15  O   UNL d   1      -0.165  -2.605   0.014  0.00  0.00    -0.265 OA
ATOM     16  C   UNL d   1       3.546   0.838   0.090  0.00  0.00     0.142 C 
ATOM     17  C   UNL d   1      -3.276  -2.557   0.006  0.00  0.00     0.050 C 
ATOM     18  C   UNL d   1      -5.228  -0.065   0.019  0.00  0.00     0.057 C 
ENDROOT
BRANCH  13  19
ATOM     19  C   UNL d   1       4.540  -1.501   0.101  0.00  0.00    -0.011 A 
ATOM     20  C   UNL d   1       4.569  -2.751  -0.528  0.00  0.00     0.016 A 
ATOM     21  C   UNL d   1       5.699  -3.573  -0.418  0.00  0.00     0.037 A 
ATOM     22  C   UNL d   1       6.799  -3.158   0.333  0.00  0.00     0.068 A 
ATOM     23  C   UNL d   1       6.779  -1.906   0.947  0.00  0.00     0.037 A 
ATOM     24  C   UNL d   1       5.655  -1.083   0.842  0.00  0.00     0.016 A 
BRANCH  22  25
ATOM     25  O   UNL d   1       7.957  -3.866   0.499  0.00  0.00    -0.356 OA
ATOM     26  C   UNL d   1       7.813  -5.282   0.516  0.00  0.00     0.210 C 
ENDBRANCH  22  25
ENDBRANCH  13  19
TORSDOF 2
