REMARK  5 active torsions:
REMARK  status: ('A' for Active; 'I' for Inactive)
REMARK    1  A    between atoms: C_11  and  N_3 
REMARK    2  A    between atoms: O_10  and  C_4 
REMARK    3  A    between atoms: C_13  and  C_11 
REMARK    4  A    between atoms: C_15  and  C_13 
REMARK    5  A    between atoms: O_14  and  C_15 
ROOT
ATOM      1  C   UNL d   1      -0.688   1.233   0.014  0.00  0.00     0.118 A 
ATOM      2  C   UNL d   1      -1.474  -0.042   0.039  0.00  0.00     0.270 A 
ATOM      3  N   UNL d   1      -0.747  -1.239  -0.033  0.00  0.00    -0.294 N 
ATOM      4  C   UNL d   1       0.635  -1.245  -0.064  0.00  0.00     0.145 A 
ATOM      5  C   UNL d   1       0.660   1.186  -0.012  0.00  0.00    -0.032 A 
ATOM      6  C   UNL d   1       1.331  -0.100  -0.044  0.00  0.00     0.064 A 
ATOM      7  C   UNL d   1      -1.417   2.456   0.030  0.00  0.00     0.105 C 
ATOM      8  N   UNL d   1      -1.948   3.488   0.033  0.00  0.00    -0.191 NA
ATOM      9  O   UNL d   1      -2.700   0.002   0.125  0.00  0.00    -0.266 OA
ATOM     10  C   UNL d   1       1.573   2.383  -0.011  0.00  0.00     0.050 C 
ENDROOT
BRANCH   3  11
ATOM     11  C   UNL d   1      -1.502  -2.498   0.042  0.00  0.00     0.136 C 
BRANCH  11  12
ATOM     12  C   UNL d   1      -2.342  -2.776  -1.211  0.00  0.00     0.046 C 
BRANCH  12  13
ATOM     13  C   UNL d   1      -3.054  -4.123  -1.118  0.00  0.00     0.168 C 
BRANCH  13  14
ATOM     14  O   UNL d   1      -3.852  -4.153   0.063  0.00  0.00    -0.396 OA
ATOM     15  C   UNL d   1      -4.559  -5.376   0.203  0.00  0.00     0.201 C 
ENDBRANCH  13  14
ENDBRANCH  12  13
ENDBRANCH  11  12
ENDBRANCH   3  11
BRANCH   4  16
ATOM     16  O   UNL d   1       1.255  -2.470  -0.098  0.00  0.00    -0.346 OA
ATOM     17  H   UNL d   1       2.216  -2.336  -0.049  0.00  0.00     0.219 HD
ENDBRANCH   4  16
TORSDOF 5
