REMARK  6 active torsions:
REMARK  status: ('A' for Active; 'I' for Inactive)
REMARK    1  A    between atoms: N_5  and  S_1 
REMARK    2  A    between atoms: C_9  and  S_1 
REMARK       I    between atoms: C_2  and  N_3 
REMARK    3  A    between atoms: O_10  and  C_2 
REMARK    4  A    between atoms: N_4  and  C_6 
REMARK    5  A    between atoms: C_14  and  N_5 
REMARK    6  A    between atoms: C_19  and  O_10 
ROOT
ATOM      1  C   UNL d   1       1.487  -3.488   4.007  0.00  0.00     0.103 A 
ATOM      2  N   UNL d   1       1.099  -3.834   2.760  0.00  0.00    -0.350 N 
ATOM      3  HN  UNL d   1       1.031  -4.816   2.492  1.00  0.00     0.166 HD
ATOM      4  C   UNL d   1       0.870  -1.499   2.150  0.00  0.00     0.058 A 
ATOM      5  C   UNL d   1       1.619  -2.136   4.342  0.00  0.00     0.051 A 
ATOM      6  C   UNL d   1       0.802  -2.855   1.871  0.00  0.00     0.119 A 
ATOM      7  C   UNL d   1       1.312  -1.134   3.409  0.00  0.00     0.035 A 
ENDROOT
BRANCH   1   8
ATOM      8  N   UNL d   1       1.660  -4.490   4.938  0.00  0.00    -0.364 N 
ATOM      9  C   UNL d   1       1.019  -5.802   4.720  0.00  0.00     0.144 C 
ATOM     10  C   UNL d   1       2.058  -6.923   4.519  0.00  0.00     0.148 C 
ATOM     11  N   UNL d   1       3.052  -6.906   5.596  0.00  0.00    -0.325 N 
ATOM     12  C   UNL d   1       3.355  -7.957   6.450  0.00  0.00     0.363 C 
ATOM     13  C   UNL d   1       3.714  -5.612   5.782  0.00  0.00     0.148 C 
ATOM     14  O   UNL d   1       4.098  -7.826   7.407  0.00  0.00    -0.238 OA
ATOM     15  C   UNL d   1       2.709  -4.453   5.966  0.00  0.00     0.144 C 
BRANCH  12  16
ATOM     16  O   UNL d   1       2.746  -9.133   6.121  0.00  0.00    -0.294 OA
BRANCH  16  17
ATOM     17  C   UNL d   1       2.925 -10.304   6.980  0.00  0.00     0.061 C 
ATOM     18  C   UNL d   1       2.384 -10.037   8.395  0.00  0.00     0.046 C 
ATOM     19  C   UNL d   1       2.095 -11.429   6.336  0.00  0.00     0.046 C 
ATOM     20  C   UNL d   1       4.386 -10.777   7.035  0.00  0.00     0.046 C 
ENDBRANCH  16  17
ENDBRANCH  12  16
ENDBRANCH   1   8
BRANCH   4  21
ATOM     21  N   UNL d   1       0.463  -0.512   1.212  0.00  0.00    -0.279 N 
ATOM     22  H   UNL d   1      -0.483  -0.571   0.837  0.00  0.00     0.179 HD
BRANCH  21  23
ATOM     23  S   UNL d   1       1.568   0.123   0.111  0.00  0.00     0.263 S 
ATOM     24  O   UNL d   1       2.693   0.678   0.828  0.00  0.00    -0.200 OA
ATOM     25  O   UNL d   1       0.793   0.919  -0.821  0.00  0.00    -0.200 OA
BRANCH  23  26
ATOM     26  C   UNL d   1       2.133  -1.317  -0.772  0.00  0.00     0.080 A 
ATOM     27  C   UNL d   1       1.466  -1.735  -1.929  0.00  0.00     0.027 A 
ATOM     28  C   UNL d   1       1.874  -2.909  -2.569  0.00  0.00     0.025 A 
ATOM     29  C   UNL d   1       2.942  -3.645  -2.054  0.00  0.00     0.034 A 
ATOM     30  C   UNL d   1       3.629  -3.206  -0.922  0.00  0.00     0.025 A 
ATOM     31 CL   UNL d   1       3.411  -5.115  -2.816  0.00  0.00    -0.084 Cl
ATOM     32  C   UNL d   1       3.236  -2.028  -0.286  0.00  0.00     0.027 A 
ENDBRANCH  23  26
ENDBRANCH  21  23
ENDBRANCH   4  21
TORSDOF 6
