REMARK  9 active torsions:
REMARK  status: ('A' for Active; 'I' for Inactive)
REMARK    1  A    between atoms: N_17  and  C_8 
REMARK    2  A    between atoms: S_19  and  C_9 
REMARK    3  A    between atoms: N_11  and  C_16 
REMARK    4  A    between atoms: N_21  and  C_12 
REMARK    5  A    between atoms: C_28  and  N_17 
REMARK    6  A    between atoms: C_29  and  N_17 
REMARK    7  A    between atoms: C_24  and  S_19 
REMARK    8  A    between atoms: C_30  and  N_21 
REMARK    9  A    between atoms: C_25  and  C_24 
ROOT
ATOM      1  N   UNL d   1      -1.191   1.330   0.108  0.00  0.00    -0.175 N 
ATOM      2  HN  UNL d   1      -1.194   2.345   0.205  1.00  0.00     0.186 HD
ATOM      3  C   UNL d   1      -0.032   0.663   0.078  0.00  0.00     0.138 A 
ATOM      4  N   UNL d   1       1.105   1.365   0.101  0.00  0.00    -0.322 N 
ATOM      5  HN  UNL d   1       1.093   2.384   0.151  1.00  0.00     0.169 HD
ATOM      6  N   UNL d   1       2.376  -0.650  -0.003  0.00  0.00    -0.322 N 
ATOM      7  HN  UNL d   1       3.288  -1.104  -0.051  1.00  0.00     0.169 HD
ATOM      8  C   UNL d   1      -2.356   0.659   0.010  0.00  0.00     0.681 A 
ATOM      9  C   UNL d   1       2.260   0.690   0.056  0.00  0.00     0.147 A 
ATOM     10  C   UNL d   1      -0.005  -0.708   0.021  0.00  0.00     0.068 A 
ATOM     11  C   UNL d   1       1.236  -1.367   0.005  0.00  0.00     0.118 A 
ATOM     12  N   UNL d   1      -2.401  -0.674  -0.085  0.00  0.00    -0.201 N 
ATOM     13  HN  UNL d   1      -3.287  -1.169  -0.182  1.00  0.00     0.183 HD
ATOM     14  C   UNL d   1      -1.241  -1.329  -0.047  0.00  0.00     0.125 A 
ENDROOT
BRANCH   9  15
ATOM     15  S   UNL d   1       3.791   1.621   0.013  0.00  0.00    -0.089 SA
BRANCH  15  16
ATOM     16  C   UNL d   1       3.290   3.158   0.860  0.00  0.00     0.121 C 
BRANCH  16  17
ATOM     17  C   UNL d   1       4.420   4.176   0.947  0.00  0.00    -0.048 A 
ATOM     18  C   UNL d   1       4.586   5.141  -0.064  0.00  0.00     0.010 A 
ATOM     19  C   UNL d   1       5.613   6.094   0.017  0.00  0.00     0.036 A 
ATOM     20  C   UNL d   1       6.482   6.083   1.106  0.00  0.00     0.102 A 
ATOM     21  C   UNL d   1       6.334   5.128   2.124  0.00  0.00     0.036 A 
ATOM     22  C   UNL d   1       5.307   4.179   2.036  0.00  0.00     0.010 A 
BRANCH  20  23
ATOM     23  N   UNL d   1       7.561   7.080   1.198  0.00  0.00    -0.116 N 
ATOM     24  O   UNL d   1       7.649   7.915   0.286  0.00  0.00    -0.532 OA
ATOM     25  O   UNL d   1       8.317   7.027   2.179  0.00  0.00    -0.532 OA
ENDBRANCH  20  23
ENDBRANCH  16  17
ENDBRANCH  15  16
ENDBRANCH   9  15
BRANCH  11  26
ATOM     26  N   UNL d   1       1.259  -2.752  -0.118  0.00  0.00    -0.376 N 
ATOM     27  H   UNL d   1       0.590  -3.261   0.451  0.00  0.00     0.161 HD
BRANCH  26  28
ATOM     28  C   UNL d   1       2.465  -3.479  -0.467  0.00  0.00     0.116 C 
ATOM     29  C   UNL d   1       2.233  -4.971  -0.232  0.00  0.00     0.026 C 
ENDBRANCH  26  28
ENDBRANCH  11  26
BRANCH   8  30
ATOM     30  N   UNL d   1      -3.555   1.337   0.030  0.00  0.00    -0.218 N 
BRANCH  30  31
ATOM     31  C   UNL d   1      -4.709   0.777  -0.666  0.00  0.00     0.136 C 
ATOM     32  C   UNL d   1      -5.588  -0.084   0.231  0.00  0.00     0.027 C 
ENDBRANCH  30  31
BRANCH  30  33
ATOM     33  C   UNL d   1      -3.639   2.642   0.663  0.00  0.00     0.136 C 
ATOM     34  C   UNL d   1      -3.384   3.781  -0.312  0.00  0.00     0.027 C 
ENDBRANCH  30  33
ENDBRANCH   8  30
TORSDOF 9
