REMARK  4 active torsions:
REMARK  status: ('A' for Active; 'I' for Inactive)
REMARK    1  A    between atoms: C_4  and  C_1 
REMARK    2  A    between atoms: O_13  and  C_4 
REMARK    3  A    between atoms: C_5  and  CA_6 
REMARK    4  A    between atoms: OXT_12  and  C_5 
ROOT
ATOM      1  C   UNL d   1       0.712   1.247   0.011  0.00  0.00     0.054 A 
ATOM      2  N   UNL d   1      -1.347  -0.051   0.017  0.00  0.00    -0.360 N 
ATOM      3  HN  UNL d   1      -2.366  -0.096   0.021  1.00  0.00     0.165 HD
ATOM      4  CA  UNL d   1      -0.571  -1.175   0.009  0.00  0.00     0.106 A 
ATOM      5  C   UNL d   1      -0.676   1.133   0.017  0.00  0.00     0.106 A 
ATOM      6  C   UNL d   1       1.468   0.070   0.001  0.00  0.00     0.021 A 
ATOM      7  C   UNL d   1       0.818  -1.165   0.000  0.00  0.00     0.037 A 
ENDROOT
BRANCH   1   8
ATOM      8  C   UNL d   1       1.304   2.604   0.017  0.00  0.00     0.294 C 
ATOM      9  O   UNL d   1       0.633   3.623   0.019  0.00  0.00    -0.259 OA
BRANCH   8  10
ATOM     10  O   UNL d   1       2.658   2.538   0.025  0.00  0.00    -0.322 OA
ATOM     11  C   UNL d   1       3.302   3.814   0.042  0.00  0.00     0.213 C 
ENDBRANCH   8  10
ENDBRANCH   1   8
BRANCH   4  12
ATOM     12  C   UNL d   1      -1.314  -2.469   0.011  0.00  0.00     0.193 C 
ATOM     13  O   UNL d   1      -0.794  -3.570   0.008  0.00  0.00    -0.645 OA
BRANCH  12  14
ATOM     14  OXT UNL d   1      -2.651  -2.249   0.020  0.00  0.00    -0.772 OA
ATOM     15  HXT UNL d   1      -2.815  -1.276   0.022  0.00  0.00     0.167 HD
ENDBRANCH  12  14
ENDBRANCH   4  12
TORSDOF 4
