REMARK  1 active torsions:
REMARK  status: ('A' for Active; 'I' for Inactive)
REMARK    1  A    between atoms: C_9  and  N_1 
ROOT
ATOM      1  N   UNL d   1       1.008  -0.532  -0.038  0.00  0.00    -0.239 N 
ATOM      2  C   UNL d   1       0.919   0.788   0.437  0.00  0.00     0.143 C 
ATOM      3  N   UNL d   1      -0.153  -0.921  -0.638  0.00  0.00    -0.302 N 
ATOM      4  HN  UNL d   1      -0.330  -1.781  -1.158  1.00  0.00     0.186 HD
ATOM      5  C   UNL d   1      -0.400   1.155   0.256  0.00  0.00     0.106 C 
ATOM      6  C   UNL d   1      -1.007   0.074  -0.395  0.00  0.00     0.134 C 
ATOM      7  C   UNL d   1      -1.000   2.403   0.586  0.00  0.00     0.104 C 
ATOM      8  N   UNL d   1      -1.482   3.428   0.839  0.00  0.00    -0.191 NA
ATOM      9  N   UNL d   1       1.974   1.520   0.898  0.00  0.00    -0.383 N 
ATOM     10  H   UNL d   1       2.920   1.285   0.596  0.00  0.00     0.157 HD
ATOM     11  H   UNL d   1       1.873   2.529   1.013  0.00  0.00     0.157 HD
ENDROOT
BRANCH   1  12
ATOM     12  C   UNL d   1       2.116  -1.426   0.004  0.00  0.00     0.058 A 
ATOM     13  C   UNL d   1       3.101  -1.319   0.997  0.00  0.00     0.034 A 
ATOM     14  C   UNL d   1       4.201  -2.180   0.985  0.00  0.00     0.044 A 
ATOM     15  C   UNL d   1       4.313  -3.141  -0.013  0.00  0.00     0.116 A 
ATOM     16  C   UNL d   1       3.329  -3.281  -0.985  0.00  0.00     0.044 A 
ATOM     17  F   UNL d   1       5.382  -3.947  -0.034  0.00  0.00    -0.206 F 
ATOM     18  C   UNL d   1       2.217  -2.437  -0.968  0.00  0.00     0.034 A 
ENDBRANCH   1  12
TORSDOF 1
