REMARK  6 active torsions:
REMARK  status: ('A' for Active; 'I' for Inactive)
REMARK    1  A    between atoms: O_4  and  C_1 
REMARK    2  A    between atoms: C_2  and  N_3 
REMARK    3  A    between atoms: N_3  and  C_5 
REMARK    4  A    between atoms: C_6  and  O_4 
REMARK    5  A    between atoms: C_18  and  N_10 
REMARK    6  A    between atoms: C_17  and  C_18 
ROOT
ATOM      1  C   UNL d   1       3.260   1.446  -0.956  0.00  0.00     0.172 C 
ATOM      2  S   UNL d   1       2.859   1.829   0.617  0.00  0.00    -0.041 SA
ATOM      3  N   UNL d   1       3.924   0.289  -1.217  0.00  0.00    -0.363 N 
ATOM      4  H   UNL d   1       4.188  -0.199  -0.368  0.00  0.00     0.162 HD
ENDROOT
BRANCH   1   5
ATOM      5  N   UNL d   1       2.851   2.236  -1.980  0.00  0.00    -0.331 N 
ATOM      6  H   UNL d   1       2.051   2.832  -1.786  0.00  0.00     0.168 HD
BRANCH   5   7
ATOM      7  C   UNL d   1       3.456   2.416  -3.241  0.00  0.00     0.068 A 
ATOM      8  C   UNL d   1       2.666   2.892  -4.304  0.00  0.00     0.105 A 
ATOM      9  C   UNL d   1       3.240   2.999  -5.574  0.00  0.00     0.039 A 
ATOM     10  C   UNL d   1       4.589   2.683  -5.774  0.00  0.00     0.003 A 
ATOM     11  C   UNL d   1       5.379   2.270  -4.704  0.00  0.00     0.002 A 
ATOM     12  C   UNL d   1       4.813   2.137  -3.444  0.00  0.00     0.032 A 
BRANCH   8  13
ATOM     13  O   UNL d   1       1.362   3.169  -3.989  0.00  0.00    -0.253 OA
BRANCH  13  14
ATOM     14  C   UNL d   1       0.495   3.555  -5.040  0.00  0.00     0.530 C 
ATOM     15  F   UNL d   1       0.919   4.694  -5.628  0.00  0.00    -0.144 F 
ATOM     16  F   UNL d   1      -0.733   3.782  -4.524  0.00  0.00    -0.144 F 
ATOM     17  F   UNL d   1       0.388   2.579  -5.966  0.00  0.00    -0.144 F 
ENDBRANCH  13  14
ENDBRANCH   8  13
ENDBRANCH   5   7
ENDBRANCH   1   5
BRANCH   3  18
ATOM     18  C   UNL d   1       3.577  -0.621  -2.313  0.00  0.00     0.160 C 
BRANCH  18  19
ATOM     19  C   UNL d   1       2.779  -1.778  -1.761  0.00  0.00    -0.040 A 
ATOM     20  C   UNL d   1       1.507  -1.536  -1.214  0.00  0.00     0.018 A 
ATOM     21  C   UNL d   1       0.892  -2.551  -0.514  0.00  0.00    -0.022 A 
ATOM     22  C   UNL d   1      -0.388  -2.554   0.226  0.00  0.00     0.068 C 
ATOM     23  C   UNL d   1       1.482  -3.801  -0.408  0.00  0.00     0.075 A 
ATOM     24  C   UNL d   1      -0.113  -3.771   1.109  0.00  0.00     0.180 C 
ATOM     25  O   UNL d   1       0.770  -4.666   0.387  0.00  0.00    -0.350 OA
ATOM     26  C   UNL d   1       2.681  -4.100  -1.017  0.00  0.00     0.038 A 
ATOM     27  C   UNL d   1       3.343  -3.070  -1.689  0.00  0.00     0.011 A 
ENDBRANCH  18  19
ENDBRANCH   3  18
TORSDOF 6
