REMARK  5 active torsions:
REMARK  status: ('A' for Active; 'I' for Inactive)
REMARK    1  A    between atoms: N_2  and  C_1 
REMARK    2  A    between atoms: N_3  and  C_5 
REMARK    3  A    between atoms: N_9  and  C_6 
REMARK    4  A    between atoms: C_14  and  N_9 
REMARK    5  A    between atoms: C_15  and  C_14 
ROOT
ATOM      1  C   UNL d   1      -0.039   0.619   0.645  0.00  0.00     0.131 A 
ATOM      2  C   UNL d   1      -0.761  -0.585   0.557  0.00  0.00     0.074 A 
ATOM      3  C   UNL d   1      -0.291  -1.587  -0.293  0.00  0.00     0.105 A 
ATOM      4  C   UNL d   1       1.151   0.856  -0.082  0.00  0.00     0.061 A 
ATOM      5  C   UNL d   1       0.866  -1.383  -1.050  0.00  0.00     0.038 A 
ATOM      6  C   UNL d   1       1.576  -0.180  -0.931  0.00  0.00     0.034 A 
ENDROOT
BRANCH   4   7
ATOM      7  N   UNL d   1       1.930   1.992   0.144  0.00  0.00    -0.384 N 
ATOM      8  H   UNL d   1       1.392   2.861   0.185  0.00  0.00     0.160 HD
BRANCH   7   9
ATOM      9  C   UNL d   1       3.255   2.147  -0.444  0.00  0.00     0.158 C 
BRANCH   9  10
ATOM     10  C   UNL d   1       4.056   3.268   0.181  0.00  0.00    -0.041 A 
ATOM     11  C   UNL d   1       3.739   3.848   1.418  0.00  0.00     0.009 A 
ATOM     12  C   UNL d   1       4.562   4.830   1.977  0.00  0.00     0.001 A 
ATOM     13  C   UNL d   1       5.722   5.231   1.317  0.00  0.00     0.000 A 
ATOM     14  C   UNL d   1       6.059   4.656   0.096  0.00  0.00     0.001 A 
ATOM     15  C   UNL d   1       5.233   3.683  -0.468  0.00  0.00     0.009 A 
ENDBRANCH   9  10
ENDBRANCH   7   9
ENDBRANCH   4   7
BRANCH   1  16
ATOM     16  N   UNL d   1      -0.550   1.635   1.555  0.00  0.00    -0.113 N 
ATOM     17  O   UNL d   1      -0.884   1.263   2.689  0.00  0.00    -0.532 OA
ATOM     18  O   UNL d   1      -0.654   2.791   1.118  0.00  0.00    -0.532 OA
ENDBRANCH   1  16
BRANCH   3  19
ATOM     19  N   UNL d   1      -1.002  -2.868  -0.386  0.00  0.00    -0.116 N 
ATOM     20  O   UNL d   1      -1.998  -3.023   0.335  0.00  0.00    -0.532 OA
ATOM     21  O   UNL d   1      -0.564  -3.714  -1.177  0.00  0.00    -0.532 OA
ENDBRANCH   3  19
TORSDOF 5
