REMARK  20 active torsions:
REMARK  status: ('A' for Active; 'I' for Inactive)
REMARK    1  A    between atoms: N_8  and  C_1 
REMARK    2  A    between atoms: S_11  and  C_3 
REMARK    3  A    between atoms: N_12  and  C_10 
REMARK    4  A    between atoms: C_13  and  S_11 
REMARK    5  A    between atoms: C_16  and  C_13 
REMARK    6  A    between atoms: C_30  and  C_16 
REMARK    7  A    between atoms: C_17  and  C_18 
REMARK    8  A    between atoms: C_18  and  C_29 
REMARK    9  A    between atoms: C_19  and  C_31 
REMARK   10  A    between atoms: C_20  and  C_19 
REMARK   11  A    between atoms: C_21  and  C_20 
REMARK   12  A    between atoms: C_22  and  C_21 
REMARK   13  A    between atoms: C_23  and  C_22 
REMARK   14  A    between atoms: C_24  and  C_23 
REMARK   15  A    between atoms: C_25  and  C_24 
REMARK   16  A    between atoms: C_26  and  C_25 
REMARK   17  A    between atoms: C_27  and  C_26 
REMARK   18  A    between atoms: C_28  and  C_27 
REMARK   19  A    between atoms: C_29  and  C_28 
REMARK   20  A    between atoms: C_31  and  C_30 
ROOT
ATOM      1  C   UNL d   1       2.265  -4.683  -0.048  0.00  0.00     0.010 C 
ENDROOT
BRANCH   1   2
ATOM      2  C   UNL d   1       1.951  -3.185  -0.037  0.00  0.00     0.081 C 
BRANCH   2   3
ATOM      3  S   UNL d   1       0.145  -2.913  -0.035  0.00  0.00    -0.103 SA
BRANCH   3   4
ATOM      4  C   UNL d   1       0.061  -1.159  -0.018  0.00  0.00     0.130 A 
ATOM      5  S   UNL d   1      -1.413  -0.284  -0.006  0.00  0.00    -0.026 SA
ATOM      6  C   UNL d   1      -0.481   1.184   0.013  0.00  0.00     0.166 A 
ATOM      7  N   UNL d   1       0.820   0.945   0.005  0.00  0.00    -0.278 N 
ATOM      8  N   UNL d   1       1.134  -0.401  -0.011  0.00  0.00    -0.286 N 
ATOM      9  HN  UNL d   1       1.524   1.683   0.011  1.00  0.00     0.189 HD
ATOM     10  HN  UNL d   1       2.088  -0.763  -0.018  1.00  0.00     0.188 HD
BRANCH   6  11
ATOM     11  N   UNL d   1      -1.142   2.377   0.031  0.00  0.00    -0.332 N 
ATOM     12  C   UNL d   1      -0.408   3.442   0.052  0.00  0.00     0.179 C 
ATOM     13  HN  UNL d   1      -2.161   2.427   0.029  1.00  0.00     0.168 HD
BRANCH  12  14
ATOM     14  N   UNL d   1      -0.855   4.750   0.075  0.00  0.00    -0.386 N 
ATOM     15  C   UNL d   1      -2.270   5.085   0.075  0.00  0.00     0.149 C 
ATOM     16  C   UNL d   1       0.051   5.895   0.084  0.00  0.00     0.149 C 
ENDBRANCH  12  14
ENDBRANCH   6  11
ENDBRANCH   3   4
ENDBRANCH   2   3
ENDBRANCH   1   2
BRANCH   1  17
ATOM     17  C   UNL d   1       3.775  -4.937  -0.051  0.00  0.00     0.001 C 
BRANCH  17  18
ATOM     18  C   UNL d   1       4.075  -6.434  -0.064  0.00  0.00     0.000 C 
BRANCH  18  19
ATOM     19  C   UNL d   1       5.578  -6.689  -0.069  0.00  0.00     0.000 C 
BRANCH  19  20
ATOM     20  C   UNL d   1       5.869  -8.183  -0.084  0.00  0.00     0.000 C 
BRANCH  20  21
ATOM     21  C   UNL d   1       7.369  -8.431  -0.089  0.00  0.00     0.000 C 
BRANCH  21  22
ATOM     22  C   UNL d   1       7.657  -9.924  -0.103  0.00  0.00     0.000 C 
BRANCH  22  23
ATOM     23  C   UNL d   1       9.156 -10.169  -0.109  0.00  0.00     0.000 C 
BRANCH  23  24
ATOM     24  C   UNL d   1       9.441 -11.661  -0.123  0.00  0.00     0.000 C 
BRANCH  24  25
ATOM     25  C   UNL d   1      10.941 -11.905  -0.131  0.00  0.00     0.000 C 
BRANCH  25  26
ATOM     26  C   UNL d   1      11.226 -13.396  -0.147  0.00  0.00     0.000 C 
BRANCH  26  27
ATOM     27  C   UNL d   1      12.726 -13.641  -0.154  0.00  0.00     0.000 C 
BRANCH  27  28
ATOM     28  C   UNL d   1      13.015 -15.133  -0.171  0.00  0.00     0.000 C 
BRANCH  28  29
ATOM     29  C   UNL d   1      14.517 -15.380  -0.176  0.00  0.00     0.000 C 
BRANCH  29  30
ATOM     30  C   UNL d   1      14.807 -16.875  -0.191  0.00  0.00    -0.000 C 
BRANCH  30  31
ATOM     31  C   UNL d   1      16.309 -17.134  -0.196  0.00  0.00    -0.005 C 
ATOM     32  C   UNL d   1      16.597 -18.624  -0.213  0.00  0.00     0.005 C 
ENDBRANCH  30  31
ENDBRANCH  29  30
ENDBRANCH  28  29
ENDBRANCH  27  28
ENDBRANCH  26  27
ENDBRANCH  25  26
ENDBRANCH  24  25
ENDBRANCH  23  24
ENDBRANCH  22  23
ENDBRANCH  21  22
ENDBRANCH  20  21
ENDBRANCH  19  20
ENDBRANCH  18  19
ENDBRANCH  17  18
ENDBRANCH   1  17
TORSDOF 20
