REMARK  2 active torsions:
REMARK  status: ('A' for Active; 'I' for Inactive)
REMARK    1  A    between atoms: C_17  and  N_7 
REMARK    2  A    between atoms: C_18  and  C_17 
ROOT
ATOM      1  C   UNL d   1       1.499  -1.132   0.031  0.00  0.00     0.153 A 
ATOM      2  C   UNL d   1       1.221   0.371   0.075  0.00  0.00     0.106 A 
ATOM      3  N   UNL d   1       2.698  -1.597  -0.093  0.00  0.00    -0.171 N 
ATOM      4  HN  UNL d   1       2.903  -2.594  -0.146  1.00  0.00     0.186 HD
ATOM      5  C   UNL d   1       3.667  -0.635  -0.148  0.00  0.00     0.720 A 
ATOM      6  N   UNL d   1       3.369   0.725  -0.045  0.00  0.00    -0.079 N 
ATOM      7  N   UNL d   1       0.281  -1.774   0.131  0.00  0.00    -0.326 N 
ATOM      8  N   UNL d   1       2.125   1.297   0.058  0.00  0.00    -0.274 N 
ATOM      9  HN  UNL d   1       1.942   2.299   0.113  1.00  0.00     0.188 HD
ATOM     10  C   UNL d   1      -0.228   0.497   0.131  0.00  0.00     0.023 A 
ATOM     11  C   UNL d   1      -0.738  -0.819   0.154  0.00  0.00     0.049 A 
ATOM     12  N   UNL d   1       4.974  -0.758  -0.286  0.00  0.00    -0.129 N 
ATOM     13  HN  UNL d   1       5.480  -1.635  -0.408  1.00  0.00     0.205 HD
ATOM     14  N   UNL d   1       5.543   0.499  -0.237  0.00  0.00    -0.279 N 
ATOM     15  HN  UNL d   1       6.537   0.714  -0.311  1.00  0.00     0.188 HD
ATOM     16  C   UNL d   1       4.571   1.367  -0.079  0.00  0.00     0.242 A 
ATOM     17  C   UNL d   1      -1.015   1.632   0.123  0.00  0.00     0.016 A 
ATOM     18  C   UNL d   1      -2.109  -0.993   0.181  0.00  0.00     0.030 A 
ATOM     19  C   UNL d   1      -2.394   1.440   0.135  0.00  0.00     0.001 A 
ATOM     20  C   UNL d   1      -2.936   0.141   0.164  0.00  0.00     0.002 A 
ENDROOT
BRANCH   7  21
ATOM     21  C   UNL d   1       0.088  -3.205   0.009  0.00  0.00     0.169 C 
BRANCH  21  22
ATOM     22  C   UNL d   1      -0.297  -3.593  -1.403  0.00  0.00    -0.040 A 
ATOM     23  C   UNL d   1       0.625  -3.455  -2.455  0.00  0.00     0.012 A 
ATOM     24  C   UNL d   1       0.249  -3.749  -3.764  0.00  0.00     0.043 A 
ATOM     25  C   UNL d   1      -1.041  -4.191  -4.025  0.00  0.00     0.116 A 
ATOM     26  C   UNL d   1      -1.961  -4.359  -2.998  0.00  0.00     0.043 A 
ATOM     27  F   UNL d   1      -1.407  -4.455  -5.287  0.00  0.00    -0.206 F 
ATOM     28  C   UNL d   1      -1.588  -4.068  -1.687  0.00  0.00     0.012 A 
ENDBRANCH  21  22
ENDBRANCH   7  21
TORSDOF 2
