REMARK  5 active torsions:
REMARK  status: ('A' for Active; 'I' for Inactive)
REMARK    1  A    between atoms: C_5  and  C_1 
REMARK    2  A    between atoms: C_8  and  N_2 
REMARK    3  A    between atoms: C_17  and  C_5 
REMARK    4  A    between atoms: O_11  and  C_7 
REMARK    5  A    between atoms: C_10  and  C_8 
ROOT
ATOM      1  N   UNL d   1      -3.336  10.365   0.124  0.00  0.00    -0.191 NA
ATOM      2  C   UNL d   1      -2.918   9.284   0.108  0.00  0.00     0.099 C 
ATOM      3  C   UNL d   1      -2.412   7.941   0.087  0.00  0.00     0.044 A 
ATOM      4  C   UNL d   1      -1.421   5.304   0.056  0.00  0.00    -0.041 A 
ATOM      5  C   UNL d   1      -3.151   6.927  -0.523  0.00  0.00     0.023 A 
ATOM      6  C   UNL d   1      -1.184   7.636   0.686  0.00  0.00     0.023 A 
ATOM      7  C   UNL d   1      -2.660   5.619  -0.533  0.00  0.00     0.010 A 
ATOM      8  C   UNL d   1      -0.696   6.325   0.677  0.00  0.00     0.010 A 
ENDROOT
BRANCH   4   9
ATOM      9  C   UNL d   1      -0.971   3.857   0.064  0.00  0.00     0.158 C 
BRANCH   9  10
ATOM     10  N   UNL d   1       0.485   3.662   0.136  0.00  0.00    -0.388 N 
ATOM     11  C   UNL d   1       0.950   2.449   0.049  0.00  0.00     0.018 C 
ATOM     12  HN  UNL d   1       1.114   4.456   0.252  1.00  0.00     0.159 HD
BRANCH  11  13
ATOM     13  C   UNL d   1       2.453   2.249   0.102  0.00  0.00     0.019 A 
ATOM     14  C   UNL d   1       3.334   3.345   0.110  0.00  0.00     0.077 A 
ATOM     15  C   UNL d   1       4.719   3.161   0.132  0.00  0.00     0.037 A 
ATOM     16  C   UNL d   1       5.253   1.875   0.138  0.00  0.00     0.003 A 
ATOM     17  C   UNL d   1       4.402   0.776   0.135  0.00  0.00     0.001 A 
ATOM     18  C   UNL d   1       3.014   0.961   0.125  0.00  0.00     0.016 A 
BRANCH  14  19
ATOM     19  O   UNL d   1       2.906   4.647   0.086  0.00  0.00    -0.360 OA
ATOM     20  H   UNL d   1       1.922   4.617   0.065  0.00  0.00     0.217 HD
ENDBRANCH  14  19
ENDBRANCH  11  13
BRANCH  11  21
ATOM     21  C   UNL d   1       0.066   1.206  -0.120  0.00  0.00     0.053 C 
ATOM     22  C   UNL d   1      -0.291   0.558   1.208  0.00  0.00     0.011 C 
ENDBRANCH  11  21
ENDBRANCH   9  10
ENDBRANCH   4   9
TORSDOF 5
