REMARK  8 active torsions:
REMARK  status: ('A' for Active; 'I' for Inactive)
REMARK    1  A    between atoms: C_10  and  C_1 
REMARK    2  A    between atoms: C_21  and  N_2 
REMARK    3  A    between atoms: C_15  and  C_4 
REMARK    4  A    between atoms: C_9  and  C_8 
REMARK    5  A    between atoms: O_22  and  C_10 
REMARK    6  A    between atoms: C_11  and  S_20 
REMARK    7  A    between atoms: S_20  and  C_24 
REMARK    8  A    between atoms: C_24  and  C_21 
ROOT
ATOM      1  C   UNL d   1       2.082  -1.613  -0.126  0.00  0.00     0.139 C 
ENDROOT
BRANCH   1   2
ATOM      2  N   UNL d   1       0.896  -0.764   0.006  0.00  0.00    -0.348 N 
ATOM      3  C   UNL d   1       0.318  -0.413   1.222  0.00  0.00     0.025 A 
ATOM      4  C   UNL d   1      -0.714   0.493   0.981  0.00  0.00     0.062 A 
ATOM      5  C   UNL d   1       0.774  -0.923   2.554  0.00  0.00     0.069 C 
ATOM      6  C   UNL d   1      -0.747   0.668  -0.426  0.00  0.00     0.050 A 
ATOM      7  C   UNL d   1       0.255  -0.085  -1.024  0.00  0.00     0.046 A 
BRANCH   4   8
ATOM      8  C   UNL d   1      -1.558   1.115   2.009  0.00  0.00     0.178 C 
ATOM      9  O   UNL d   1      -1.482   0.858   3.202  0.00  0.00    -0.646 OA
BRANCH   8  10
ATOM     10  O   UNL d   1      -2.456   2.026   1.550  0.00  0.00    -0.773 OA
ATOM     11  H   UNL d   1      -2.410   2.160   0.590  0.00  0.00     0.167 HD
ENDBRANCH   8  10
ENDBRANCH   4   8
BRANCH   7  12
ATOM     12  C   UNL d   1       0.557  -0.104  -2.470  0.00  0.00    -0.009 A 
ATOM     13  C   UNL d   1       0.420   1.083  -3.214  0.00  0.00     0.014 A 
ATOM     14  C   UNL d   1       0.584   1.097  -4.602  0.00  0.00     0.001 A 
ATOM     15  C   UNL d   1       0.911  -0.076  -5.271  0.00  0.00     0.000 A 
ATOM     16  C   UNL d   1       1.070  -1.258  -4.553  0.00  0.00     0.001 A 
ATOM     17  C   UNL d   1       0.878  -1.273  -3.167  0.00  0.00     0.014 A 
ENDBRANCH   7  12
ENDBRANCH   1   2
BRANCH   1  18
ATOM     18  C   UNL d   1       1.766  -3.116  -0.089  0.00  0.00     0.099 C 
BRANCH  18  19
ATOM     19  S   UNL d   1       3.292  -4.064  -0.482  0.00  0.00    -0.127 SA
BRANCH  19  20
ATOM     20  C   UNL d   1       2.668  -5.754  -0.518  0.00  0.00     0.015 A 
ATOM     21  C   UNL d   1       3.075  -6.588   0.526  0.00  0.00     0.053 A 
ATOM     22  C   UNL d   1       2.685  -7.924   0.522  0.00  0.00     0.118 A 
ATOM     23  N   UNL d   1       1.869  -8.425  -0.442  0.00  0.00    -0.352 N 
ATOM     24  C   UNL d   1       1.501  -7.642  -1.463  0.00  0.00     0.044 A 
ATOM     25  HN  UNL d   1       1.540  -9.389  -0.388  1.00  0.00     0.166 HD
ATOM     26  C   UNL d   1       1.905  -6.293  -1.585  0.00  0.00     0.007 A 
ATOM     27  C   UNL d   1       0.723  -8.213  -2.460  0.00  0.00     0.030 A 
ATOM     28  C   UNL d   1       1.555  -5.595  -2.771  0.00  0.00     0.015 A 
ATOM     29  C   UNL d   1       0.802  -6.206  -3.774  0.00  0.00     0.001 A 
ATOM     30  C   UNL d   1       0.369  -7.510  -3.611  0.00  0.00     0.002 A 
BRANCH  22  31
ATOM     31  C   UNL d   1       3.246  -8.865   1.580  0.00  0.00     0.432 C 
ATOM     32  F   UNL d   1       2.821 -10.155   1.467  0.00  0.00    -0.165 F 
ATOM     33  F   UNL d   1       4.610  -8.924   1.544  0.00  0.00    -0.165 F 
ATOM     34  F   UNL d   1       2.931  -8.477   2.849  0.00  0.00    -0.165 F 
ENDBRANCH  22  31
ENDBRANCH  19  20
ENDBRANCH  18  19
ENDBRANCH   1  18
TORSDOF 8
