REMARK  4 active torsions:
REMARK  status: ('A' for Active; 'I' for Inactive)
REMARK    1  A    between atoms: C_2  and  N_1 
REMARK    2  A    between atoms: N_10  and  C_3 
REMARK    3  A    between atoms: N_4  and  N_10 
REMARK    4  A    between atoms: C_14  and  C_13 
ROOT
ATOM      1  N   UNL d   1      -1.069  -0.816   1.483  0.00  0.00    -0.284 N 
ATOM      2  H   UNL d   1      -1.696  -0.970   2.277  0.00  0.00     0.188 HD
ENDROOT
BRANCH   1   3
ATOM      3  N   UNL d   1      -0.204  -1.793   1.096  0.00  0.00    -0.309 N 
ATOM      4  C   UNL d   1      -0.302  -2.905   1.750  0.00  0.00     0.119 C 
ATOM      5  HN  UNL d   1       0.473  -1.658   0.344  1.00  0.00     0.186 HD
BRANCH   4   6
ATOM      6  C   UNL d   1       0.497  -4.084   1.388  0.00  0.00    -0.004 A 
ATOM      7  C   UNL d   1       0.417  -5.230   2.167  0.00  0.00     0.100 A 
ATOM      8  N   UNL d   1       1.066  -6.383   1.873  0.00  0.00    -0.374 N 
ATOM      9  C   UNL d   1       1.823  -6.382   0.753  0.00  0.00     0.087 A 
ATOM     10  HN  UNL d   1       0.988  -7.209   2.466  1.00  0.00     0.164 HD
ATOM     11  C   UNL d   1       1.972  -5.282  -0.078  0.00  0.00     0.018 A 
ATOM     12  C   UNL d   1       1.300  -4.108   0.251  0.00  0.00     0.015 A 
ENDBRANCH   4   6
ENDBRANCH   1   3
BRANCH   1  13
ATOM     13  C   UNL d   1      -0.676   0.538   1.349  0.00  0.00     0.153 A 
ATOM     14  C   UNL d   1      -1.554   1.592   1.637  0.00  0.00     0.148 A 
ATOM     15  C   UNL d   1      -1.158   2.922   1.410  0.00  0.00     0.041 A 
ATOM     16  C   UNL d   1       0.109   3.177   0.907  0.00  0.00     0.020 A 
ATOM     17  C   UNL d   1       0.929   2.096   0.649  0.00  0.00     0.090 A 
ATOM     18  N   UNL d   1       0.562   0.811   0.852  0.00  0.00    -0.349 N 
ATOM     19  HN  UNL d   1       1.208   0.052   0.635  1.00  0.00     0.167 HD
BRANCH  14  20
ATOM     20  N   UNL d   1      -2.877   1.352   2.207  0.00  0.00    -0.112 N 
ATOM     21  O   UNL d   1      -3.124   0.224   2.668  0.00  0.00    -0.532 OA
ATOM     22  O   UNL d   1      -3.673   2.300   2.239  0.00  0.00    -0.532 OA
ENDBRANCH  14  20
ENDBRANCH   1  13
TORSDOF 4
