REMARK  6 active torsions:
REMARK  status: ('A' for Active; 'I' for Inactive)
REMARK    1  A    between atoms: C_6  and  C_1 
REMARK    2  A    between atoms: C_2  and  C_7 
REMARK       I    between atoms: N_3  and  C_2 
REMARK    3  A    between atoms: C_20  and  N_3 
REMARK    4  A    between atoms: O_12  and  C_8 
REMARK    5  A    between atoms: C_9  and  C_10 
REMARK    6  A    between atoms: C_24  and  O_12 
ROOT
ATOM      1  N   UNL d   1      -4.888  -3.107  -3.707  0.00  0.00    -0.344 N 
ATOM      2  HN  UNL d   1      -5.900  -3.182  -3.600  1.00  0.00     0.167 HD
ATOM      3  C   UNL d   1      -4.306  -1.950  -4.077  0.00  0.00     0.148 A 
ATOM      4  C   UNL d   1      -2.688  -4.130  -3.571  0.00  0.00     0.050 A 
ATOM      5  C   UNL d   1      -4.075  -4.165  -3.483  0.00  0.00     0.119 A 
ATOM      6  C   UNL d   1      -2.934  -1.806  -4.214  0.00  0.00     0.059 A 
ATOM      7  C   UNL d   1      -2.114  -2.915  -3.966  0.00  0.00     0.035 A 
ENDROOT
BRANCH   4   8
ATOM      8  N   UNL d   1      -1.831  -5.215  -3.253  0.00  0.00    -0.322 N 
ATOM      9  C   UNL d   1      -2.263  -6.471  -2.845  0.00  0.00     0.256 C 
ATOM     10  O   UNL d   1      -3.430  -6.847  -2.881  0.00  0.00    -0.267 OA
ATOM     11  H   UNL d   1      -0.847  -5.037  -3.316  0.00  0.00     0.169 HD
BRANCH   9  12
ATOM     12  C   UNL d   1      -1.250  -7.453  -2.355  0.00  0.00     0.032 A 
ATOM     13  C   UNL d   1       0.090  -7.144  -2.107  0.00  0.00     0.018 A 
ATOM     14  C   UNL d   1       0.974  -8.145  -1.677  0.00  0.00     0.017 A 
ATOM     15  C   UNL d   1       0.531  -9.463  -1.471  0.00  0.00     0.048 A 
ATOM     16  C   UNL d   1      -0.821  -9.757  -1.671  0.00  0.00     0.017 A 
ATOM     17  C   UNL d   1      -1.699  -8.762  -2.107  0.00  0.00     0.018 A 
BRANCH  15  18
ATOM     18  C   UNL d   1       1.509 -10.543  -1.071  0.00  0.00     0.417 C 
ATOM     19  F   UNL d   1       0.922 -11.748  -0.827  0.00  0.00    -0.166 F 
ATOM     20  F   UNL d   1       2.204 -10.229   0.055  0.00  0.00    -0.166 F 
ATOM     21  F   UNL d   1       2.441 -10.771  -2.037  0.00  0.00    -0.166 F 
ENDBRANCH  15  18
ENDBRANCH   9  12
ENDBRANCH   4   8
BRANCH   3  22
ATOM     22  O   UNL d   1      -5.099  -0.828  -4.283  0.00  0.00    -0.294 OA
BRANCH  22  23
ATOM     23  C   UNL d   1      -6.397  -1.035  -4.700  0.00  0.00     0.077 A 
ATOM     24  C   UNL d   1      -7.391  -0.216  -4.167  0.00  0.00     0.038 A 
ATOM     25  C   UNL d   1      -8.719  -0.339  -4.608  0.00  0.00     0.011 A 
ATOM     26  C   UNL d   1      -9.082  -1.275  -5.599  0.00  0.00    -0.050 A 
ATOM     27  C   UNL d   1      -8.060  -2.088  -6.116  0.00  0.00     0.011 A 
ATOM     28  C   UNL d   1      -6.735  -1.958  -5.686  0.00  0.00     0.038 A 
BRANCH  26  29
ATOM     29  C   UNL d   1     -10.534  -1.376  -6.101  0.00  0.00    -0.024 C 
ATOM     30  C   UNL d   1     -10.731  -2.445  -7.203  0.00  0.00     0.019 C 
ATOM     31  C   UNL d   1     -11.481  -1.741  -4.939  0.00  0.00     0.019 C 
ATOM     32  C   UNL d   1     -10.974  -0.023  -6.702  0.00  0.00     0.019 C 
ENDBRANCH  26  29
ENDBRANCH  22  23
ENDBRANCH   3  22
TORSDOF 6
