REMARK  3 active torsions:
REMARK  status: ('A' for Active; 'I' for Inactive)
REMARK    1  A    between atoms: C_2  and  S_1 
REMARK    2  A    between atoms: N_4  and  S_1 
REMARK    3  A    between atoms: C_5  and  N_14 
ROOT
ATOM      1  N   UNL d   1       0.503  -0.013  -1.073  0.00  0.00    -0.303 N 
ATOM      2  N   UNL d   1      -2.366   0.533  -1.549  0.00  0.00     0.105 N 
ATOM      3  C   UNL d   1       0.072   1.260  -1.680  0.00  0.00     0.165 C 
ATOM      4  C   UNL d   1      -0.403  -1.146  -1.356  0.00  0.00     0.165 C 
ATOM      5  C   UNL d   1      -1.362   1.574  -1.227  0.00  0.00     0.294 C 
ATOM      6  C   UNL d   1      -1.888  -0.785  -1.087  0.00  0.00     0.294 C 
ENDROOT
BRANCH   1   7
ATOM      7  S   UNL d   1       1.380   0.018   0.347  0.00  0.00     0.263 S 
ATOM      8  O   UNL d   1       1.087   1.265   1.026  0.00  0.00    -0.200 OA
ATOM      9  O   UNL d   1       1.274  -1.243   1.044  0.00  0.00    -0.200 OA
BRANCH   7  10
ATOM     10  C   UNL d   1       3.036   0.132  -0.247  0.00  0.00     0.109 A 
ATOM     11  C   UNL d   1       3.607  -0.848  -1.093  0.00  0.00     0.090 A 
ATOM     12  N   UNL d   1       3.038  -1.965  -1.576  0.00  0.00    -0.309 N 
ATOM     13  C   UNL d   1       5.037  -0.687  -1.560  0.00  0.00     0.068 A 
ATOM     14  S   UNL d   1       4.182  -2.736  -2.499  0.00  0.00     0.068 SA
ATOM     15  HN  UNL d   1       2.083  -2.280  -1.408  1.00  0.00     0.176 HD
ATOM     16  N   UNL d   1       5.457  -1.683  -2.356  0.00  0.00    -0.310 N 
ATOM     17  HN  UNL d   1       6.376  -1.775  -2.787  1.00  0.00     0.176 HD
ATOM     18  C   UNL d   1       5.816   0.429  -1.166  0.00  0.00     0.032 A 
ATOM     19  C   UNL d   1       5.190   1.365  -0.328  0.00  0.00     0.004 A 
ATOM     20  C   UNL d   1       3.853   1.225   0.116  0.00  0.00     0.028 A 
ENDBRANCH   7  10
ENDBRANCH   1   7
BRANCH   2  21
ATOM     21  C   UNL d   1      -2.977   0.577  -2.900  0.00  0.00     0.290 C 
ATOM     22  C   UNL d   1      -2.071   0.193  -4.066  0.00  0.00    -0.009 C 
ATOM     23  C   UNL d   1      -1.743   1.337  -4.826  0.00  0.00    -0.017 C 
ATOM     24  C   UNL d   1      -1.572  -1.054  -4.411  0.00  0.00     0.010 C 
ATOM     25  C   UNL d   1      -0.762   1.271  -5.800  0.00  0.00     0.013 C 
ATOM     26  C   UNL d   1      -2.553   2.445  -4.371  0.00  0.00    -0.017 A 
ATOM     27  C   UNL d   1      -0.145   0.040  -6.045  0.00  0.00     0.001 C 
ATOM     28  C   UNL d   1      -0.572  -1.121  -5.382  0.00  0.00     0.001 C 
ATOM     29  C   UNL d   1      -3.349   2.015  -3.286  0.00  0.00    -0.009 A 
ATOM     30  C   UNL d   1      -2.621   3.755  -4.817  0.00  0.00     0.013 A 
ATOM     31  C   UNL d   1      -4.220   2.883  -2.639  0.00  0.00     0.010 A 
ATOM     32  C   UNL d   1      -4.272   4.207  -3.079  0.00  0.00     0.001 A 
ATOM     33  C   UNL d   1      -3.483   4.638  -4.159  0.00  0.00     0.001 A 
ENDBRANCH   2  21
TORSDOF 3
