REMARK  4 active torsions:
REMARK  status: ('A' for Active; 'I' for Inactive)
REMARK    1  A    between atoms: C_3  and  C_1 
REMARK    2  A    between atoms: N_6  and  C_2 
REMARK    3  A    between atoms: N_7  and  N_6 
REMARK       I    between atoms: C_8  and  N_7 
REMARK    4  A    between atoms: C_11  and  C_8 
ROOT
ATOM      1  C   UNL d   1      -1.353   0.768  -0.005  0.00  0.00     0.089 A 
ATOM      2  C   UNL d   1      -2.413  -0.109   0.250  0.00  0.00     0.115 A 
ATOM      3  N   UNL d   1      -2.169  -1.308   0.854  0.00  0.00    -0.353 N 
ATOM      4  HN  UNL d   1      -2.939  -1.951   1.037  1.00  0.00     0.166 HD
ATOM      5  C   UNL d   1      -0.051   0.399   0.419  0.00  0.00     0.044 A 
ATOM      6  C   UNL d   1      -0.907  -1.647   1.211  0.00  0.00     0.113 A 
ATOM      7  C   UNL d   1       0.177  -0.824   1.023  0.00  0.00     0.050 A 
ATOM      8 CL   UNL d   1       1.752  -1.294   1.506  0.00  0.00    -0.083 Cl
ENDROOT
BRANCH   2   9
ATOM      9  N   UNL d   1      -3.746   0.155  -0.135  0.00  0.00    -0.182 NA
ATOM     10  C   UNL d   1      -4.679  -0.962   0.076  0.00  0.00     0.144 C 
BRANCH   9  11
ATOM     11  N   UNL d   1      -4.252   1.412   0.288  0.00  0.00    -0.280 N 
ATOM     12  C   UNL d   1      -5.264   1.999  -0.462  0.00  0.00     0.266 C 
ATOM     13  O   UNL d   1      -5.783   1.505  -1.464  0.00  0.00    -0.266 OA
ATOM     14  H   UNL d   1      -4.074   1.684   1.250  0.00  0.00     0.184 HD
BRANCH  12  15
ATOM     15  C   UNL d   1      -5.758   3.308   0.036  0.00  0.00     0.033 A 
ATOM     16  C   UNL d   1      -4.893   4.248   0.608  0.00  0.00     0.017 A 
ATOM     17  C   UNL d   1      -5.382   5.501   0.985  0.00  0.00     0.001 A 
ATOM     18  C   UNL d   1      -6.730   5.814   0.802  0.00  0.00     0.000 A 
ATOM     19  C   UNL d   1      -7.596   4.876   0.238  0.00  0.00     0.001 A 
ATOM     20  C   UNL d   1      -7.110   3.626  -0.151  0.00  0.00     0.017 A 
ENDBRANCH  12  15
ENDBRANCH   9  11
ENDBRANCH   2   9
BRANCH   1  21
ATOM     21  C   UNL d   1      -1.477   2.095  -0.695  0.00  0.00     0.420 C 
ATOM     22  F   UNL d   1      -2.548   2.291  -1.502  0.00  0.00    -0.166 F 
ATOM     23  F   UNL d   1      -1.494   3.122   0.208  0.00  0.00    -0.166 F 
ATOM     24  F   UNL d   1      -0.395   2.350  -1.493  0.00  0.00    -0.166 F 
ENDBRANCH   1  21
TORSDOF 4
