REMARK  3 active torsions:
REMARK  status: ('A' for Active; 'I' for Inactive)
REMARK    1  A    between atoms: N_6  and  C_1 
REMARK       I    between atoms: C_5  and  N_6 
REMARK       I    between atoms: N_12  and  C_5 
REMARK    2  A    between atoms: C_16  and  N_12 
REMARK    3  A    between atoms: C_13  and  C_16 
ROOT
ATOM      1  C   UNL d   1      -1.046  -4.720  -0.909  0.00  0.00     0.320 C 
ATOM      2  N   UNL d   1      -0.615  -5.995  -0.805  0.00  0.00    -0.308 N 
ATOM      3  N   UNL d   1      -1.056  -3.931   0.185  0.00  0.00    -0.340 N 
ATOM      4  O   UNL d   1      -1.453  -4.325  -2.004  0.00  0.00    -0.247 OA
ATOM      5  H   UNL d   1      -0.827  -6.488  -1.664  0.00  0.00     0.170 HD
ATOM      6  H   UNL d   1      -1.242  -4.404   1.060  0.00  0.00     0.164 HD
ENDROOT
BRANCH   2   7
ATOM      7  C   UNL d   1       0.070  -6.747   0.150  0.00  0.00     0.054 A 
ATOM      8  C   UNL d   1       0.790  -6.403   1.369  0.00  0.00     0.008 A 
ATOM      9  C   UNL d   1       1.296  -7.558   1.995  0.00  0.00     0.017 A 
ATOM     10  C   UNL d   1       1.110  -5.172   2.010  0.00  0.00     0.015 A 
ATOM     11  C   UNL d   1       2.016  -7.518   3.208  0.00  0.00     0.020 A 
ATOM     12  S   UNL d   1       0.957  -8.983   1.101  0.00  0.00    -0.099 SA
ATOM     13  C   UNL d   1       2.254  -6.293   3.822  0.00  0.00     0.001 A 
ATOM     14  C   UNL d   1       1.810  -5.128   3.225  0.00  0.00     0.001 A 
ATOM     15  C   UNL d   1       0.149  -8.105  -0.101  0.00  0.00     0.081 A 
ENDBRANCH   2   7
BRANCH   3  16
ATOM     16  C   UNL d   1      -1.463  -2.536   0.089  0.00  0.00     0.159 C 
BRANCH  16  17
ATOM     17  C   UNL d   1      -2.987  -2.350   0.243  0.00  0.00     0.171 C 
ATOM     18  O   UNL d   1      -3.389  -2.697   1.584  0.00  0.00    -0.339 OA
ATOM     19  C   UNL d   1      -3.069  -1.705   2.477  0.00  0.00     0.102 A 
ATOM     20  C   UNL d   1      -2.986  -2.076   3.817  0.00  0.00     0.039 A 
ATOM     21  C   UNL d   1      -2.767  -0.395   2.088  0.00  0.00     0.102 A 
ATOM     22  C   UNL d   1      -2.548  -1.151   4.764  0.00  0.00     0.003 A 
ATOM     23  C   UNL d   1      -2.211   0.147   4.372  0.00  0.00     0.003 A 
ATOM     24  C   UNL d   1      -2.329   0.528   3.035  0.00  0.00     0.039 A 
ATOM     25  O   UNL d   1      -2.812   0.034   0.786  0.00  0.00    -0.346 OA
ATOM     26  C   UNL d   1      -3.442  -0.926  -0.070  0.00  0.00     0.209 C 
ENDBRANCH  16  17
ENDBRANCH   3  16
TORSDOF 3
