REMARK  4 active torsions:
REMARK  status: ('A' for Active; 'I' for Inactive)
REMARK    1  A    between atoms: C_8  and  C_2 
REMARK       I    between atoms: C_5  and  N_10 
REMARK       I    between atoms: N_9  and  C_5 
REMARK    2  A    between atoms: C_16  and  N_9 
REMARK    3  A    between atoms: N_10  and  C_14 
REMARK    4  A    between atoms: C_14  and  C_15 
ROOT
ATOM      1  C   UNL d   1       5.903  -4.015  -0.348  0.00  0.00     0.162 C 
ENDROOT
BRANCH   1   2
ATOM      2  N   UNL d   1       5.840  -5.146  -1.246  0.00  0.00    -0.339 N 
ATOM      3  C   UNL d   1       6.277  -5.309  -2.522  0.00  0.00     0.320 C 
ATOM      4  N   UNL d   1       6.787  -4.201  -3.142  0.00  0.00    -0.309 N 
ATOM      5  O   UNL d   1       6.161  -6.431  -3.007  0.00  0.00    -0.247 OA
ATOM      6  H   UNL d   1       6.738  -3.334  -2.634  0.00  0.00     0.170 HD
ATOM      7  H   UNL d   1       5.436  -5.999  -0.879  0.00  0.00     0.164 HD
BRANCH   4   8
ATOM      8  C   UNL d   1       7.341  -4.128  -4.440  0.00  0.00     0.036 A 
ATOM      9  C   UNL d   1       7.473  -5.225  -5.295  0.00  0.00     0.029 A 
ATOM     10  C   UNL d   1       8.082  -5.087  -6.547  0.00  0.00     0.002 A 
ATOM     11  C   UNL d   1       8.558  -3.847  -6.962  0.00  0.00     0.000 A 
ATOM     12  C   UNL d   1       8.409  -2.740  -6.131  0.00  0.00     0.002 A 
ATOM     13  C   UNL d   1       7.802  -2.879  -4.878  0.00  0.00     0.029 A 
ENDBRANCH   4   8
ENDBRANCH   1   2
BRANCH   1  14
ATOM     14  C   UNL d   1       4.632  -3.201  -0.306  0.00  0.00    -0.040 A 
ATOM     15  C   UNL d   1       4.303  -2.522   0.876  0.00  0.00     0.010 A 
ATOM     16  C   UNL d   1       3.143  -1.745   0.958  0.00  0.00     0.014 A 
ATOM     17  C   UNL d   1       2.292  -1.609  -0.145  0.00  0.00    -0.008 A 
ATOM     18  C   UNL d   1       2.625  -2.272  -1.333  0.00  0.00     0.014 A 
ATOM     19  C   UNL d   1       3.784  -3.055  -1.413  0.00  0.00     0.010 A 
BRANCH  17  20
ATOM     20  C   UNL d   1       1.085  -0.803  -0.022  0.00  0.00     0.063 A 
ATOM     21  N   UNL d   1       0.444  -0.652   1.205  0.00  0.00    -0.292 N 
ATOM     22  N   UNL d   1      -0.624   0.123   1.115  0.00  0.00    -0.061 NA
ATOM     23  HN  UNL d   1       0.762  -1.087   2.071  1.00  0.00     0.183 HD
ATOM     24  S   UNL d   1      -0.877   0.702  -0.432  0.00  0.00    -0.010 SA
ATOM     25  C   UNL d   1       0.496  -0.109  -1.066  0.00  0.00     0.096 A 
ENDBRANCH  17  20
ENDBRANCH   1  14
TORSDOF 4
