REMARK  6 active torsions:
REMARK  status: ('A' for Active; 'I' for Inactive)
REMARK    1  A    between atoms: N_3  and  S_1 
REMARK    2  A    between atoms: C_4  and  S_1 
REMARK    3  A    between atoms: S_2  and  N_7 
REMARK    4  A    between atoms: C_5  and  S_2 
REMARK    5  A    between atoms: C_6  and  N_3 
REMARK       I    between atoms: C_8  and  N_3 
REMARK    6  A    between atoms: N_7  and  C_19 
ROOT
ATOM      1  C   UNL d   1      -0.533  -2.313  -0.605  0.00  0.00     0.125 A 
ATOM      2  N   UNL d   1      -0.052  -3.546  -0.848  0.00  0.00    -0.349 N 
ATOM      3  HN  UNL d   1       0.771  -3.697  -1.431  1.00  0.00     0.167 HD
ATOM      4  C   UNL d   1      -1.875  -4.438   0.494  0.00  0.00     0.058 A 
ATOM      5  C   UNL d   1      -1.712  -2.073   0.093  0.00  0.00     0.052 A 
ATOM      6  C   UNL d   1      -0.721  -4.579  -0.272  0.00  0.00     0.119 A 
ATOM      7  C   UNL d   1      -2.402  -3.160   0.636  0.00  0.00     0.035 A 
ENDROOT
BRANCH   1   8
ATOM      8  N   UNL d   1       0.253  -1.239  -1.071  0.00  0.00    -0.189 N 
ATOM      9  C   UNL d   1       0.130  -0.759  -2.395  0.00  0.00     0.235 C 
ATOM     10  O   UNL d   1       0.830   0.164  -2.803  0.00  0.00    -0.272 OA
ATOM     11  C   UNL d   1      -0.911  -1.344  -3.312  0.00  0.00     0.119 C 
BRANCH   8  12
ATOM     12  S   UNL d   1       1.483  -0.752  -0.046  0.00  0.00     0.279 S 
ATOM     13  O   UNL d   1       2.768  -0.968  -0.683  0.00  0.00    -0.199 OA
ATOM     14  O   UNL d   1       1.239  -1.232   1.301  0.00  0.00    -0.199 OA
BRANCH  12  15
ATOM     15  C   UNL d   1       1.365   1.029   0.120  0.00  0.00     0.120 A 
ATOM     16  S   UNL d   1      -0.116   1.623   0.746  0.00  0.00    -0.088 SA
ATOM     17  C   UNL d   1       0.432   3.242   0.682  0.00  0.00     0.051 A 
ATOM     18  C   UNL d   1       1.708   3.336   0.170  0.00  0.00     0.009 A 
ATOM     19  C   UNL d   1       2.244   2.058  -0.165  0.00  0.00     0.033 A 
ENDBRANCH  12  15
ENDBRANCH   8  12
ENDBRANCH   1   8
BRANCH   4  20
ATOM     20  N   UNL d   1      -2.458  -5.526   1.205  0.00  0.00    -0.279 N 
ATOM     21  H   UNL d   1      -1.834  -6.079   1.793  0.00  0.00     0.179 HD
BRANCH  20  22
ATOM     22  S   UNL d   1      -3.640  -6.479   0.472  0.00  0.00     0.269 S 
ATOM     23  O   UNL d   1      -3.941  -7.547   1.402  0.00  0.00    -0.200 OA
ATOM     24  O   UNL d   1      -4.670  -5.619  -0.061  0.00  0.00    -0.200 OA
BRANCH  22  25
ATOM     25  C   UNL d   1      -2.950  -7.296  -0.953  0.00  0.00     0.120 A 
ATOM     26  S   UNL d   1      -1.559  -8.260  -0.696  0.00  0.00    -0.088 SA
ATOM     27  C   UNL d   1      -1.450  -8.658  -2.357  0.00  0.00     0.051 A 
ATOM     28  C   UNL d   1      -2.477  -8.105  -3.090  0.00  0.00     0.009 A 
ATOM     29  C   UNL d   1      -3.347  -7.324  -2.276  0.00  0.00     0.033 A 
ENDBRANCH  22  25
ENDBRANCH  20  22
ENDBRANCH   4  20
TORSDOF 6
