REMARK  2 active torsions:
REMARK  status: ('A' for Active; 'I' for Inactive)
REMARK    1  A    between atoms: C_11  and  N_3 
REMARK    2  A    between atoms: C_13  and  C_11 
ROOT
ATOM      1  C   UNL d   1      -0.305  -0.828   0.007  0.00  0.00     0.160 A 
ATOM      2  C   UNL d   1      -0.491   0.517  -0.069  0.00  0.00     0.164 A 
ATOM      3  N   UNL d   1       1.847   0.833   0.025  0.00  0.00    -0.260 N 
ATOM      4  N   UNL d   1      -1.481  -1.512   0.029  0.00  0.00    -0.174 N 
ATOM      5  HN  UNL d   1      -1.610  -2.522   0.077  1.00  0.00     0.186 HD
ATOM      6  N   UNL d   1       0.950  -1.382   0.086  0.00  0.00    -0.287 N 
ATOM      7  C   UNL d   1      -2.417  -0.587  -0.026  0.00  0.00     0.684 A 
ATOM      8  C   UNL d   1       2.066  -0.549   0.150  0.00  0.00     0.333 A 
ATOM      9  C   UNL d   1       0.590   1.449  -0.088  0.00  0.00     0.283 A 
ATOM     10  N   UNL d   1      -1.853   0.679  -0.087  0.00  0.00    -0.178 N 
ATOM     11  N   UNL d   1      -3.759  -0.746   0.114  0.00  0.00    -0.217 N 
ATOM     12  O   UNL d   1       3.201  -1.015   0.295  0.00  0.00    -0.246 OA
ATOM     13  O   UNL d   1       0.438   2.660  -0.204  0.00  0.00    -0.265 OA
ATOM     14  C   UNL d   1       1.150  -2.817   0.115  0.00  0.00     0.163 C 
ATOM     15  C   UNL d   1      -2.593   1.916  -0.021  0.00  0.00     0.176 C 
ATOM     16  C   UNL d   1      -4.204  -1.866   0.952  0.00  0.00     0.141 C 
ATOM     17  C   UNL d   1      -4.595  -0.598  -1.083  0.00  0.00     0.141 C 
ATOM     18  C   UNL d   1      -5.990  -0.171  -0.624  0.00  0.00     0.020 C 
ATOM     19  C   UNL d   1      -5.591  -1.517   1.500  0.00  0.00     0.020 C 
ATOM     20  C   UNL d   1      -6.579  -1.161   0.386  0.00  0.00     0.003 C 
ENDROOT
BRANCH   3  21
ATOM     21  C   UNL d   1       3.027   1.695   0.019  0.00  0.00     0.177 C 
BRANCH  21  22
ATOM     22  C   UNL d   1       3.652   1.946  -1.349  0.00  0.00    -0.018 A 
ATOM     23  C   UNL d   1       4.799   2.758  -1.464  0.00  0.00     0.043 A 
ATOM     24  C   UNL d   1       5.348   3.068  -2.713  0.00  0.00     0.048 A 
ATOM     25 CL   UNL d   1       5.585   3.422  -0.072  0.00  0.00    -0.084 Cl
ATOM     26  C   UNL d   1       4.763   2.561  -3.867  0.00  0.00     0.035 A 
ATOM     27  C   UNL d   1       3.654   1.725  -3.782  0.00  0.00     0.024 A 
ATOM     28 CL   UNL d   1       5.403   2.977  -5.409  0.00  0.00    -0.084 Cl
ATOM     29  C   UNL d   1       3.104   1.418  -2.533  0.00  0.00     0.012 A 
ENDBRANCH  21  22
ENDBRANCH   3  21
TORSDOF 2
