REMARK  2 active torsions:
REMARK  status: ('A' for Active; 'I' for Inactive)
REMARK    1  A    between atoms: C_12  and  C_5 
REMARK    2  A    between atoms: N_13  and  C_9 
ROOT
ATOM      1  C   UNL d   1       1.122  -0.854  -0.012  0.00  0.00     0.692 A 
ATOM      2  N   UNL d   1       0.722   0.487  -0.026  0.00  0.00    -0.144 N 
ATOM      3  N   UNL d   1       2.441  -1.206  -0.050  0.00  0.00    -0.176 N 
ATOM      4  HN  UNL d   1       2.725  -2.185  -0.049  1.00  0.00     0.186 HD
ATOM      5  C   UNL d   1       1.669   1.522  -0.034  0.00  0.00     0.071 A 
ATOM      6  N   UNL d   1       0.083  -1.658   0.031  0.00  0.00    -0.189 N 
ATOM      7  HN  UNL d   1       0.096  -2.677   0.070  1.00  0.00     0.184 HD
ATOM      8  C   UNL d   1       2.976   1.203  -0.051  0.00  0.00     0.080 A 
ATOM      9  C   UNL d   1       3.323  -0.248  -0.086  0.00  0.00     0.116 A 
ATOM     10  C   UNL d   1      -0.665   0.497  -0.031  0.00  0.00     0.084 A 
ATOM     11  C   UNL d   1      -1.018  -0.851   0.012  0.00  0.00     0.077 A 
ATOM     12  C   UNL d   1      -1.637   1.510  -0.072  0.00  0.00     0.033 A 
ATOM     13  C   UNL d   1      -2.373  -1.221   0.025  0.00  0.00     0.032 A 
ATOM     14  C   UNL d   1      -2.983   1.123  -0.061  0.00  0.00     0.002 A 
ATOM     15  C   UNL d   1      -3.349  -0.222  -0.011  0.00  0.00     0.002 A 
ENDROOT
BRANCH   5  16
ATOM     16  C   UNL d   1       1.343   2.953  -0.025  0.00  0.00    -0.008 A 
ATOM     17  C   UNL d   1       1.231   3.655  -1.234  0.00  0.00     0.014 A 
ATOM     18  C   UNL d   1       0.993   5.030  -1.229  0.00  0.00     0.001 A 
ATOM     19  C   UNL d   1       0.868   5.713  -0.020  0.00  0.00     0.000 A 
ATOM     20  C   UNL d   1       0.980   5.022   1.187  0.00  0.00     0.001 A 
ATOM     21  C   UNL d   1       1.219   3.647   1.186  0.00  0.00     0.014 A 
ENDBRANCH   5  16
BRANCH   9  22
ATOM     22  N   UNL d   1       4.638  -0.615  -0.161  0.00  0.00    -0.385 N 
ATOM     23  H   UNL d   1       5.340   0.011   0.210  0.00  0.00     0.157 HD
ATOM     24  H   UNL d   1       4.788  -1.595   0.062  0.00  0.00     0.157 HD
ENDBRANCH   9  22
TORSDOF 2
