REMARK  8 active torsions:
REMARK  status: ('A' for Active; 'I' for Inactive)
REMARK    1  A    between atoms: N_4  and  C_1 
REMARK    2  A    between atoms: N_6  and  C_1 
REMARK    3  A    between atoms: C_9  and  N_4 
REMARK       I    between atoms: C_5  and  N_8 
REMARK    4  A    between atoms: C_14  and  C_5 
REMARK    5  A    between atoms: N_8  and  N_6 
REMARK    6  A    between atoms: C_19  and  C_14 
REMARK    7  A    between atoms: O_24  and  C_17 
REMARK    8  A    between atoms: C_18  and  C_19 
ROOT
ATOM      1  N   UNL d   1       0.181   0.294   1.091  0.00  0.00    -0.274 N 
ATOM      2  H   UNL d   1       0.614   0.207   2.014  0.00  0.00     0.189 HD
ENDROOT
BRANCH   1   3
ATOM      3  C   UNL d   1       1.013   0.688   0.064  0.00  0.00     0.191 C 
ATOM      4  S   UNL d   1       0.612   1.730  -1.176  0.00  0.00    -0.039 SA
BRANCH   3   5
ATOM      5  N   UNL d   1       2.283   0.151   0.127  0.00  0.00    -0.332 N 
ATOM      6  H   UNL d   1       3.005   0.668  -0.366  0.00  0.00     0.168 HD
BRANCH   5   7
ATOM      7  C   UNL d   1       2.631  -1.096   0.689  0.00  0.00     0.036 A 
ATOM      8  C   UNL d   1       1.694  -2.131   0.817  0.00  0.00     0.055 A 
ATOM      9  C   UNL d   1       2.036  -3.336   1.432  0.00  0.00     0.058 A 
ATOM     10 CL   UNL d   1       0.807  -4.543   1.565  0.00  0.00    -0.082 Cl
ATOM     11  C   UNL d   1       3.333  -3.520   1.912  0.00  0.00     0.055 A 
ATOM     12  C   UNL d   1       4.288  -2.514   1.727  0.00  0.00     0.028 A 
ATOM     13 CL   UNL d   1       3.813  -4.954   2.744  0.00  0.00    -0.083 Cl
ATOM     14  C   UNL d   1       3.945  -1.312   1.097  0.00  0.00     0.031 A 
ENDBRANCH   5   7
ENDBRANCH   3   5
ENDBRANCH   1   3
BRANCH   1  15
ATOM     15  N   UNL d   1      -1.179   0.602   1.121  0.00  0.00    -0.268 N 
ATOM     16  C   UNL d   1      -1.730   0.920   2.348  0.00  0.00     0.236 C 
ATOM     17  O   UNL d   1      -1.047   1.141   3.351  0.00  0.00    -0.272 OA
ATOM     18  H   UNL d   1      -1.746   0.174   0.394  0.00  0.00     0.190 HD
BRANCH  16  19
ATOM     19  C   UNL d   1      -3.238   0.881   2.346  0.00  0.00     0.109 C 
BRANCH  19  20
ATOM     20  C   UNL d   1      -3.811   1.859   3.363  0.00  0.00     0.048 C 
BRANCH  20  21
ATOM     21  C   UNL d   1      -5.319   1.876   3.326  0.00  0.00    -0.058 A 
ATOM     22  C   UNL d   1      -6.061   1.056   4.187  0.00  0.00     0.010 A 
ATOM     23  C   UNL d   1      -7.456   1.080   4.155  0.00  0.00     0.037 A 
ATOM     24  C   UNL d   1      -8.111   1.916   3.259  0.00  0.00     0.065 A 
ATOM     25  C   UNL d   1      -7.393   2.725   2.385  0.00  0.00     0.037 A 
ATOM     26  C   UNL d   1      -5.997   2.702   2.417  0.00  0.00     0.010 A 
BRANCH  24  27
ATOM     27  O   UNL d   1      -9.475   1.918   3.271  0.00  0.00    -0.361 OA
ATOM     28  H   UNL d   1      -9.788   2.579   2.632  0.00  0.00     0.217 HD
ENDBRANCH  24  27
ENDBRANCH  20  21
ENDBRANCH  19  20
ENDBRANCH  16  19
ENDBRANCH   1  15
TORSDOF 8
