REMARK  1 active torsions:
REMARK  status: ('A' for Active; 'I' for Inactive)
REMARK    1  A    between atoms: C_7  and  C_4 
ROOT
ATOM      1  N   UNL d   1      -0.330   0.406   1.066  0.00  0.00    -0.061 NA
ATOM      2  N   UNL d   1       0.742  -0.352   1.231  0.00  0.00    -0.292 N 
ATOM      3  HN  UNL d   1       1.154  -0.567   2.139  1.00  0.00     0.183 HD
ATOM      4  C   UNL d   1       1.241  -0.822   0.020  0.00  0.00     0.063 A 
ATOM      5  S   UNL d   1      -0.754   0.590  -0.540  0.00  0.00    -0.010 SA
ATOM      6  C   UNL d   1       0.540  -0.391  -1.095  0.00  0.00     0.096 A 
ENDROOT
BRANCH   4   7
ATOM      7  C   UNL d   1       2.427  -1.667  -0.033  0.00  0.00    -0.008 A 
ATOM      8  C   UNL d   1       2.628  -2.597  -1.065  0.00  0.00     0.014 A 
ATOM      9  C   UNL d   1       3.780  -3.387  -1.095  0.00  0.00     0.001 A 
ATOM     10  C   UNL d   1       4.742  -3.260  -0.095  0.00  0.00     0.000 A 
ATOM     11  C   UNL d   1       4.550  -2.349   0.941  0.00  0.00     0.001 A 
ATOM     12  C   UNL d   1       3.398  -1.560   0.975  0.00  0.00     0.014 A 
ENDBRANCH   4   7
TORSDOF 1
