REMARK  4 active torsions:
REMARK  status: ('A' for Active; 'I' for Inactive)
REMARK    1  A    between atoms: C_6  and  N_1 
REMARK    2  A    between atoms: S_7  and  C_4 
REMARK    3  A    between atoms: C_9  and  S_7 
REMARK    4  A    between atoms: N_17  and  C_14 
ROOT
ATOM      1  N   UNL d   1       0.058   0.867   0.019  0.00  0.00    -0.251 N 
ATOM      2  C   UNL d   1      -1.089   0.130   0.185  0.00  0.00     0.232 A 
ATOM      3  C   UNL d   1       1.162   0.078  -0.204  0.00  0.00     0.245 A 
ATOM      4  C   UNL d   1       0.733  -1.376  -0.217  0.00  0.00     0.154 A 
ATOM      5  C   UNL d   1      -0.739  -1.330   0.162  0.00  0.00     0.129 A 
ATOM      6  O   UNL d   1      -2.238   0.530   0.336  0.00  0.00    -0.273 OA
ATOM      7  O   UNL d   1       2.320   0.450  -0.350  0.00  0.00    -0.271 OA
ENDROOT
BRANCH   4   8
ATOM      8  S   UNL d   1       1.067  -2.037  -1.897  0.00  0.00    -0.113 SA
BRANCH   8   9
ATOM      9  C   UNL d   1       0.573  -3.755  -1.718  0.00  0.00     0.022 A 
ATOM     10  C   UNL d   1      -0.415  -4.284  -2.576  0.00  0.00     0.022 A 
ATOM     11  C   UNL d   1      -0.812  -5.616  -2.419  0.00  0.00     0.024 A 
ATOM     12  C   UNL d   1      -0.159  -6.451  -1.512  0.00  0.00     0.002 A 
ATOM     13  C   UNL d   1       0.870  -5.946  -0.719  0.00  0.00     0.001 A 
ATOM     14  C   UNL d   1       1.231  -4.600  -0.814  0.00  0.00     0.020 A 
BRANCH  10  15
ATOM     15  N   UNL d   1      -1.157  -3.449  -3.439  0.00  0.00    -0.302 NA
ATOM     16  H   UNL d   1      -0.605  -2.639  -3.722  0.00  0.00     0.124 HD
ATOM     17  H   UNL d   1      -1.552  -3.938  -4.235  0.00  0.00     0.124 HD
ENDBRANCH  10  15
ENDBRANCH   8   9
ENDBRANCH   4   8
BRANCH   1  18
ATOM     18  C   UNL d   1       0.076   2.278  -0.051  0.00  0.00     0.051 A 
ATOM     19  C   UNL d   1      -0.461   3.094   0.961  0.00  0.00    -0.034 A 
ATOM     20  C   UNL d   1      -0.478   4.492   0.777  0.00  0.00     0.015 A 
ATOM     21  C   UNL d   1      -0.959   2.572   2.284  0.00  0.00     0.050 C 
ATOM     22  C   UNL d   1       0.036   5.085  -0.383  0.00  0.00    -0.061 A 
ATOM     23  C   UNL d   1       0.601   4.269  -1.362  0.00  0.00     0.009 A 
ATOM     24  C   UNL d   1       0.004   6.577  -0.538  0.00  0.00     0.048 C 
ATOM     25  C   UNL d   1       0.632   2.882  -1.192  0.00  0.00     0.031 A 
ENDBRANCH   1  18
TORSDOF 4
