REMARK  4 active torsions:
REMARK  status: ('A' for Active; 'I' for Inactive)
REMARK    1  A    between atoms: C_9  and  C_22 
REMARK    2  A    between atoms: C_27  and  N_10 
REMARK    3  A    between atoms: N_20  and  N_13 
REMARK    4  A    between atoms: C_23  and  C_14 
ROOT
ATOM      1  N   UNL d   1       5.231  -1.054  -1.393  0.00  0.00    -0.301 N 
ATOM      2  HN  UNL d   1       5.828  -1.112  -2.218  1.00  0.00     0.186 HD
ATOM      3  C   UNL d   1       5.707  -0.691  -0.245  0.00  0.00     0.123 C 
ENDROOT
BRANCH   1   4
ATOM      4  N   UNL d   1       3.875  -1.362  -1.463  0.00  0.00    -0.215 N 
ATOM      5  C   UNL d   1       3.163  -1.960  -0.408  0.00  0.00     0.286 A 
ATOM      6  C   UNL d   1       1.793  -2.203  -0.760  0.00  0.00     0.104 A 
ATOM      7  O   UNL d   1       3.655  -2.265   0.678  0.00  0.00    -0.265 OA
ATOM      8  C   UNL d   1       1.270  -1.957  -2.000  0.00  0.00     0.069 A 
ATOM      9  S   UNL d   1       0.653  -2.840   0.312  0.00  0.00    -0.064 SA
ATOM     10  C   UNL d   1      -0.117  -2.301  -2.117  0.00  0.00     0.032 A 
ATOM     11  N   UNL d   1       2.055  -1.437  -3.042  0.00  0.00    -0.349 N 
ATOM     12  C   UNL d   1      -1.077  -2.245  -3.163  0.00  0.00    -0.045 A 
ATOM     13  C   UNL d   1      -0.559  -2.803  -0.890  0.00  0.00     0.088 A 
ATOM     14  C   UNL d   1      -2.373  -2.708  -2.865  0.00  0.00     0.032 A 
ATOM     15  C   UNL d   1      -0.820  -1.735  -4.554  0.00  0.00     0.049 C 
ATOM     16  C   UNL d   1      -2.678  -3.189  -1.597  0.00  0.00     0.006 A 
ATOM     17  N   UNL d   1      -1.793  -3.246  -0.587  0.00  0.00    -0.354 N 
ATOM     18  C   UNL d   1      -4.066  -3.681  -1.304  0.00  0.00     0.068 C 
ATOM     19  HN  UNL d   1      -2.039  -3.598   0.338  1.00  0.00     0.166 HD
ATOM     20  C   UNL d   1       3.286  -1.187  -2.709  0.00  0.00     0.211 A 
ATOM     21  HN  UNL d   1       1.691  -1.270  -3.980  1.00  0.00     0.167 HD
ENDBRANCH   1   4
BRANCH   3  22
ATOM     22  C   UNL d   1       7.111  -0.380  -0.133  0.00  0.00     0.027 A 
ATOM     23  C   UNL d   1       7.756   0.484   0.797  0.00  0.00     0.072 A 
ATOM     24  N   UNL d   1       9.088   0.458   0.628  0.00  0.00    -0.292 N 
ATOM     25  N   UNL d   1       9.308  -0.368  -0.429  0.00  0.00    -0.266 N 
ATOM     26  HN  UNL d   1       9.789   0.953   1.179  1.00  0.00     0.187 HD
ATOM     27  C   UNL d   1       8.129  -0.886  -0.909  0.00  0.00     0.132 A 
BRANCH  23  28
ATOM     28  C   UNL d   1       7.122   1.321   1.824  0.00  0.00    -0.007 A 
ATOM     29  C   UNL d   1       5.894   1.953   1.573  0.00  0.00     0.014 A 
ATOM     30  C   UNL d   1       5.239   2.674   2.574  0.00  0.00     0.007 A 
ATOM     31  C   UNL d   1       5.818   2.813   3.838  0.00  0.00    -0.062 A 
ATOM     32  C   UNL d   1       7.063   2.221   4.083  0.00  0.00     0.007 A 
ATOM     33  C   UNL d   1       5.091   3.574   4.907  0.00  0.00     0.048 C 
ATOM     34  C   UNL d   1       7.711   1.482   3.083  0.00  0.00     0.014 A 
ENDBRANCH  23  28
BRANCH  25  35
ATOM     35  C   UNL d   1      10.623  -0.619  -0.919  0.00  0.00     0.056 A 
ATOM     36  C   UNL d   1      10.834  -1.455  -2.026  0.00  0.00     0.031 A 
ATOM     37  C   UNL d   1      12.129  -1.689  -2.498  0.00  0.00     0.002 A 
ATOM     38  C   UNL d   1      13.221  -1.093  -1.871  0.00  0.00     0.000 A 
ATOM     39  C   UNL d   1      13.022  -0.261  -0.771  0.00  0.00     0.002 A 
ATOM     40  C   UNL d   1      11.729  -0.021  -0.295  0.00  0.00     0.031 A 
ENDBRANCH  25  35
ENDBRANCH   3  22
TORSDOF 4
