REMARK  5 active torsions:
REMARK  status: ('A' for Active; 'I' for Inactive)
REMARK    1  A    between atoms: C_6  and  C_1 
REMARK    2  A    between atoms: C_12  and  C_2 
REMARK    3  A    between atoms: C_8  and  C_11 
REMARK    4  A    between atoms: O_21  and  C_12 
REMARK    5  A    between atoms: C_23  and  O_21 
ROOT
ATOM      1  C   UNL d   1       0.635   1.165   0.044  0.00  0.00     0.104 A 
ATOM      2  C   UNL d   1      -0.177  -1.139   0.102  0.00  0.00     0.104 A 
ATOM      3  S   UNL d   1       1.367  -0.391   0.154  0.00  0.00    -0.062 SA
ATOM      4  N   UNL d   1      -0.682   1.138   0.006  0.00  0.00    -0.351 N 
ATOM      5  HN  UNL d   1      -1.273   1.968  -0.048  1.00  0.00     0.166 HD
ATOM      6  C   UNL d   1      -1.160  -0.163   0.047  0.00  0.00     0.029 A 
ATOM      7  C   UNL d   1      -2.637  -0.346  -0.004  0.00  0.00     0.070 C 
ENDROOT
BRANCH   1   8
ATOM      8  C   UNL d   1       1.474   2.378   0.009  0.00  0.00     0.088 A 
ATOM      9  N   UNL d   1       2.698   2.215  -0.580  0.00  0.00    -0.361 N 
ATOM     10  C   UNL d   1       3.521   3.284  -0.654  0.00  0.00     0.104 A 
ATOM     11  HN  UNL d   1       2.983   1.309  -0.953  1.00  0.00     0.165 HD
ATOM     12  C   UNL d   1       3.196   4.540  -0.171  0.00  0.00     0.065 A 
ATOM     13  C   UNL d   1       1.939   4.698   0.422  0.00  0.00     0.043 A 
ATOM     14  C   UNL d   1       1.062   3.612   0.515  0.00  0.00     0.064 A 
ATOM     15 CL   UNL d   1      -0.448   3.889   1.305  0.00  0.00    -0.082 Cl
BRANCH  12  16
ATOM     16  C   UNL d   1       4.184   5.660  -0.284  0.00  0.00     0.418 C 
ATOM     17  F   UNL d   1       3.732   6.833   0.236  0.00  0.00    -0.166 F 
ATOM     18  F   UNL d   1       5.350   5.388   0.362  0.00  0.00    -0.166 F 
ATOM     19  F   UNL d   1       4.521   5.926  -1.574  0.00  0.00    -0.166 F 
ENDBRANCH  12  16
ENDBRANCH   1   8
BRANCH   2  20
ATOM     20  C   UNL d   1      -0.254  -2.582   0.061  0.00  0.00     0.302 C 
ATOM     21  O   UNL d   1       0.693  -3.360   0.052  0.00  0.00    -0.259 OA
BRANCH  20  22
ATOM     22  O   UNL d   1      -1.555  -2.969  -0.076  0.00  0.00    -0.317 OA
BRANCH  22  23
ATOM     23  C   UNL d   1      -1.758  -4.256  -0.671  0.00  0.00     0.174 C 
ATOM     24  C   UNL d   1      -1.757  -4.069  -2.178  0.00  0.00     0.034 C 
ENDBRANCH  22  23
ENDBRANCH  20  22
ENDBRANCH   2  20
TORSDOF 5
