REMARK  4 active torsions:
REMARK  status: ('A' for Active; 'I' for Inactive)
REMARK    1  A    between atoms: C_2  and  C_1 
REMARK       I    between atoms: N_3  and  C_1 
REMARK    2  A    between atoms: C_5  and  N_3 
REMARK    3  A    between atoms: S_6  and  C_4 
REMARK    4  A    between atoms: C_11  and  S_6 
ROOT
ATOM      1  C   UNL d   1      -1.777  -1.833   1.511  0.00  0.00     0.101 A 
ATOM      2  C   UNL d   1      -1.131  -1.165   0.459  0.00  0.00     0.069 A 
ATOM      3  N   UNL d   1      -3.126  -1.964   1.596  0.00  0.00    -0.358 N 
ATOM      4  HN  UNL d   1      -3.565  -2.455   2.375  1.00  0.00     0.166 HD
ATOM      5  C   UNL d   1      -1.936  -0.624  -0.548  0.00  0.00     0.034 A 
ATOM      6  C   UNL d   1      -3.861  -1.416   0.606  0.00  0.00     0.089 A 
ATOM      7  C   UNL d   1      -3.319  -0.748  -0.477  0.00  0.00     0.019 A 
ENDROOT
BRANCH   2   8
ATOM      8  N   UNL d   1       0.284  -1.086   0.406  0.00  0.00    -0.320 N 
ATOM      9  C   UNL d   1       0.990  -0.082  -0.213  0.00  0.00     0.258 C 
ATOM     10  O   UNL d   1       0.468   0.949  -0.645  0.00  0.00    -0.267 OA
ATOM     11  H   UNL d   1       0.787  -1.752   0.985  0.00  0.00     0.169 HD
BRANCH   9  12
ATOM     12  C   UNL d   1       2.477  -0.210  -0.326  0.00  0.00     0.054 A 
ATOM     13  C   UNL d   1       3.220  -1.395  -0.223  0.00  0.00     0.049 A 
ATOM     14 CL   UNL d   1       2.549  -2.931   0.201  0.00  0.00    -0.083 Cl
ATOM     15  C   UNL d   1       4.599  -1.384  -0.485  0.00  0.00     0.025 A 
ATOM     16  C   UNL d   1       5.252  -0.202  -0.836  0.00  0.00     0.002 A 
ATOM     17  C   UNL d   1       4.535   0.985  -0.906  0.00  0.00     0.001 A 
ATOM     18  C   UNL d   1       3.163   0.979  -0.655  0.00  0.00     0.019 A 
ENDBRANCH   9  12
ENDBRANCH   2   8
BRANCH   1  19
ATOM     19  S   UNL d   1      -0.848  -2.502   2.889  0.00  0.00    -0.070 SA
BRANCH  19  20
ATOM     20  C   UNL d   1      -0.782  -1.080   3.972  0.00  0.00     0.007 A 
ATOM     21  C   UNL d   1      -1.945  -0.425   4.396  0.00  0.00     0.020 A 
ATOM     22  C   UNL d   1      -1.872   0.654   5.283  0.00  0.00     0.025 A 
ATOM     23  C   UNL d   1      -0.632   1.076   5.757  0.00  0.00     0.034 A 
ATOM     24  C   UNL d   1       0.533   0.434   5.345  0.00  0.00     0.025 A 
ATOM     25 CL   UNL d   1      -0.541   2.386   6.869  0.00  0.00    -0.084 Cl
ATOM     26  C   UNL d   1       0.459  -0.643   4.455  0.00  0.00     0.020 A 
ENDBRANCH  19  20
ENDBRANCH   1  19
TORSDOF 4
