REMARK  4 active torsions:
REMARK  status: ('A' for Active; 'I' for Inactive)
REMARK    1  A    between atoms: C_6  and  C_1 
REMARK    2  A    between atoms: N_5  and  C_2 
REMARK    3  A    between atoms: C_3  and  C_4 
REMARK       I    between atoms: C_4  and  N_5 
REMARK    4  A    between atoms: O_18  and  C_6 
ROOT
ATOM      1  C   UNL d   1       2.990   2.722   0.201  0.00  0.00     0.257 C 
ATOM      2  N   UNL d   1       2.715   1.427  -0.186  0.00  0.00    -0.321 N 
ATOM      3  O   UNL d   1       2.154   3.594   0.417  0.00  0.00    -0.267 OA
ATOM      4  H   UNL d   1       3.473   0.757  -0.117  0.00  0.00     0.169 HD
ENDROOT
BRANCH   2   5
ATOM      5  C   UNL d   1       1.446   0.858  -0.298  0.00  0.00     0.058 C 
ATOM      6  C   UNL d   1       0.238   1.461  -0.616  0.00  0.00     0.106 C 
ATOM      7  S   UNL d   1      -1.079   0.365  -0.434  0.00  0.00    -0.094 SA
ATOM      8  C   UNL d   1      -0.039  -0.942  -0.098  0.00  0.00     0.053 C 
ATOM      9  C   UNL d   1       1.278  -0.550  -0.078  0.00  0.00     0.038 C 
BRANCH   6  10
ATOM     10  C   UNL d   1      -0.075   2.789  -1.106  0.00  0.00     0.302 C 
ATOM     11  O   UNL d   1      -1.081   3.442  -0.851  0.00  0.00    -0.259 OA
BRANCH  10  12
ATOM     12  O   UNL d   1       0.887   3.176  -2.000  0.00  0.00    -0.322 OA
ATOM     13  C   UNL d   1       0.762   4.527  -2.435  0.00  0.00     0.213 C 
ENDBRANCH  10  12
ENDBRANCH   6  10
ENDBRANCH   2   5
BRANCH   1  14
ATOM     14  C   UNL d   1       4.430   3.068   0.429  0.00  0.00     0.054 A 
ATOM     15  C   UNL d   1       5.430   2.167   0.834  0.00  0.00     0.051 A 
ATOM     16  C   UNL d   1       6.727   2.622   1.106  0.00  0.00     0.048 A 
ATOM     17 CL   UNL d   1       5.168   0.473   1.080  0.00  0.00    -0.083 Cl
ATOM     18  C   UNL d   1       7.036   3.973   0.981  0.00  0.00     0.035 A 
ATOM     19  C   UNL d   1       6.067   4.879   0.566  0.00  0.00     0.025 A 
ATOM     20 CL   UNL d   1       8.619   4.524   1.365  0.00  0.00    -0.084 Cl
ATOM     21  C   UNL d   1       4.772   4.429   0.291  0.00  0.00     0.020 A 
ENDBRANCH   1  14
TORSDOF 4
