REMARK  3 active torsions:
REMARK  status: ('A' for Active; 'I' for Inactive)
REMARK    1  A    between atoms: C_9  and  C_2 
REMARK    2  A    between atoms: C_10  and  C_6 
REMARK    3  A    between atoms: O_22  and  C_16 
ROOT
ATOM      1  C   UNL d   1      -0.470  -0.379   0.058  0.00  0.00     0.123 A 
ATOM      2  C   UNL d   1       0.278  -1.509   0.007  0.00  0.00     0.003 A 
ATOM      3  C   UNL d   1       0.215   0.951   0.078  0.00  0.00     0.267 A 
ATOM      4  N   UNL d   1       1.586   0.932   0.087  0.00  0.00    -0.322 N 
ATOM      5  C   UNL d   1       1.736  -1.404   0.016  0.00  0.00     0.044 A 
ATOM      6  C   UNL d   1       2.340  -0.209   0.060  0.00  0.00     0.046 A 
ATOM      7  C   UNL d   1      -1.889  -0.375   0.081  0.00  0.00     0.106 C 
ATOM      8  N   UNL d   1      -3.052  -0.397   0.106  0.00  0.00    -0.191 NA
ATOM      9  O   UNL d   1      -0.398   2.012   0.077  0.00  0.00    -0.266 OA
ATOM     10  H   UNL d   1       2.045   1.836   0.100  0.00  0.00     0.169 HD
ENDROOT
BRANCH   2  11
ATOM     11  C   UNL d   1      -0.360  -2.842  -0.078  0.00  0.00    -0.024 A 
ATOM     12  C   UNL d   1      -0.651  -3.402  -1.329  0.00  0.00     0.015 A 
ATOM     13  C   UNL d   1      -1.221  -4.676  -1.424  0.00  0.00     0.037 A 
ATOM     14  C   UNL d   1      -1.496  -5.413  -0.271  0.00  0.00     0.068 A 
ATOM     15  C   UNL d   1      -1.191  -4.862   0.976  0.00  0.00     0.037 A 
ATOM     16  C   UNL d   1      -0.630  -3.583   1.077  0.00  0.00     0.015 A 
BRANCH  14  17
ATOM     17  O   UNL d   1      -2.053  -6.662  -0.234  0.00  0.00    -0.356 OA
ATOM     18  C   UNL d   1      -2.377  -7.250  -1.489  0.00  0.00     0.210 C 
ENDBRANCH  14  17
ENDBRANCH   2  11
BRANCH   6  19
ATOM     19  C   UNL d   1       3.798  -0.060   0.079  0.00  0.00    -0.009 A 
ATOM     20  C   UNL d   1       4.516   0.052  -1.116  0.00  0.00     0.014 A 
ATOM     21  C   UNL d   1       5.902   0.233  -1.091  0.00  0.00     0.007 A 
ATOM     22  C   UNL d   1       6.586   0.305   0.129  0.00  0.00    -0.062 A 
ATOM     23  C   UNL d   1       5.865   0.196   1.323  0.00  0.00     0.007 A 
ATOM     24  C   UNL d   1       8.076   0.482   0.143  0.00  0.00     0.048 C 
ATOM     25  C   UNL d   1       4.481   0.009   1.298  0.00  0.00     0.014 A 
ENDBRANCH   6  19
TORSDOF 3
