REMARK  5 active torsions:
REMARK  status: ('A' for Active; 'I' for Inactive)
REMARK    1  A    between atoms: C_2  and  C_1 
REMARK    2  A    between atoms: N_3  and  C_1 
REMARK    3  A    between atoms: C_4  and  N_3 
REMARK    4  A    between atoms: O_10  and  N_5 
REMARK    5  A    between atoms: O_12  and  C_8 
ROOT
ATOM      1  C   UNL d   1       0.975  -0.640   0.123  0.00  0.00     0.137 C 
ATOM      2  N   UNL d   1       0.471  -1.316   1.125  0.00  0.00    -0.252 N 
ATOM      3  HN  UNL d   1       0.980  -1.512   1.987  1.00  0.00     0.196 HD
ENDROOT
BRANCH   1   4
ATOM      4  C   UNL d   1       2.450  -0.298   0.270  0.00  0.00     0.031 A 
ATOM      5  C   UNL d   1       3.107   0.750  -0.392  0.00  0.00     0.048 A 
ATOM      6 CL   UNL d   1       2.353   1.799  -1.542  0.00  0.00    -0.083 Cl
ATOM      7  C   UNL d   1       4.460   1.015  -0.124  0.00  0.00     0.025 A 
ATOM      8  C   UNL d   1       5.172   0.241   0.792  0.00  0.00     0.002 A 
ATOM      9  C   UNL d   1       4.542  -0.817   1.433  0.00  0.00     0.001 A 
ATOM     10  C   UNL d   1       3.197  -1.085   1.172  0.00  0.00     0.017 A 
ENDBRANCH   1   4
BRANCH   1  11
ATOM     11  N   UNL d   1       0.309  -0.275  -1.037  0.00  0.00    -0.338 N 
ATOM     12  H   UNL d   1       0.875   0.189  -1.746  0.00  0.00     0.167 HD
BRANCH  11  13
ATOM     13  C   UNL d   1      -0.985   0.307  -1.075  0.00  0.00     0.067 A 
ATOM     14  C   UNL d   1      -1.802   0.182  -2.218  0.00  0.00     0.094 A 
ATOM     15  C   UNL d   1      -3.024   0.864  -2.292  0.00  0.00     0.039 A 
ATOM     16  C   UNL d   1      -3.463   1.654  -1.227  0.00  0.00     0.003 A 
ATOM     17  C   UNL d   1      -2.671   1.780  -0.091  0.00  0.00     0.002 A 
ATOM     18  C   UNL d   1      -1.442   1.120  -0.021  0.00  0.00     0.032 A 
BRANCH  14  19
ATOM     19  O   UNL d   1      -1.492  -0.537  -3.348  0.00  0.00    -0.354 OA
ATOM     20  C   UNL d   1      -0.878  -1.804  -3.118  0.00  0.00     0.210 C 
ENDBRANCH  14  19
ENDBRANCH  11  13
ENDBRANCH   1  11
BRANCH   2  21
ATOM     21  O   UNL d   1      -0.841  -1.740   0.887  0.00  0.00    -0.288 OA
ATOM     22  H   UNL d   1      -1.099  -2.126   1.743  0.00  0.00     0.244 HD
ENDBRANCH   2  21
TORSDOF 5
