REMARK  4 active torsions:
REMARK  status: ('A' for Active; 'I' for Inactive)
REMARK    1  A    between atoms: C_8  and  C_3 
REMARK    2  A    between atoms: C_10  and  C_4 
REMARK    3  A    between atoms: N_7  and  C_9 
REMARK    4  A    between atoms: C_11  and  C_12 
ROOT
ATOM      1  N   UNL d   1       1.470  -0.623   0.040  0.00  0.00    -0.349 N 
ATOM      2  HN  UNL d   1       2.371  -1.100   0.078  1.00  0.00     0.166 HD
ATOM      3  C   UNL d   1       1.311   0.753   0.033  0.00  0.00     0.050 A 
ATOM      4  C   UNL d   1       0.302  -1.236  -0.009  0.00  0.00     0.074 A 
ATOM      5  S   UNL d   1      -1.058  -0.162  -0.035  0.00  0.00    -0.082 SA
ATOM      6  C   UNL d   1      -0.000   1.181   0.010  0.00  0.00     0.082 A 
ENDROOT
BRANCH   4   7
ATOM      7  C   UNL d   1       0.062  -2.639  -0.044  0.00  0.00     0.037 C 
ATOM      8  C   UNL d   1       1.080  -3.516  -0.050  0.00  0.00     0.004 C 
BRANCH   8   9
ATOM      9  C   UNL d   1       0.869  -4.944  -0.102  0.00  0.00     0.017 C 
ATOM     10  C   UNL d   1       1.867  -5.839  -0.090  0.00  0.00     0.085 C 
BRANCH  10  11
ATOM     11  N   UNL d   1       1.786  -7.223  -0.141  0.00  0.00    -0.386 N 
ATOM     12  C   UNL d   1       0.671  -7.936  -0.806  0.00  0.00     0.148 C 
ATOM     13  C   UNL d   1       0.440  -9.303  -0.146  0.00  0.00     0.187 C 
ATOM     14  O   UNL d   1       1.635 -10.101  -0.145  0.00  0.00    -0.388 OA
ATOM     15  C   UNL d   1       2.679  -9.418   0.567  0.00  0.00     0.187 C 
ATOM     16  C   UNL d   1       3.005  -8.060  -0.074  0.00  0.00     0.148 C 
ENDBRANCH  10  11
ENDBRANCH   8   9
ENDBRANCH   4   7
BRANCH   3  17
ATOM     17  C   UNL d   1       2.464   1.646   0.069  0.00  0.00    -0.009 A 
ATOM     18  C   UNL d   1       2.415   2.934  -0.486  0.00  0.00     0.015 A 
ATOM     19  C   UNL d   1       3.535   3.770  -0.447  0.00  0.00     0.020 A 
ATOM     20  C   UNL d   1       4.713   3.320   0.146  0.00  0.00     0.011 A 
ATOM     21  C   UNL d   1       4.782   2.044   0.698  0.00  0.00     0.020 A 
ATOM     22 BR   UNL d   1       6.228   4.449   0.191  0.00  0.00    -0.051 Br
ATOM     23  C   UNL d   1       3.661   1.210   0.656  0.00  0.00     0.015 A 
ENDBRANCH   3  17
TORSDOF 4
