REMARK  3 active torsions:
REMARK  status: ('A' for Active; 'I' for Inactive)
REMARK       I    between atoms: N_2  and  C_1 
REMARK       I    between atoms: N_3  and  C_1 
REMARK    1  A    between atoms: C_4  and  N_2 
REMARK    2  A    between atoms: C_6  and  N_3 
REMARK    3  A    between atoms: C_12  and  C_6 
ROOT
ATOM      1  C   UNL d   1       0.962   0.291   0.063  0.00  0.00     0.322 C 
ATOM      2  N   UNL d   1       0.307  -0.340   1.106  0.00  0.00    -0.309 N 
ATOM      3  N   UNL d   1       0.234   0.404  -1.112  0.00  0.00    -0.334 N 
ATOM      4  O   UNL d   1       2.126   0.679   0.144  0.00  0.00    -0.247 OA
ATOM      5  C   UNL d   1      -1.217   0.334  -1.201  0.00  0.00     0.154 C 
ATOM      6  H   UNL d   1      -0.301  -1.080   0.795  0.00  0.00     0.170 HD
ENDROOT
BRANCH   2   7
ATOM      7  C   UNL d   1       0.940  -0.554   2.353  0.00  0.00     0.037 A 
ATOM      8  C   UNL d   1       1.669   0.452   2.995  0.00  0.00     0.036 A 
ATOM      9  C   UNL d   1       2.361   0.184   4.183  0.00  0.00    -0.059 A 
ATOM     10  C   UNL d   1       3.163   1.251   4.868  0.00  0.00     0.048 C 
ATOM     11  C   UNL d   1       2.334  -1.114   4.707  0.00  0.00     0.013 A 
ATOM     12  C   UNL d   1       1.597  -2.127   4.079  0.00  0.00    -0.059 A 
ATOM     13  C   UNL d   1       0.863  -1.828   2.925  0.00  0.00     0.036 A 
ATOM     14  C   UNL d   1       1.651  -3.527   4.614  0.00  0.00     0.048 C 
ENDBRANCH   2   7
BRANCH   3  15
ATOM     15  C   UNL d   1       0.929   0.950  -2.278  0.00  0.00     0.165 C 
BRANCH  15  16
ATOM     16  C   UNL d   1       1.501  -0.079  -3.229  0.00  0.00    -0.040 A 
ATOM     17  C   UNL d   1       1.012  -0.182  -4.542  0.00  0.00     0.009 A 
ATOM     18  C   UNL d   1       1.653  -0.990  -5.481  0.00  0.00     0.001 A 
ATOM     19  C   UNL d   1       2.787  -1.724  -5.122  0.00  0.00     0.000 A 
ATOM     20  C   UNL d   1       3.257  -1.666  -3.812  0.00  0.00     0.001 A 
ATOM     21  C   UNL d   1       2.617  -0.860  -2.873  0.00  0.00     0.009 A 
ENDBRANCH  15  16
ENDBRANCH   3  15
TORSDOF 3
