REMARK  7 active torsions:
REMARK  status: ('A' for Active; 'I' for Inactive)
REMARK    1  A    between atoms: C_3  and  C_1 
REMARK    2  A    between atoms: N_6  and  C_2 
REMARK    3  A    between atoms: S_7  and  C_2 
REMARK       I    between atoms: N_11  and  C_3 
REMARK    4  A    between atoms: C_14  and  N_6 
REMARK    5  A    between atoms: C_15  and  N_6 
REMARK    6  A    between atoms: C_9  and  C_15 
REMARK    7  A    between atoms: C_10  and  C_14 
ROOT
ATOM      1  C   UNL d   1       1.255   1.588  -0.373  0.00  0.00     0.145 C 
ATOM      2  C   UNL d   1       0.554   0.523  -0.870  0.00  0.00     0.094 C 
ATOM      3  C   UNL d   1       2.681   1.563  -0.261  0.00  0.00     0.108 C 
ATOM      4  N   UNL d   1       3.835   1.623  -0.132  0.00  0.00    -0.191 NA
ENDROOT
BRANCH   1   5
ATOM      5  C   UNL d   1       0.612   2.845   0.150  0.00  0.00     0.262 C 
ATOM      6  O   UNL d   1      -0.540   3.200  -0.065  0.00  0.00    -0.267 OA
ATOM      7  N   UNL d   1       1.385   3.649   0.946  0.00  0.00    -0.365 N 
ATOM      8  H   UNL d   1       2.343   3.471   1.218  0.00  0.00     0.159 HD
ATOM      9  H   UNL d   1       0.945   4.484   1.319  0.00  0.00     0.159 HD
ENDBRANCH   1   5
BRANCH   2  10
ATOM     10  N   UNL d   1      -0.844   0.458  -1.082  0.00  0.00    -0.367 N 
BRANCH  10  11
ATOM     11  C   UNL d   1      -1.530   1.427  -1.963  0.00  0.00     0.150 C 
BRANCH  11  12
ATOM     12  C   UNL d   1      -2.268   0.816  -3.127  0.00  0.00    -0.017 C 
ATOM     13  C   UNL d   1      -2.464  -0.463  -3.469  0.00  0.00     0.008 C 
ENDBRANCH  11  12
ENDBRANCH  10  11
BRANCH  10  14
ATOM     14  C   UNL d   1      -1.679  -0.311  -0.142  0.00  0.00     0.150 C 
BRANCH  14  15
ATOM     15  C   UNL d   1      -2.575   0.583   0.665  0.00  0.00    -0.017 C 
ATOM     16  C   UNL d   1      -3.910   0.476   0.706  0.00  0.00     0.008 C 
ENDBRANCH  14  15
ENDBRANCH  10  14
ENDBRANCH   2  10
BRANCH   2  17
ATOM     17  S   UNL d   1       1.524  -0.977  -1.142  0.00  0.00    -0.115 SA
ATOM     18  C   UNL d   1       0.697  -1.740  -2.543  0.00  0.00     0.097 C 
ENDBRANCH   2  17
TORSDOF 7
