REMARK  5 active torsions:
REMARK  status: ('A' for Active; 'I' for Inactive)
REMARK    1  A    between atoms: C_10  and  C_1 
REMARK    2  A    between atoms: C_5  and  C_2 
REMARK    3  A    between atoms: N_7  and  C_3 
REMARK    4  A    between atoms: C_8  and  N_7 
REMARK    5  A    between atoms: N_14  and  C_8 
ROOT
ATOM      1  C   UNL d   1       1.472   0.767  -0.105  0.00  0.00     0.023 C 
ATOM      2  C   UNL d   1       0.178   1.279  -0.011  0.00  0.00     0.102 C 
ATOM      3  C   UNL d   1       1.472  -0.682   0.024  0.00  0.00     0.053 C 
ATOM      4  S   UNL d   1      -0.998   0.021   0.035  0.00  0.00    -0.094 SA
ATOM      5  C   UNL d   1       0.191  -1.187   0.054  0.00  0.00     0.081 C 
ENDROOT
BRANCH   3   6
ATOM      6  N   UNL d   1       2.625  -1.469   0.036  0.00  0.00    -0.332 N 
ATOM      7  H   UNL d   1       3.460  -1.042  -0.353  0.00  0.00     0.168 HD
BRANCH   6   8
ATOM      8  C   UNL d   1       2.801  -2.728   0.510  0.00  0.00     0.170 C 
ATOM      9  S   UNL d   1       4.200  -3.569   0.197  0.00  0.00    -0.041 SA
BRANCH   8  10
ATOM     10  N   UNL d   1       1.850  -3.278   1.299  0.00  0.00    -0.376 N 
ATOM     11  H   UNL d   1       1.276  -2.668   1.863  0.00  0.00     0.158 HD
ATOM     12  H   UNL d   1       2.081  -4.165   1.731  0.00  0.00     0.158 HD
ENDBRANCH   8  10
ENDBRANCH   6   8
ENDBRANCH   3   6
BRANCH   1  13
ATOM     13  C   UNL d   1       2.662   1.628  -0.217  0.00  0.00    -0.022 A 
ATOM     14  C   UNL d   1       3.780   1.410   0.603  0.00  0.00     0.012 A 
ATOM     15  C   UNL d   1       4.930   2.193   0.471  0.00  0.00     0.001 A 
ATOM     16  C   UNL d   1       4.965   3.230  -0.457  0.00  0.00     0.000 A 
ATOM     17  C   UNL d   1       3.859   3.470  -1.267  0.00  0.00     0.001 A 
ATOM     18  C   UNL d   1       2.723   2.660  -1.165  0.00  0.00     0.012 A 
ENDBRANCH   1  13
BRANCH   2  19
ATOM     19  C   UNL d   1      -0.347   2.681   0.028  0.00  0.00     0.424 C 
ATOM     20  F   UNL d   1       0.582   3.607   0.371  0.00  0.00    -0.166 F 
ATOM     21  F   UNL d   1      -0.844   3.056  -1.180  0.00  0.00    -0.166 F 
ATOM     22  F   UNL d   1      -1.360   2.826   0.926  0.00  0.00    -0.166 F 
ENDBRANCH   2  19
TORSDOF 5
