REMARK  7 active torsions:
REMARK  status: ('A' for Active; 'I' for Inactive)
REMARK    1  A    between atoms: C_8  and  C_2 
REMARK    2  A    between atoms: C_5  and  N_10 
REMARK    3  A    between atoms: N_11  and  C_5 
REMARK    4  A    between atoms: N_10  and  C_16 
REMARK    5  A    between atoms: C_20  and  N_11 
REMARK    6  A    between atoms: C_14  and  C_20 
REMARK    7  A    between atoms: C_16  and  C_17 
ROOT
ATOM      1  C   UNL d   1       2.297  -1.884  -0.093  0.00  0.00    -0.008 A 
ATOM      2  C   UNL d   1       3.433  -1.448  -0.790  0.00  0.00     0.014 A 
ATOM      3  C   UNL d   1       2.353  -3.111   0.578  0.00  0.00     0.014 A 
ATOM      4  C   UNL d   1       4.667  -3.423  -0.083  0.00  0.00    -0.041 A 
ATOM      5  C   UNL d   1       4.605  -2.213  -0.787  0.00  0.00     0.010 A 
ATOM      6  C   UNL d   1       3.525  -3.874   0.586  0.00  0.00     0.010 A 
ENDROOT
BRANCH   4   7
ATOM      7  C   UNL d   1       5.935  -4.241  -0.086  0.00  0.00     0.160 C 
BRANCH   7   8
ATOM      8  N   UNL d   1       6.019  -5.013  -1.316  0.00  0.00    -0.363 N 
ATOM      9  H   UNL d   1       5.188  -5.534  -1.549  0.00  0.00     0.162 HD
BRANCH   8  10
ATOM     10  C   UNL d   1       7.061  -5.034  -2.216  0.00  0.00     0.168 C 
ATOM     11  S   UNL d   1       8.575  -4.384  -1.936  0.00  0.00    -0.041 SA
BRANCH  10  12
ATOM     12  N   UNL d   1       6.668  -5.643  -3.391  0.00  0.00    -0.364 N 
ATOM     13  H   UNL d   1       5.707  -5.945  -3.443  0.00  0.00     0.162 HD
BRANCH  12  14
ATOM     14  C   UNL d   1       7.307  -5.493  -4.687  0.00  0.00     0.148 C 
BRANCH  14  15
ATOM     15  C   UNL d   1       6.621  -4.345  -5.365  0.00  0.00    -0.018 C 
ATOM     16  C   UNL d   1       5.963  -4.424  -6.529  0.00  0.00     0.008 C 
ENDBRANCH  14  15
ENDBRANCH  12  14
ENDBRANCH  10  12
ENDBRANCH   8  10
ENDBRANCH   7   8
ENDBRANCH   4   7
BRANCH   1  17
ATOM     17  C   UNL d   1       1.070  -1.098  -0.054  0.00  0.00     0.063 A 
ATOM     18  N   UNL d   1      -0.171  -1.708   0.110  0.00  0.00    -0.292 N 
ATOM     19  N   UNL d   1      -1.157  -0.828   0.143  0.00  0.00    -0.061 NA
ATOM     20  HN  UNL d   1      -0.304  -2.716   0.193  1.00  0.00     0.183 HD
ATOM     21  S   UNL d   1      -0.623   0.750  -0.001  0.00  0.00    -0.010 SA
ATOM     22  C   UNL d   1       1.024   0.284  -0.129  0.00  0.00     0.096 A 
ENDBRANCH   1  17
TORSDOF 7
