REMARK  1 active torsions:
REMARK  status: ('A' for Active; 'I' for Inactive)
REMARK    1  A    between atoms: C_8  and  C_7 
ROOT
ATOM      1  C   UNL d   1       1.568  -0.066   0.098  0.00  0.00     0.101 A 
ATOM      2  N   UNL d   1      -0.493   1.177  -0.099  0.00  0.00    -0.299 N 
ATOM      3  N   UNL d   1      -0.593  -1.138   0.038  0.00  0.00    -0.299 N 
ATOM      4  C   UNL d   1       0.872   1.239  -0.043  0.00  0.00     0.263 A 
ATOM      5  C   UNL d   1       0.763  -1.317   0.126  0.00  0.00     0.263 A 
ATOM      6  C   UNL d   1      -1.250   0.048  -0.056  0.00  0.00     0.181 A 
ATOM      7  C   UNL d   1       2.912  -0.032   0.210  0.00  0.00     0.039 C 
ATOM      8  S   UNL d   1      -2.909   0.116  -0.119  0.00  0.00    -0.040 SA
ATOM      9  O   UNL d   1       1.456   2.319  -0.101  0.00  0.00    -0.267 OA
ATOM     10  O   UNL d   1       1.230  -2.445   0.227  0.00  0.00    -0.267 OA
ATOM     11  H   UNL d   1      -0.970   2.066  -0.181  0.00  0.00     0.171 HD
ATOM     12  H   UNL d   1      -1.146  -1.986   0.065  0.00  0.00     0.171 HD
ENDROOT
BRANCH   7  13
ATOM     13  C   UNL d   1       3.786  -1.204   0.370  0.00  0.00     0.025 A 
ATOM     14  C   UNL d   1       4.298  -1.834  -0.770  0.00  0.00     0.128 A 
ATOM     15  F   UNL d   1       4.049  -1.325  -1.987  0.00  0.00    -0.205 F 
ATOM     16  C   UNL d   1       5.063  -2.995  -0.681  0.00  0.00     0.043 A 
ATOM     17  C   UNL d   1       5.338  -3.546   0.568  0.00  0.00     0.005 A 
ATOM     18  C   UNL d   1       4.862  -2.920   1.721  0.00  0.00     0.025 A 
ATOM     19  C   UNL d   1       4.091  -1.756   1.624  0.00  0.00     0.047 A 
ATOM     20 CL   UNL d   1       3.530  -1.032   3.093  0.00  0.00    -0.083 Cl
ENDBRANCH   7  13
TORSDOF 1
