REMARK  1 active torsions:
REMARK  status: ('A' for Active; 'I' for Inactive)
REMARK    1  A    between atoms: C_8  and  C_1 
ROOT
ATOM      1  C   UNL d   1       1.671  -1.586   0.002  0.00  0.00     0.162 A 
ATOM      2  N   UNL d   1       0.422  -1.916  -0.014  0.00  0.00    -0.335 N 
ATOM      3  HN  UNL d   1       0.132  -2.894  -0.029  1.00  0.00     0.168 HD
ATOM      4  O   UNL d   1       2.169  -0.332   0.018  0.00  0.00    -0.257 OA
ATOM      5  C   UNL d   1       1.323   0.727   0.018  0.00  0.00     0.302 A 
ATOM      6  C   UNL d   1      -0.118   0.444   0.004  0.00  0.00     0.066 A 
ATOM      7  C   UNL d   1      -0.510  -0.885  -0.011  0.00  0.00     0.050 A 
ATOM      8  O   UNL d   1       1.737   1.880   0.029  0.00  0.00    -0.259 OA
ATOM      9  C   UNL d   1      -1.065   1.474   0.010  0.00  0.00     0.020 A 
ATOM     10  C   UNL d   1      -1.871  -1.195  -0.020  0.00  0.00     0.030 A 
ATOM     11  C   UNL d   1      -2.424   1.159   0.002  0.00  0.00     0.001 A 
ATOM     12  C   UNL d   1      -2.827  -0.177  -0.012  0.00  0.00     0.002 A 
ENDROOT
BRANCH   1  13
ATOM     13  C   UNL d   1       2.756  -2.602   0.009  0.00  0.00     0.017 A 
ATOM     14  C   UNL d   1       4.111  -2.249   0.049  0.00  0.00     0.041 A 
ATOM     15  C   UNL d   1       5.096  -3.245   0.066  0.00  0.00     0.056 A 
ATOM     16 CL   UNL d   1       6.747  -2.737   0.132  0.00  0.00    -0.083 Cl
ATOM     17  C   UNL d   1       4.732  -4.597   0.036  0.00  0.00     0.055 A 
ATOM     18  C   UNL d   1       3.382  -4.950  -0.007  0.00  0.00     0.026 A 
ATOM     19 CL   UNL d   1       5.895  -5.873   0.050  0.00  0.00    -0.083 Cl
ATOM     20  C   UNL d   1       2.399  -3.958  -0.019  0.00  0.00     0.017 A 
ENDBRANCH   1  13
TORSDOF 1
