REMARK  8 active torsions:
REMARK  status: ('A' for Active; 'I' for Inactive)
REMARK    1  A    between atoms: C_19  and  C_1 
REMARK    2  A    between atoms: C_2  and  N_6 
REMARK    3  A    between atoms: O_18  and  C_3 
REMARK       I    between atoms: N_6  and  C_10 
REMARK    4  A    between atoms: C_20  and  C_9 
REMARK    5  A    between atoms: C_10  and  C_21 
REMARK    6  A    between atoms: S_17  and  C_20 
REMARK    7  A    between atoms: C_21  and  S_17 
REMARK    8  A    between atoms: O_22  and  C_19 
ROOT
ATOM      1  S   UNL d   1       2.972   3.373  -1.165  0.00  0.00    -0.155 SA
ENDROOT
BRANCH   1   2
ATOM      2  C   UNL d   1       3.883   1.795  -1.042  0.00  0.00     0.115 C 
BRANCH   2   3
ATOM      3  C   UNL d   1       3.193   0.683  -1.799  0.00  0.00    -0.022 A 
ATOM      4  C   UNL d   1       3.584   0.230  -3.082  0.00  0.00     0.009 A 
ATOM      5  C   UNL d   1       2.814  -0.788  -3.677  0.00  0.00     0.096 A 
ATOM      6  C   UNL d   1       1.728  -1.345  -2.989  0.00  0.00     0.039 A 
ATOM      7  C   UNL d   1       0.942  -2.507  -3.525  0.00  0.00     0.071 C 
ATOM      8  N   UNL d   1       1.371  -0.929  -1.754  0.00  0.00    -0.367 N 
ATOM      9  C   UNL d   1       2.092   0.069  -1.202  0.00  0.00     0.096 A 
ATOM     10  HN  UNL d   1       0.586  -1.352  -1.259  1.00  0.00     0.165 HD
BRANCH   4  11
ATOM     11  C   UNL d   1       4.813   0.834  -3.742  0.00  0.00     0.206 C 
BRANCH  11  12
ATOM     12  O   UNL d   1       5.142   0.394  -5.052  0.00  0.00    -0.396 OA
ATOM     13  H   UNL d   1       4.574  -0.377  -5.245  0.00  0.00     0.209 HD
ENDBRANCH  11  12
ENDBRANCH   4  11
BRANCH   5  14
ATOM     14  O   UNL d   1       3.158  -1.217  -4.932  0.00  0.00    -0.358 OA
ATOM     15  H   UNL d   1       2.355  -1.522  -5.390  0.00  0.00     0.217 HD
ENDBRANCH   5  14
ENDBRANCH   2   3
ENDBRANCH   1   2
BRANCH   1  16
ATOM     16  C   UNL d   1       4.072   4.406  -0.143  0.00  0.00     0.177 C 
BRANCH  16  17
ATOM     17  C   UNL d   1       3.736   5.894  -0.186  0.00  0.00     0.231 C 
ATOM     18  N   UNL d   1       2.386   6.199  -0.211  0.00  0.00    -0.326 N 
ATOM     19  H   UNL d   1       1.776   5.465   0.128  0.00  0.00     0.169 HD
ATOM     20  O   UNL d   1       4.638   6.724  -0.083  0.00  0.00    -0.272 OA
BRANCH  18  21
ATOM     21  C   UNL d   1       1.844   7.505  -0.266  0.00  0.00     0.046 A 
ATOM     22  C   UNL d   1       2.221   8.442  -1.252  0.00  0.00    -0.034 A 
ATOM     23  C   UNL d   1       1.532   9.672  -1.327  0.00  0.00     0.015 A 
ATOM     24  C   UNL d   1       3.188   8.180  -2.378  0.00  0.00     0.050 C 
ATOM     25  C   UNL d   1       0.482   9.985  -0.461  0.00  0.00    -0.061 A 
ATOM     26  C   UNL d   1       0.133   9.063   0.523  0.00  0.00     0.015 A 
ATOM     27  C   UNL d   1      -0.266  11.276  -0.623  0.00  0.00     0.048 C 
ATOM     28  C   UNL d   1       0.807   7.832   0.641  0.00  0.00    -0.034 A 
ATOM     29  C   UNL d   1       0.373   6.924   1.763  0.00  0.00     0.050 C 
ENDBRANCH  18  21
ENDBRANCH  16  17
ENDBRANCH   1  16
TORSDOF 8
