REMARK  8 active torsions:
REMARK  status: ('A' for Active; 'I' for Inactive)
REMARK    1  A    between atoms: C_5  and  C_1 
REMARK    2  A    between atoms: C_2  and  C_4 
REMARK    3  A    between atoms: C_3  and  C_8 
REMARK       I    between atoms: N_9  and  C_3 
REMARK    4  A    between atoms: C_7  and  C_6 
REMARK       I    between atoms: N_13  and  C_7 
REMARK    5  A    between atoms: C_8  and  O_14 
REMARK    6  A    between atoms: C_23  and  N_9 
REMARK    7  A    between atoms: O_14  and  N_13 
REMARK    8  A    between atoms: O_29  and  C_24 
ROOT
ATOM      1  C   UNL d   1       0.873  -5.746  -1.484  0.00  0.00     0.275 C 
ATOM      2  N   UNL d   1      -0.325  -6.053  -2.076  0.00  0.00    -0.230 N 
ATOM      3  O   UNL d   1       1.747  -5.059  -2.003  0.00  0.00    -0.265 OA
ATOM      4  H   UNL d   1      -1.171  -6.229  -1.536  0.00  0.00     0.197 HD
ENDROOT
BRANCH   2   5
ATOM      5  O   UNL d   1      -0.566  -5.442  -3.332  0.00  0.00    -0.263 OA
BRANCH   5   6
ATOM      6  C   UNL d   1      -0.909  -6.470  -4.277  0.00  0.00     0.240 C 
ATOM      7  C   UNL d   1      -1.130  -5.783  -5.614  0.00  0.00     0.052 C 
BRANCH   6   8
ATOM      8  C   UNL d   1      -2.172  -7.232  -3.815  0.00  0.00     0.253 C 
ATOM      9  N   UNL d   1      -2.465  -8.398  -4.511  0.00  0.00    -0.325 N 
ATOM     10  H   UNL d   1      -1.782  -8.741  -5.176  0.00  0.00     0.169 HD
ATOM     11  O   UNL d   1      -2.788  -6.846  -2.815  0.00  0.00    -0.270 OA
BRANCH   9  12
ATOM     12  C   UNL d   1      -3.507  -9.293  -4.149  0.00  0.00     0.035 A 
ATOM     13  C   UNL d   1      -4.571  -8.910  -3.328  0.00  0.00     0.032 A 
ATOM     14  C   UNL d   1      -5.510  -9.841  -2.872  0.00  0.00     0.039 A 
ATOM     15  C   UNL d   1      -5.417 -11.173  -3.252  0.00  0.00     0.068 A 
ATOM     16  C   UNL d   1      -4.409 -11.548  -4.143  0.00  0.00     0.039 A 
ATOM     17  C   UNL d   1      -3.460 -10.617  -4.598  0.00  0.00     0.032 A 
BRANCH  15  18
ATOM     18  O   UNL d   1      -6.240 -12.174  -2.817  0.00  0.00    -0.356 OA
ATOM     19  C   UNL d   1      -7.167 -11.830  -1.789  0.00  0.00     0.210 C 
ENDBRANCH  15  18
ENDBRANCH   9  12
ENDBRANCH   6   8
ENDBRANCH   5   6
ENDBRANCH   2   5
BRANCH   1  20
ATOM     20  C   UNL d   1       1.105  -6.332  -0.129  0.00  0.00     0.035 A 
ATOM     21  C   UNL d   1       0.322  -7.368   0.402  0.00  0.00     0.033 A 
ATOM     22  C   UNL d   1       0.633  -7.935   1.653  0.00  0.00     0.049 A 
ATOM     23  C   UNL d   1       1.741  -7.449   2.367  0.00  0.00     0.032 A 
ATOM     24  C   UNL d   1       2.534  -6.412   1.852  0.00  0.00     0.049 A 
ATOM     25  C   UNL d   1       2.208  -5.866   0.601  0.00  0.00     0.033 A 
BRANCH  22  26
ATOM     26  C   UNL d   1      -0.216  -9.063   2.198  0.00  0.00     0.417 C 
ATOM     27  F   UNL d   1       0.210  -9.531   3.403  0.00  0.00    -0.166 F 
ATOM     28  F   UNL d   1      -0.242 -10.137   1.365  0.00  0.00    -0.166 F 
ATOM     29  F   UNL d   1      -1.513  -8.692   2.375  0.00  0.00    -0.166 F 
ENDBRANCH  22  26
BRANCH  24  30
ATOM     30  C   UNL d   1       3.733  -5.884   2.604  0.00  0.00     0.417 C 
ATOM     31  F   UNL d   1       3.891  -6.452   3.832  0.00  0.00    -0.166 F 
ATOM     32  F   UNL d   1       4.900  -6.100   1.939  0.00  0.00    -0.166 F 
ATOM     33  F   UNL d   1       3.661  -4.542   2.819  0.00  0.00    -0.166 F 
ENDBRANCH  24  30
ENDBRANCH   1  20
TORSDOF 8
