REMARK  9 active torsions:
REMARK  status: ('A' for Active; 'I' for Inactive)
REMARK    1  A    between atoms: C_14  and  C_5 
REMARK    2  A    between atoms: S_12  and  C_7 
REMARK    3  A    between atoms: C_13  and  S_12 
REMARK    4  A    between atoms: C_15  and  C_13 
REMARK    5  A    between atoms: C_16  and  C_13 
REMARK    6  A    between atoms: O_20  and  C_14 
REMARK    7  A    between atoms: O_21  and  C_15 
REMARK    8  A    between atoms: C_25  and  O_20 
REMARK    9  A    between atoms: C_26  and  O_21 
ROOT
ATOM      1  C   UNL d   1       1.547  -0.900  -0.050  0.00  0.00     0.161 A 
ATOM      2  N   UNL d   1       0.890   0.314  -0.051  0.00  0.00    -0.221 N 
ATOM      3  N   UNL d   1       0.882  -2.089   0.010  0.00  0.00    -0.333 N 
ATOM      4  HN  UNL d   1       1.379  -2.977  -0.064  1.00  0.00     0.168 HD
ATOM      5  C   UNL d   1       2.881  -0.530  -0.076  0.00  0.00     0.167 A 
ATOM      6  N   UNL d   1       1.743   1.346  -0.166  0.00  0.00    -0.013 NA
ATOM      7  C   UNL d   1      -0.410  -2.050   0.165  0.00  0.00     0.085 A 
ATOM      8  N   UNL d   1       2.970   0.844  -0.172  0.00  0.00    -0.275 N 
ATOM      9  HN  UNL d   1       3.834   1.382  -0.237  1.00  0.00     0.184 HD
ATOM     10  C   UNL d   1      -1.199  -0.776   0.280  0.00  0.00     0.026 A 
ATOM     11  C   UNL d   1      -0.490   0.428   0.130  0.00  0.00     0.069 A 
ATOM     12  C   UNL d   1      -2.571  -0.709   0.537  0.00  0.00     0.016 A 
ATOM     13  C   UNL d   1      -1.119   1.673   0.202  0.00  0.00     0.032 A 
ATOM     14  C   UNL d   1      -3.211   0.534   0.622  0.00  0.00     0.001 A 
ATOM     15  C   UNL d   1      -2.489   1.717   0.448  0.00  0.00     0.002 A 
ENDROOT
BRANCH   7  16
ATOM     16  S   UNL d   1      -1.296  -3.564   0.171  0.00  0.00    -0.088 SA
BRANCH  16  17
ATOM     17  C   UNL d   1       0.045  -4.793   0.436  0.00  0.00     0.222 C 
BRANCH  17  18
ATOM     18  C   UNL d   1       0.436  -4.751   1.899  0.00  0.00     0.280 C 
ATOM     19  O   UNL d   1      -0.239  -5.207   2.814  0.00  0.00    -0.263 OA
BRANCH  18  20
ATOM     20  O   UNL d   1       1.628  -4.116   2.061  0.00  0.00    -0.321 OA
BRANCH  20  21
ATOM     21  C   UNL d   1       2.018  -3.820   3.409  0.00  0.00     0.174 C 
ATOM     22  C   UNL d   1       1.477  -2.455   3.792  0.00  0.00     0.034 C 
ENDBRANCH  20  21
ENDBRANCH  18  20
ENDBRANCH  17  18
BRANCH  17  23
ATOM     23  C   UNL d   1      -0.424  -6.186   0.024  0.00  0.00     0.146 C 
ATOM     24  O   UNL d   1      -1.432  -6.400  -0.656  0.00  0.00    -0.297 OA
ATOM     25  C   UNL d   1       0.459  -7.352   0.402  0.00  0.00     0.092 C 
ENDBRANCH  17  23
ENDBRANCH  16  17
ENDBRANCH   7  16
BRANCH   5  26
ATOM     26  C   UNL d   1       4.049  -1.384   0.055  0.00  0.00     0.315 C 
ATOM     27  O   UNL d   1       4.002  -2.599   0.217  0.00  0.00    -0.257 OA
BRANCH  26  28
ATOM     28  O   UNL d   1       5.203  -0.655   0.061  0.00  0.00    -0.317 OA
BRANCH  28  29
ATOM     29  C   UNL d   1       6.383  -1.343   0.495  0.00  0.00     0.175 C 
ATOM     30  C   UNL d   1       6.488  -1.231   2.004  0.00  0.00     0.034 C 
ENDBRANCH  28  29
ENDBRANCH  26  28
ENDBRANCH   5  26
TORSDOF 9
