REMARK  5 active torsions:
REMARK  status: ('A' for Active; 'I' for Inactive)
REMARK    1  A    between atoms: C_10  and  C_3 
REMARK    2  A    between atoms: C_8  and  C_7 
REMARK    3  A    between atoms: O_19  and  C_9 
REMARK       I    between atoms: C_11  and  N_12 
REMARK    4  A    between atoms: N_12  and  C_18 
REMARK    5  A    between atoms: O_22  and  C_14 
ROOT
ATOM      1  N   UNL d   1       1.621  -0.076   0.394  0.00  0.00    -0.331 N 
ATOM      2  HN  UNL d   1       2.569  -0.452   0.389  1.00  0.00     0.168 HD
ATOM      3  C   UNL d   1       1.240   1.161   0.345  0.00  0.00     0.162 A 
ATOM      4  C   UNL d   1       0.429  -0.751   0.455  0.00  0.00     0.111 A 
ATOM      5  O   UNL d   1      -0.084   1.418   0.451  0.00  0.00    -0.256 OA
ATOM      6  C   UNL d   1      -0.707   0.211   0.563  0.00  0.00     0.316 A 
ATOM      7  C   UNL d   1       0.346  -2.073   0.256  0.00  0.00     0.050 C 
ATOM      8  O   UNL d   1      -1.893   0.019   0.722  0.00  0.00    -0.257 OA
ENDROOT
BRANCH   3   9
ATOM      9  C   UNL d   1       2.101   2.331   0.134  0.00  0.00     0.015 A 
ATOM     10  C   UNL d   1       3.482   2.144  -0.002  0.00  0.00     0.018 A 
ATOM     11  C   UNL d   1       4.312   3.235  -0.286  0.00  0.00     0.030 A 
ATOM     12  C   UNL d   1       3.775   4.519  -0.442  0.00  0.00     0.034 A 
ATOM     13  C   UNL d   1       2.398   4.695  -0.294  0.00  0.00     0.030 A 
ATOM     14  C   UNL d   1       1.562   3.610  -0.009  0.00  0.00     0.018 A 
BRANCH  12  15
ATOM     15  N   UNL d   1       4.669   5.567  -0.755  0.00  0.00    -0.328 N 
ATOM     16  C   UNL d   1       4.349   6.893  -0.976  0.00  0.00     0.218 C 
ATOM     17  O   UNL d   1       3.232   7.399  -0.928  0.00  0.00    -0.274 OA
ATOM     18  C   UNL d   1       5.544   7.752  -1.310  0.00  0.00     0.117 C 
ATOM     19  H   UNL d   1       5.644   5.308  -0.838  0.00  0.00     0.169 HD
ENDBRANCH  12  15
ENDBRANCH   3   9
BRANCH   7  20
ATOM     20  C   UNL d   1      -0.894  -2.817   0.025  0.00  0.00     0.002 A 
ATOM     21  C   UNL d   1      -1.460  -3.068  -1.250  0.00  0.00     0.111 A 
ATOM     22  C   UNL d   1      -2.680  -3.784  -1.311  0.00  0.00     0.102 A 
ATOM     23  C   UNL d   1      -3.285  -4.249  -0.133  0.00  0.00     0.040 A 
ATOM     24  C   UNL d   1      -2.713  -4.016   1.110  0.00  0.00     0.004 A 
ATOM     25  C   UNL d   1      -1.525  -3.299   1.187  0.00  0.00     0.014 A 
BRANCH  21  26
ATOM     26  O   UNL d   1      -0.943  -2.710  -2.463  0.00  0.00    -0.352 OA
ATOM     27  C   UNL d   1       0.260  -1.990  -2.634  0.00  0.00     0.210 C 
ENDBRANCH  21  26
BRANCH  22  28
ATOM     28  O   UNL d   1      -3.420  -4.132  -2.417  0.00  0.00    -0.353 OA
ATOM     29  C   UNL d   1      -3.004  -3.707  -3.705  0.00  0.00     0.210 C 
ENDBRANCH  22  28
ENDBRANCH   7  20
TORSDOF 5
