REMARK  9 active torsions:
REMARK  status: ('A' for Active; 'I' for Inactive)
REMARK    1  A    between atoms: N_12  and  C_1 
REMARK    2  A    between atoms: N_6  and  C_2 
REMARK    3  A    between atoms: N_5  and  C_3 
REMARK    4  A    between atoms: C_4  and  C_7 
REMARK    5  A    between atoms: C_19  and  C_8 
REMARK    6  A    between atoms: C_10  and  C_20 
REMARK    7  A    between atoms: C_11  and  C_13 
REMARK    8  A    between atoms: N_16  and  N_12 
REMARK    9  A    between atoms: O_33  and  C_19 
ROOT
ATOM      1  N   UNL d   1       2.431  -2.893   0.127  0.00  0.00    -0.296 N 
ATOM      2  H   UNL d   1       2.659  -3.791   0.574  0.00  0.00     0.187 HD
ENDROOT
BRANCH   1   3
ATOM      3  C   UNL d   1       1.053  -2.634  -0.065  0.00  0.00     0.114 A 
ATOM      4  C   UNL d   1       0.517  -1.348  -0.296  0.00  0.00     0.134 A 
ATOM      5  C   UNL d   1      -0.815  -1.122  -0.704  0.00  0.00     0.054 A 
ATOM      6  C   UNL d   1      -1.685  -2.196  -0.890  0.00  0.00     0.052 A 
ATOM      7  C   UNL d   1      -1.208  -3.487  -0.623  0.00  0.00     0.054 A 
ATOM      8  C   UNL d   1       0.131  -3.702  -0.211  0.00  0.00     0.134 A 
BRANCH   4   9
ATOM      9  N   UNL d   1       1.278  -0.144  -0.010  0.00  0.00    -0.113 N 
ATOM     10  O   UNL d   1       1.403   0.168   1.182  0.00  0.00    -0.532 OA
ATOM     11  O   UNL d   1       1.605   0.555  -0.983  0.00  0.00    -0.532 OA
ENDBRANCH   4   9
BRANCH   6  12
ATOM     12  C   UNL d   1      -3.110  -1.988  -1.351  0.00  0.00     0.417 C 
ATOM     13  F   UNL d   1      -3.440  -0.678  -1.508  0.00  0.00    -0.166 F 
ATOM     14  F   UNL d   1      -3.355  -2.588  -2.546  0.00  0.00    -0.166 F 
ATOM     15  F   UNL d   1      -4.012  -2.504  -0.474  0.00  0.00    -0.166 F 
ENDBRANCH   6  12
BRANCH   8  16
ATOM     16  N   UNL d   1       0.522  -5.092   0.098  0.00  0.00    -0.113 N 
ATOM     17  O   UNL d   1       1.623  -5.287   0.634  0.00  0.00    -0.532 OA
ATOM     18  O   UNL d   1      -0.289  -5.990  -0.170  0.00  0.00    -0.532 OA
ENDBRANCH   8  16
ENDBRANCH   1   3
BRANCH   1  19
ATOM     19  N   UNL d   1       3.311  -1.876   0.119  0.00  0.00    -0.302 N 
ATOM     20  C   UNL d   1       4.572  -2.100   0.364  0.00  0.00     0.055 C 
ATOM     21  C   UNL d   1       5.168  -3.468   0.584  0.00  0.00     0.072 C 
ATOM     22  HN  UNL d   1       2.991  -0.928  -0.079  1.00  0.00     0.186 HD
BRANCH  20  23
ATOM     23  C   UNL d   1       5.435  -0.945   0.420  0.00  0.00     0.099 A 
ATOM     24  O   UNL d   1       6.569  -0.982   1.180  0.00  0.00    -0.308 OA
ATOM     25  C   UNL d   1       7.152   0.253   1.134  0.00  0.00     0.088 A 
ATOM     26  C   UNL d   1       6.402   1.069   0.305  0.00  0.00     0.041 A 
ATOM     27  C   UNL d   1       5.296   0.309  -0.136  0.00  0.00     0.042 A 
BRANCH  25  28
ATOM     28  C   UNL d   1       8.375   0.673   1.896  0.00  0.00     0.021 A 
ATOM     29  C   UNL d   1       9.112  -0.138   2.748  0.00  0.00     0.093 A 
ATOM     30  S   UNL d   1      10.405   0.755   3.473  0.00  0.00    -0.095 SA
ATOM     31  C   UNL d   1       9.978   2.192   2.672  0.00  0.00     0.051 A 
ATOM     32  C   UNL d   1       8.886   2.014   1.857  0.00  0.00     0.023 A 
BRANCH  29  33
ATOM     33  C   UNL d   1       8.980  -1.552   3.063  0.00  0.00     0.300 C 
ATOM     34  O   UNL d   1       8.562  -2.432   2.317  0.00  0.00    -0.259 OA
BRANCH  33  35
ATOM     35  O   UNL d   1       9.407  -1.797   4.342  0.00  0.00    -0.322 OA
ATOM     36  C   UNL d   1       9.360  -3.165   4.743  0.00  0.00     0.213 C 
ENDBRANCH  33  35
ENDBRANCH  29  33
ENDBRANCH  25  28
ENDBRANCH  20  23
ENDBRANCH   1  19
TORSDOF 9
