REMARK  6 active torsions:
REMARK  status: ('A' for Active; 'I' for Inactive)
REMARK    1  A    between atoms: S_2  and  C_1 
REMARK    2  A    between atoms: N_8  and  S_2 
REMARK    3  A    between atoms: S_3  and  C_9 
REMARK    4  A    between atoms: N_15  and  S_3 
REMARK    5  A    between atoms: C_20  and  N_8 
REMARK    6  A    between atoms: C_22  and  C_20 
ROOT
ATOM      1  N   UNL d   1       4.653  -0.718   1.420  0.00  0.00    -0.211 NA
ATOM      2  H   UNL d   1       5.634  -0.998   1.451  0.00  0.00     0.140 HD
ENDROOT
BRANCH   1   3
ATOM      3  S   UNL d   1       4.314   0.095  -0.012  0.00  0.00     0.248 S 
ATOM      4  O   UNL d   1       3.105   0.869   0.168  0.00  0.00    -0.205 OA
ATOM      5  O   UNL d   1       4.475  -0.851  -1.092  0.00  0.00    -0.205 OA
BRANCH   3   6
ATOM      6  C   UNL d   1       5.586   1.308  -0.322  0.00  0.00     0.122 A 
ATOM      7  S   UNL d   1       6.897   1.313   0.764  0.00  0.00    -0.076 SA
ATOM      8  C   UNL d   1       7.650   2.639  -0.013  0.00  0.00     0.017 A 
ATOM      9  C   UNL d   1       8.839   3.278   0.388  0.00  0.00     0.021 A 
ATOM     10  C   UNL d   1       6.936   3.041  -1.144  0.00  0.00    -0.009 A 
ATOM     11  C   UNL d   1       9.323   4.341  -0.375  0.00  0.00     0.025 A 
ATOM     12  C   UNL d   1       8.642   4.749  -1.512  0.00  0.00     0.035 A 
ATOM     13  C   UNL d   1       7.462   4.115  -1.907  0.00  0.00     0.037 A 
ATOM     14 CL   UNL d   1       9.255   6.057  -2.447  0.00  0.00    -0.084 Cl
ATOM     15  C   UNL d   1       5.736   2.253  -1.327  0.00  0.00    -0.021 A 
ATOM     16  C   UNL d   1       4.771   2.446  -2.455  0.00  0.00     0.051 C 
ENDBRANCH   3   6
ENDBRANCH   1   3
BRANCH   1  17
ATOM     17  C   UNL d   1       4.195  -0.067   2.655  0.00  0.00     0.143 C 
BRANCH  17  18
ATOM     18  C   UNL d   1       4.689  -0.827   3.863  0.00  0.00    -0.044 A 
ATOM     19  C   UNL d   1       5.498  -0.205   4.824  0.00  0.00     0.010 A 
ATOM     20  C   UNL d   1       5.972  -0.928   5.919  0.00  0.00     0.025 A 
ATOM     21  C   UNL d   1       5.631  -2.277   6.056  0.00  0.00     0.074 A 
ATOM     22  C   UNL d   1       4.825  -2.911   5.109  0.00  0.00     0.025 A 
ATOM     23  C   UNL d   1       4.351  -2.182   4.019  0.00  0.00     0.010 A 
BRANCH  21  24
ATOM     24  S   UNL d   1       6.269  -3.203   7.417  0.00  0.00     0.239 S 
ATOM     25  O   UNL d   1       6.235  -4.612   7.095  0.00  0.00    -0.206 OA
ATOM     26  O   UNL d   1       7.454  -2.551   7.920  0.00  0.00    -0.206 OA
BRANCH  24  27
ATOM     27  N   UNL d   1       5.077  -2.960   8.573  0.00  0.00    -0.225 NA
ATOM     28  H   UNL d   1       4.638  -3.849   8.813  0.00  0.00     0.136 HD
ATOM     29  H   UNL d   1       5.462  -2.453   9.370  0.00  0.00     0.136 HD
ENDBRANCH  24  27
ENDBRANCH  21  24
ENDBRANCH  17  18
ENDBRANCH   1  17
TORSDOF 6
