REMARK  6 active torsions:
REMARK  status: ('A' for Active; 'I' for Inactive)
REMARK    1  A    between atoms: C_12  and  N_1 
REMARK    2  A    between atoms: S_9  and  C_2 
REMARK    3  A    between atoms: C_15  and  C_7 
REMARK    4  A    between atoms: C_18  and  C_12 
REMARK    5  A    between atoms: C_14  and  O_17 
REMARK    6  A    between atoms: O_17  and  C_18 
ROOT
ATOM      1  N   UNL d   1       0.114  -1.426   0.135  0.00  0.00    -0.291 N 
ATOM      2  C   UNL d   1       1.386  -0.948   0.094  0.00  0.00     0.149 A 
ATOM      3  C   UNL d   1       0.237   0.816   0.021  0.00  0.00     0.104 A 
ATOM      4  N   UNL d   1       1.529   0.339   0.017  0.00  0.00    -0.332 N 
ATOM      5  HN  UNL d   1       2.396   0.874  -0.033  1.00  0.00     0.168 HD
ATOM      6  C   UNL d   1      -0.707  -0.334   0.065  0.00  0.00     0.276 A 
ATOM      7  C   UNL d   1      -0.112   2.110   0.006  0.00  0.00     0.048 C 
ATOM      8  O   UNL d   1      -1.921  -0.282   0.029  0.00  0.00    -0.265 OA
ENDROOT
BRANCH   1   9
ATOM      9  C   UNL d   1      -0.353  -2.818   0.247  0.00  0.00     0.161 C 
BRANCH   9  10
ATOM     10  C   UNL d   1      -1.875  -2.971   0.151  0.00  0.00     0.196 C 
BRANCH  10  11
ATOM     11  O   UNL d   1      -2.318  -4.322   0.282  0.00  0.00    -0.348 OA
BRANCH  11  12
ATOM     12  C   UNL d   1      -3.695  -4.439   0.329  0.00  0.00     0.090 A 
ATOM     13  C   UNL d   1      -4.241  -5.550   0.986  0.00  0.00     0.067 A 
ATOM     14 CL   UNL d   1      -3.235  -6.732   1.747  0.00  0.00    -0.081 Cl
ATOM     15  C   UNL d   1      -5.630  -5.717   1.068  0.00  0.00     0.026 A 
ATOM     16  C   UNL d   1      -6.487  -4.783   0.486  0.00  0.00     0.002 A 
ATOM     17  C   UNL d   1      -5.958  -3.684  -0.181  0.00  0.00     0.003 A 
ATOM     18  C   UNL d   1      -4.574  -3.515  -0.263  0.00  0.00     0.038 A 
ENDBRANCH  11  12
ENDBRANCH  10  11
ENDBRANCH   9  10
ENDBRANCH   1   9
BRANCH   2  19
ATOM     19  S   UNL d   1       2.719  -2.053   0.143  0.00  0.00    -0.098 SA
ATOM     20  C   UNL d   1       4.103  -0.907  -0.046  0.00  0.00     0.099 C 
ENDBRANCH   2  19
BRANCH   7  21
ATOM     21  C   UNL d   1      -1.498   2.582   0.061  0.00  0.00    -0.018 A 
ATOM     22  C   UNL d   1      -2.227   2.836  -1.098  0.00  0.00     0.099 A 
ATOM     23  N   UNL d   1      -3.531   3.203  -1.113  0.00  0.00    -0.374 N 
ATOM     24  C   UNL d   1      -4.144   3.299   0.086  0.00  0.00     0.087 A 
ATOM     25  HN  UNL d   1      -4.023   3.397  -1.985  1.00  0.00     0.164 HD
ATOM     26  C   UNL d   1      -3.510   3.068   1.297  0.00  0.00     0.018 A 
ATOM     27  C   UNL d   1      -2.164   2.710   1.281  0.00  0.00     0.014 A 
ENDBRANCH   7  21
TORSDOF 6
