REMARK  4 active torsions:
REMARK  status: ('A' for Active; 'I' for Inactive)
REMARK    1  A    between atoms: C_2  and  C_1 
REMARK    2  A    between atoms: C_12  and  N_3 
REMARK    3  A    between atoms: C_14  and  C_4 
REMARK    4  A    between atoms: C_18  and  N_5 
ROOT
ATOM      1  C   UNL d   1      -0.261   1.233   0.029  0.00  0.00     0.057 A 
ATOM      2  N   UNL d   1       1.028  -0.568  -0.058  0.00  0.00    -0.253 N 
ATOM      3  C   UNL d   1       1.071   0.844  -0.067  0.00  0.00     0.082 A 
ATOM      4  N   UNL d   1      -0.246  -1.029   0.041  0.00  0.00    -0.303 N 
ATOM      5  HN  UNL d   1      -0.549  -2.002   0.078  1.00  0.00     0.186 HD
ATOM      6  C   UNL d   1      -1.008   0.050   0.078  0.00  0.00     0.125 A 
ENDROOT
BRANCH   1   7
ATOM      7  C   UNL d   1      -0.820   2.613   0.031  0.00  0.00     0.152 C 
ATOM      8  N   UNL d   1      -1.987   3.046   0.639  0.00  0.00    -0.224 N 
ATOM      9  N   UNL d   1      -2.308   4.252   0.115  0.00  0.00     0.001 NA
ATOM     10  N   UNL d   1      -1.258   4.621  -0.603  0.00  0.00    -0.007 NA
ATOM     11  N   UNL d   1      -0.315   3.626  -0.646  0.00  0.00    -0.269 N 
ATOM     12  HN  UNL d   1       0.594   3.662  -1.108  1.00  0.00     0.185 HD
BRANCH   8  13
ATOM     13  C   UNL d   1      -2.707   2.494   1.725  0.00  0.00     0.056 A 
ATOM     14  C   UNL d   1      -2.067   1.668   2.664  0.00  0.00     0.031 A 
ATOM     15  C   UNL d   1      -2.789   1.120   3.722  0.00  0.00     0.002 A 
ATOM     16  C   UNL d   1      -4.148   1.397   3.855  0.00  0.00     0.000 A 
ATOM     17  C   UNL d   1      -4.781   2.241   2.941  0.00  0.00     0.002 A 
ATOM     18  C   UNL d   1      -4.062   2.805   1.886  0.00  0.00     0.031 A 
ENDBRANCH   8  13
ENDBRANCH   1   7
BRANCH   3  19
ATOM     19  C   UNL d   1       2.289   1.677  -0.135  0.00  0.00    -0.005 A 
ATOM     20  C   UNL d   1       3.368   1.351  -0.969  0.00  0.00     0.037 A 
ATOM     21  C   UNL d   1       4.550   2.095  -0.920  0.00  0.00     0.035 A 
ATOM     22 CL   UNL d   1       5.915   1.582  -1.835  0.00  0.00    -0.084 Cl
ATOM     23  C   UNL d   1       4.650   3.221  -0.109  0.00  0.00     0.024 A 
ATOM     24  C   UNL d   1       3.566   3.596   0.675  0.00  0.00     0.003 A 
ATOM     25  C   UNL d   1       2.406   2.818   0.678  0.00  0.00     0.014 A 
ENDBRANCH   3  19
BRANCH   2  26
ATOM     26  C   UNL d   1       2.094  -1.512  -0.018  0.00  0.00     0.078 A 
ATOM     27  C   UNL d   1       2.033  -2.729  -0.726  0.00  0.00     0.064 A 
ATOM     28  C   UNL d   1       3.136  -3.594  -0.725  0.00  0.00     0.050 A 
ATOM     29 CL   UNL d   1       0.719  -3.209  -1.749  0.00  0.00    -0.082 Cl
ATOM     30  C   UNL d   1       4.291  -3.256  -0.024  0.00  0.00     0.035 A 
ATOM     31  C   UNL d   1       4.345  -2.082   0.718  0.00  0.00     0.026 A 
ATOM     32 CL   UNL d   1       5.664  -4.288  -0.089  0.00  0.00    -0.084 Cl
ATOM     33  C   UNL d   1       3.243  -1.222   0.738  0.00  0.00     0.035 A 
ENDBRANCH   2  26
TORSDOF 4
