REMARK  9 active torsions:
REMARK  status: ('A' for Active; 'I' for Inactive)
REMARK    1  A    between atoms: C_2  and  C_1 
REMARK    2  A    between atoms: C_3  and  C_1 
REMARK    3  A    between atoms: C_26  and  C_1 
REMARK       I    between atoms: N_8  and  C_2 
REMARK       I    between atoms: N_9  and  C_3 
REMARK    4  A    between atoms: N_4  and  N_8 
REMARK    5  A    between atoms: N_6  and  N_9 
REMARK    6  A    between atoms: C_14  and  C_12 
REMARK    7  A    between atoms: C_15  and  C_13 
REMARK    8  A    between atoms: C_29  and  C_26 
REMARK    9  A    between atoms: C_30  and  C_29 
ROOT
ATOM      1  C   UNL d   1       0.868  -0.109   0.033  0.00  0.00     0.173 C 
ENDROOT
BRANCH   1   2
ATOM      2  C   UNL d   1       0.212  -1.472   0.142  0.00  0.00     0.249 C 
ATOM      3  N   UNL d   1      -0.085  -2.042  -1.091  0.00  0.00    -0.270 N 
ATOM      4  H   UNL d   1       0.113  -1.555  -1.960  0.00  0.00     0.190 HD
ATOM      5  O   UNL d   1       0.008  -2.009   1.232  0.00  0.00    -0.271 OA
BRANCH   3   6
ATOM      6  N   UNL d   1      -0.702  -3.252  -1.131  0.00  0.00    -0.308 N 
ATOM      7  C   UNL d   1      -0.921  -3.754  -2.304  0.00  0.00     0.118 C 
ATOM      8  HN  UNL d   1      -0.978  -3.741  -0.280  1.00  0.00     0.186 HD
BRANCH   7   9
ATOM      9  C   UNL d   1      -1.627  -5.045  -2.453  0.00  0.00    -0.019 A 
ATOM     10  C   UNL d   1      -2.094  -5.721  -1.323  0.00  0.00     0.013 A 
ATOM     11  C   UNL d   1      -2.792  -6.919  -1.466  0.00  0.00     0.007 A 
ATOM     12  C   UNL d   1      -3.029  -7.454  -2.739  0.00  0.00    -0.062 A 
ATOM     13  C   UNL d   1      -2.547  -6.776  -3.867  0.00  0.00     0.007 A 
ATOM     14  C   UNL d   1      -3.800  -8.735  -2.870  0.00  0.00     0.048 C 
ATOM     15  C   UNL d   1      -1.846  -5.573  -3.728  0.00  0.00     0.013 A 
ENDBRANCH   7   9
ENDBRANCH   3   6
ENDBRANCH   1   2
BRANCH   1  16
ATOM     16  C   UNL d   1       0.494   0.865   1.142  0.00  0.00     0.249 C 
ATOM     17  N   UNL d   1       0.241   0.328   2.395  0.00  0.00    -0.270 N 
ATOM     18  H   UNL d   1       0.120  -0.683   2.503  0.00  0.00     0.190 HD
ATOM     19  O   UNL d   1       0.510   2.077   0.903  0.00  0.00    -0.271 OA
BRANCH  17  20
ATOM     20  N   UNL d   1      -0.120   1.169   3.404  0.00  0.00    -0.308 N 
ATOM     21  C   UNL d   1      -0.471   0.640   4.529  0.00  0.00     0.118 C 
ATOM     22  HN  UNL d   1      -0.113   2.181   3.276  1.00  0.00     0.186 HD
BRANCH  21  23
ATOM     23  C   UNL d   1      -0.910   1.501   5.655  0.00  0.00    -0.019 A 
ATOM     24  C   UNL d   1      -0.975   2.888   5.486  0.00  0.00     0.013 A 
ATOM     25  C   UNL d   1      -1.414   3.704   6.529  0.00  0.00     0.007 A 
ATOM     26  C   UNL d   1      -1.793   3.144   7.755  0.00  0.00    -0.062 A 
ATOM     27  C   UNL d   1      -1.717   1.754   7.922  0.00  0.00     0.007 A 
ATOM     28  C   UNL d   1      -2.280   4.041   8.856  0.00  0.00     0.048 C 
ATOM     29  C   UNL d   1      -1.277   0.932   6.876  0.00  0.00     0.013 A 
ENDBRANCH  21  23
ENDBRANCH  17  20
ENDBRANCH   1  16
BRANCH   1  30
ATOM     30  C   UNL d   1       2.400  -0.232  -0.036  0.00  0.00     0.024 C 
BRANCH  30  31
ATOM     31  C   UNL d   1       2.912  -0.757  -1.384  0.00  0.00     0.001 C 
BRANCH  31  32
ATOM     32  C   UNL d   1       4.441  -0.743  -1.439  0.00  0.00    -0.005 C 
ATOM     33  C   UNL d   1       4.964  -1.288  -2.759  0.00  0.00     0.005 C 
ENDBRANCH  31  32
ENDBRANCH  30  31
ENDBRANCH   1  30
TORSDOF 9
