REMARK  3 active torsions:
REMARK  status: ('A' for Active; 'I' for Inactive)
REMARK    1  A    between atoms: N_14  and  C_11 
REMARK    2  A    between atoms: C_15  and  N_14 
REMARK    3  A    between atoms: C_16  and  C_15 
ROOT
ATOM      1  C   UNL d   1      -0.796   1.216   0.007  0.00  0.00     0.086 A 
ATOM      2  C   UNL d   1      -1.492   0.001   0.022  0.00  0.00     0.075 A 
ATOM      3  N   UNL d   1      -1.525   2.351   0.021  0.00  0.00    -0.295 N 
ATOM      4  HN  UNL d   1      -1.051   3.253  -0.018  1.00  0.00     0.187 HD
ATOM      5  N   UNL d   1      -2.845  -0.028   0.069  0.00  0.00    -0.329 N 
ATOM      6  HN  UNL d   1      -3.344  -0.918   0.060  1.00  0.00     0.168 HD
ATOM      7  C   UNL d   1      -0.771  -1.206   0.001  0.00  0.00     0.004 A 
ATOM      8  C   UNL d   1       0.612   1.236  -0.014  0.00  0.00     0.005 A 
ATOM      9  C   UNL d   1       0.647  -1.217  -0.017  0.00  0.00    -0.012 A 
ATOM     10  C   UNL d   1       1.352   0.028  -0.021  0.00  0.00    -0.012 A 
ATOM     11  C   UNL d   1      -3.515   1.123   0.125  0.00  0.00     0.172 A 
ATOM     12  N   UNL d   1      -2.893   2.308   0.087  0.00  0.00    -0.275 N 
ATOM     13  HN  UNL d   1      -3.434   3.173   0.108  1.00  0.00     0.189 HD
ATOM     14  C   UNL d   1      -1.462  -2.442   0.005  0.00  0.00     0.014 A 
ATOM     15  C   UNL d   1       1.312   2.466  -0.019  0.00  0.00     0.014 A 
ATOM     16  C   UNL d   1       1.290  -2.484  -0.026  0.00  0.00     0.013 A 
ATOM     17  C   UNL d   1       2.769   0.128  -0.027  0.00  0.00     0.013 A 
ATOM     18  C   UNL d   1       3.435   1.354  -0.027  0.00  0.00     0.001 A 
ATOM     19  C   UNL d   1       2.705   2.528  -0.025  0.00  0.00     0.001 A 
ATOM     20  C   UNL d   1       0.581  -3.687  -0.021  0.00  0.00     0.001 A 
ATOM     21  C   UNL d   1      -0.800  -3.666  -0.007  0.00  0.00     0.001 A 
ENDROOT
BRANCH  11  22
ATOM     22  N   UNL d   1      -4.887   1.004   0.258  0.00  0.00    -0.259 NA
ATOM     23  H   UNL d   1      -5.148   0.073  -0.045  0.00  0.00     0.130 HD
BRANCH  22  24
ATOM     24  C   UNL d   1      -5.685   2.082  -0.282  0.00  0.00     0.134 C 
BRANCH  24  25
ATOM     25  C   UNL d   1      -7.152   1.731  -0.131  0.00  0.00    -0.045 A 
ATOM     26  C   UNL d   1      -7.705   1.526   1.144  0.00  0.00     0.008 A 
ATOM     27  C   UNL d   1      -9.054   1.196   1.292  0.00  0.00     0.001 A 
ATOM     28  C   UNL d   1      -9.867   1.073   0.168  0.00  0.00     0.000 A 
ATOM     29  C   UNL d   1      -9.333   1.278  -1.103  0.00  0.00     0.001 A 
ATOM     30  C   UNL d   1      -7.983   1.604  -1.254  0.00  0.00     0.008 A 
ENDBRANCH  24  25
ENDBRANCH  22  24
ENDBRANCH  11  22
TORSDOF 3
