REMARK  4 active torsions:
REMARK  status: ('A' for Active; 'I' for Inactive)
REMARK    1  A    between atoms: N_8  and  C_2 
REMARK       I    between atoms: C_12  and  N_8 
REMARK    2  A    between atoms: C_18  and  N_11 
REMARK    3  A    between atoms: C_15  and  C_12 
REMARK    4  A    between atoms: N_13  and  C_15 
ROOT
ATOM      1  N   UNL d   1       4.262  -1.485  -0.046  0.00  0.00    -0.319 N 
ATOM      2  C   UNL d   1       4.156  -2.864  -0.063  0.00  0.00     0.251 C 
ATOM      3  O   UNL d   1       5.077  -3.634  -0.346  0.00  0.00    -0.271 OA
ATOM      4  H   UNL d   1       3.393  -0.999  -0.243  0.00  0.00     0.169 HD
ENDROOT
BRANCH   1   5
ATOM      5  C   UNL d   1       5.452  -0.856  -0.352  0.00  0.00     0.093 A 
ATOM      6  C   UNL d   1       6.763  -1.007   0.061  0.00  0.00     0.085 A 
ATOM      7  C   UNL d   1       7.639  -0.125  -0.663  0.00  0.00     0.003 A 
ATOM      8  C   UNL d   1       7.271  -1.850   1.138  0.00  0.00     0.302 A 
ATOM      9  C   UNL d   1       6.957   0.689  -1.542  0.00  0.00     0.065 A 
ATOM     10  C   UNL d   1       9.067  -0.085  -0.399  0.00  0.00     0.010 A 
ATOM     11  S   UNL d   1       5.263   0.440  -1.446  0.00  0.00    -0.082 SA
ATOM     12  C   UNL d   1       9.974   0.751  -1.056  0.00  0.00     0.015 A 
ATOM     13  C   UNL d   1       9.544  -0.935   0.607  0.00  0.00     0.090 A 
ATOM     14  C   UNL d   1      11.331   0.740  -0.695  0.00  0.00     0.001 A 
ATOM     15  C   UNL d   1      11.785  -0.106   0.317  0.00  0.00     0.003 A 
ATOM     16  C   UNL d   1      10.892  -0.950   0.974  0.00  0.00     0.038 A 
ATOM     17  O   UNL d   1       8.675  -1.803   1.326  0.00  0.00    -0.274 OA
ATOM     18  O   UNL d   1       6.568  -2.491   1.913  0.00  0.00    -0.259 OA
ENDBRANCH   1   5
BRANCH   2  19
ATOM     19  C   UNL d   1       2.758  -3.415   0.307  0.00  0.00     0.375 C 
BRANCH  19  20
ATOM     20  N   UNL d   1       1.672  -2.421   0.166  0.00  0.00     0.099 N 
ATOM     21  C   UNL d   1       1.197  -2.203  -1.222  0.00  0.00     0.287 C 
ATOM     22  C   UNL d   1      -0.254  -2.601  -1.640  0.00  0.00     0.126 C 
ATOM     23  N   UNL d   1      -1.194  -2.425  -0.521  0.00  0.00    -0.280 NA
ATOM     24  C   UNL d   1      -0.758  -3.209   0.641  0.00  0.00     0.126 C 
ATOM     25  C   UNL d   1       0.579  -2.618   1.148  0.00  0.00     0.287 C 
BRANCH  23  26
ATOM     26  C   UNL d   1      -2.542  -2.519  -0.891  0.00  0.00     0.010 A 
ATOM     27  C   UNL d   1      -3.197  -1.352  -1.318  0.00  0.00     0.024 A 
ATOM     28  C   UNL d   1      -4.549  -1.362  -1.678  0.00  0.00     0.002 A 
ATOM     29  C   UNL d   1      -5.271  -2.550  -1.629  0.00  0.00     0.000 A 
ATOM     30  C   UNL d   1      -4.639  -3.722  -1.219  0.00  0.00     0.002 A 
ATOM     31  C   UNL d   1      -3.286  -3.704  -0.850  0.00  0.00     0.024 A 
ENDBRANCH  23  26
ENDBRANCH  19  20
ENDBRANCH   2  19
TORSDOF 4
