REMARK  3 active torsions:
REMARK  status: ('A' for Active; 'I' for Inactive)
REMARK    1  A    between atoms: O_7  and  C_1 
REMARK    2  A    between atoms: N_2  and  C_3 
REMARK       I    between atoms: C_6  and  N_2 
REMARK    3  A    between atoms: C_8  and  O_7 
ROOT
ATOM      1  C   UNL d   1       1.644  -3.798   3.185  0.00  0.00     0.052 A 
ATOM      2  C   UNL d   1       2.584  -3.031   2.468  0.00  0.00     0.040 A 
ATOM      3  C   UNL d   1       2.206  -1.869   1.774  0.00  0.00     0.058 A 
ATOM      4  C   UNL d   1       0.871  -1.475   1.762  0.00  0.00     0.079 A 
ATOM      5  C   UNL d   1       0.322  -3.361   3.200  0.00  0.00     0.034 A 
ATOM      6 BR   UNL d   1       4.418  -3.541   2.399  0.00  0.00    -0.049 Br
ATOM      7  C   UNL d   1      -0.057  -2.210   2.499  0.00  0.00     0.039 A 
ENDROOT
BRANCH   1   8
ATOM      8  N   UNL d   1       2.069  -4.970   3.860  0.00  0.00    -0.326 N 
ATOM      9  C   UNL d   1       1.295  -5.854   4.587  0.00  0.00     0.218 C 
ATOM     10  O   UNL d   1       0.082  -5.790   4.766  0.00  0.00    -0.274 OA
ATOM     11  C   UNL d   1       2.082  -6.995   5.180  0.00  0.00     0.117 C 
ATOM     12  H   UNL d   1       3.060  -5.179   3.769  0.00  0.00     0.169 HD
ENDBRANCH   1   8
BRANCH   4  13
ATOM     13  O   UNL d   1       0.334  -0.404   1.117  0.00  0.00    -0.255 OA
BRANCH  13  14
ATOM     14  C   UNL d   1       0.986   0.143  -0.015  0.00  0.00     0.530 C 
ATOM     15  F   UNL d   1       1.819  -0.727  -0.629  0.00  0.00    -0.144 F 
ATOM     16  F   UNL d   1       1.682   1.242   0.345  0.00  0.00    -0.144 F 
ATOM     17  F   UNL d   1       0.043   0.511  -0.912  0.00  0.00    -0.144 F 
ENDBRANCH  13  14
ENDBRANCH   4  13
TORSDOF 3
