REMARK  14 active torsions:
REMARK  status: ('A' for Active; 'I' for Inactive)
REMARK    1  A    between atoms: O_29  and  C_7 
REMARK    2  A    between atoms: N_26  and  C_8 
REMARK    3  A    between atoms: C_11  and  C_17 
REMARK       I    between atoms: N_14  and  C_11 
REMARK    4  A    between atoms: C_21  and  N_14 
REMARK    5  A    between atoms: C_16  and  C_15 
REMARK    6  A    between atoms: C_21  and  C_15 
REMARK    7  A    between atoms: O_33  and  C_16 
REMARK    8  A    between atoms: C_30  and  C_18 
REMARK    9  A    between atoms: C_19  and  C_32 
REMARK   10  A    between atoms: O_34  and  C_19 
REMARK   11  A    between atoms: C_37  and  C_21 
REMARK   12  A    between atoms: N_22  and  C_30 
REMARK   13  A    between atoms: C_31  and  N_22 
REMARK   14  A    between atoms: C_32  and  C_37 
ROOT
ATOM      1  C   UNL d   1     -12.077   0.249  -0.045  0.00  0.00     0.032 C 
ATOM      2  C   UNL d   1     -12.405   0.829   1.185  0.00  0.00     0.019 C 
ATOM      3  C   UNL d   1     -12.899  -0.757  -0.556  0.00  0.00     0.019 C 
ATOM      4  C   UNL d   1     -14.162  -0.826   1.531  0.00  0.00     0.008 C 
ATOM      5  C   UNL d   1     -13.942  -1.271   0.220  0.00  0.00     0.024 C 
ATOM      6  C   UNL d   1     -13.450   0.301   1.959  0.00  0.00     0.024 C 
ENDROOT
BRANCH   4   7
ATOM      7  N   UNL d   1     -15.121  -1.411   2.376  0.00  0.00    -0.287 NA
ATOM      8  H   UNL d   1     -14.932  -1.208   3.358  0.00  0.00     0.128 HD
BRANCH   7   9
ATOM      9  C   UNL d   1     -15.341  -2.850   2.178  0.00  0.00     0.151 C 
BRANCH   9  10
ATOM     10  C   UNL d   1     -15.824  -3.550   3.431  0.00  0.00     0.038 A 
ATOM     11  N   UNL d   1     -15.419  -3.118   4.652  0.00  0.00    -0.351 N 
ATOM     12  C   UNL d   1     -15.831  -3.883   5.713  0.00  0.00     0.128 A 
ATOM     13  HN  UNL d   1     -14.848  -2.281   4.773  1.00  0.00     0.166 HD
ATOM     14  C   UNL d   1     -15.504  -3.594   7.019  0.00  0.00     0.173 A 
ATOM     15  C   UNL d   1     -16.604  -5.042   5.594  0.00  0.00     0.139 A 
ATOM     16  N   UNL d   1     -15.880  -4.293   8.098  0.00  0.00    -0.311 N 
ATOM     17  C   UNL d   1     -16.643  -5.351   7.852  0.00  0.00     0.158 A 
ATOM     18  HN  UNL d   1     -15.600  -4.031   9.043  1.00  0.00     0.170 HD
ATOM     19  N   UNL d   1     -16.996  -5.767   6.639  0.00  0.00    -0.317 N 
ATOM     20  HN  UNL d   1     -17.550  -6.614   6.513  1.00  0.00     0.170 HD
ATOM     21  N   UNL d   1     -16.960  -5.456   4.374  0.00  0.00    -0.348 N 
ATOM     22  C   UNL d   1     -16.567  -4.715   3.311  0.00  0.00     0.116 A 
ATOM     23  HN  UNL d   1     -17.512  -6.304   4.248  1.00  0.00     0.167 HD
BRANCH  14  24
ATOM     24  O   UNL d   1     -14.710  -2.501   7.283  0.00  0.00    -0.344 OA
ATOM     25  H   UNL d   1     -14.521  -2.110   6.410  0.00  0.00     0.219 HD
ENDBRANCH  14  24
BRANCH  17  26
ATOM     26  N   UNL d   1     -17.074  -6.093   8.930  0.00  0.00    -0.274 NA
ATOM     27  H   UNL d   1     -17.279  -7.043   8.657  0.00  0.00     0.127 HD
ATOM     28  H   UNL d   1     -16.468  -5.951   9.726  0.00  0.00     0.127 HD
ENDBRANCH  17  26
ENDBRANCH   9  10
ENDBRANCH   7   9
ENDBRANCH   4   7
BRANCH   1  29
ATOM     29  C   UNL d   1     -10.851   0.701  -0.765  0.00  0.00     0.252 C 
ATOM     30  N   UNL d   1     -10.269  -0.222  -1.619  0.00  0.00    -0.352 N 
ATOM     31  H   UNL d   1     -10.562  -1.192  -1.549  0.00  0.00     0.163 HD
ATOM     32  O   UNL d   1     -10.375   1.810  -0.550  0.00  0.00    -0.268 OA
BRANCH  30  33
ATOM     33  C   UNL d   1      -8.995   0.020  -2.302  0.00  0.00     0.095 C 
BRANCH  33  34
ATOM     34  C   UNL d   1      -7.826  -0.511  -1.439  0.00  0.00     0.036 C 
BRANCH  34  35
ATOM     35  C   UNL d   1      -6.449  -0.479  -2.096  0.00  0.00     0.112 C 
BRANCH  35  36
ATOM     36  C   UNL d   1      -6.032   0.903  -2.525  0.00  0.00     0.139 C 
ATOM     37  O   UNL d   1      -5.947   1.242  -3.694  0.00  0.00    -0.650 OA
BRANCH  36  38
ATOM     38  O   UNL d   1      -5.767   1.736  -1.499  0.00  0.00    -0.776 OA
ATOM     39  H   UNL d   1      -5.898   1.347  -0.613  0.00  0.00     0.167 HD
ENDBRANCH  36  38
ENDBRANCH  35  36
ENDBRANCH  34  35
ENDBRANCH  33  34
BRANCH  33  40
ATOM     40  C   UNL d   1      -9.054  -0.488  -3.750  0.00  0.00     0.135 C 
BRANCH  40  41
ATOM     41  C   UNL d   1      -9.129  -1.990  -3.889  0.00  0.00     0.141 C 
ATOM     42  O   UNL d   1      -9.220  -2.780  -2.965  0.00  0.00    -0.650 OA
BRANCH  41  43
ATOM     43  O   UNL d   1      -9.114  -2.388  -5.182  0.00  0.00    -0.776 OA
ATOM     44  H   UNL d   1      -9.051  -1.655  -5.826  0.00  0.00     0.167 HD
ENDBRANCH  41  43
ENDBRANCH  40  41
ENDBRANCH  33  40
ENDBRANCH  30  33
ENDBRANCH   1  29
TORSDOF 14
