REMARK  4 active torsions:
REMARK  status: ('A' for Active; 'I' for Inactive)
REMARK    1  A    between atoms: C_7  and  N_1 
REMARK    2  A    between atoms: O_8  and  C_2 
REMARK    3  A    between atoms: C_9  and  C_6 
REMARK    4  A    between atoms: O_10  and  C_9 
ROOT
ATOM      1  N   UNL d   1       0.861  -0.730   0.049  0.00  0.00    -0.234 N 
ATOM      2  C   UNL d   1      -0.442  -1.186  -0.146  0.00  0.00     0.164 C 
ATOM      3  N   UNL d   1       0.885   0.605   0.311  0.00  0.00    -0.294 N 
ATOM      4  HN  UNL d   1       1.681   1.167   0.612  1.00  0.00     0.187 HD
ATOM      5  C   UNL d   1      -1.234  -0.066  -0.182  0.00  0.00     0.086 C 
ATOM      6  C   UNL d   1      -0.370   1.018   0.085  0.00  0.00     0.054 C 
ENDROOT
BRANCH   1   7
ATOM      7  C   UNL d   1       2.072  -1.467  -0.030  0.00  0.00     0.059 A 
ATOM      8  C   UNL d   1       2.172  -2.587  -0.868  0.00  0.00     0.031 A 
ATOM      9  C   UNL d   1       3.371  -3.300  -0.938  0.00  0.00     0.002 A 
ATOM     10  C   UNL d   1       4.465  -2.906  -0.170  0.00  0.00     0.000 A 
ATOM     11  C   UNL d   1       4.374  -1.782   0.652  0.00  0.00     0.002 A 
ATOM     12  C   UNL d   1       3.186  -1.049   0.710  0.00  0.00     0.031 A 
ENDBRANCH   1   7
BRANCH   2  13
ATOM     13  O   UNL d   1      -0.806  -2.466  -0.238  0.00  0.00    -0.345 OA
ATOM     14  H   UNL d   1      -0.124  -3.018   0.185  0.00  0.00     0.219 HD
ENDBRANCH   2  13
BRANCH   6  15
ATOM     15  C   UNL d   1      -0.731   2.469   0.117  0.00  0.00     0.225 C 
BRANCH  15  16
ATOM     16  O   UNL d   1      -1.745   2.746   1.089  0.00  0.00    -0.390 OA
ATOM     17  C   UNL d   1      -2.094   4.124   1.090  0.00  0.00     0.201 C 
ENDBRANCH  15  16
ENDBRANCH   6  15
TORSDOF 4
