REMARK  3 active torsions:
REMARK  status: ('A' for Active; 'I' for Inactive)
REMARK    1  A    between atoms: C_3  and  C_1 
REMARK    2  A    between atoms: N_2  and  C_6 
REMARK    3  A    between atoms: N_10  and  C_4 
ROOT
ATOM      1  C   UNL d   1       1.438  -0.201   0.309  0.00  0.00     0.076 A 
ATOM      2  C   UNL d   1       0.628  -1.328   0.029  0.00  0.00     0.044 A 
ATOM      3  C   UNL d   1       0.869   1.098   0.293  0.00  0.00     0.054 A 
ATOM      4  C   UNL d   1      -0.492   1.282   0.040  0.00  0.00     0.103 A 
ATOM      5  C   UNL d   1      -0.742  -1.099  -0.225  0.00  0.00     0.032 A 
ATOM      6  C   UNL d   1      -1.305   0.182  -0.219  0.00  0.00     0.038 A 
ENDROOT
BRANCH   1   7
ATOM      7  C   UNL d   1       2.914  -0.293   0.635  0.00  0.00     0.419 C 
ATOM      8  F   UNL d   1       3.307  -1.420   1.289  0.00  0.00    -0.166 F 
ATOM      9  F   UNL d   1       3.691  -0.215  -0.484  0.00  0.00    -0.166 F 
ATOM     10  F   UNL d   1       3.334   0.737   1.430  0.00  0.00    -0.166 F 
ENDBRANCH   1   7
BRANCH   2  11
ATOM     11  N   UNL d   1       1.139  -2.626   0.046  0.00  0.00    -0.389 N 
ATOM     12  C   UNL d   1       0.259  -3.742   0.393  0.00  0.00     0.149 C 
ATOM     13  C   UNL d   1       2.184  -2.959  -0.928  0.00  0.00     0.149 C 
ENDBRANCH   2  11
BRANCH   4  14
ATOM     14  N   UNL d   1      -1.069   2.631   0.057  0.00  0.00    -0.116 N 
ATOM     15  O   UNL d   1      -0.293   3.587   0.200  0.00  0.00    -0.532 OA
ATOM     16  O   UNL d   1      -2.298   2.736  -0.070  0.00  0.00    -0.532 OA
ENDBRANCH   4  14
TORSDOF 3
