REMARK  2 active torsions:
REMARK  status: ('A' for Active; 'I' for Inactive)
REMARK    1  A    between atoms: C_6  and  S_1 
REMARK    2  A    between atoms: O_15  and  S_1 
ROOT
ATOM      1  C   UNL d   1      -0.282   0.074   3.811  0.00  0.00     0.085 A 
ATOM      2  C   UNL d   1      -0.222  -1.270   4.185  0.00  0.00     0.043 A 
ATOM      3  C   UNL d   1      -0.559  -1.635   5.572  0.00  0.00     0.165 C 
ATOM      4  O   UNL d   1      -0.678   1.085   4.641  0.00  0.00    -0.340 OA
ATOM      5  C   UNL d   1       0.518  -0.528   1.617  0.00  0.00     0.089 A 
ATOM      6  C   UNL d   1       0.096   0.451   2.523  0.00  0.00     0.063 A 
ATOM      7  C   UNL d   1      -1.391   0.687   5.828  0.00  0.00     0.067 C 
ATOM      8  C   UNL d   1      -0.714  -0.491   6.531  0.00  0.00     0.121 C 
ATOM      9  C   UNL d   1       0.185  -2.249   3.273  0.00  0.00     0.019 A 
ATOM     10  C   UNL d   1       0.559  -1.878   1.981  0.00  0.00     0.027 A 
ATOM     11  O   UNL d   1      -0.637  -2.808   5.919  0.00  0.00    -0.292 OA
ATOM     12  C   UNL d   1      -2.859   0.391   5.474  0.00  0.00     0.046 C 
ATOM     13  C   UNL d   1      -1.353   1.907   6.760  0.00  0.00     0.046 C 
ENDROOT
BRANCH   5  14
ATOM     14  S   UNL d   1       1.038  -0.022  -0.006  0.00  0.00     0.297 S 
ATOM     15  O   UNL d   1      -0.094   0.640  -0.620  0.00  0.00    -0.193 OA
ATOM     16  O   UNL d   1       1.681  -1.159  -0.635  0.00  0.00    -0.193 OA
BRANCH  14  17
ATOM     17  O   UNL d   1       2.187   1.091   0.299  0.00  0.00    -0.277 OA
ATOM     18  C   UNL d   1       2.815   1.691  -0.817  0.00  0.00     0.225 C 
ENDBRANCH  14  17
ENDBRANCH   5  14
TORSDOF 2
