REMARK  3 active torsions:
REMARK  status: ('A' for Active; 'I' for Inactive)
REMARK    1  A    between atoms: N_2  and  C_1 
REMARK    2  A    between atoms: C_4  and  C_3 
REMARK    3  A    between atoms: O_15  and  C_6 
ROOT
ATOM      1  C   UNL d   1      -0.176  -1.276   0.001  0.00  0.00     0.154 A 
ATOM      2  C   UNL d   1       1.880   0.003   0.000  0.00  0.00     0.065 A 
ATOM      3  C   UNL d   1       1.226  -1.236   0.001  0.00  0.00     0.058 A 
ATOM      4  C   UNL d   1      -0.883  -0.081   0.000  0.00  0.00     0.173 A 
ATOM      5  N   UNL d   1      -0.265   1.120  -0.000  0.00  0.00    -0.344 N 
ATOM      6  HN  UNL d   1      -0.803   1.987  -0.000  1.00  0.00     0.167 HD
ATOM      7  C   UNL d   1       1.089   1.142  -0.000  0.00  0.00     0.106 A 
ENDROOT
BRANCH   2   8
ATOM      8  C   UNL d   1       3.373   0.134  -0.002  0.00  0.00     0.418 C 
ATOM      9  F   UNL d   1       4.015  -1.066   0.001  0.00  0.00    -0.166 F 
ATOM     10  F   UNL d   1       3.834   0.803  -1.092  0.00  0.00    -0.166 F 
ATOM     11  F   UNL d   1       3.837   0.810   1.083  0.00  0.00    -0.166 F 
ENDBRANCH   2   8
BRANCH   1  12
ATOM     12  N   UNL d   1      -0.861  -2.559   0.001  0.00  0.00    -0.111 N 
ATOM     13  O   UNL d   1      -0.169  -3.585   0.001  0.00  0.00    -0.532 OA
ATOM     14  O   UNL d   1      -2.102  -2.546   0.001  0.00  0.00    -0.532 OA
ENDBRANCH   1  12
BRANCH   4  15
ATOM     15  O   UNL d   1      -2.241   0.032  -0.000  0.00  0.00    -0.344 OA
ATOM     16  H   UNL d   1      -2.649  -0.855  -0.000  0.00  0.00     0.219 HD
ENDBRANCH   4  15
TORSDOF 3
