REMARK  4 active torsions:
REMARK  status: ('A' for Active; 'I' for Inactive)
REMARK    1  A    between atoms: N_4  and  C_1 
REMARK    2  A    between atoms: N_7  and  C_1 
REMARK    3  A    between atoms: C_3  and  N_4 
REMARK    4  A    between atoms: N_9  and  N_7 
ROOT
ATOM      1  N   UNL d   1       0.384  -1.392   0.183  0.00  0.00    -0.331 N 
ATOM      2  H   UNL d   1       1.015  -0.707   0.590  0.00  0.00     0.168 HD
ENDROOT
BRANCH   1   3
ATOM      3  C   UNL d   1       0.962  -2.672  -0.025  0.00  0.00     0.058 A 
ATOM      4  C   UNL d   1       2.063  -3.063   0.764  0.00  0.00     0.082 A 
ATOM      5  C   UNL d   1       2.677  -4.304   0.542  0.00  0.00     0.058 A 
ATOM      6 CL   UNL d   1       2.626  -2.002   2.021  0.00  0.00    -0.080 Cl
ATOM      7 CL   UNL d   1       4.011  -4.866   1.489  0.00  0.00    -0.082 Cl
ATOM      8  C   UNL d   1       2.217  -5.142  -0.478  0.00  0.00     0.026 A 
ATOM      9  C   UNL d   1       1.147  -4.747  -1.277  0.00  0.00     0.004 A 
ATOM     10  C   UNL d   1       0.523  -3.518  -1.051  0.00  0.00     0.031 A 
ENDBRANCH   1   3
BRANCH   1  11
ATOM     11  C   UNL d   1      -0.755  -0.867  -0.350  0.00  0.00     0.186 C 
ATOM     12  S   UNL d   1      -0.813   0.742  -0.786  0.00  0.00    -0.040 SA
BRANCH  11  13
ATOM     13  N   UNL d   1      -1.891  -1.638  -0.426  0.00  0.00    -0.300 N 
ATOM     14  H   UNL d   1      -2.706  -1.122  -0.760  0.00  0.00     0.183 HD
BRANCH  13  15
ATOM     15  N   UNL d   1      -2.157  -2.625   0.560  0.00  0.00    -0.248 NA
ATOM     16  H   UNL d   1      -1.543  -2.453   1.363  0.00  0.00     0.143 HD
ATOM     17  H   UNL d   1      -1.868  -3.535   0.192  0.00  0.00     0.143 HD
ENDBRANCH  13  15
ENDBRANCH  11  13
ENDBRANCH   1  11
TORSDOF 4
