REMARK  5 active torsions:
REMARK  status: ('A' for Active; 'I' for Inactive)
REMARK    1  A    between atoms: C_8  and  C_1 
REMARK    2  A    between atoms: C_5  and  C_2 
REMARK    3  A    between atoms: O_17  and  C_8 
REMARK    4  A    between atoms: C_13  and  C_20 
REMARK    5  A    between atoms: C_20  and  O_17 
ROOT
ATOM      1  C   UNL d   1      -4.513   5.643   1.008  0.00  0.00     0.089 A 
ATOM      2  O   UNL d   1      -3.454   4.786   1.147  0.00  0.00    -0.312 OA
ATOM      3  C   UNL d   1      -5.196   5.343  -0.154  0.00  0.00     0.041 A 
ATOM      4  C   UNL d   1      -3.445   3.969   0.052  0.00  0.00     0.078 A 
ATOM      5  C   UNL d   1      -4.510   4.271  -0.769  0.00  0.00     0.038 A 
ENDROOT
BRANCH   4   6
ATOM      6  C   UNL d   1      -2.374   2.947  -0.034  0.00  0.00     0.244 C 
BRANCH   6   7
ATOM      7  O   UNL d   1      -1.097   3.596  -0.016  0.00  0.00    -0.311 OA
BRANCH   7   8
ATOM      8  C   UNL d   1      -0.560   3.920  -1.224  0.00  0.00     0.298 C 
ATOM      9  O   UNL d   1      -1.132   3.769  -2.298  0.00  0.00    -0.259 OA
BRANCH   8  10
ATOM     10  C   UNL d   1       0.792   4.426  -1.113  0.00  0.00     0.094 A 
ATOM     11  C   UNL d   1       1.580   4.493   0.021  0.00  0.00     0.090 A 
ATOM     12  O   UNL d   1       2.795   5.011  -0.296  0.00  0.00    -0.242 OA
ATOM     13  C   UNL d   1       1.395   4.116   1.437  0.00  0.00     0.080 C 
ATOM     14  N   UNL d   1       2.839   5.295  -1.643  0.00  0.00    -0.265 N 
ATOM     15  C   UNL d   1       1.643   4.944  -2.131  0.00  0.00     0.047 A 
ATOM     16  HN  UNL d   1       3.622   5.691  -2.163  1.00  0.00     0.194 HD
ATOM     17  C   UNL d   1       1.365   5.121  -3.577  0.00  0.00     0.071 C 
ENDBRANCH   8  10
ENDBRANCH   7   8
ENDBRANCH   6   7
ENDBRANCH   4   6
BRANCH   1  18
ATOM     18  C   UNL d   1      -4.668   6.663   2.040  0.00  0.00     0.036 A 
ATOM     19  C   UNL d   1      -5.313   7.878   1.756  0.00  0.00     0.132 A 
ATOM     20  C   UNL d   1      -5.447   8.879   2.715  0.00  0.00     0.085 A 
ATOM     21  F   UNL d   1      -5.809   8.119   0.532  0.00  0.00    -0.205 F 
ATOM     22  C   UNL d   1      -4.939   8.663   3.986  0.00  0.00     0.119 A 
ATOM     23  C   UNL d   1      -4.309   7.466   4.311  0.00  0.00     0.043 A 
ATOM     24  F   UNL d   1      -5.056   9.621   4.915  0.00  0.00    -0.206 F 
ATOM     25  C   UNL d   1      -4.172   6.469   3.339  0.00  0.00     0.020 A 
ENDBRANCH   1  18
TORSDOF 5
