REMARK  1 active torsions:
REMARK  status: ('A' for Active; 'I' for Inactive)
REMARK    1  A    between atoms: C_5  and  C_3 
ROOT
ATOM      1  N   UNL d   1      -1.282  -0.522   0.221  0.00  0.00    -0.301 N 
ATOM      2  HN  UNL d   1      -2.263  -0.798   0.266  1.00  0.00     0.186 HD
ATOM      3  C   UNL d   1      -0.355  -1.422   0.078  0.00  0.00     0.047 C 
ATOM      4  N   UNL d   1      -0.938   0.788   0.310  0.00  0.00    -0.270 N 
ATOM      5  C   UNL d   1       0.303   1.321   0.111  0.00  0.00     0.236 C 
ATOM      6  C   UNL d   1       1.129  -1.072   0.062  0.00  0.00     0.043 C 
ATOM      7  C   UNL d   1       1.369   0.371  -0.354  0.00  0.00     0.115 C 
ATOM      8  O   UNL d   1       0.511   2.526   0.226  0.00  0.00    -0.272 OA
ATOM      9  C   UNL d   1       1.720  -1.353   1.449  0.00  0.00     0.017 C 
ATOM     10  H   UNL d   1      -1.688   1.438   0.524  0.00  0.00     0.190 HD
ENDROOT
BRANCH   3  11
ATOM     11  C   UNL d   1      -0.793  -2.816   0.034  0.00  0.00     0.029 A 
ATOM     12  S   UNL d   1       0.188  -4.066  -0.605  0.00  0.00    -0.100 SA
ATOM     13  C   UNL d   1      -0.978  -5.265  -0.258  0.00  0.00     0.050 A 
ATOM     14  C   UNL d   1      -2.106  -4.731   0.322  0.00  0.00     0.008 A 
ATOM     15  C   UNL d   1      -2.005  -3.320   0.475  0.00  0.00     0.021 A 
ENDBRANCH   3  11
TORSDOF 1
