REMARK  3 active torsions:
REMARK  status: ('A' for Active; 'I' for Inactive)
REMARK    1  A    between atoms: C_13  and  C_1 
REMARK    2  A    between atoms: C_7  and  N_12 
REMARK       I    between atoms: C_11  and  N_15 
REMARK       I    between atoms: N_12  and  C_11 
REMARK    3  A    between atoms: N_15  and  C_13 
ROOT
ATOM      1  C   UNL d   1      -2.619   4.166   0.237  0.00  0.00     0.321 C 
ATOM      2  N   UNL d   1      -3.774   4.513  -0.414  0.00  0.00    -0.308 N 
ATOM      3  N   UNL d   1      -2.231   2.863   0.197  0.00  0.00    -0.338 N 
ATOM      4  O   UNL d   1      -1.913   5.059   0.710  0.00  0.00    -0.247 OA
ATOM      5  H   UNL d   1      -3.732   5.473  -0.737  0.00  0.00     0.170 HD
ATOM      6  H   UNL d   1      -2.909   2.144  -0.014  0.00  0.00     0.164 HD
ENDROOT
BRANCH   3   7
ATOM      7  C   UNL d   1      -0.953   2.439   0.714  0.00  0.00     0.167 C 
BRANCH   7   8
ATOM      8  C   UNL d   1      -0.440   1.279  -0.074  0.00  0.00     0.007 A 
ATOM      9  C   UNL d   1      -0.083   1.245  -1.417  0.00  0.00     0.034 A 
ATOM     10  N   UNL d   1       0.409  -0.015  -1.645  0.00  0.00    -0.300 N 
ATOM     11  C   UNL d   1      -0.179   2.303  -2.456  0.00  0.00     0.070 C 
ATOM     12  C   UNL d   1       0.978  -0.566  -2.853  0.00  0.00     0.177 C 
ATOM     13  N   UNL d   1       0.362  -0.807  -0.561  0.00  0.00    -0.303 N 
ATOM     14  C   UNL d   1      -0.154  -0.033   0.398  0.00  0.00     0.032 A 
ATOM     15  HN  UNL d   1       0.655  -1.781  -0.486  1.00  0.00     0.186 HD
ATOM     16  C   UNL d   1      -0.354  -0.595   1.757  0.00  0.00     0.070 C 
ENDBRANCH   7   8
ENDBRANCH   3   7
BRANCH   2  17
ATOM     17  C   UNL d   1      -4.638   3.650  -1.072  0.00  0.00     0.054 C 
ATOM     18  C   UNL d   1      -5.327   2.524  -0.489  0.00  0.00     0.008 A 
ATOM     19  C   UNL d   1      -5.979   1.771  -1.469  0.00  0.00     0.017 A 
ATOM     20  C   UNL d   1      -5.436   2.095   0.860  0.00  0.00     0.015 A 
ATOM     21  C   UNL d   1      -6.622   0.557  -1.157  0.00  0.00     0.020 A 
ATOM     22  S   UNL d   1      -5.887   2.533  -3.010  0.00  0.00    -0.099 SA
ATOM     23  C   UNL d   1      -6.664   0.135   0.174  0.00  0.00     0.001 A 
ATOM     24  C   UNL d   1      -6.104   0.910   1.178  0.00  0.00     0.001 A 
ATOM     25  C   UNL d   1      -4.978   3.837  -2.392  0.00  0.00     0.081 C 
ENDBRANCH   2  17
TORSDOF 3
