REMARK  5 active torsions:
REMARK  status: ('A' for Active; 'I' for Inactive)
REMARK    1  A    between atoms: N_3  and  N_1 
REMARK    2  A    between atoms: C_5  and  C_8 
REMARK    3  A    between atoms: C_6  and  C_7 
REMARK    4  A    between atoms: O_11  and  C_9 
REMARK    5  A    between atoms: O_12  and  C_10 
ROOT
ATOM      1  N   UNL d   1       0.863   2.034  -1.446  0.00  0.00    -0.304 N 
ATOM      2  HN  UNL d   1       0.464   2.392  -2.313  1.00  0.00     0.186 HD
ATOM      3  C   UNL d   1       2.007   2.440  -0.965  0.00  0.00     0.035 C 
ATOM      4  C   UNL d   1       2.562   1.949   0.359  0.00  0.00     0.070 C 
ENDROOT
BRANCH   1   5
ATOM      5  N   UNL d   1       0.239   1.069  -0.666  0.00  0.00    -0.304 N 
ATOM      6  C   UNL d   1      -1.057   1.006  -0.799  0.00  0.00     0.035 C 
ATOM      7  C   UNL d   1      -1.838   1.939  -1.704  0.00  0.00     0.070 C 
ATOM      8  HN  UNL d   1       0.756   0.455  -0.037  1.00  0.00     0.186 HD
BRANCH   6   9
ATOM      9  C   UNL d   1      -1.805   0.009   0.032  0.00  0.00     0.021 A 
ATOM     10  C   UNL d   1      -1.290  -0.407   1.271  0.00  0.00     0.077 A 
ATOM     11  C   UNL d   1      -2.009  -1.275   2.091  0.00  0.00     0.037 A 
ATOM     12  C   UNL d   1      -3.243  -1.764   1.668  0.00  0.00     0.003 A 
ATOM     13  C   UNL d   1      -3.747  -1.395   0.422  0.00  0.00     0.001 A 
ATOM     14  C   UNL d   1      -3.032  -0.515  -0.397  0.00  0.00     0.016 A 
BRANCH  10  15
ATOM     15  O   UNL d   1      -0.077   0.001   1.752  0.00  0.00    -0.360 OA
ATOM     16  H   UNL d   1       0.387   0.432   1.002  0.00  0.00     0.217 HD
ENDBRANCH  10  15
ENDBRANCH   6   9
ENDBRANCH   1   5
BRANCH   3  17
ATOM     17  C   UNL d   1       2.779   3.477  -1.718  0.00  0.00     0.021 A 
ATOM     18  C   UNL d   1       2.119   4.402  -2.540  0.00  0.00     0.077 A 
ATOM     19  C   UNL d   1       2.824   5.426  -3.170  0.00  0.00     0.037 A 
ATOM     20  C   UNL d   1       4.205   5.522  -3.008  0.00  0.00     0.003 A 
ATOM     21  C   UNL d   1       4.881   4.582  -2.231  0.00  0.00     0.001 A 
ATOM     22  C   UNL d   1       4.173   3.560  -1.594  0.00  0.00     0.016 A 
BRANCH  18  23
ATOM     23  O   UNL d   1       0.769   4.369  -2.768  0.00  0.00    -0.360 OA
ATOM     24  H   UNL d   1       0.445   3.511  -2.421  0.00  0.00     0.217 HD
ENDBRANCH  18  23
ENDBRANCH   3  17
TORSDOF 5
