REMARK  3 active torsions:
REMARK  status: ('A' for Active; 'I' for Inactive)
REMARK    1  A    between atoms: C_8  and  C_1 
REMARK       I    between atoms: N_13  and  C_8 
REMARK    2  A    between atoms: C_9  and  C_15 
REMARK    3  A    between atoms: C_15  and  N_13 
ROOT
ATOM      1  C   UNL d   1      -3.097  -0.782  -0.006  0.00  0.00     0.269 C 
ATOM      2  N   UNL d   1      -3.621  -2.058  -0.003  0.00  0.00    -0.351 N 
ATOM      3  O   UNL d   1      -1.886  -0.563  -0.012  0.00  0.00    -0.266 OA
ATOM      4  H   UNL d   1      -4.629  -2.142   0.090  0.00  0.00     0.163 HD
ENDROOT
BRANCH   2   5
ATOM      5  C   UNL d   1      -2.741  -3.193   0.075  0.00  0.00     0.169 C 
BRANCH   5   6
ATOM      6  C   UNL d   1      -3.506  -4.472  -0.015  0.00  0.00     0.002 A 
ATOM      7  S   UNL d   1      -3.977  -5.303   1.402  0.00  0.00    -0.092 SA
ATOM      8  C   UNL d   1      -4.629  -6.628   0.515  0.00  0.00     0.015 A 
ATOM      9  C   UNL d   1      -5.216  -7.798   1.038  0.00  0.00     0.019 A 
ATOM     10  C   UNL d   1      -4.511  -6.424  -0.862  0.00  0.00    -0.018 A 
ATOM     11  C   UNL d   1      -5.690  -8.772   0.155  0.00  0.00     0.001 A 
ATOM     12  C   UNL d   1      -5.585  -8.590  -1.218  0.00  0.00     0.001 A 
ATOM     13  C   UNL d   1      -5.001  -7.429  -1.732  0.00  0.00     0.013 A 
ATOM     14  C   UNL d   1      -3.869  -5.172  -1.147  0.00  0.00     0.029 A 
ENDBRANCH   5   6
ENDBRANCH   2   5
BRANCH   1  15
ATOM     15  C   UNL d   1      -4.093   0.300  -0.000  0.00  0.00     0.117 A 
ATOM     16  N   UNL d   1      -5.423   0.079   0.017  0.00  0.00    -0.294 N 
ATOM     17  N   UNL d   1      -5.963   1.317   0.001  0.00  0.00    -0.301 N 
ATOM     18  HN  UNL d   1      -5.910  -0.817   0.036  1.00  0.00     0.187 HD
ATOM     19  C   UNL d   1      -7.400   1.471   0.009  0.00  0.00     0.177 C 
ATOM     20  C   UNL d   1      -5.035   2.326  -0.020  0.00  0.00     0.026 A 
ATOM     21  C   UNL d   1      -3.812   1.691  -0.017  0.00  0.00     0.063 A 
ATOM     22  C   UNL d   1      -5.376   3.768  -0.043  0.00  0.00     0.070 C 
ENDBRANCH   1  15
TORSDOF 3
