REMARK  5 active torsions:
REMARK  status: ('A' for Active; 'I' for Inactive)
REMARK    1  A    between atoms: C_2  and  N_1 
REMARK    2  A    between atoms: C_3  and  C_5 
REMARK    3  A    between atoms: N_8  and  C_6 
REMARK    4  A    between atoms: C_15  and  N_8 
REMARK    5  A    between atoms: C_16  and  C_15 
ROOT
ATOM      1  C   UNL d   1       0.208  -1.159   0.304  0.00  0.00     0.130 A 
ATOM      2  C   UNL d   1       0.568  -2.152   1.238  0.00  0.00     0.054 A 
ATOM      3  C   UNL d   1       0.011  -3.431   1.155  0.00  0.00     0.050 A 
ATOM      4  C   UNL d   1      -0.684  -1.393  -0.755  0.00  0.00     0.061 A 
ATOM      5  C   UNL d   1      -0.918  -3.679   0.139  0.00  0.00     0.018 A 
ATOM      6  C   UNL d   1      -1.254  -2.682  -0.791  0.00  0.00     0.032 A 
ENDROOT
BRANCH   4   7
ATOM      7  N   UNL d   1      -1.023  -0.532  -1.790  0.00  0.00    -0.384 N 
ATOM      8  H   UNL d   1      -1.785  -0.800  -2.405  0.00  0.00     0.160 HD
BRANCH   7   9
ATOM      9  C   UNL d   1      -0.180   0.545  -2.286  0.00  0.00     0.158 C 
BRANCH   9  10
ATOM     10  C   UNL d   1      -0.432   0.784  -3.757  0.00  0.00    -0.041 A 
ATOM     11  C   UNL d   1      -1.308   1.794  -4.178  0.00  0.00     0.009 A 
ATOM     12  C   UNL d   1      -1.498   2.046  -5.537  0.00  0.00     0.001 A 
ATOM     13  C   UNL d   1      -0.822   1.284  -6.490  0.00  0.00     0.000 A 
ATOM     14  C   UNL d   1       0.033   0.262  -6.084  0.00  0.00     0.001 A 
ATOM     15  C   UNL d   1       0.223   0.007  -4.725  0.00  0.00     0.009 A 
ENDBRANCH   9  10
ENDBRANCH   7   9
ENDBRANCH   4   7
BRANCH   1  16
ATOM     16  N   UNL d   1       0.763   0.156   0.556  0.00  0.00    -0.113 N 
ATOM     17  O   UNL d   1       2.000   0.256   0.517  0.00  0.00    -0.532 OA
ATOM     18  O   UNL d   1      -0.020   1.073   0.832  0.00  0.00    -0.532 OA
ENDBRANCH   1  16
BRANCH   3  19
ATOM     19  C   UNL d   1       0.391  -4.516   2.135  0.00  0.00     0.417 C 
ATOM     20  F   UNL d   1       1.308  -4.115   3.056  0.00  0.00    -0.166 F 
ATOM     21  F   UNL d   1      -0.677  -4.973   2.843  0.00  0.00    -0.166 F 
ATOM     22  F   UNL d   1       0.929  -5.605   1.521  0.00  0.00    -0.166 F 
ENDBRANCH   3  19
TORSDOF 5
