REMARK  4 active torsions:
REMARK  status: ('A' for Active; 'I' for Inactive)
REMARK    1  A    between atoms: N_3  and  C_1 
REMARK    2  A    between atoms: N_4  and  C_1 
REMARK    3  A    between atoms: C_2  and  C_5 
REMARK    4  A    between atoms: C_7  and  N_4 
ROOT
ATOM      1  C   UNL d   1      -3.199  -1.037   2.551  0.00  0.00     0.050 A 
ATOM      2  C   UNL d   1      -1.241  -0.690   1.149  0.00  0.00     0.035 A 
ATOM      3  C   UNL d   1      -1.905  -0.527   2.369  0.00  0.00     0.045 A 
ATOM      4  C   UNL d   1      -3.805  -1.746   1.503  0.00  0.00     0.016 A 
ATOM      5  C   UNL d   1      -3.128  -1.946   0.299  0.00  0.00     0.003 A 
ATOM      6  C   UNL d   1      -1.847  -1.422   0.126  0.00  0.00     0.029 A 
ENDROOT
BRANCH   2   7
ATOM      7  N   UNL d   1       0.046  -0.131   1.030  0.00  0.00    -0.333 N 
ATOM      8  H   UNL d   1       0.614  -0.210   1.867  0.00  0.00     0.168 HD
BRANCH   7   9
ATOM      9  C   UNL d   1       0.775   0.071  -0.112  0.00  0.00     0.174 C 
ATOM     10  S   UNL d   1       2.390  -0.386  -0.050  0.00  0.00    -0.041 SA
BRANCH   9  11
ATOM     11  N   UNL d   1       0.171   0.738  -1.163  0.00  0.00    -0.358 N 
ATOM     12  C   UNL d   1       0.848   1.087  -2.416  0.00  0.00     0.125 C 
ATOM     13  C   UNL d   1       0.224   2.409  -2.839  0.00  0.00     0.021 C 
ATOM     14  C   UNL d   1      -1.207   2.268  -2.360  0.00  0.00     0.021 C 
ATOM     15  C   UNL d   1      -1.049   1.545  -1.032  0.00  0.00     0.125 C 
ENDBRANCH   9  11
ENDBRANCH   7   9
ENDBRANCH   2   7
BRANCH   1  16
ATOM     16  C   UNL d   1      -3.940  -0.825   3.848  0.00  0.00     0.417 C 
ATOM     17  F   UNL d   1      -3.244  -0.087   4.758  0.00  0.00    -0.166 F 
ATOM     18  F   UNL d   1      -5.124  -0.175   3.671  0.00  0.00    -0.166 F 
ATOM     19  F   UNL d   1      -4.244  -1.996   4.471  0.00  0.00    -0.166 F 
ENDBRANCH   1  16
TORSDOF 4
