REMARK  3 active torsions:
REMARK  status: ('A' for Active; 'I' for Inactive)
REMARK    1  A    between atoms: C_14  and  N_2 
REMARK       I    between atoms: C_11  and  N_10 
REMARK    2  A    between atoms: O_19  and  C_11 
REMARK    3  A    between atoms: C_22  and  O_19 
ROOT
ATOM      1  C   UNL d   1       0.669   0.434   0.082  0.00  0.00     0.074 A 
ATOM      2  N   UNL d   1       2.946   1.214   0.054  0.00  0.00    -0.229 N 
ATOM      3  C   UNL d   1       1.178  -0.822  -0.036  0.00  0.00     0.095 A 
ATOM      4  C   UNL d   1       1.582   1.559   0.168  0.00  0.00     0.270 A 
ATOM      5  C   UNL d   1       3.429  -0.096  -0.132  0.00  0.00     0.335 A 
ATOM      6  N   UNL d   1       2.500  -1.113  -0.135  0.00  0.00    -0.301 N 
ATOM      7  C   UNL d   1      -0.760   0.393   0.069  0.00  0.00    -0.023 A 
ATOM      8  C   UNL d   1      -1.231  -0.914   0.025  0.00  0.00     0.010 A 
ATOM      9  S   UNL d   1       0.041  -2.058  -0.070  0.00  0.00    -0.074 SA
ATOM     10  N   UNL d   1      -3.501  -0.140   0.317  0.00  0.00    -0.323 N 
ATOM     11  C   UNL d   1      -4.361  -0.081   1.396  0.00  0.00     0.363 C 
ATOM     12  C   UNL d   1      -2.681  -1.323   0.016  0.00  0.00     0.174 C 
ATOM     13  C   UNL d   1      -1.711   1.558   0.108  0.00  0.00     0.061 C 
ATOM     14  O   UNL d   1       4.617  -0.405  -0.254  0.00  0.00    -0.246 OA
ATOM     15  O   UNL d   1       1.145   2.699   0.293  0.00  0.00    -0.266 OA
ATOM     16  C   UNL d   1      -3.114   1.112  -0.342  0.00  0.00     0.133 C 
ATOM     17  O   UNL d   1      -4.877   0.951   1.801  0.00  0.00    -0.238 OA
ATOM     18  H   UNL d   1       2.826  -2.066  -0.232  0.00  0.00     0.171 HD
ENDROOT
BRANCH   2  19
ATOM     19  C   UNL d   1       3.895   2.284   0.117  0.00  0.00     0.047 A 
ATOM     20  C   UNL d   1       4.825   2.477  -0.913  0.00  0.00     0.030 A 
ATOM     21  C   UNL d   1       5.705   3.562  -0.872  0.00  0.00     0.002 A 
ATOM     22  C   UNL d   1       5.689   4.436   0.214  0.00  0.00     0.000 A 
ATOM     23  C   UNL d   1       4.787   4.236   1.256  0.00  0.00     0.002 A 
ATOM     24  C   UNL d   1       3.882   3.174   1.200  0.00  0.00     0.030 A 
ENDBRANCH   2  19
BRANCH  11  25
ATOM     25  O   UNL d   1      -4.530  -1.294   1.987  0.00  0.00    -0.304 OA
BRANCH  25  26
ATOM     26  C   UNL d   1      -5.066  -1.262   3.316  0.00  0.00     0.176 C 
ATOM     27  C   UNL d   1      -3.908  -1.085   4.282  0.00  0.00     0.034 C 
ENDBRANCH  25  26
ENDBRANCH  11  25
TORSDOF 3
