REMARK  5 active torsions:
REMARK  status: ('A' for Active; 'I' for Inactive)
REMARK    1  A    between atoms: C_7  and  C_1 
REMARK    2  A    between atoms: C_18  and  C_4 
REMARK    3  A    between atoms: N_5  and  C_16 
REMARK       I    between atoms: N_14  and  C_7 
REMARK       I    between atoms: C_11  and  N_15 
REMARK    4  A    between atoms: C_17  and  C_11 
REMARK    5  A    between atoms: N_15  and  N_14 
ROOT
ATOM      1  C   UNL d   1      -0.927  -1.398  -0.791  0.00  0.00     0.275 C 
ATOM      2  N   UNL d   1      -1.779  -2.411  -1.185  0.00  0.00    -0.263 N 
ATOM      3  O   UNL d   1      -0.034  -1.620   0.026  0.00  0.00    -0.266 OA
ATOM      4  H   UNL d   1      -2.608  -2.275  -1.751  0.00  0.00     0.190 HD
ENDROOT
BRANCH   2   5
ATOM      5  N   UNL d   1      -1.631  -3.709  -0.665  0.00  0.00    -0.263 N 
ATOM      6  C   UNL d   1      -2.757  -4.504  -0.680  0.00  0.00     0.270 C 
ATOM      7  O   UNL d   1      -3.834  -4.102  -1.113  0.00  0.00    -0.266 OA
ATOM      8  H   UNL d   1      -0.789  -3.911  -0.130  0.00  0.00     0.190 HD
BRANCH   6   9
ATOM      9  C   UNL d   1      -2.630  -5.894  -0.177  0.00  0.00     0.033 A 
ATOM     10  C   UNL d   1      -3.733  -6.450   0.474  0.00  0.00     0.019 A 
ATOM     11  C   UNL d   1      -3.751  -7.810   0.793  0.00  0.00     0.031 A 
ATOM     12  C   UNL d   1      -2.702  -8.649   0.398  0.00  0.00     0.039 A 
ATOM     13  C   UNL d   1      -1.568  -8.075  -0.199  0.00  0.00     0.031 A 
ATOM     14  C   UNL d   1      -1.524  -6.696  -0.470  0.00  0.00     0.019 A 
BRANCH  12  15
ATOM     15  N   UNL d   1      -2.842 -10.077   0.515  0.00  0.00    -0.320 N 
ATOM     16  C   UNL d   1      -1.831 -11.008   0.775  0.00  0.00     0.013 A 
ATOM     17  C   UNL d   1      -2.388 -12.280   0.747  0.00  0.00     0.027 A 
ATOM     18  C   UNL d   1      -0.411 -10.718   1.117  0.00  0.00     0.068 C 
ATOM     19  C   UNL d   1      -3.756 -12.145   0.490  0.00  0.00     0.027 A 
ATOM     20  C   UNL d   1      -4.031 -10.800   0.326  0.00  0.00     0.013 A 
ATOM     21  C   UNL d   1      -5.359 -10.257  -0.087  0.00  0.00     0.068 C 
ENDBRANCH  12  15
ENDBRANCH   6   9
ENDBRANCH   2   5
BRANCH   1  22
ATOM     22  C   UNL d   1      -1.129  -0.098  -1.420  0.00  0.00     0.094 A 
ATOM     23  C   UNL d   1      -0.202   1.007  -1.510  0.00  0.00     0.083 A 
ATOM     24  N   UNL d   1      -0.787   2.052  -2.118  0.00  0.00    -0.259 N 
ATOM     25  O   UNL d   1      -2.043   1.655  -2.473  0.00  0.00    -0.241 OA
ATOM     26  HN  UNL d   1      -0.372   2.969  -2.283  1.00  0.00     0.195 HD
ATOM     27  C   UNL d   1      -2.255   0.377  -2.081  0.00  0.00     0.090 A 
ATOM     28  C   UNL d   1      -3.591  -0.141  -2.446  0.00  0.00     0.080 C 
BRANCH  23  29
ATOM     29  C   UNL d   1       1.210   1.133  -1.120  0.00  0.00    -0.006 A 
ATOM     30  C   UNL d   1       1.723   2.390  -0.751  0.00  0.00     0.014 A 
ATOM     31  C   UNL d   1       3.084   2.564  -0.484  0.00  0.00     0.001 A 
ATOM     32  C   UNL d   1       3.953   1.481  -0.572  0.00  0.00     0.000 A 
ATOM     33  C   UNL d   1       3.461   0.227  -0.927  0.00  0.00     0.001 A 
ATOM     34  C   UNL d   1       2.102   0.057  -1.208  0.00  0.00     0.014 A 
ENDBRANCH  23  29
ENDBRANCH   1  22
TORSDOF 5
