REMARK  5 active torsions:
REMARK  status: ('A' for Active; 'I' for Inactive)
REMARK    1  A    between atoms: C_12  and  C_3 
REMARK    2  A    between atoms: C_11  and  C_4 
REMARK    3  A    between atoms: C_5  and  C_14 
REMARK    4  A    between atoms: C_18  and  N_6 
REMARK       I    between atoms: N_16  and  C_11 
REMARK       I    between atoms: C_14  and  N_17 
REMARK    5  A    between atoms: N_17  and  N_16 
ROOT
ATOM      1  C   UNL d   1       1.902  -2.499  -1.284  0.00  0.00     0.275 C 
ATOM      2  N   UNL d   1       1.465  -3.279  -0.216  0.00  0.00    -0.263 N 
ATOM      3  O   UNL d   1       1.152  -2.022  -2.135  0.00  0.00    -0.266 OA
ATOM      4  H   UNL d   1       2.096  -3.531   0.534  0.00  0.00     0.190 HD
ENDROOT
BRANCH   2   5
ATOM      5  N   UNL d   1       0.092  -3.457   0.047  0.00  0.00    -0.262 N 
ATOM      6  C   UNL d   1      -0.759  -2.378   0.239  0.00  0.00     0.288 C 
ATOM      7  O   UNL d   1      -0.398  -1.205   0.238  0.00  0.00    -0.264 OA
ATOM      8  H   UNL d   1      -0.293  -4.394   0.143  0.00  0.00     0.190 HD
BRANCH   6   9
ATOM      9  C   UNL d   1      -2.159  -2.778   0.478  0.00  0.00     0.119 A 
ATOM     10  N   UNL d   1      -2.527  -4.020   0.847  0.00  0.00    -0.292 N 
ATOM     11  N   UNL d   1      -3.881  -3.952   1.026  0.00  0.00    -0.287 N 
ATOM     12  HN  UNL d   1      -1.926  -4.835   0.966  1.00  0.00     0.187 HD
ATOM     13  C   UNL d   1      -4.384  -2.712   0.677  0.00  0.00     0.028 A 
ATOM     14  C   UNL d   1      -5.802  -2.273   0.656  0.00  0.00     0.070 C 
ATOM     15  C   UNL d   1      -3.286  -1.942   0.351  0.00  0.00     0.063 A 
BRANCH  11  16
ATOM     16  C   UNL d   1      -4.601  -5.141   1.548  0.00  0.00     0.043 C 
ATOM     17  C   UNL d   1      -3.629  -6.304   1.884  0.00  0.00     0.039 C 
ATOM     18  C   UNL d   1      -5.340  -4.807   2.862  0.00  0.00     0.039 C 
ATOM     19  C   UNL d   1      -5.586  -5.686   0.495  0.00  0.00     0.039 C 
ENDBRANCH  11  16
ENDBRANCH   6   9
ENDBRANCH   2   5
BRANCH   1  20
ATOM     20  C   UNL d   1       3.341  -2.291  -1.340  0.00  0.00     0.094 A 
ATOM     21  C   UNL d   1       4.083  -1.139  -1.785  0.00  0.00     0.085 A 
ATOM     22  N   UNL d   1       5.401  -1.385  -1.696  0.00  0.00    -0.259 N 
ATOM     23  O   UNL d   1       5.543  -2.662  -1.228  0.00  0.00    -0.241 OA
ATOM     24  HN  UNL d   1       6.155  -0.739  -1.933  1.00  0.00     0.195 HD
ATOM     25  C   UNL d   1       4.324  -3.201  -0.991  0.00  0.00     0.090 A 
ATOM     26  C   UNL d   1       4.345  -4.575  -0.451  0.00  0.00     0.080 C 
BRANCH  21  27
ATOM     27  C   UNL d   1       3.622   0.209  -2.152  0.00  0.00     0.015 A 
ATOM     28  C   UNL d   1       4.212   0.977  -3.177  0.00  0.00     0.046 A 
ATOM     29 CL   UNL d   1       5.405   0.356  -4.270  0.00  0.00    -0.083 Cl
ATOM     30  C   UNL d   1       3.829   2.313  -3.380  0.00  0.00     0.025 A 
ATOM     31  C   UNL d   1       2.848   2.896  -2.582  0.00  0.00     0.002 A 
ATOM     32  C   UNL d   1       2.236   2.143  -1.587  0.00  0.00     0.001 A 
ATOM     33  C   UNL d   1       2.621   0.815  -1.371  0.00  0.00     0.015 A 
ENDBRANCH  21  27
ENDBRANCH   1  20
TORSDOF 5
