REMARK  5 active torsions:
REMARK  status: ('A' for Active; 'I' for Inactive)
REMARK    1  A    between atoms: C_4  and  N_1 
REMARK    2  A    between atoms: C_2  and  C_7 
REMARK    3  A    between atoms: C_10  and  C_2 
REMARK    4  A    between atoms: C_11  and  C_2 
REMARK    5  A    between atoms: C_7  and  C_12 
ROOT
ATOM      1  C   UNL d   1       1.661  -4.070   2.636  0.00  0.00     0.107 C 
ATOM      2  C   UNL d   1       2.960  -3.946   1.895  0.00  0.00     0.079 C 
ATOM      3  N   UNL d   1       3.961  -3.843   1.327  0.00  0.00    -0.196 NA
ENDROOT
BRANCH   1   4
ATOM      4  C   UNL d   1       0.536  -4.329   1.558  0.00  0.00     0.073 C 
BRANCH   4   5
ATOM      5  C   UNL d   1       0.106  -3.241   0.591  0.00  0.00    -0.053 C 
ATOM      6  C   UNL d   1       0.976  -2.259   0.113  0.00  0.00     0.043 C 
ATOM      7  C   UNL d   1       0.491  -1.201  -0.660  0.00  0.00     0.103 C 
ATOM      8  C   UNL d   1      -0.845  -1.171  -1.079  0.00  0.00     0.036 C 
ATOM      9  C   UNL d   1      -1.688  -2.219  -0.712  0.00  0.00     0.003 C 
ATOM     10  C   UNL d   1      -1.221  -3.236   0.124  0.00  0.00     0.007 C 
BRANCH   7  11
ATOM     11  N   UNL d   1       1.378  -0.068  -0.940  0.00  0.00    -0.116 N 
ATOM     12  O   UNL d   1       2.494  -0.062  -0.403  0.00  0.00    -0.532 OA
ATOM     13  O   UNL d   1       0.945   0.838  -1.675  0.00  0.00    -0.532 OA
ENDBRANCH   7  11
ENDBRANCH   4   5
ENDBRANCH   1   4
BRANCH   1  14
ATOM     14  C   UNL d   1       1.342  -2.826   3.517  0.00  0.00    -0.031 A 
ATOM     15  C   UNL d   1       0.214  -2.822   4.364  0.00  0.00     0.009 A 
ATOM     16  C   UNL d   1       0.032  -1.817   5.322  0.00  0.00     0.001 A 
ATOM     17  C   UNL d   1       0.955  -0.782   5.442  0.00  0.00     0.000 A 
ATOM     18  C   UNL d   1       2.024  -0.713   4.558  0.00  0.00     0.001 A 
ATOM     19  C   UNL d   1       2.209  -1.714   3.597  0.00  0.00     0.009 A 
ENDBRANCH   1  14
BRANCH   1  20
ATOM     20  C   UNL d   1       1.880  -5.332   3.537  0.00  0.00    -0.031 A 
ATOM     21  C   UNL d   1       1.303  -6.581   3.243  0.00  0.00     0.009 A 
ATOM     22  C   UNL d   1       1.730  -7.743   3.889  0.00  0.00     0.001 A 
ATOM     23  C   UNL d   1       2.721  -7.676   4.866  0.00  0.00     0.000 A 
ATOM     24  C   UNL d   1       3.252  -6.445   5.229  0.00  0.00     0.001 A 
ATOM     25  C   UNL d   1       2.833  -5.281   4.579  0.00  0.00     0.009 A 
ENDBRANCH   1  20
TORSDOF 5
