REMARK  2 active torsions:
REMARK  status: ('A' for Active; 'I' for Inactive)
REMARK    1  A    between atoms: C_8  and  N_1 
REMARK    2  A    between atoms: C_7  and  C_2 
ROOT
ATOM      1  N   UNL d   1      -0.122  -1.374  -0.144  0.00  0.00    -0.224 N 
ATOM      2  C   UNL d   1       1.107  -0.723  -0.045  0.00  0.00     0.148 C 
ATOM      3  N   UNL d   1      -1.061  -0.444  -0.442  0.00  0.00     0.001 NA
ATOM      4  N   UNL d   1      -0.463   0.729  -0.330  0.00  0.00    -0.007 NA
ATOM      5  N   UNL d   1       0.870   0.577  -0.073  0.00  0.00    -0.269 N 
ATOM      6  HN  UNL d   1       1.552   1.323   0.069  1.00  0.00     0.185 HD
ENDROOT
BRANCH   2   7
ATOM      7  C   UNL d   1       2.442  -1.318  -0.030  0.00  0.00     0.012 A 
ATOM      8  C   UNL d   1       3.429  -0.790   0.815  0.00  0.00     0.041 A 
ATOM      9  C   UNL d   1       4.723  -1.324   0.825  0.00  0.00     0.056 A 
ATOM     10 CL   UNL d   1       5.875  -0.619   1.903  0.00  0.00    -0.083 Cl
ATOM     11  C   UNL d   1       5.046  -2.390  -0.021  0.00  0.00     0.055 A 
ATOM     12  C   UNL d   1       4.077  -2.907  -0.883  0.00  0.00     0.026 A 
ATOM     13 CL   UNL d   1       6.616  -3.109  -0.056  0.00  0.00    -0.083 Cl
ATOM     14  C   UNL d   1       2.788  -2.366  -0.897  0.00  0.00     0.017 A 
ENDBRANCH   2   7
BRANCH   1  15
ATOM     15  C   UNL d   1      -0.480  -2.735   0.030  0.00  0.00     0.059 A 
ATOM     16  C   UNL d   1      -1.649  -3.214  -0.577  0.00  0.00     0.073 A 
ATOM     17  C   UNL d   1      -1.991  -4.556  -0.440  0.00  0.00     0.118 A 
ATOM     18  F   UNL d   1      -3.086  -5.021  -1.054  0.00  0.00    -0.206 F 
ATOM     19  C   UNL d   1      -1.211  -5.423   0.315  0.00  0.00     0.042 A 
ATOM     20  C   UNL d   1      -0.070  -4.943   0.954  0.00  0.00     0.005 A 
ATOM     21  C   UNL d   1       0.298  -3.600   0.816  0.00  0.00     0.031 A 
ENDBRANCH   1  15
TORSDOF 2
