REMARK  1 active torsions:
REMARK  status: ('A' for Active; 'I' for Inactive)
REMARK    1  A    between atoms: C_10  and  C_2 
ROOT
ATOM      1  N   UNL d   1       2.021  -0.054   0.536  0.00  0.00    -0.243 N 
ATOM      2  C   UNL d   1       1.352  -1.158   0.053  0.00  0.00     0.141 A 
ATOM      3  C   UNL d   1       1.161   0.982   0.394  0.00  0.00     0.170 A 
ATOM      4  N   UNL d   1       0.175  -0.736  -0.406  0.00  0.00    -0.282 N 
ATOM      5  HN  UNL d   1      -0.527  -1.324  -0.856  1.00  0.00     0.188 HD
ATOM      6  N   UNL d   1       0.052   0.622  -0.177  0.00  0.00    -0.278 N 
ATOM      7  HN  UNL d   1      -0.744   1.216  -0.408  1.00  0.00     0.189 HD
ATOM      8  C   UNL d   1       3.271   0.214   1.056  0.00  0.00     0.241 A 
ATOM      9  S   UNL d   1       1.782   2.474   0.953  0.00  0.00    -0.083 SA
ATOM     10  C   UNL d   1       3.343   1.667   1.478  0.00  0.00     0.186 A 
ATOM     11  O   UNL d   1       4.141  -0.634   1.150  0.00  0.00    -0.272 OA
ENDROOT
BRANCH   2  12
ATOM     12  C   UNL d   1       1.805  -2.551   0.009  0.00  0.00     0.010 A 
ATOM     13  C   UNL d   1       2.580  -3.131   1.022  0.00  0.00     0.017 A 
ATOM     14  C   UNL d   1       2.978  -4.471   0.944  0.00  0.00     0.025 A 
ATOM     15  C   UNL d   1       2.578  -5.253  -0.135  0.00  0.00     0.034 A 
ATOM     16  C   UNL d   1       1.778  -4.709  -1.135  0.00  0.00     0.025 A 
ATOM     17 CL   UNL d   1       3.065  -6.899  -0.225  0.00  0.00    -0.084 Cl
ATOM     18  C   UNL d   1       1.392  -3.366  -1.060  0.00  0.00     0.017 A 
ENDBRANCH   2  12
TORSDOF 1
