REMARK  2 active torsions:
REMARK  status: ('A' for Active; 'I' for Inactive)
REMARK    1  A    between atoms: C_2  and  N_1 
REMARK    2  A    between atoms: N_3  and  N_1 
REMARK       I    between atoms: C_6  and  N_1 
REMARK       I    between atoms: C_7  and  N_3 
REMARK       I    between atoms: C_8  and  N_3 
ROOT
ATOM      1  C   UNL d   1       0.270  -0.029   1.114  0.00  0.00     0.131 A 
ATOM      2  N   UNL d   1      -0.625  -1.002   1.395  0.00  0.00    -0.350 N 
ATOM      3  HN  UNL d   1      -0.771  -1.792   0.766  1.00  0.00     0.166 HD
ATOM      4  C   UNL d   1       0.423   1.102   1.921  0.00  0.00     0.062 A 
ATOM      5  C   UNL d   1      -0.334   1.230   3.092  0.00  0.00    -0.021 A 
ATOM      6  C   UNL d   1      -1.323  -0.879   2.556  0.00  0.00     0.102 A 
ATOM      7  C   UNL d   1      -1.223   0.199   3.440  0.00  0.00    -0.010 A 
ATOM      8  C   UNL d   1      -0.233   2.365   3.911  0.00  0.00     0.012 A 
ATOM      9  C   UNL d   1      -1.970   0.307   4.627  0.00  0.00     0.013 A 
ATOM     10  C   UNL d   1      -0.989   2.467   5.079  0.00  0.00     0.001 A 
ATOM     11  C   UNL d   1      -1.850   1.436   5.442  0.00  0.00     0.001 A 
ENDROOT
BRANCH   1  12
ATOM     12  N   UNL d   1       0.991  -0.126  -0.110  0.00  0.00    -0.196 N 
ATOM     13  C   UNL d   1       2.280   0.357  -0.316  0.00  0.00     0.241 C 
ATOM     14  O   UNL d   1       2.724   0.657  -1.425  0.00  0.00    -0.272 OA
ATOM     15  C   UNL d   1       3.207   0.350   0.883  0.00  0.00     0.119 C 
BRANCH  12  16
ATOM     16  N   UNL d   1       0.194  -0.387  -1.283  0.00  0.00    -0.180 N 
ATOM     17  C   UNL d   1       0.609  -1.367  -2.186  0.00  0.00     0.242 C 
ATOM     18  O   UNL d   1       0.221  -1.433  -3.356  0.00  0.00    -0.272 OA
ATOM     19  C   UNL d   1       1.605  -2.388  -1.688  0.00  0.00     0.119 C 
ATOM     20  C   UNL d   1      -0.754   0.601  -1.571  0.00  0.00     0.242 C 
ATOM     21  O   UNL d   1      -0.705   1.745  -1.103  0.00  0.00    -0.272 OA
ATOM     22  C   UNL d   1      -1.913   0.208  -2.456  0.00  0.00     0.119 C 
ENDBRANCH  12  16
ENDBRANCH   1  12
TORSDOF 2
