REMARK  7 active torsions:
REMARK  status: ('A' for Active; 'I' for Inactive)
REMARK    1  A    between atoms: O_5  and  C_1 
REMARK    2  A    between atoms: C_2  and  C_8 
REMARK    3  A    between atoms: C_6  and  C_2 
REMARK    4  A    between atoms: C_7  and  C_2 
REMARK    5  A    between atoms: N_10  and  C_3 
REMARK    6  A    between atoms: N_9  and  C_4 
REMARK    7  A    between atoms: C_24  and  O_5 
ROOT
ATOM      1  C   UNL d   1       1.603   3.648   5.290  0.00  0.00     0.084 C 
ENDROOT
BRANCH   1   2
ATOM      2  C   UNL d   1       1.371   3.074   3.885  0.00  0.00    -0.045 A 
ATOM      3  C   UNL d   1       1.026   3.916   2.815  0.00  0.00     0.011 A 
ATOM      4  C   UNL d   1       0.840   3.400   1.524  0.00  0.00     0.037 A 
ATOM      5  C   UNL d   1       0.969   2.031   1.292  0.00  0.00     0.078 A 
ATOM      6  C   UNL d   1       1.343   1.192   2.341  0.00  0.00     0.037 A 
ATOM      7  C   UNL d   1       1.529   1.703   3.625  0.00  0.00     0.011 A 
BRANCH   5   8
ATOM      8  O   UNL d   1       0.812   1.395   0.100  0.00  0.00    -0.255 OA
BRANCH   8   9
ATOM      9  C   UNL d   1      -0.100   1.920  -0.849  0.00  0.00     0.530 C 
ATOM     10  F   UNL d   1      -0.957   2.835  -0.346  0.00  0.00    -0.144 F 
ATOM     11  F   UNL d   1      -0.837   0.898  -1.342  0.00  0.00    -0.144 F 
ATOM     12  F   UNL d   1       0.583   2.477  -1.872  0.00  0.00    -0.144 F 
ENDBRANCH   8   9
ENDBRANCH   5   8
ENDBRANCH   1   2
BRANCH   1  13
ATOM     13  C   UNL d   1       0.638   3.001   6.290  0.00  0.00    -0.045 A 
ATOM     14  C   UNL d   1       0.950   1.836   6.994  0.00  0.00     0.010 A 
ATOM     15  C   UNL d   1       0.001   1.210   7.819  0.00  0.00     0.030 A 
ATOM     16  C   UNL d   1      -1.296   1.716   7.993  0.00  0.00     0.029 A 
ATOM     17  C   UNL d   1      -1.581   2.906   7.301  0.00  0.00     0.030 A 
ATOM     18  C   UNL d   1      -0.652   3.529   6.457  0.00  0.00     0.010 A 
BRANCH  16  19
ATOM     19  N   UNL d   1      -2.231   1.133   8.854  0.00  0.00    -0.390 N 
ATOM     20  C   UNL d   1      -3.640   1.111   8.454  0.00  0.00     0.149 C 
ATOM     21  C   UNL d   1      -1.847   0.002   9.697  0.00  0.00     0.149 C 
ENDBRANCH  16  19
ENDBRANCH   1  13
BRANCH   1  22
ATOM     22  C   UNL d   1       3.074   3.700   5.736  0.00  0.00    -0.045 A 
ATOM     23  C   UNL d   1       4.128   3.236   4.939  0.00  0.00     0.010 A 
ATOM     24  C   UNL d   1       5.462   3.340   5.353  0.00  0.00     0.030 A 
ATOM     25  C   UNL d   1       5.830   3.934   6.567  0.00  0.00     0.029 A 
ATOM     26  C   UNL d   1       4.768   4.392   7.361  0.00  0.00     0.030 A 
ATOM     27  C   UNL d   1       3.420   4.284   6.961  0.00  0.00     0.010 A 
BRANCH  25  28
ATOM     28  N   UNL d   1       7.154   4.071   6.938  0.00  0.00    -0.390 N 
ATOM     29  C   UNL d   1       7.574   4.150   8.332  0.00  0.00     0.149 C 
ATOM     30  C   UNL d   1       8.229   4.140   5.951  0.00  0.00     0.149 C 
ENDBRANCH  25  28
ENDBRANCH   1  22
TORSDOF 7
