REMARK  8 active torsions:
REMARK  status: ('A' for Active; 'I' for Inactive)
REMARK    1  A    between atoms: N_5  and  C_1 
REMARK    2  A    between atoms: C_10  and  C_2 
REMARK    3  A    between atoms: C_7  and  N_5 
REMARK    4  A    between atoms: N_11  and  C_7 
REMARK       I    between atoms: C_9  and  N_8 
REMARK    5  A    between atoms: O_18  and  C_9 
REMARK    6  A    between atoms: O_19  and  C_10 
REMARK    7  A    between atoms: C_22  and  O_18 
REMARK    8  A    between atoms: C_23  and  O_19 
ROOT
ATOM      1  C   UNL d   1       1.866   1.020  -0.360  0.00  0.00     0.093 C 
ATOM      2  C   UNL d   1       0.694   1.689  -0.668  0.00  0.00     0.080 C 
ATOM      3  C   UNL d   1      -0.082  -0.426  -0.039  0.00  0.00     0.010 C 
ATOM      4  C   UNL d   1      -0.437   0.898  -0.248  0.00  0.00    -0.023 C 
ATOM      5  S   UNL d   1       1.607  -0.637  -0.046  0.00  0.00    -0.074 SA
ATOM      6  N   UNL d   1      -2.412  -1.067  -0.056  0.00  0.00    -0.323 N 
ATOM      7  C   UNL d   1      -3.106  -1.527  -1.163  0.00  0.00     0.363 C 
ATOM      8  C   UNL d   1      -1.051  -1.561   0.191  0.00  0.00     0.174 C 
ATOM      9  C   UNL d   1      -1.878   1.335  -0.166  0.00  0.00     0.061 C 
ATOM     10  C   UNL d   1      -2.720   0.248   0.528  0.00  0.00     0.133 C 
ATOM     11  O   UNL d   1      -2.723  -2.432  -1.892  0.00  0.00    -0.238 OA
ENDROOT
BRANCH   1  12
ATOM     12  N   UNL d   1       3.200   1.397  -0.314  0.00  0.00    -0.327 N 
ATOM     13  H   UNL d   1       3.859   0.633  -0.224  0.00  0.00     0.169 HD
BRANCH  12  14
ATOM     14  C   UNL d   1       3.675   2.612   0.190  0.00  0.00     0.174 C 
ATOM     15  S   UNL d   1       2.797   3.618   1.224  0.00  0.00    -0.041 SA
BRANCH  14  16
ATOM     16  N   UNL d   1       5.029   2.856  -0.186  0.00  0.00    -0.358 N 
ATOM     17  C   UNL d   1       5.762   4.003   0.382  0.00  0.00     0.125 C 
ATOM     18  C   UNL d   1       7.275   3.825   0.327  0.00  0.00     0.020 C 
ATOM     19  C   UNL d   1       7.754   3.489  -1.077  0.00  0.00     0.003 C 
ATOM     20  C   UNL d   1       6.991   2.294  -1.634  0.00  0.00     0.020 C 
ATOM     21  C   UNL d   1       5.477   2.471  -1.534  0.00  0.00     0.125 C 
ENDBRANCH  14  16
ENDBRANCH  12  14
ENDBRANCH   1  12
BRANCH   2  22
ATOM     22  C   UNL d   1       0.596   2.981  -1.339  0.00  0.00     0.296 C 
ATOM     23  O   UNL d   1      -0.397   3.695  -1.285  0.00  0.00    -0.259 OA
BRANCH  22  24
ATOM     24  O   UNL d   1       1.664   3.217  -2.163  0.00  0.00    -0.318 OA
BRANCH  24  25
ATOM     25  C   UNL d   1       1.553   4.362  -3.015  0.00  0.00     0.174 C 
ATOM     26  C   UNL d   1       1.949   5.616  -2.265  0.00  0.00     0.034 C 
ENDBRANCH  24  25
ENDBRANCH  22  24
ENDBRANCH   2  22
BRANCH   7  27
ATOM     27  O   UNL d   1      -4.249  -0.818  -1.368  0.00  0.00    -0.304 OA
BRANCH  27  28
ATOM     28  C   UNL d   1      -4.875  -0.951  -2.651  0.00  0.00     0.176 C 
ATOM     29  C   UNL d   1      -4.307   0.125  -3.558  0.00  0.00     0.034 C 
ENDBRANCH  27  28
ENDBRANCH   7  27
TORSDOF 8
