REMARK  3 active torsions:
REMARK  status: ('A' for Active; 'I' for Inactive)
REMARK    1  A    between atoms: C_5  and  C_2 
REMARK    2  A    between atoms: C_4  and  C_8 
REMARK       I    between atoms: N_11  and  C_5 
REMARK       I    between atoms: C_8  and  N_12 
REMARK    3  A    between atoms: N_12  and  N_11 
ROOT
ATOM      1  C   UNL d   1      -4.424   2.018  -0.048  0.00  0.00     0.277 C 
ATOM      2  N   UNL d   1      -4.330   3.398  -0.164  0.00  0.00    -0.263 N 
ATOM      3  O   UNL d   1      -5.527   1.477   0.064  0.00  0.00    -0.265 OA
ATOM      4  H   UNL d   1      -3.450   3.892  -0.295  0.00  0.00     0.190 HD
ENDROOT
BRANCH   1   5
ATOM      5  C   UNL d   1      -3.176   1.272  -0.063  0.00  0.00     0.075 A 
ATOM      6  S   UNL d   1      -1.663   2.047  -0.094  0.00  0.00    -0.083 SA
ATOM      7  C   UNL d   1      -0.780   0.560  -0.044  0.00  0.00     0.027 A 
ATOM      8  C   UNL d   1      -1.656  -0.530  -0.026  0.00  0.00    -0.017 A 
ATOM      9  C   UNL d   1       0.639   0.376  -0.024  0.00  0.00    -0.008 A 
ATOM     10  C   UNL d   1      -1.108  -1.833   0.003  0.00  0.00     0.014 A 
ATOM     11  C   UNL d   1      -3.028  -0.100  -0.033  0.00  0.00     0.037 A 
ATOM     12  C   UNL d   1       0.279  -2.027   0.011  0.00  0.00     0.013 A 
ATOM     13  C   UNL d   1       1.155  -0.940  -0.001  0.00  0.00    -0.025 A 
ATOM     14  C   UNL d   1       2.549  -1.120   0.011  0.00  0.00     0.012 A 
ATOM     15  C   UNL d   1       3.415  -0.023   0.007  0.00  0.00     0.001 A 
ATOM     16  C   UNL d   1       2.904   1.271  -0.008  0.00  0.00     0.001 A 
ATOM     17  C   UNL d   1       1.526   1.475  -0.024  0.00  0.00     0.013 A 
ENDBRANCH   1   5
BRANCH   2  18
ATOM     18  N   UNL d   1      -5.506   4.148  -0.107  0.00  0.00    -0.263 N 
ATOM     19  C   UNL d   1      -5.473   5.506  -0.343  0.00  0.00     0.271 C 
ATOM     20  O   UNL d   1      -4.435   6.144  -0.485  0.00  0.00    -0.266 OA
ATOM     21  H   UNL d   1      -6.369   3.610  -0.041  0.00  0.00     0.190 HD
BRANCH  19  22
ATOM     22  C   UNL d   1      -6.797   6.192  -0.336  0.00  0.00     0.055 A 
ATOM     23  C   UNL d   1      -7.977   5.632  -0.851  0.00  0.00     0.051 A 
ATOM     24  C   UNL d   1      -9.194   6.312  -0.727  0.00  0.00     0.048 A 
ATOM     25 CL   UNL d   1      -8.024   4.123  -1.694  0.00  0.00    -0.083 Cl
ATOM     26  C   UNL d   1      -9.235   7.558  -0.108  0.00  0.00     0.035 A 
ATOM     27  C   UNL d   1      -8.067   8.147   0.370  0.00  0.00     0.025 A 
ATOM     28 CL   UNL d   1     -10.741   8.370   0.068  0.00  0.00    -0.084 Cl
ATOM     29  C   UNL d   1      -6.849   7.469   0.251  0.00  0.00     0.020 A 
ENDBRANCH  19  22
ENDBRANCH   2  18
TORSDOF 3
