REMARK  5 active torsions:
REMARK  status: ('A' for Active; 'I' for Inactive)
REMARK    1  A    between atoms: C_4  and  C_1 
REMARK    2  A    between atoms: C_2  and  C_7 
REMARK    3  A    between atoms: C_21  and  C_6 
REMARK    4  A    between atoms: N_10  and  C_21 
REMARK    5  A    between atoms: C_20  and  C_19 
ROOT
ATOM      1  N   UNL d   1       1.053  -3.457   0.262  0.00  0.00    -0.393 N 
ATOM      2  HN  UNL d   1       1.609  -3.349   1.111  1.00  0.00     0.159 HD
ATOM      3  C   UNL d   1       1.399  -4.264  -0.678  0.00  0.00     0.094 C 
ENDROOT
BRANCH   1   4
ATOM      4  C   UNL d   1      -0.183  -2.702   0.048  0.00  0.00     0.165 C 
BRANCH   4   5
ATOM      5  C   UNL d   1       0.159  -1.240   0.040  0.00  0.00     0.001 A 
ATOM      6  S   UNL d   1      -0.196  -0.263  -1.317  0.00  0.00    -0.092 SA
ATOM      7  C   UNL d   1       0.517   1.134  -0.611  0.00  0.00     0.022 A 
ATOM      8  C   UNL d   1       0.987   0.851   0.659  0.00  0.00     0.021 A 
ATOM      9  C   UNL d   1       0.781  -0.509   1.033  0.00  0.00     0.018 A 
BRANCH   7  10
ATOM     10  C   UNL d   1       0.590   2.390  -1.326  0.00  0.00     0.021 A 
ATOM     11  S   UNL d   1       1.836   3.533  -1.008  0.00  0.00    -0.101 SA
ATOM     12  C   UNL d   1       1.266   4.606  -2.208  0.00  0.00     0.050 A 
ATOM     13  C   UNL d   1       0.139   4.127  -2.833  0.00  0.00     0.008 A 
ATOM     14  C   UNL d   1      -0.251   2.853  -2.323  0.00  0.00     0.021 A 
ENDBRANCH   7  10
ENDBRANCH   4   5
ENDBRANCH   1   4
BRANCH   3  15
ATOM     15  C   UNL d   1       2.692  -4.976  -0.615  0.00  0.00    -0.020 A 
ATOM     16  C   UNL d   1       3.565  -4.741   0.454  0.00  0.00     0.028 A 
ATOM     17  C   UNL d   1       4.827  -5.349   0.487  0.00  0.00     0.048 A 
ATOM     18  C   UNL d   1       5.193  -6.205  -0.564  0.00  0.00     0.016 A 
ATOM     19  C   UNL d   1       4.314  -6.448  -1.624  0.00  0.00     0.002 A 
ATOM     20  C   UNL d   1       3.062  -5.833  -1.653  0.00  0.00     0.013 A 
BRANCH  17  21
ATOM     21  C   UNL d   1       5.785  -5.077   1.619  0.00  0.00     0.417 C 
ATOM     22  F   UNL d   1       5.295  -4.225   2.563  0.00  0.00    -0.166 F 
ATOM     23  F   UNL d   1       6.136  -6.210   2.288  0.00  0.00    -0.166 F 
ATOM     24  F   UNL d   1       6.953  -4.522   1.189  0.00  0.00    -0.166 F 
ENDBRANCH  17  21
ENDBRANCH   3  15
TORSDOF 5
