REMARK  2 active torsions:
REMARK  status: ('A' for Active; 'I' for Inactive)
REMARK    1  A    between atoms: C_2  and  C_1 
REMARK       I    between atoms: N_8  and  C_2 
REMARK    2  A    between atoms: C_10  and  C_5 
ROOT
ATOM      1  C   UNL d   1      -0.086  -1.184   0.032  0.00  0.00     0.092 C 
ATOM      2  N   UNL d   1      -1.256   0.759  -0.206  0.00  0.00    -0.259 N 
ATOM      3  HN  UNL d   1      -2.012   1.428  -0.351  1.00  0.00     0.195 HD
ATOM      4  C   UNL d   1      -1.387  -0.567  -0.013  0.00  0.00     0.083 C 
ATOM      5  O   UNL d   1       0.081   1.038  -0.171  0.00  0.00    -0.241 OA
ATOM      6  C   UNL d   1       0.780  -0.103   0.026  0.00  0.00     0.090 C 
ATOM      7  C   UNL d   1       2.229   0.092   0.222  0.00  0.00     0.080 C 
ENDROOT
BRANCH   1   8
ATOM      8  C   UNL d   1       0.266  -2.577   0.243  0.00  0.00     0.258 C 
ATOM      9  N   UNL d   1       1.295  -3.144  -0.512  0.00  0.00    -0.344 N 
ATOM     10  C   UNL d   1       1.701  -4.529  -0.246  0.00  0.00     0.156 C 
ATOM     11  C   UNL d   1       1.908  -2.600  -1.729  0.00  0.00     0.156 C 
ATOM     12  C   UNL d   1       3.237  -4.668  -0.234  0.00  0.00     0.289 C 
ATOM     13  N   UNL d   1       3.893  -4.094  -1.425  0.00  0.00     0.086 N 
ATOM     14  C   UNL d   1       3.444  -2.708  -1.643  0.00  0.00     0.289 C 
ATOM     15  H   UNL d   1       4.903  -4.103  -1.284  0.00  0.00     0.316 HD
ATOM     16  O   UNL d   1      -0.332  -3.237   1.094  0.00  0.00    -0.267 OA
ENDBRANCH   1   8
BRANCH   4  17
ATOM     17  C   UNL d   1      -2.740  -1.126   0.131  0.00  0.00    -0.006 A 
ATOM     18  C   UNL d   1      -3.071  -2.429  -0.255  0.00  0.00     0.014 A 
ATOM     19  C   UNL d   1      -4.380  -2.906  -0.104  0.00  0.00     0.001 A 
ATOM     20  C   UNL d   1      -5.376  -2.087   0.428  0.00  0.00     0.000 A 
ATOM     21  C   UNL d   1      -5.065  -0.788   0.815  0.00  0.00     0.001 A 
ATOM     22  C   UNL d   1      -3.760  -0.315   0.668  0.00  0.00     0.014 A 
ENDBRANCH   4  17
TORSDOF 2
