REMARK  6 active torsions:
REMARK  status: ('A' for Active; 'I' for Inactive)
REMARK    1  A    between atoms: C_4  and  C_1 
REMARK    2  A    between atoms: C_8  and  C_1 
REMARK    3  A    between atoms: O_6  and  N_2 
REMARK    4  A    between atoms: C_5  and  O_6 
REMARK    5  A    between atoms: C_9  and  C_5 
REMARK    6  A    between atoms: O_19  and  C_16 
ROOT
ATOM      1  C   UNL d   1       1.063   0.123  -0.135  0.00  0.00     0.057 C 
ATOM      2  N   UNL d   1       0.315  -0.344  -1.098  0.00  0.00    -0.259 N 
ATOM      3  HN  UNL d   1      -0.701  -0.387  -1.020  1.00  0.00     0.194 HD
ENDROOT
BRANCH   2   4
ATOM      4  O   UNL d   1       0.988  -0.779  -2.237  0.00  0.00    -0.195 OA
BRANCH   4   5
ATOM      5  C   UNL d   1       0.193  -1.584  -3.007  0.00  0.00     0.315 C 
ATOM      6  O   UNL d   1      -0.836  -2.162  -2.684  0.00  0.00    -0.257 OA
BRANCH   5   7
ATOM      7  C   UNL d   1       0.800  -1.702  -4.359  0.00  0.00     0.041 A 
ATOM      8  C   UNL d   1       1.586  -0.675  -4.905  0.00  0.00     0.020 A 
ATOM      9  C   UNL d   1       2.084  -0.779  -6.210  0.00  0.00     0.038 A 
ATOM     10  C   UNL d   1       1.800  -1.907  -6.981  0.00  0.00     0.068 A 
ATOM     11  C   UNL d   1       1.045  -2.944  -6.428  0.00  0.00     0.038 A 
ATOM     12  C   UNL d   1       0.533  -2.839  -5.130  0.00  0.00     0.020 A 
BRANCH  10  13
ATOM     13  O   UNL d   1       2.235  -2.113  -8.260  0.00  0.00    -0.356 OA
ATOM     14  C   UNL d   1       2.399  -0.939  -9.050  0.00  0.00     0.210 C 
ENDBRANCH  10  13
ENDBRANCH   5   7
ENDBRANCH   4   5
ENDBRANCH   2   4
BRANCH   1  15
ATOM     15  C   UNL d   1       0.309   0.728   0.988  0.00  0.00     0.030 A 
ATOM     16  S   UNL d   1      -1.193   0.028   1.471  0.00  0.00    -0.100 SA
ATOM     17  C   UNL d   1      -1.451   1.205   2.682  0.00  0.00     0.050 A 
ATOM     18  C   UNL d   1      -0.424   2.116   2.739  0.00  0.00     0.008 A 
ATOM     19  C   UNL d   1       0.577   1.847   1.760  0.00  0.00     0.021 A 
ENDBRANCH   1  15
BRANCH   1  20
ATOM     20  C   UNL d   1       2.642   0.103  -0.060  0.00  0.00    -0.005 C 
ATOM     21  C   UNL d   1       3.363  -0.689  -1.171  0.00  0.00     0.021 C 
ATOM     22  C   UNL d   1       3.223   1.528  -0.120  0.00  0.00     0.021 C 
ATOM     23  C   UNL d   1       3.054  -0.578   1.265  0.00  0.00     0.021 C 
ENDBRANCH   1  20
TORSDOF 6
