REMARK  2 active torsions:
REMARK  status: ('A' for Active; 'I' for Inactive)
REMARK    1  A    between atoms: C_3  and  C_1 
REMARK       I    between atoms: N_7  and  C_3 
REMARK    2  A    between atoms: C_12  and  N_11 
ROOT
ATOM      1  C   UNL d   1      -1.368  -2.900  -0.011  0.00  0.00     0.256 C 
ATOM      2  N   UNL d   1      -0.085  -3.450  -0.136  0.00  0.00    -0.345 N 
ATOM      3  N   UNL d   1       2.396  -4.860  -0.428  0.00  0.00    -0.377 N 
ATOM      4  O   UNL d   1      -2.283  -3.181  -0.787  0.00  0.00    -0.267 OA
ATOM      5  C   UNL d   1       0.989  -3.327   0.868  0.00  0.00     0.146 C 
ATOM      6  C   UNL d   1       0.051  -4.576  -1.079  0.00  0.00     0.146 C 
ATOM      7  C   UNL d   1       2.406  -3.587   0.316  0.00  0.00     0.143 C 
ATOM      8  C   UNL d   1       1.490  -4.795  -1.587  0.00  0.00     0.143 C 
ENDROOT
BRANCH   1   9
ATOM      9  C   UNL d   1      -1.684  -1.985   1.099  0.00  0.00     0.061 A 
ATOM     10  C   UNL d   1      -2.333  -0.742   0.864  0.00  0.00     0.082 A 
ATOM     11  N   UNL d   1      -2.675  -0.189  -0.313  0.00  0.00    -0.310 N 
ATOM     12  C   UNL d   1      -2.705   0.144   2.036  0.00  0.00     0.068 A 
ATOM     13  S   UNL d   1      -3.455   1.234   0.021  0.00  0.00     0.068 SA
ATOM     14  HN  UNL d   1      -2.489  -0.575  -1.238  1.00  0.00     0.176 HD
ATOM     15  N   UNL d   1      -3.323   1.280   1.675  0.00  0.00    -0.310 N 
ATOM     16  HN  UNL d   1      -3.647   2.022   2.294  1.00  0.00     0.176 HD
ATOM     17  C   UNL d   1      -2.409  -0.236   3.367  0.00  0.00     0.032 A 
ATOM     18  C   UNL d   1      -1.801  -1.489   3.537  0.00  0.00     0.003 A 
ATOM     19  C   UNL d   1      -1.480  -2.339   2.454  0.00  0.00     0.019 A 
ENDBRANCH   1   9
BRANCH   3  20
ATOM     20  C   UNL d   1       3.627  -5.504  -0.550  0.00  0.00     0.036 A 
ATOM     21  C   UNL d   1       4.210  -6.153   0.565  0.00  0.00    -0.035 A 
ATOM     22  C   UNL d   1       3.554  -6.191   1.921  0.00  0.00     0.050 C 
ATOM     23  C   UNL d   1       5.447  -6.814   0.433  0.00  0.00     0.009 A 
ATOM     24  C   UNL d   1       6.097  -6.873  -0.795  0.00  0.00     0.001 A 
ATOM     25  C   UNL d   1       5.526  -6.258  -1.902  0.00  0.00     0.002 A 
ATOM     26  C   UNL d   1       4.309  -5.580  -1.777  0.00  0.00     0.030 A 
ENDBRANCH   3  20
TORSDOF 2
