REMARK  2 active torsions:
REMARK  status: ('A' for Active; 'I' for Inactive)
REMARK    1  A    between atoms: C_7  and  C_1 
REMARK    2  A    between atoms: N_8  and  C_4 
ROOT
ATOM      1  C   UNL d   1      -0.267  -1.201   0.015  0.00  0.00     0.093 A 
ATOM      2  N   UNL d   1       0.983  -0.710   0.112  0.00  0.00    -0.258 N 
ATOM      3  HN  UNL d   1       1.845  -1.250   0.187  1.00  0.00     0.195 HD
ATOM      4  C   UNL d   1      -1.205  -0.122  -0.048  0.00  0.00     0.087 A 
ATOM      5  C   UNL d   1      -0.439   1.017  -0.006  0.00  0.00     0.101 A 
ATOM      6  O   UNL d   1       0.869   0.663   0.089  0.00  0.00    -0.240 OA
ATOM      7  C   UNL d   1      -0.712   2.464  -0.022  0.00  0.00     0.081 C 
ENDROOT
BRANCH   1   8
ATOM      8  C   UNL d   1      -0.503  -2.647   0.008  0.00  0.00    -0.005 A 
ATOM      9  C   UNL d   1       0.340  -3.502   0.735  0.00  0.00     0.014 A 
ATOM     10  C   UNL d   1       0.121  -4.881   0.747  0.00  0.00     0.001 A 
ATOM     11  C   UNL d   1      -0.943  -5.424   0.030  0.00  0.00     0.000 A 
ATOM     12  C   UNL d   1      -1.780  -4.590  -0.708  0.00  0.00     0.001 A 
ATOM     13  C   UNL d   1      -1.557  -3.210  -0.727  0.00  0.00     0.014 A 
ENDBRANCH   1   8
BRANCH   4  14
ATOM     14  N   UNL d   1      -2.555  -0.164  -0.108  0.00  0.00    -0.395 N 
ATOM     15  H   UNL d   1      -3.053  -1.013   0.150  0.00  0.00     0.156 HD
ATOM     16  H   UNL d   1      -3.112   0.672   0.043  0.00  0.00     0.156 HD
ENDBRANCH   4  14
TORSDOF 2
