REMARK  1 active torsions:
REMARK  status: ('A' for Active; 'I' for Inactive)
REMARK       I    between atoms: C_3  and  N_1 
REMARK    1  A    between atoms: N_9  and  C_6 
ROOT
ATOM      1  N   UNL d   1      -1.212  -1.435  -0.139  0.00  0.00    -0.316 N 
ATOM      2  C   UNL d   1      -0.006  -0.683  -0.098  0.00  0.00     0.064 A 
ATOM      3  C   UNL d   1      -1.351  -2.813  -0.107  0.00  0.00     0.220 C 
ATOM      4  C   UNL d   1      -2.348  -0.498  -0.078  0.00  0.00     0.137 A 
ATOM      5  C   UNL d   1      -0.321   0.680   0.026  0.00  0.00    -0.028 A 
ATOM      6  C   UNL d   1       1.334  -1.085  -0.147  0.00  0.00     0.033 A 
ATOM      7  O   UNL d   1      -0.435  -3.625   0.031  0.00  0.00    -0.273 OA
ATOM      8  C   UNL d   1      -1.794   0.919   0.036  0.00  0.00     0.061 A 
ATOM      9  C   UNL d   1      -2.768  -3.337  -0.195  0.00  0.00     0.117 C 
ATOM     10  C   UNL d   1       1.987   1.275   0.046  0.00  0.00     0.002 A 
ATOM     11  C   UNL d   1       0.655   1.663   0.110  0.00  0.00     0.009 A 
ATOM     12  C   UNL d   1       2.316  -0.079  -0.104  0.00  0.00     0.026 A 
ENDROOT
BRANCH   6  13
ATOM     13  N   UNL d   1       1.752  -2.379  -0.491  0.00  0.00    -0.301 NA
ATOM     14  H   UNL d   1       1.037  -3.082  -0.266  0.00  0.00     0.124 HD
ATOM     15  H   UNL d   1       2.649  -2.640  -0.102  0.00  0.00     0.124 HD
ENDBRANCH   6  13
TORSDOF 1
