REMARK  5 active torsions:
REMARK  status: ('A' for Active; 'I' for Inactive)
REMARK    1  A    between atoms: C_2  and  S_1 
REMARK    2  A    between atoms: N_4  and  S_1 
REMARK    3  A    between atoms: C_9  and  N_4 
REMARK    4  A    between atoms: N_10  and  C_8 
REMARK    5  A    between atoms: C_17  and  C_9 
ROOT
ATOM      1  C   UNL d   1       0.379   1.581  -0.465  0.00  0.00     0.090 A 
ATOM      2  C   UNL d   1       1.050   2.722   0.065  0.00  0.00    -0.001 A 
ATOM      3  C   UNL d   1       0.688   4.008  -0.433  0.00  0.00    -0.003 A 
ATOM      4  C   UNL d   1       1.343   5.172   0.068  0.00  0.00     0.017 A 
ATOM      5  C   UNL d   1       2.064   2.665   1.052  0.00  0.00     0.014 A 
ATOM      6  C   UNL d   1      -0.650   1.703  -1.408  0.00  0.00     0.026 A 
ATOM      7  C   UNL d   1      -0.331   4.083  -1.413  0.00  0.00     0.014 A 
ATOM      8  C   UNL d   1      -1.004   2.956  -1.881  0.00  0.00     0.002 A 
ATOM      9  C   UNL d   1       2.729   3.801   1.503  0.00  0.00     0.003 A 
ATOM     10  C   UNL d   1       2.392   5.041   0.988  0.00  0.00     0.024 A 
ENDROOT
BRANCH   1  11
ATOM     11  S   UNL d   1       0.817  -0.076   0.024  0.00  0.00     0.259 S 
ATOM     12  O   UNL d   1       0.071  -1.020  -0.779  0.00  0.00    -0.201 OA
ATOM     13  O   UNL d   1       0.784  -0.141   1.470  0.00  0.00    -0.201 OA
BRANCH  11  14
ATOM     14  N   UNL d   1       2.440  -0.193  -0.427  0.00  0.00    -0.315 N 
ATOM     15  H   UNL d   1       3.009  -0.496   0.361  0.00  0.00     0.172 HD
BRANCH  14  16
ATOM     16  C   UNL d   1       2.744  -0.742  -1.754  0.00  0.00     0.136 C 
BRANCH  16  17
ATOM     17  C   UNL d   1       4.262  -0.781  -2.005  0.00  0.00    -0.004 C 
ATOM     18  C   UNL d   1       4.998  -1.681  -1.007  0.00  0.00     0.011 C 
ATOM     19  C   UNL d   1       4.529  -1.285  -3.427  0.00  0.00     0.011 C 
ENDBRANCH  16  17
ENDBRANCH  14  16
ENDBRANCH  11  14
ENDBRANCH   1  11
BRANCH   4  20
ATOM     20  N   UNL d   1       1.130   6.457  -0.483  0.00  0.00    -0.302 NA
ATOM     21  H   UNL d   1       0.182   6.612  -0.804  0.00  0.00     0.124 HD
ATOM     22  H   UNL d   1       1.439   7.208   0.126  0.00  0.00     0.124 HD
ENDBRANCH   4  20
TORSDOF 5
