REMARK  4 active torsions:
REMARK  status: ('A' for Active; 'I' for Inactive)
REMARK    1  A    between atoms: C_7  and  C_1 
REMARK       I    between atoms: N_10  and  C_7 
REMARK    2  A    between atoms: N_9  and  C_11 
REMARK    3  A    between atoms: C_16  and  N_10 
REMARK    4  A    between atoms: C_17  and  C_16 
ROOT
ATOM      1  C   UNL d   1       2.152  -3.115   0.031  0.00  0.00     0.161 C 
ENDROOT
BRANCH   1   2
ATOM      2  N   UNL d   1       1.644  -2.738  -1.279  0.00  0.00    -0.352 N 
ATOM      3  C   UNL d   1       0.781  -1.655  -1.405  0.00  0.00     0.262 C 
ATOM      4  O   UNL d   1       0.446  -1.035  -0.399  0.00  0.00    -0.267 OA
ATOM      5  H   UNL d   1       1.985  -3.223  -2.095  0.00  0.00     0.163 HD
BRANCH   3   6
ATOM      6  C   UNL d   1       0.307  -1.293  -2.731  0.00  0.00     0.114 A 
ATOM      7  C   UNL d   1      -0.544  -0.261  -3.126  0.00  0.00     0.046 A 
ATOM      8  N   UNL d   1      -0.803  -0.211  -4.495  0.00  0.00    -0.298 N 
ATOM      9  C   UNL d   1      -1.210   0.782  -2.296  0.00  0.00     0.071 C 
ATOM     10  N   UNL d   1      -0.176  -1.167  -5.149  0.00  0.00    -0.269 N 
ATOM     11  HN  UNL d   1      -1.405   0.482  -4.938  1.00  0.00     0.187 HD
ATOM     12  S   UNL d   1       0.732  -2.142  -4.160  0.00  0.00     0.009 SA
ATOM     13  HN  UNL d   1      -0.243  -1.294  -6.158  1.00  0.00     0.195 HD
ENDBRANCH   3   6
ENDBRANCH   1   2
BRANCH   1  14
ATOM     14  C   UNL d   1       3.124  -4.264  -0.023  0.00  0.00    -0.040 A 
ATOM     15  C   UNL d   1       4.483  -4.001  -0.197  0.00  0.00     0.011 A 
ATOM     16  C   UNL d   1       5.408  -5.045  -0.288  0.00  0.00     0.030 A 
ATOM     17  C   UNL d   1       5.025  -6.390  -0.226  0.00  0.00     0.030 A 
ATOM     18  C   UNL d   1       3.663  -6.641   0.004  0.00  0.00     0.030 A 
ATOM     19  C   UNL d   1       2.721  -5.598   0.098  0.00  0.00     0.011 A 
BRANCH  17  20
ATOM     20  N   UNL d   1       5.935  -7.407  -0.412  0.00  0.00    -0.377 N 
ATOM     21  C   UNL d   1       7.145  -7.239  -1.233  0.00  0.00     0.149 C 
ATOM     22  C   UNL d   1       8.400  -7.480  -0.385  0.00  0.00     0.187 C 
ATOM     23  O   UNL d   1       8.355  -8.757   0.274  0.00  0.00    -0.388 OA
ATOM     24  C   UNL d   1       7.207  -8.828   1.138  0.00  0.00     0.187 C 
ATOM     25  C   UNL d   1       5.891  -8.659   0.357  0.00  0.00     0.149 C 
ENDBRANCH  17  20
ENDBRANCH   1  14
TORSDOF 4
