REMARK  8 active torsions:
REMARK  status: ('A' for Active; 'I' for Inactive)
REMARK    1  A    between atoms: O_6  and  C_1 
REMARK    2  A    between atoms: C_9  and  N_2 
REMARK    3  A    between atoms: S_12  and  C_3 
REMARK    4  A    between atoms: C_10  and  O_6 
REMARK    5  A    between atoms: C_11  and  C_10 
REMARK    6  A    between atoms: C_26  and  S_12 
REMARK    7  A    between atoms: C_16  and  C_21 
REMARK    8  A    between atoms: C_21  and  C_26 
ROOT
ATOM      1  C   UNL d   1      -0.490  -0.966   0.051  0.00  0.00     0.251 A 
ATOM      2  N   UNL d   1       0.791  -0.479   0.306  0.00  0.00    -0.285 N 
ATOM      3  C   UNL d   1       0.707   0.851  -0.043  0.00  0.00     0.165 A 
ATOM      4  N   UNL d   1      -1.282   0.018  -0.285  0.00  0.00    -0.262 N 
ATOM      5  HN  UNL d   1      -2.279  -0.057  -0.485  1.00  0.00     0.190 HD
ATOM      6  N   UNL d   1      -0.539   1.163  -0.322  0.00  0.00    -0.277 N 
ATOM      7  HN  UNL d   1      -0.891   2.098  -0.529  1.00  0.00     0.189 HD
ENDROOT
BRANCH   3   8
ATOM      8  S   UNL d   1       2.018   1.963  -0.220  0.00  0.00    -0.085 SA
BRANCH   8   9
ATOM      9  C   UNL d   1       1.161   3.513  -0.606  0.00  0.00     0.166 C 
BRANCH   9  10
ATOM     10  C   UNL d   1       2.129   4.660  -0.869  0.00  0.00     0.169 C 
ATOM     11  O   UNL d   1       3.348   4.511  -1.009  0.00  0.00    -0.291 OA
BRANCH  10  12
ATOM     12  C   UNL d   1       1.564   6.043  -0.976  0.00  0.00     0.013 A 
ATOM     13  C   UNL d   1       2.446   7.137  -1.066  0.00  0.00     0.054 A 
ATOM     14  C   UNL d   1       1.946   8.440  -1.119  0.00  0.00     0.103 A 
ATOM     15  O   UNL d   1       2.865   9.458  -1.163  0.00  0.00    -0.346 OA
ATOM     16  C   UNL d   1       0.568   8.664  -1.124  0.00  0.00     0.102 A 
ATOM     17  C   UNL d   1       2.269  10.711  -0.806  0.00  0.00     0.202 C 
ATOM     18  C   UNL d   1       0.957  10.914  -1.545  0.00  0.00     0.202 C 
ATOM     19  O   UNL d   1       0.002   9.911  -1.183  0.00  0.00    -0.346 OA
ATOM     20  C   UNL d   1      -0.311   7.587  -1.046  0.00  0.00     0.040 A 
ATOM     21  C   UNL d   1       0.183   6.282  -0.974  0.00  0.00     0.018 A 
ENDBRANCH  10  12
ENDBRANCH   9  10
ENDBRANCH   8   9
ENDBRANCH   3   8
BRANCH   2  22
ATOM     22  C   UNL d   1       1.896  -1.312   0.771  0.00  0.00     0.104 C 
ATOM     23  C   UNL d   1       1.698  -1.846   2.224  0.00  0.00     0.065 C 
ATOM     24  C   UNL d   1       3.103  -2.085   2.700  0.00  0.00    -0.050 A 
ATOM     25  C   UNL d   1       3.524  -2.695   3.872  0.00  0.00     0.007 A 
ATOM     26  C   UNL d   1       4.032  -1.519   1.829  0.00  0.00    -0.050 A 
ATOM     27  C   UNL d   1       4.895  -2.738   4.153  0.00  0.00     0.001 A 
ATOM     28  C   UNL d   1       5.825  -2.175   3.267  0.00  0.00     0.001 A 
ATOM     29  C   UNL d   1       5.394  -1.553   2.096  0.00  0.00     0.007 A 
ATOM     30  C   UNL d   1       3.345  -0.759   0.739  0.00  0.00     0.065 C 
ENDBRANCH   2  22
BRANCH   1  31
ATOM     31  O   UNL d   1      -0.783  -2.232   0.072  0.00  0.00    -0.240 OA
BRANCH  31  32
ATOM     32  C   UNL d   1      -1.738  -3.138  -0.192  0.00  0.00     0.307 C 
ATOM     33  O   UNL d   1      -1.389  -4.320  -0.177  0.00  0.00    -0.258 OA
BRANCH  32  34
ATOM     34  C   UNL d   1      -3.124  -2.728  -0.457  0.00  0.00     0.080 A 
ATOM     35  S   UNL d   1      -4.217  -4.030  -0.862  0.00  0.00    -0.096 SA
ATOM     36  C   UNL d   1      -5.569  -3.005  -0.976  0.00  0.00     0.050 A 
ATOM     37  C   UNL d   1      -5.230  -1.695  -0.739  0.00  0.00     0.009 A 
ATOM     38  C   UNL d   1      -3.835  -1.540  -0.442  0.00  0.00     0.025 A 
ENDBRANCH  32  34
ENDBRANCH  31  32
ENDBRANCH   1  31
TORSDOF 8
