REMARK  3 active torsions:
REMARK  status: ('A' for Active; 'I' for Inactive)
REMARK    1  A    between atoms: C_6  and  C_3 
REMARK    2  A    between atoms: C_9  and  C_4 
REMARK       I    between atoms: N_10  and  C_6 
REMARK    3  A    between atoms: N_11  and  N_10 
ROOT
ATOM      1  N   UNL d   1      -1.487   0.579   0.023  0.00  0.00    -0.329 N 
ATOM      2  HN  UNL d   1      -2.384   1.064   0.038  1.00  0.00     0.168 HD
ATOM      3  C   UNL d   1      -1.266  -0.724  -0.030  0.00  0.00     0.219 A 
ATOM      4  C   UNL d   1      -0.219   1.132   0.055  0.00  0.00     0.074 A 
ATOM      5  O   UNL d   1       0.058  -1.070  -0.036  0.00  0.00    -0.291 OA
ATOM      6  C   UNL d   1       0.726   0.124   0.003  0.00  0.00     0.079 A 
ATOM      7  C   UNL d   1       2.196   0.019  -0.063  0.00  0.00     0.079 C 
ENDROOT
BRANCH   3   8
ATOM      8  C   UNL d   1      -2.278  -1.764  -0.117  0.00  0.00     0.307 C 
ATOM      9  O   UNL d   1      -2.052  -2.972  -0.219  0.00  0.00    -0.262 OA
ATOM     10  N   UNL d   1      -3.588  -1.271  -0.087  0.00  0.00    -0.287 N 
ATOM     11  H   UNL d   1      -3.722  -0.275   0.090  0.00  0.00     0.183 HD
BRANCH  10  12
ATOM     12  N   UNL d   1      -4.692  -2.155  -0.105  0.00  0.00    -0.247 NA
ATOM     13  H   UNL d   1      -4.316  -3.108   0.002  0.00  0.00     0.143 HD
ATOM     14  H   UNL d   1      -5.085  -2.148  -1.051  0.00  0.00     0.143 HD
ENDBRANCH  10  12
ENDBRANCH   3   8
BRANCH   4  15
ATOM     15  C   UNL d   1       0.013   2.568   0.056  0.00  0.00    -0.007 A 
ATOM     16  C   UNL d   1       1.128   3.145   0.680  0.00  0.00     0.014 A 
ATOM     17  C   UNL d   1       1.350   4.524   0.611  0.00  0.00     0.001 A 
ATOM     18  C   UNL d   1       0.446   5.346  -0.058  0.00  0.00     0.000 A 
ATOM     19  C   UNL d   1      -0.687   4.792  -0.647  0.00  0.00     0.001 A 
ATOM     20  C   UNL d   1      -0.903   3.412  -0.589  0.00  0.00     0.014 A 
ENDBRANCH   4  15
TORSDOF 3
