REMARK  4 active torsions:
REMARK  status: ('A' for Active; 'I' for Inactive)
REMARK    1  A    between atoms: C_2  and  C_1 
REMARK    2  A    between atoms: S_3  and  C_1 
REMARK       I    between atoms: N_4  and  C_2 
REMARK    3  A    between atoms: C_9  and  S_3 
REMARK    4  A    between atoms: C_8  and  N_4 
ROOT
ATOM      1  C   UNL d   1       0.272   1.736   0.629  0.00  0.00     0.306 C 
ATOM      2  N   UNL d   1      -1.029   1.894   0.148  0.00  0.00    -0.321 N 
ATOM      3  O   UNL d   1       0.794   2.544   1.397  0.00  0.00    -0.265 OA
ATOM      4  H   UNL d   1      -1.509   1.048  -0.148  0.00  0.00     0.169 HD
ENDROOT
BRANCH   1   5
ATOM      5  C   UNL d   1       0.965   0.423   0.193  0.00  0.00     0.375 C 
ATOM      6  F   UNL d   1       0.026  -0.456  -0.289  0.00  0.00    -0.182 F 
ATOM      7  F   UNL d   1       1.550  -0.226   1.240  0.00  0.00    -0.182 F 
BRANCH   5   8
ATOM      8  S   UNL d   1       2.193   0.689  -1.135  0.00  0.00    -0.043 SA
BRANCH   8   9
ATOM      9  C   UNL d   1       3.476   1.729  -0.444  0.00  0.00     0.006 A 
ATOM     10  C   UNL d   1       3.584   2.137   0.887  0.00  0.00     0.018 A 
ATOM     11  C   UNL d   1       4.540   3.083   1.277  0.00  0.00     0.001 A 
ATOM     12  C   UNL d   1       5.460   3.572   0.356  0.00  0.00     0.000 A 
ATOM     13  C   UNL d   1       5.434   3.101  -0.951  0.00  0.00     0.001 A 
ATOM     14  C   UNL d   1       4.445   2.195  -1.348  0.00  0.00     0.018 A 
ENDBRANCH   8   9
ENDBRANCH   5   8
ENDBRANCH   1   5
BRANCH   2  15
ATOM     15  C   UNL d   1      -1.804   3.049   0.387  0.00  0.00     0.035 A 
ATOM     16  C   UNL d   1      -1.217   4.316   0.550  0.00  0.00     0.032 A 
ATOM     17  C   UNL d   1      -2.007   5.430   0.837  0.00  0.00     0.044 A 
ATOM     18  C   UNL d   1      -3.379   5.276   0.967  0.00  0.00     0.116 A 
ATOM     19  C   UNL d   1      -3.978   4.034   0.788  0.00  0.00     0.044 A 
ATOM     20  F   UNL d   1      -4.135   6.339   1.270  0.00  0.00    -0.206 F 
ATOM     21  C   UNL d   1      -3.191   2.920   0.478  0.00  0.00     0.032 A 
ENDBRANCH   2  15
TORSDOF 4
