REMARK  5 active torsions:
REMARK  status: ('A' for Active; 'I' for Inactive)
REMARK       I    between atoms: N_2  and  C_1 
REMARK       I    between atoms: N_3  and  C_1 
REMARK    1  A    between atoms: C_4  and  N_2 
REMARK    2  A    between atoms: C_6  and  N_3 
REMARK    3  A    between atoms: C_9  and  N_3 
REMARK    4  A    between atoms: C_10  and  C_6 
REMARK    5  A    between atoms: C_14  and  C_8 
ROOT
ATOM      1  C   UNL d   1       0.974   0.183   0.534  0.00  0.00     0.323 C 
ATOM      2  N   UNL d   1       0.291   1.287   0.059  0.00  0.00    -0.308 N 
ATOM      3  N   UNL d   1       0.165  -0.916   0.853  0.00  0.00    -0.326 N 
ATOM      4  O   UNL d   1       2.196   0.160   0.661  0.00  0.00    -0.247 OA
ATOM      5  H   UNL d   1      -0.548   1.474   0.573  0.00  0.00     0.170 HD
ENDROOT
BRANCH   2   6
ATOM      6  C   UNL d   1       0.944   2.417  -0.496  0.00  0.00     0.048 A 
ATOM      7  C   UNL d   1       1.827   2.279  -1.595  0.00  0.00    -0.035 A 
ATOM      8  C   UNL d   1       2.424   3.427  -2.146  0.00  0.00     0.009 A 
ATOM      9  C   UNL d   1       2.162   0.973  -2.265  0.00  0.00     0.050 C 
ATOM     10  C   UNL d   1       2.136   4.691  -1.650  0.00  0.00     0.001 A 
ATOM     11  C   UNL d   1       1.254   4.828  -0.585  0.00  0.00     0.009 A 
ATOM     12  C   UNL d   1       0.638   3.707   0.007  0.00  0.00    -0.031 A 
BRANCH  12  13
ATOM     13  C   UNL d   1      -0.217   3.953   1.236  0.00  0.00     0.036 C 
ATOM     14  C   UNL d   1      -1.388   4.896   0.990  0.00  0.00     0.010 C 
ENDBRANCH  12  13
ENDBRANCH   2   6
BRANCH   3  15
ATOM     15  C   UNL d   1       0.856  -2.107   1.368  0.00  0.00     0.166 C 
BRANCH  15  16
ATOM     16  C   UNL d   1       1.231  -3.105   0.288  0.00  0.00    -0.040 A 
ATOM     17  C   UNL d   1       2.119  -2.753  -0.740  0.00  0.00     0.009 A 
ATOM     18  C   UNL d   1       2.462  -3.661  -1.742  0.00  0.00     0.001 A 
ATOM     19  C   UNL d   1       1.933  -4.949  -1.720  0.00  0.00     0.000 A 
ATOM     20  C   UNL d   1       1.074  -5.327  -0.692  0.00  0.00     0.001 A 
ATOM     21  C   UNL d   1       0.729  -4.415   0.311  0.00  0.00     0.009 A 
ENDBRANCH  15  16
ENDBRANCH   3  15
BRANCH   3  22
ATOM     22  C   UNL d   1      -1.318  -0.904   0.791  0.00  0.00     0.081 C 
ATOM     23  C   UNL d   1      -1.972  -2.243   0.440  0.00  0.00     0.032 C 
ATOM     24  C   UNL d   1      -1.897  -0.375   2.109  0.00  0.00     0.032 C 
ENDBRANCH   3  22
TORSDOF 5
