REMARK  7 active torsions:
REMARK  status: ('A' for Active; 'I' for Inactive)
REMARK    1  A    between atoms: S_11  and  C_4 
REMARK    2  A    between atoms: S_13  and  C_4 
REMARK    3  A    between atoms: C_6  and  C_7 
REMARK    4  A    between atoms: C_7  and  C_8 
REMARK    5  A    between atoms: C_9  and  S_11 
REMARK    6  A    between atoms: C_18  and  S_13 
REMARK    7  A    between atoms: C_14  and  C_18 
ROOT
ATOM      1  N   UNL d   1       1.081  -0.101  -0.233  0.00  0.00    -0.282 N 
ATOM      2  HN  UNL d   1       0.721  -1.032  -0.024  1.00  0.00     0.179 HD
ATOM      3  C   UNL d   1       0.348   0.757  -0.948  0.00  0.00     0.183 C 
ATOM      4  C   UNL d   1       2.249   0.253   0.191  0.00  0.00     0.121 C 
ATOM      5  N   UNL d   1      -0.301   1.483  -1.574  0.00  0.00    -0.172 NA
ENDROOT
BRANCH   4   6
ATOM      6  S   UNL d   1       3.187  -0.899   1.143  0.00  0.00    -0.076 SA
BRANCH   6   7
ATOM      7  C   UNL d   1       2.017  -1.742   2.105  0.00  0.00     0.056 C 
ATOM      8  C   UNL d   1       2.414  -2.737   2.912  0.00  0.00     0.063 C 
BRANCH   8   9
ATOM      9  C   UNL d   1       1.427  -3.475   3.740  0.00  0.00     0.185 C 
ATOM     10  O   UNL d   1       0.338  -2.988   4.024  0.00  0.00    -0.287 OA
BRANCH   9  11
ATOM     11  C   UNL d   1       1.809  -4.809   4.268  0.00  0.00     0.052 A 
ATOM     12  C   UNL d   1       2.655  -5.675   3.571  0.00  0.00     0.130 A 
ATOM     13  F   UNL d   1       3.186  -5.327   2.390  0.00  0.00    -0.205 F 
ATOM     14  C   UNL d   1       2.950  -6.943   4.070  0.00  0.00     0.043 A 
ATOM     15  C   UNL d   1       2.394  -7.361   5.277  0.00  0.00     0.003 A 
ATOM     16  C   UNL d   1       1.546  -6.508   5.984  0.00  0.00     0.001 A 
ATOM     17  C   UNL d   1       1.249  -5.238   5.481  0.00  0.00     0.018 A 
ENDBRANCH   9  11
ENDBRANCH   8   9
ENDBRANCH   6   7
ENDBRANCH   4   6
BRANCH   4  18
ATOM     18  S   UNL d   1       2.999   1.824  -0.079  0.00  0.00    -0.101 SA
BRANCH  18  19
ATOM     19  C   UNL d   1       4.723   1.393  -0.436  0.00  0.00     0.107 C 
BRANCH  19  20
ATOM     20  C   UNL d   1       5.457   2.629  -0.868  0.00  0.00    -0.026 C 
ATOM     21  C   UNL d   1       6.446   3.204  -0.170  0.00  0.00     0.007 C 
ENDBRANCH  19  20
ENDBRANCH  18  19
ENDBRANCH   4  18
TORSDOF 7
