REMARK  7 active torsions:
REMARK  status: ('A' for Active; 'I' for Inactive)
REMARK    1  A    between atoms: N_8  and  S_1 
REMARK    2  A    between atoms: C_9  and  S_1 
REMARK    3  A    between atoms: C_3  and  S_22 
REMARK    4  A    between atoms: N_4  and  C_10 
REMARK    5  A    between atoms: N_12  and  N_8 
REMARK       I    between atoms: C_13  and  N_12 
REMARK    6  A    between atoms: C_26  and  C_13 
REMARK    7  A    between atoms: S_22  and  C_26 
ROOT
ATOM      1  N   UNL d   1       1.015   2.571  -0.848  0.00  0.00    -0.260 N 
ATOM      2  C   UNL d   1       0.485   3.509  -1.717  0.00  0.00     0.246 C 
ATOM      3  O   UNL d   1      -0.333   3.193  -2.582  0.00  0.00    -0.271 OA
ATOM      4  H   UNL d   1       1.697   2.790  -0.124  0.00  0.00     0.190 HD
ENDROOT
BRANCH   1   5
ATOM      5  N   UNL d   1       0.568   1.193  -0.957  0.00  0.00    -0.220 N 
ATOM      6  H   UNL d   1      -0.135   0.956  -1.665  0.00  0.00     0.200 HD
BRANCH   5   7
ATOM      7  S   UNL d   1       1.148   0.052   0.135  0.00  0.00     0.276 S 
ATOM      8  O   UNL d   1       0.752   0.463   1.466  0.00  0.00    -0.199 OA
ATOM      9  O   UNL d   1       2.547  -0.146  -0.180  0.00  0.00    -0.199 OA
BRANCH   7  10
ATOM     10  C   UNL d   1       0.256  -1.443  -0.272  0.00  0.00     0.087 A 
ATOM     11  C   UNL d   1      -1.129  -1.578  -0.049  0.00  0.00    -0.036 A 
ATOM     12  C   UNL d   1      -1.724  -2.841  -0.271  0.00  0.00     0.044 A 
ATOM     13  C   UNL d   1      -2.023  -0.494   0.488  0.00  0.00     0.050 C 
ATOM     14  C   UNL d   1      -0.958  -3.930  -0.714  0.00  0.00     0.103 A 
ATOM     15  C   UNL d   1       0.410  -3.779  -0.955  0.00  0.00     0.037 A 
ATOM     16  C   UNL d   1       1.012  -2.537  -0.732  0.00  0.00     0.028 A 
BRANCH  14  17
ATOM     17  N   UNL d   1      -1.592  -5.243  -0.901  0.00  0.00    -0.116 N 
ATOM     18  O   UNL d   1      -2.805  -5.335  -0.666  0.00  0.00    -0.532 OA
ATOM     19  O   UNL d   1      -0.875  -6.179  -1.281  0.00  0.00    -0.532 OA
ENDBRANCH  14  17
ENDBRANCH   7  10
ENDBRANCH   5   7
ENDBRANCH   1   5
BRANCH   2  20
ATOM     20  C   UNL d   1       1.041   4.916  -1.524  0.00  0.00     0.186 C 
BRANCH  20  21
ATOM     21  S   UNL d   1      -0.270   6.147  -1.747  0.00  0.00    -0.095 SA
BRANCH  21  22
ATOM     22  C   UNL d   1       0.620   7.651  -1.614  0.00  0.00     0.115 A 
ATOM     23  S   UNL d   1      -0.163   9.160  -1.867  0.00  0.00    -0.045 SA
ATOM     24  C   UNL d   1       1.306   9.955  -1.546  0.00  0.00     0.103 A 
ATOM     25  N   UNL d   1       1.423  11.300  -1.570  0.00  0.00    -0.358 N 
ATOM     26  C   UNL d   1       2.304   9.025  -1.270  0.00  0.00     0.067 A 
ATOM     27  C   UNL d   1       2.671  11.732  -1.285  0.00  0.00     0.089 A 
ATOM     28  HN  UNL d   1       0.648  11.927  -1.782  1.00  0.00     0.166 HD
ATOM     29  C   UNL d   1       3.758  10.921  -0.994  0.00  0.00     0.019 A 
ATOM     30  C   UNL d   1       3.583   9.535  -0.984  0.00  0.00     0.034 A 
ATOM     31  N   UNL d   1       1.901   7.695  -1.310  0.00  0.00    -0.343 N 
ATOM     32  HN  UNL d   1       2.498   6.887  -1.134  1.00  0.00     0.167 HD
ENDBRANCH  21  22
ENDBRANCH  20  21
ENDBRANCH   2  20
TORSDOF 7
