REMARK  3 active torsions:
REMARK  status: ('A' for Active; 'I' for Inactive)
REMARK    1  A    between atoms: C_5  and  N_1 
REMARK    2  A    between atoms: C_13  and  C_7 
REMARK    3  A    between atoms: C_10  and  C_11 
ROOT
ATOM      1  N   UNL d   1      -0.106  -1.265   0.080  0.00  0.00    -0.179 N 
ATOM      2  N   UNL d   1       1.152  -0.762   0.227  0.00  0.00    -0.266 N 
ATOM      3  HN  UNL d   1       2.012  -1.263   0.450  1.00  0.00     0.190 HD
ATOM      4  C   UNL d   1      -0.996  -0.263  -0.254  0.00  0.00     0.394 A 
ATOM      5  O   UNL d   1      -0.263   0.900  -0.275  0.00  0.00    -0.240 OA
ATOM      6  C   UNL d   1       0.991   0.502   0.016  0.00  0.00     0.178 A 
ATOM      7  O   UNL d   1      -2.195  -0.287  -0.473  0.00  0.00    -0.236 OA
ENDROOT
BRANCH   1   8
ATOM      8  C   UNL d   1      -0.347  -2.656   0.116  0.00  0.00     0.154 A 
ATOM      9  N   UNL d   1      -1.486  -3.099  -0.478  0.00  0.00    -0.348 N 
ATOM     10  C   UNL d   1      -1.715  -4.432  -0.559  0.00  0.00     0.106 A 
ATOM     11  HN  UNL d   1      -2.162  -2.436  -0.858  1.00  0.00     0.167 HD
ATOM     12  C   UNL d   1      -0.857  -5.392  -0.054  0.00  0.00     0.065 A 
ATOM     13  C   UNL d   1       0.291  -4.940   0.593  0.00  0.00     0.045 A 
ATOM     14  C   UNL d   1       0.558  -3.569   0.689  0.00  0.00     0.081 A 
ATOM     15 CL   UNL d   1       1.970  -3.151   1.600  0.00  0.00    -0.080 Cl
BRANCH  12  16
ATOM     16  C   UNL d   1      -1.173  -6.846  -0.212  0.00  0.00     0.418 C 
ATOM     17  F   UNL d   1      -0.246  -7.663   0.359  0.00  0.00    -0.166 F 
ATOM     18  F   UNL d   1      -2.366  -7.186   0.346  0.00  0.00    -0.166 F 
ATOM     19  F   UNL d   1      -1.246  -7.221  -1.518  0.00  0.00    -0.166 F 
ENDBRANCH  12  16
ENDBRANCH   1   8
BRANCH   6  20
ATOM     20  C   UNL d   1       2.050   1.516   0.055  0.00  0.00     0.018 A 
ATOM     21  C   UNL d   1       3.378   1.078   0.154  0.00  0.00     0.041 A 
ATOM     22  C   UNL d   1       4.421   2.003   0.232  0.00  0.00     0.056 A 
ATOM     23 CL   UNL d   1       6.031   1.387   0.353  0.00  0.00    -0.083 Cl
ATOM     24  C   UNL d   1       4.139   3.373   0.214  0.00  0.00     0.055 A 
ATOM     25  C   UNL d   1       2.812   3.809   0.108  0.00  0.00     0.026 A 
ATOM     26 CL   UNL d   1       5.375   4.573   0.330  0.00  0.00    -0.083 Cl
ATOM     27  C   UNL d   1       1.766   2.883   0.024  0.00  0.00     0.017 A 
ENDBRANCH   6  20
TORSDOF 3
