REMARK  1 active torsions:
REMARK  status: ('A' for Active; 'I' for Inactive)
REMARK    1  A    between atoms: C_14  and  N_7 
ROOT
ATOM      1  C   UNL d   1       0.817  -0.846  -0.237  0.00  0.00     0.173 A 
ATOM      2  C   UNL d   1       0.494   0.491  -0.334  0.00  0.00     0.090 A 
ATOM      3  C   UNL d   1       2.034  -1.562   0.043  0.00  0.00     0.285 C 
ATOM      4  C   UNL d   1      -0.939   0.576  -0.342  0.00  0.00     0.051 A 
ATOM      5  C   UNL d   1      -1.379  -0.743  -0.220  0.00  0.00     0.162 A 
ATOM      6  O   UNL d   1      -0.327  -1.595  -0.249  0.00  0.00    -0.285 OA
ATOM      7  N   UNL d   1       2.958  -0.825   0.803  0.00  0.00    -0.303 N 
ATOM      8  N   UNL d   1       1.341   1.575  -0.283  0.00  0.00    -0.322 N 
ATOM      9  N   UNL d   1      -2.633  -1.175  -0.018  0.00  0.00    -0.340 N 
ATOM     10  HN  UNL d   1      -2.878  -2.163   0.040  1.00  0.00     0.167 HD
ATOM     11  C   UNL d   1      -1.923   1.594  -0.313  0.00  0.00    -0.043 A 
ATOM     12  C   UNL d   1       2.624   1.639   0.149  0.00  0.00     0.240 C 
ATOM     13  C   UNL d   1       3.513   0.408   0.261  0.00  0.00     0.235 C 
ATOM     14  O   UNL d   1       2.187  -2.755  -0.198  0.00  0.00    -0.265 OA
ATOM     15  C   UNL d   1      -3.241   1.164  -0.068  0.00  0.00     0.032 A 
ATOM     16  C   UNL d   1      -3.538  -0.187   0.099  0.00  0.00     0.008 A 
ATOM     17  O   UNL d   1       3.097   2.769   0.317  0.00  0.00    -0.271 OA
ATOM     18  C   UNL d   1      -1.704   3.078  -0.429  0.00  0.00     0.049 C 
ATOM     19  C   UNL d   1      -4.934  -0.584   0.485  0.00  0.00     0.068 C 
ATOM     20  H   UNL d   1       0.935   2.494  -0.373  0.00  0.00     0.169 HD
ENDROOT
BRANCH   7  21
ATOM     21  C   UNL d   1       3.652  -1.520   1.835  0.00  0.00     0.038 A 
ATOM     22  C   UNL d   1       5.036  -1.418   2.015  0.00  0.00     0.031 A 
ATOM     23  C   UNL d   1       5.655  -2.059   3.093  0.00  0.00     0.026 A 
ATOM     24  C   UNL d   1       4.892  -2.786   4.004  0.00  0.00     0.034 A 
ATOM     25  C   UNL d   1       3.516  -2.903   3.833  0.00  0.00     0.026 A 
ATOM     26 CL   UNL d   1       5.653  -3.534   5.351  0.00  0.00    -0.084 Cl
ATOM     27  C   UNL d   1       2.902  -2.284   2.744  0.00  0.00     0.031 A 
ENDBRANCH   7  21
TORSDOF 1
