REMARK  6 active torsions:
REMARK  status: ('A' for Active; 'I' for Inactive)
REMARK    1  A    between atoms: C_7  and  C_1 
REMARK    2  A    between atoms: N_13  and  C_2 
REMARK       I    between atoms: C_8  and  N_6 
REMARK    3  A    between atoms: C_11  and  C_7 
REMARK    4  A    between atoms: O_18  and  C_8 
REMARK    5  A    between atoms: C_24  and  O_18 
REMARK    6  A    between atoms: C_25  and  O_23 
ROOT
ATOM      1  O   UNL d   1       2.580   0.282   1.251  0.00  0.00    -0.401 OA
ATOM      2  H   UNL d   1       1.877   0.926   1.064  0.00  0.00     0.209 HD
ENDROOT
BRANCH   1   3
ATOM      3  C   UNL d   1       3.837   0.919   1.109  0.00  0.00     0.159 C 
ATOM      4  C   UNL d   1       3.979   1.637  -0.219  0.00  0.00     0.033 C 
ENDBRANCH   1   3
TORSDOF 6
