REMARK  2 active torsions:
REMARK  status: ('A' for Active; 'I' for Inactive)
REMARK    1  A    between atoms: C_8  and  C_4 
REMARK    2  A    between atoms: C_10  and  C_7 
ROOT
ATOM      1  N   UNL d   1       1.490   0.367  -0.081  0.00  0.00    -0.337 N 
ATOM      2  HN  UNL d   1       2.318   0.961  -0.123  1.00  0.00     0.167 HD
ATOM      3  N   UNL d   1       0.194  -1.463  -0.021  0.00  0.00    -0.307 N 
ATOM      4  C   UNL d   1       1.443  -0.932  -0.058  0.00  0.00     0.119 A 
ATOM      5  C   UNL d   1       0.166   0.762  -0.034  0.00  0.00     0.103 A 
ATOM      6  C   UNL d   1      -0.710  -0.449  -0.025  0.00  0.00     0.273 A 
ATOM      7  C   UNL d   1      -0.221   2.042   0.012  0.00  0.00     0.046 C 
ATOM      8  O   UNL d   1      -1.920  -0.543  -0.036  0.00  0.00    -0.266 OA
ATOM      9  H   UNL d   1      -0.077  -2.431  -0.060  0.00  0.00     0.170 HD
ENDROOT
BRANCH   7  10
ATOM     10  C   UNL d   1      -1.606   2.503   0.084  0.00  0.00    -0.034 A 
ATOM     11  C   UNL d   1      -2.211   2.713   1.328  0.00  0.00     0.013 A 
ATOM     12  C   UNL d   1      -3.538   3.145   1.398  0.00  0.00     0.024 A 
ATOM     13  C   UNL d   1      -4.257   3.366   0.225  0.00  0.00     0.034 A 
ATOM     14  C   UNL d   1      -3.660   3.164  -1.018  0.00  0.00     0.024 A 
ATOM     15 CL   UNL d   1      -5.893   3.894   0.312  0.00  0.00    -0.084 Cl
ATOM     16  C   UNL d   1      -2.334   2.731  -1.089  0.00  0.00     0.013 A 
ENDBRANCH   7  10
BRANCH   4  17
ATOM     17  C   UNL d   1       2.621  -1.814  -0.079  0.00  0.00     0.008 A 
ATOM     18  C   UNL d   1       3.805  -1.344  -0.658  0.00  0.00     0.015 A 
ATOM     19  C   UNL d   1       4.944  -2.150  -0.669  0.00  0.00     0.001 A 
ATOM     20  C   UNL d   1       4.907  -3.419  -0.091  0.00  0.00     0.000 A 
ATOM     21  C   UNL d   1       3.730  -3.888   0.493  0.00  0.00     0.001 A 
ATOM     22  C   UNL d   1       2.584  -3.089   0.499  0.00  0.00     0.015 A 
ENDBRANCH   4  17
TORSDOF 2
