REMARK  2 active torsions:
REMARK  status: ('A' for Active; 'I' for Inactive)
REMARK    1  A    between atoms: N_4  and  N_1 
REMARK    2  A    between atoms: C_9  and  N_4 
ROOT
ATOM      1  N   UNL d   1       1.373  -1.282  -0.035  0.00  0.00    -0.237 N 
ATOM      2  C   UNL d   1       2.459  -0.511  -0.483  0.00  0.00     0.262 C 
ATOM      3  C   UNL d   1       0.076  -0.699   0.112  0.00  0.00     0.065 A 
ATOM      4  C   UNL d   1       2.336   0.954  -0.286  0.00  0.00     0.077 C 
ATOM      5  C   UNL d   1       1.154   1.527  -0.037  0.00  0.00     0.019 C 
ATOM      6  C   UNL d   1      -0.046   0.703   0.056  0.00  0.00    -0.008 A 
ATOM      7  O   UNL d   1       3.493  -0.933  -0.995  0.00  0.00    -0.267 OA
ATOM      8  C   UNL d   1      -1.087  -1.471   0.231  0.00  0.00     0.032 A 
ATOM      9  C   UNL d   1      -1.311   1.305   0.080  0.00  0.00     0.014 A 
ATOM     10  C   UNL d   1      -2.347  -0.861   0.233  0.00  0.00     0.002 A 
ATOM     11  C   UNL d   1      -2.459   0.522   0.145  0.00  0.00     0.001 A 
ENDROOT
BRANCH   1  12
ATOM     12  N   UNL d   1       1.403  -2.699  -0.193  0.00  0.00    -0.196 NA
ATOM     13  H   UNL d   1       1.247  -2.929  -1.174  0.00  0.00     0.153 HD
BRANCH  12  14
ATOM     14  C   UNL d   1       2.561  -3.386   0.273  0.00  0.00     0.028 C 
ATOM     15  C   UNL d   1       3.375  -2.939   1.322  0.00  0.00     0.026 C 
ATOM     16  C   UNL d   1       4.553  -3.620   1.651  0.00  0.00     0.021 C 
ATOM     17  C   UNL d   1       4.886  -4.797   0.984  0.00  0.00     0.011 C 
ATOM     18  C   UNL d   1       4.027  -5.324   0.026  0.00  0.00     0.021 C 
ATOM     19 BR   UNL d   1       6.513  -5.676   1.369  0.00  0.00    -0.051 Br
ATOM     20  C   UNL d   1       2.863  -4.627  -0.312  0.00  0.00     0.026 C 
ENDBRANCH  12  14
ENDBRANCH   1  12
TORSDOF 2
