REMARK  4 active torsions:
REMARK  status: ('A' for Active; 'I' for Inactive)
REMARK    1  A    between atoms: N_8  and  S_1 
REMARK    2  A    between atoms: C_10  and  S_1 
REMARK    3  A    between atoms: S_2  and  C_11 
REMARK    4  A    between atoms: N_9  and  S_2 
ROOT
ATOM      1  C   UNL d   1       0.311  -2.346  -3.331  0.00  0.00     0.027 A 
ATOM      2  C   UNL d   1      -0.165  -3.420  -5.407  0.00  0.00     0.027 A 
ATOM      3  C   UNL d   1       0.030  -3.664  -3.952  0.00  0.00     0.194 A 
ATOM      4  C   UNL d   1      -0.037  -2.034  -5.611  0.00  0.00    -0.011 A 
ATOM      5  C   UNL d   1       0.263  -1.385  -4.356  0.00  0.00    -0.011 A 
ATOM      6  C   UNL d   1       0.889  -0.675  -1.748  0.00  0.00     0.075 A 
ATOM      7  C   UNL d   1      -0.481  -3.762  -7.724  0.00  0.00     0.080 A 
ATOM      8  C   UNL d   1       0.600  -2.020  -2.015  0.00  0.00     0.041 A 
ATOM      9  C   UNL d   1      -0.392  -4.314  -6.440  0.00  0.00     0.041 A 
ATOM     10  C   UNL d   1      -0.159  -1.496  -6.879  0.00  0.00     0.015 A 
ATOM     11  C   UNL d   1       0.520  -0.053  -4.082  0.00  0.00     0.015 A 
ATOM     12  O   UNL d   1      -0.014  -4.734  -3.386  0.00  0.00    -0.287 OA
ATOM     13  C   UNL d   1      -0.375  -2.370  -7.944  0.00  0.00     0.026 A 
ATOM     14  C   UNL d   1       0.842   0.301  -2.770  0.00  0.00     0.026 A 
ENDROOT
BRANCH   6  15
ATOM     15  S   UNL d   1       1.198  -0.123  -0.078  0.00  0.00     0.243 S 
ATOM     16  O   UNL d   1       0.901   1.295  -0.047  0.00  0.00    -0.206 OA
ATOM     17  O   UNL d   1       0.522  -1.038   0.813  0.00  0.00    -0.206 OA
BRANCH  15  18
ATOM     18  N   UNL d   1       2.880  -0.315   0.087  0.00  0.00    -0.202 NA
ATOM     19  C   UNL d   1       3.369  -1.697   0.409  0.00  0.00     0.134 C 
ATOM     20  C   UNL d   1       3.233  -2.008   1.909  0.00  0.00     0.183 C 
ATOM     21  O   UNL d   1       3.888  -1.018   2.718  0.00  0.00    -0.389 OA
ATOM     22  C   UNL d   1       3.349   0.288   2.463  0.00  0.00     0.183 C 
ATOM     23  C   UNL d   1       3.554   0.672   0.996  0.00  0.00     0.134 C 
ENDBRANCH  15  18
ENDBRANCH   6  15
BRANCH   7  24
ATOM     24  S   UNL d   1      -0.718  -4.791  -9.156  0.00  0.00     0.261 S 
ATOM     25  O   UNL d   1       0.441  -4.590  -9.997  0.00  0.00    -0.200 OA
ATOM     26  O   UNL d   1      -1.125  -6.107  -8.716  0.00  0.00    -0.200 OA
BRANCH  24  27
ATOM     27  N   UNL d   1      -2.057  -4.040  -9.882  0.00  0.00    -0.303 N 
ATOM     28  C   UNL d   1      -3.386  -4.264  -9.237  0.00  0.00     0.161 C 
ATOM     29  C   UNL d   1      -4.074  -5.519  -9.790  0.00  0.00     0.188 C 
ATOM     30  O   UNL d   1      -4.171  -5.476 -11.221  0.00  0.00    -0.388 OA
ATOM     31  C   UNL d   1      -2.864  -5.398 -11.809  0.00  0.00     0.188 C 
ATOM     32  C   UNL d   1      -2.154  -4.119 -11.368  0.00  0.00     0.161 C 
ENDBRANCH  24  27
ENDBRANCH   7  24
TORSDOF 4
