REMARK  1 active torsions:
REMARK  status: ('A' for Active; 'I' for Inactive)
REMARK    1  A    between atoms: C_9  and  C_4 
ROOT
ATOM      1  C   UNL d   1      -2.033   0.305   0.122  0.00  0.00     0.018 C 
ATOM      2  C   UNL d   1      -1.092  -0.850   0.078  0.00  0.00     0.193 C 
ATOM      3  C   UNL d   1       0.343  -0.497   0.064  0.00  0.00     0.048 A 
ATOM      4  C   UNL d   1      -3.321   0.089  -0.197  0.00  0.00     0.024 C 
ATOM      5  O   UNL d   1      -0.188   1.863  -0.165  0.00  0.00    -0.346 OA
ATOM      6  C   UNL d   1       0.719   0.842  -0.065  0.00  0.00     0.083 A 
ATOM      7  C   UNL d   1      -1.400   1.592   0.549  0.00  0.00     0.218 C 
ATOM      8  O   UNL d   1      -1.465  -2.015   0.062  0.00  0.00    -0.287 OA
ATOM      9  C   UNL d   1       1.322  -1.494   0.138  0.00  0.00     0.018 A 
ATOM     10  C   UNL d   1       2.068   1.186  -0.142  0.00  0.00     0.038 A 
ATOM     11  C   UNL d   1       2.673  -1.145   0.087  0.00  0.00     0.001 A 
ATOM     12  C   UNL d   1       3.045   0.194  -0.054  0.00  0.00     0.003 A 
ENDROOT
BRANCH   4  13
ATOM     13  C   UNL d   1      -4.349   1.131  -0.229  0.00  0.00    -0.035 A 
ATOM     14  C   UNL d   1      -4.583   1.844  -1.411  0.00  0.00     0.011 A 
ATOM     15  C   UNL d   1      -5.551   2.851  -1.446  0.00  0.00     0.001 A 
ATOM     16  C   UNL d   1      -6.292   3.146  -0.303  0.00  0.00     0.000 A 
ATOM     17  C   UNL d   1      -6.069   2.434   0.875  0.00  0.00     0.001 A 
ATOM     18  C   UNL d   1      -5.098   1.429   0.914  0.00  0.00     0.011 A 
ENDBRANCH   4  13
TORSDOF 1
