REMARK  3 active torsions:
REMARK  status: ('A' for Active; 'I' for Inactive)
REMARK       I    between atoms: N_2  and  C_1 
REMARK       I    between atoms: N_4  and  C_1 
REMARK    1  A    between atoms: C_5  and  N_2 
REMARK    2  A    between atoms: N_3  and  C_6 
REMARK    3  A    between atoms: C_7  and  N_4 
ROOT
ATOM      1  C   UNL d   1       0.118   1.448   0.204  0.00  0.00     0.325 C 
ATOM      2  N   UNL d   1       0.249   0.715  -0.974  0.00  0.00    -0.307 N 
ATOM      3  N   UNL d   1      -0.695   0.811   1.123  0.00  0.00    -0.306 N 
ATOM      4  O   UNL d   1       0.702   2.509   0.397  0.00  0.00    -0.247 OA
ATOM      5  H   UNL d   1       0.316  -0.288  -0.883  0.00  0.00     0.170 HD
ATOM      6  H   UNL d   1      -0.906  -0.155   0.928  0.00  0.00     0.171 HD
ENDROOT
BRANCH   2   7
ATOM      7  C   UNL d   1       1.016   1.239  -2.049  0.00  0.00     0.063 A 
ATOM      8  C   UNL d   1       2.019   0.462  -2.683  0.00  0.00     0.057 A 
ATOM      9  C   UNL d   1       2.706   1.085  -3.746  0.00  0.00     0.031 A 
ATOM     10  C   UNL d   1       2.374   2.363  -4.211  0.00  0.00     0.002 A 
ATOM     11  C   UNL d   1       1.351   3.077  -3.607  0.00  0.00     0.002 A 
ATOM     12  C   UNL d   1       0.690   2.525  -2.516  0.00  0.00     0.032 A 
BRANCH   8  13
ATOM     13  N   UNL d   1       2.284  -0.869  -2.319  0.00  0.00    -0.379 N 
ATOM     14  C   UNL d   1       2.968  -1.732  -3.302  0.00  0.00     0.123 C 
ATOM     15  C   UNL d   1       2.519  -3.171  -3.062  0.00  0.00     0.020 C 
ATOM     16  C   UNL d   1       2.774  -3.606  -1.620  0.00  0.00     0.003 C 
ATOM     17  C   UNL d   1       2.241  -2.583  -0.612  0.00  0.00     0.020 C 
ATOM     18  C   UNL d   1       2.715  -1.161  -0.942  0.00  0.00     0.123 C 
ENDBRANCH   8  13
ENDBRANCH   2   7
BRANCH   3  19
ATOM     19  C   UNL d   1      -1.065   1.314   2.396  0.00  0.00     0.075 A 
ATOM     20  C   UNL d   1      -1.038   2.661   2.780  0.00  0.00     0.143 A 
ATOM     21  F   UNL d   1      -0.774   3.644   1.909  0.00  0.00    -0.204 F 
ATOM     22  C   UNL d   1      -1.377   3.056   4.077  0.00  0.00     0.044 A 
ATOM     23  C   UNL d   1      -1.785   2.107   5.010  0.00  0.00     0.003 A 
ATOM     24  C   UNL d   1      -1.866   0.770   4.636  0.00  0.00     0.002 A 
ATOM     25  C   UNL d   1      -1.517   0.374   3.338  0.00  0.00     0.033 A 
ENDBRANCH   3  19
TORSDOF 3
