REMARK  3 active torsions:
REMARK  status: ('A' for Active; 'I' for Inactive)
REMARK    1  A    between atoms: C_5  and  C_1 
REMARK    2  A    between atoms: C_6  and  C_2 
REMARK       I    between atoms: N_9  and  C_5 
REMARK    3  A    between atoms: C_13  and  N_9 
ROOT
ATOM      1  C   UNL d   1      -0.389  -1.169   0.035  0.00  0.00     0.093 A 
ATOM      2  C   UNL d   1      -1.648  -0.608   0.435  0.00  0.00     0.085 A 
ATOM      3  N   UNL d   1      -1.725   0.675   0.031  0.00  0.00    -0.259 N 
ATOM      4  HN  UNL d   1      -2.513   1.306   0.174  1.00  0.00     0.195 HD
ATOM      5  O   UNL d   1      -0.551   0.975  -0.607  0.00  0.00    -0.241 OA
ATOM      6  C   UNL d   1       0.242  -0.116  -0.606  0.00  0.00     0.090 A 
ATOM      7  C   UNL d   1       1.560   0.013  -1.268  0.00  0.00     0.080 C 
ENDROOT
BRANCH   1   8
ATOM      8  C   UNL d   1       0.330  -2.412   0.183  0.00  0.00     0.261 C 
ATOM      9  N   UNL d   1      -0.371  -3.629   0.225  0.00  0.00    -0.323 N 
ATOM     10  H   UNL d   1      -1.356  -3.588   0.428  0.00  0.00     0.169 HD
ATOM     11  O   UNL d   1       1.547  -2.357   0.271  0.00  0.00    -0.267 OA
BRANCH   9  12
ATOM     12  C   UNL d   1       0.343  -4.803   0.600  0.00  0.00     0.035 C 
ATOM     13  C   UNL d   1       1.683  -4.987   0.234  0.00  0.00     0.041 C 
ATOM     14  C   UNL d   1       2.526  -5.777   1.015  0.00  0.00     0.001 C 
ATOM     15  C   UNL d   1       3.980  -5.920   0.737  0.00  0.00     0.212 C 
ATOM     16  C   UNL d   1       1.996  -6.442   2.102  0.00  0.00     0.080 C 
ATOM     17  O   UNL d   1       4.715  -5.886   1.946  0.00  0.00    -0.362 OA
ATOM     18  C   UNL d   1       4.170  -6.669   3.005  0.00  0.00     0.345 C 
ATOM     19  O   UNL d   1       2.798  -7.094   2.985  0.00  0.00    -0.326 OA
ATOM     20  C   UNL d   1       0.615  -6.470   2.304  0.00  0.00     0.040 C 
ATOM     21  C   UNL d   1      -0.230  -5.666   1.529  0.00  0.00     0.032 C 
ENDBRANCH   9  12
ENDBRANCH   1   8
BRANCH   2  22
ATOM     22  C   UNL d   1      -2.808  -1.170   1.134  0.00  0.00     0.015 A 
ATOM     23  C   UNL d   1      -2.740  -1.978   2.276  0.00  0.00     0.046 A 
ATOM     24 CL   UNL d   1      -1.276  -2.244   3.152  0.00  0.00    -0.083 Cl
ATOM     25  C   UNL d   1      -3.904  -2.565   2.797  0.00  0.00     0.025 A 
ATOM     26  C   UNL d   1      -5.150  -2.307   2.224  0.00  0.00     0.002 A 
ATOM     27  C   UNL d   1      -5.247  -1.413   1.165  0.00  0.00     0.001 A 
ATOM     28  C   UNL d   1      -4.088  -0.849   0.631  0.00  0.00     0.015 A 
ENDBRANCH   2  22
TORSDOF 3
