REMARK  7 active torsions:
REMARK  status: ('A' for Active; 'I' for Inactive)
REMARK    1  A    between atoms: N_3  and  C_1 
REMARK    2  A    between atoms: C_8  and  C_2 
REMARK    3  A    between atoms: C_4  and  N_3 
REMARK    4  A    between atoms: N_10  and  C_4 
REMARK    5  A    between atoms: O_13  and  C_8 
REMARK    6  A    between atoms: C_14  and  N_10 
REMARK    7  A    between atoms: C_15  and  O_13 
ROOT
ATOM      1  C   UNL d   1       0.894  -0.155  -0.260  0.00  0.00     0.140 A 
ATOM      2  C   UNL d   1       0.907   1.134  -0.762  0.00  0.00     0.101 A 
ATOM      3  N   UNL d   1      -1.077   0.807   0.354  0.00  0.00    -0.309 N 
ATOM      4  HN  UNL d   1      -2.000   0.949   0.764  1.00  0.00     0.186 HD
ATOM      5  N   UNL d   1      -0.320  -0.294   0.373  0.00  0.00    -0.285 N 
ATOM      6  C   UNL d   1      -0.335   1.675  -0.332  0.00  0.00     0.128 A 
ATOM      7  H   UNL d   1      -0.683  -1.110   0.850  0.00  0.00     0.188 HD
ENDROOT
BRANCH   1   8
ATOM      8  N   UNL d   1       1.768  -1.218  -0.399  0.00  0.00    -0.317 N 
ATOM      9  H   UNL d   1       1.364  -2.149  -0.380  0.00  0.00     0.170 HD
BRANCH   8  10
ATOM     10  C   UNL d   1       3.190  -1.198  -0.553  0.00  0.00     0.177 C 
ATOM     11  S   UNL d   1       4.260  -0.199   0.237  0.00  0.00    -0.040 SA
BRANCH  10  12
ATOM     12  N   UNL d   1       3.604  -2.353  -1.176  0.00  0.00    -0.333 N 
ATOM     13  H   UNL d   1       4.548  -2.656  -0.960  0.00  0.00     0.168 HD
BRANCH  12  14
ATOM     14  C   UNL d   1       2.853  -3.138  -2.077  0.00  0.00     0.034 A 
ATOM     15  C   UNL d   1       1.866  -2.572  -2.897  0.00  0.00     0.029 A 
ATOM     16  C   UNL d   1       1.067  -3.380  -3.702  0.00  0.00     0.002 A 
ATOM     17  C   UNL d   1       1.256  -4.758  -3.703  0.00  0.00     0.000 A 
ATOM     18  C   UNL d   1       2.268  -5.322  -2.925  0.00  0.00     0.002 A 
ATOM     19  C   UNL d   1       3.083  -4.513  -2.130  0.00  0.00     0.029 A 
ENDBRANCH  12  14
ENDBRANCH  10  12
ENDBRANCH   8  10
ENDBRANCH   1   8
BRANCH   2  20
ATOM     20  C   UNL d   1       1.853   1.807  -1.621  0.00  0.00     0.298 C 
ATOM     21  O   UNL d   1       2.727   1.227  -2.254  0.00  0.00    -0.259 OA
BRANCH  20  22
ATOM     22  O   UNL d   1       1.615   3.144  -1.650  0.00  0.00    -0.318 OA
BRANCH  22  23
ATOM     23  C   UNL d   1       2.538   3.991  -2.350  0.00  0.00     0.174 C 
ATOM     24  C   UNL d   1       3.352   4.744  -1.315  0.00  0.00     0.034 C 
ENDBRANCH  22  23
ENDBRANCH  20  22
ENDBRANCH   2  20
TORSDOF 7
