REMARK  2 active torsions:
REMARK  status: ('A' for Active; 'I' for Inactive)
REMARK    1  A    between atoms: C_10  and  C_1 
REMARK    2  A    between atoms: C_7  and  C_10 
ROOT
ATOM      1  C   UNL d   1       0.541   1.301  -0.072  0.00  0.00     0.018 A 
ATOM      2  N   UNL d   1       0.586  -1.123  -0.036  0.00  0.00    -0.266 N 
ATOM      3  C   UNL d   1       1.319   0.037  -0.036  0.00  0.00     0.266 A 
ATOM      4  N   UNL d   1      -0.774  -1.218  -0.048  0.00  0.00    -0.302 N 
ATOM      5  HN  UNL d   1      -1.250  -2.120  -0.033  1.00  0.00     0.186 HD
ATOM      6  C   UNL d   1      -0.797   1.236  -0.099  0.00  0.00     0.039 A 
ATOM      7  C   UNL d   1      -1.431  -0.100  -0.080  0.00  0.00     0.022 A 
ATOM      8  O   UNL d   1       2.547   0.033   0.009  0.00  0.00    -0.266 OA
ATOM      9  C   UNL d   1      -2.937  -0.138  -0.070  0.00  0.00     0.070 C 
ATOM     10  H   UNL d   1       1.098  -1.999   0.002  0.00  0.00     0.190 HD
ENDROOT
BRANCH   1  11
ATOM     11  C   UNL d   1       1.306   2.591   0.017  0.00  0.00     0.090 C 
BRANCH  11  12
ATOM     12  C   UNL d   1       1.788   3.169  -1.285  0.00  0.00    -0.013 A 
ATOM     13  S   UNL d   1       0.801   4.260  -2.166  0.00  0.00    -0.106 SA
ATOM     14  C   UNL d   1       2.013   4.502  -3.348  0.00  0.00     0.050 A 
ATOM     15  C   UNL d   1       3.138   3.749  -3.095  0.00  0.00     0.008 A 
ATOM     16  C   UNL d   1       3.003   2.970  -1.909  0.00  0.00     0.015 A 
ENDBRANCH  11  12
ENDBRANCH   1  11
TORSDOF 2
