REMARK  6 active torsions:
REMARK  status: ('A' for Active; 'I' for Inactive)
REMARK    1  A    between atoms: C_7  and  C_1 
REMARK    2  A    between atoms: C_6  and  C_15 
REMARK    3  A    between atoms: O_13  and  C_7 
REMARK    4  A    between atoms: C_14  and  C_7 
REMARK    5  A    between atoms: N_12  and  C_14 
REMARK    6  A    between atoms: C_15  and  N_12 
ROOT
ATOM      1  N   UNL d   1       0.511  -2.160   3.147  0.00  0.00     0.091 N 
ATOM      2  H   UNL d   1      -0.510  -2.087   3.218  0.00  0.00     0.316 HD
ENDROOT
BRANCH   1   3
ATOM      3  C   UNL d   1       0.911  -1.808   1.778  0.00  0.00     0.310 C 
BRANCH   3   4
ATOM      4  C   UNL d   1       0.399  -0.404   1.415  0.00  0.00     0.253 C 
BRANCH   4   5
ATOM      5  C   UNL d   1       0.860  -0.007   0.001  0.00  0.00     0.414 C 
ATOM      6  F   UNL d   1      -0.203   0.286  -0.787  0.00  0.00    -0.168 F 
ATOM      7  F   UNL d   1       1.541  -0.999  -0.617  0.00  0.00    -0.168 F 
ATOM      8  F   UNL d   1       1.661   1.082   0.028  0.00  0.00    -0.168 F 
ENDBRANCH   4   5
BRANCH   4   9
ATOM      9  O   UNL d   1      -1.042  -0.384   1.577  0.00  0.00    -0.385 OA
ATOM     10  H   UNL d   1      -1.437  -0.776   0.777  0.00  0.00     0.210 HD
ENDBRANCH   4   9
ENDBRANCH   3   4
ENDBRANCH   1   3
BRANCH   1  11
ATOM     11  C   UNL d   1       0.922  -3.524   3.491  0.00  0.00     0.328 C 
BRANCH  11  12
ATOM     12  C   UNL d   1       0.459  -3.842   4.877  0.00  0.00     0.063 A 
ATOM     13  N   UNL d   1      -0.356  -4.881   5.100  0.00  0.00    -0.264 N 
ATOM     14  O   UNL d   1      -0.573  -4.896   6.467  0.00  0.00    -0.243 OA
ATOM     15  HN  UNL d   1      -0.737  -5.525   4.408  1.00  0.00     0.194 HD
ATOM     16  C   UNL d   1       0.106  -3.870   7.046  0.00  0.00     0.074 A 
ATOM     17  C   UNL d   1       0.783  -3.172   6.082  0.00  0.00     0.063 A 
ATOM     18  C   UNL d   1      -0.018  -3.746   8.508  0.00  0.00     0.079 C 
ENDBRANCH  11  12
ENDBRANCH   1  11
TORSDOF 6
