REMARK  7 active torsions:
REMARK  status: ('A' for Active; 'I' for Inactive)
REMARK    1  A    between atoms: C_2  and  C_1 
REMARK       I    between atoms: N_3  and  C_1 
REMARK    2  A    between atoms: C_4  and  N_3 
REMARK    3  A    between atoms: O_20  and  C_8 
REMARK    4  A    between atoms: O_22  and  C_11 
REMARK    5  A    between atoms: C_23  and  N_13 
REMARK    6  A    between atoms: C_18  and  C_24 
REMARK    7  A    between atoms: C_24  and  C_23 
ROOT
ATOM      1  C   UNL d   1      -0.931   0.885   3.000  0.00  0.00     0.174 C 
ATOM      2  S   UNL d   1      -1.397  -0.082   4.278  0.00  0.00    -0.041 SA
ATOM      3  N   UNL d   1      -1.748   1.463   2.075  0.00  0.00    -0.367 N 
ATOM      4  H   UNL d   1      -1.276   1.912   1.290  0.00  0.00     0.161 HD
ENDROOT
BRANCH   1   5
ATOM      5  N   UNL d   1       0.407   1.180   2.881  0.00  0.00    -0.300 N 
ATOM      6  C   UNL d   1       1.036   2.009   1.964  0.00  0.00     0.259 C 
ATOM      7  O   UNL d   1       0.566   2.342   0.883  0.00  0.00    -0.267 OA
ATOM      8  H   UNL d   1       0.941   0.865   3.680  0.00  0.00     0.171 HD
BRANCH   6   9
ATOM      9  C   UNL d   1       2.425   2.390   2.317  0.00  0.00     0.054 A 
ATOM     10  C   UNL d   1       2.766   2.933   3.564  0.00  0.00     0.051 A 
ATOM     11  C   UNL d   1       4.101   3.227   3.856  0.00  0.00     0.048 A 
ATOM     12 CL   UNL d   1       1.593   3.296   4.780  0.00  0.00    -0.083 Cl
ATOM     13  C   UNL d   1       5.086   2.993   2.901  0.00  0.00     0.035 A 
ATOM     14  C   UNL d   1       4.753   2.484   1.647  0.00  0.00     0.025 A 
ATOM     15 CL   UNL d   1       6.729   3.339   3.274  0.00  0.00    -0.084 Cl
ATOM     16  C   UNL d   1       3.420   2.188   1.349  0.00  0.00     0.020 A 
ENDBRANCH   6   9
ENDBRANCH   1   5
BRANCH   3  17
ATOM     17  C   UNL d   1      -3.202   1.479   2.065  0.00  0.00     0.126 C 
BRANCH  17  18
ATOM     18  C   UNL d   1      -3.798   2.442   3.108  0.00  0.00     0.058 C 
BRANCH  18  19
ATOM     19  C   UNL d   1      -5.310   2.464   3.148  0.00  0.00    -0.054 A 
ATOM     20  C   UNL d   1      -6.073   2.363   1.975  0.00  0.00     0.046 A 
ATOM     21  C   UNL d   1      -7.474   2.384   1.994  0.00  0.00     0.102 A 
ATOM     22  C   UNL d   1      -8.129   2.527   3.227  0.00  0.00     0.101 A 
ATOM     23  C   UNL d   1      -7.374   2.686   4.396  0.00  0.00     0.040 A 
ATOM     24  C   UNL d   1      -5.979   2.651   4.361  0.00  0.00     0.010 A 
BRANCH  21  25
ATOM     25  O   UNL d   1      -8.234   2.306   0.856  0.00  0.00    -0.353 OA
ATOM     26  C   UNL d   1      -7.556   2.127  -0.383  0.00  0.00     0.210 C 
ENDBRANCH  21  25
BRANCH  22  27
ATOM     27  O   UNL d   1      -9.483   2.590   3.438  0.00  0.00    -0.353 OA
ATOM     28  C   UNL d   1     -10.291   1.795   2.580  0.00  0.00     0.210 C 
ENDBRANCH  22  27
ENDBRANCH  18  19
ENDBRANCH  17  18
ENDBRANCH   3  17
TORSDOF 7
