REMARK  8 active torsions:
REMARK  status: ('A' for Active; 'I' for Inactive)
REMARK    1  A    between atoms: O_10  and  C_2 
REMARK       I    between atoms: N_5  and  C_6 
REMARK    2  A    between atoms: C_11  and  N_5 
REMARK    3  A    between atoms: C_16  and  N_5 
REMARK    4  A    between atoms: C_6  and  C_15 
REMARK    5  A    between atoms: C_15  and  O_10 
REMARK    6  A    between atoms: C_12  and  C_11 
REMARK    7  A    between atoms: O_19  and  C_12 
REMARK    8  A    between atoms: C_24  and  O_19 
ROOT
ATOM      1  C   UNL d   1      -3.062   1.587  -1.455  0.00  0.00     0.101 A 
ATOM      2  C   UNL d   1      -1.912   1.934  -0.757  0.00  0.00     0.164 A 
ATOM      3  N   UNL d   1      -1.311   1.110   0.139  0.00  0.00    -0.340 N 
ATOM      4  HN  UNL d   1      -0.467   1.398   0.634  1.00  0.00     0.167 HD
ATOM      5  C   UNL d   1      -3.693   0.372  -1.139  0.00  0.00    -0.035 A 
ATOM      6  C   UNL d   1      -3.541   2.421  -2.514  0.00  0.00     0.104 C 
ATOM      7  N   UNL d   1      -3.948   3.033  -3.414  0.00  0.00    -0.191 NA
ATOM      8  C   UNL d   1      -1.864  -0.105   0.356  0.00  0.00     0.008 A 
ATOM      9  C   UNL d   1      -3.065  -0.488  -0.227  0.00  0.00     0.033 A 
ATOM     10  C   UNL d   1      -4.973  -0.081  -1.786  0.00  0.00     0.050 C 
ATOM     11  C   UNL d   1      -1.100  -1.046   1.238  0.00  0.00     0.068 C 
ENDROOT
BRANCH   2  12
ATOM     12  O   UNL d   1      -1.341   3.175  -0.995  0.00  0.00    -0.325 OA
BRANCH  12  13
ATOM     13  C   UNL d   1      -0.210   3.427  -0.164  0.00  0.00     0.280 C 
BRANCH  13  14
ATOM     14  C   UNL d   1       0.430   4.814  -0.388  0.00  0.00     0.249 C 
ATOM     15  N   UNL d   1       1.809   4.904  -0.133  0.00  0.00    -0.307 N 
ATOM     16  O   UNL d   1      -0.253   5.810  -0.636  0.00  0.00    -0.271 OA
BRANCH  15  17
ATOM     17  C   UNL d   1       2.453   6.224  -0.141  0.00  0.00     0.243 C 
BRANCH  17  18
ATOM     18  C   UNL d   1       3.125   6.570  -1.469  0.00  0.00     0.277 C 
ATOM     19  O   UNL d   1       2.753   6.209  -2.577  0.00  0.00    -0.263 OA
BRANCH  18  20
ATOM     20  O   UNL d   1       4.246   7.317  -1.228  0.00  0.00    -0.321 OA
BRANCH  20  21
ATOM     21  C   UNL d   1       5.153   7.450  -2.333  0.00  0.00     0.174 C 
ATOM     22  C   UNL d   1       6.164   6.319  -2.260  0.00  0.00     0.034 C 
ENDBRANCH  20  21
ENDBRANCH  18  20
ENDBRANCH  17  18
ENDBRANCH  15  17
BRANCH  15  23
ATOM     23  C   UNL d   1       2.666   3.793  -0.336  0.00  0.00     0.037 A 
ATOM     24  C   UNL d   1       2.761   3.207  -1.604  0.00  0.00     0.030 A 
ATOM     25  C   UNL d   1       3.570   2.091  -1.799  0.00  0.00     0.002 A 
ATOM     26  C   UNL d   1       4.269   1.546  -0.724  0.00  0.00     0.000 A 
ATOM     27  C   UNL d   1       4.177   2.131   0.541  0.00  0.00     0.002 A 
ATOM     28  C   UNL d   1       3.388   3.266   0.736  0.00  0.00     0.030 A 
ENDBRANCH  15  23
ENDBRANCH  13  14
ENDBRANCH  12  13
ENDBRANCH   2  12
TORSDOF 8
