REMARK  5 active torsions:
REMARK  status: ('A' for Active; 'I' for Inactive)
REMARK    1  A    between atoms: N_2  and  C_1 
REMARK    2  A    between atoms: C_3  and  C_4 
REMARK    3  A    between atoms: C_5  and  C_12 
REMARK    4  A    between atoms: C_6  and  N_9 
REMARK    5  A    between atoms: N_9  and  C_7 
ROOT
ATOM      1  N   UNL d   1       1.102  -2.563   0.023  0.00  0.00    -0.339 N 
ATOM      2  H   UNL d   1       1.394  -2.780   0.977  0.00  0.00     0.167 HD
ENDROOT
BRANCH   1   3
ATOM      3  C   UNL d   1       0.555  -3.715  -0.591  0.00  0.00     0.127 A 
ATOM      4  N   UNL d   1      -0.153  -3.559  -1.737  0.00  0.00    -0.350 N 
ATOM      5  C   UNL d   1      -0.537  -4.665  -2.414  0.00  0.00     0.106 A 
ATOM      6  HN  UNL d   1      -0.391  -2.628  -2.080  1.00  0.00     0.166 HD
ATOM      7  C   UNL d   1      -0.263  -5.960  -2.003  0.00  0.00     0.065 A 
ATOM      8  C   UNL d   1       0.424  -6.120  -0.798  0.00  0.00     0.045 A 
ATOM      9  C   UNL d   1       0.849  -4.993  -0.094  0.00  0.00     0.079 A 
ATOM     10 CL   UNL d   1       1.700  -5.210   1.392  0.00  0.00    -0.080 Cl
BRANCH   7  11
ATOM     11  C   UNL d   1      -0.676  -7.109  -2.868  0.00  0.00     0.418 C 
ATOM     12  F   UNL d   1      -0.327  -8.322  -2.358  0.00  0.00    -0.166 F 
ATOM     13  F   UNL d   1      -2.021  -7.157  -3.065  0.00  0.00    -0.166 F 
ATOM     14  F   UNL d   1      -0.117  -7.048  -4.107  0.00  0.00    -0.166 F 
ENDBRANCH   7  11
ENDBRANCH   1   3
BRANCH   1  15
ATOM     15  C   UNL d   1       0.549  -1.263  -0.042  0.00  0.00     0.067 A 
ATOM     16  C   UNL d   1       1.345  -0.107  -0.069  0.00  0.00     0.130 A 
ATOM     17  C   UNL d   1       0.795   1.186   0.003  0.00  0.00     0.054 A 
ATOM     18  C   UNL d   1      -0.590   1.346   0.132  0.00  0.00     0.050 A 
ATOM     19  C   UNL d   1      -1.400   0.201   0.151  0.00  0.00     0.018 A 
ATOM     20  C   UNL d   1      -0.838  -1.079   0.075  0.00  0.00     0.033 A 
BRANCH  16  21
ATOM     21  N   UNL d   1       2.787  -0.213  -0.206  0.00  0.00    -0.113 N 
ATOM     22  O   UNL d   1       3.394  -0.880   0.647  0.00  0.00    -0.532 OA
ATOM     23  O   UNL d   1       3.314   0.429  -1.127  0.00  0.00    -0.532 OA
ENDBRANCH  16  21
BRANCH  18  24
ATOM     24  C   UNL d   1      -1.218   2.712   0.272  0.00  0.00     0.417 C 
ATOM     25  F   UNL d   1      -0.309   3.723   0.322  0.00  0.00    -0.166 F 
ATOM     26  F   UNL d   1      -2.059   3.008  -0.756  0.00  0.00    -0.166 F 
ATOM     27  F   UNL d   1      -1.960   2.820   1.409  0.00  0.00    -0.166 F 
ENDBRANCH  18  24
ENDBRANCH   1  15
TORSDOF 5
