REMARK  6 active torsions:
REMARK  status: ('A' for Active; 'I' for Inactive)
REMARK    1  A    between atoms: N_5  and  C_1 
REMARK    2  A    between atoms: N_9  and  C_1 
REMARK       I    between atoms: C_4  and  N_8 
REMARK    3  A    between atoms: C_7  and  C_4 
REMARK    4  A    between atoms: N_8  and  N_5 
REMARK    5  A    between atoms: C_12  and  N_9 
REMARK    6  A    between atoms: C_13  and  C_12 
ROOT
ATOM      1  N   UNL d   1      -1.109  -5.315   0.847  0.00  0.00    -0.197 NA
ATOM      2  C   UNL d   1      -0.448  -5.024   1.755  0.00  0.00     0.068 C 
ATOM      3  C   UNL d   1       0.401  -4.637   2.878  0.00  0.00     0.228 C 
ENDROOT
BRANCH   3   4
ATOM      4  C   UNL d   1       1.365  -3.506   2.583  0.00  0.00     0.249 C 
ATOM      5  N   UNL d   1       1.482  -3.071   1.277  0.00  0.00    -0.267 N 
ATOM      6  H   UNL d   1       0.811  -3.311   0.544  0.00  0.00     0.190 HD
ATOM      7  O   UNL d   1       2.045  -3.022   3.493  0.00  0.00    -0.271 OA
BRANCH   5   8
ATOM      8  N   UNL d   1       2.194  -1.878   1.053  0.00  0.00    -0.274 N 
ATOM      9  H   UNL d   1       3.000  -1.714   1.654  0.00  0.00     0.189 HD
BRANCH   8  10
ATOM     10  C   UNL d   1       1.904  -1.064  -0.006  0.00  0.00     0.186 C 
ATOM     11  S   UNL d   1       0.834  -1.445  -1.235  0.00  0.00    -0.040 SA
BRANCH  10  12
ATOM     12  N   UNL d   1       2.490   0.163  -0.033  0.00  0.00    -0.364 N 
ATOM     13  H   UNL d   1       2.240   0.715  -0.846  0.00  0.00     0.162 HD
BRANCH  12  14
ATOM     14  C   UNL d   1       3.372   0.787   0.951  0.00  0.00     0.154 C 
BRANCH  14  15
ATOM     15  C   UNL d   1       4.860   0.638   0.618  0.00  0.00     0.139 C 
ATOM     16  O   UNL d   1       5.247  -0.750   0.608  0.00  0.00    -0.384 OA
ATOM     17  C   UNL d   1       6.046  -0.983  -0.562  0.00  0.00     0.168 C 
ATOM     18  C   UNL d   1       6.460   0.374  -1.089  0.00  0.00     0.029 C 
ATOM     19  C   UNL d   1       5.270   1.225  -0.726  0.00  0.00     0.035 C 
ENDBRANCH  14  15
ENDBRANCH  12  14
ENDBRANCH  10  12
ENDBRANCH   8  10
ENDBRANCH   5   8
ENDBRANCH   3   4
TORSDOF 6
