REMARK  3 active torsions:
REMARK  status: ('A' for Active; 'I' for Inactive)
REMARK    1  A    between atoms: N_5  and  C_1 
REMARK    2  A    between atoms: C_6  and  N_5 
REMARK    3  A    between atoms: O_12  and  N_7 
ROOT
ATOM      1  C   UNL d   1       2.859   0.536   0.037  0.00  0.00     0.112 A 
ATOM      2  N   UNL d   1       2.061   1.632   0.036  0.00  0.00    -0.351 N 
ATOM      3  HN  UNL d   1       2.466   2.568   0.066  1.00  0.00     0.166 HD
ATOM      4  C   UNL d   1       2.317  -0.757   0.054  0.00  0.00    -0.017 A 
ATOM      5  C   UNL d   1       0.916  -0.892  -0.010  0.00  0.00     0.031 A 
ATOM      6  C   UNL d   1       0.717   1.466  -0.005  0.00  0.00     0.108 A 
ATOM      7  C   UNL d   1       0.106   0.232  -0.036  0.00  0.00     0.027 A 
ATOM      8 BR   UNL d   1      -1.770   0.073  -0.083  0.00  0.00    -0.050 Br
ATOM      9  C   UNL d   1       3.121  -2.020   0.166  0.00  0.00     0.052 C 
ENDROOT
BRANCH   1  10
ATOM     10  N   UNL d   1       4.209   0.853   0.061  0.00  0.00    -0.337 N 
ATOM     11  H   UNL d   1       4.342   1.847   0.197  0.00  0.00     0.168 HD
BRANCH  10  12
ATOM     12  C   UNL d   1       5.265   0.209  -0.490  0.00  0.00     0.205 C 
ATOM     13  N   UNL d   1       6.473   0.674  -0.488  0.00  0.00    -0.265 N 
ATOM     14  HN  UNL d   1       6.764   1.564  -0.084  1.00  0.00     0.194 HD
BRANCH  13  15
ATOM     15  O   UNL d   1       7.318  -0.241  -1.127  0.00  0.00    -0.289 OA
ATOM     16  H   UNL d   1       8.195   0.170  -1.008  0.00  0.00     0.244 HD
ENDBRANCH  13  15
ENDBRANCH  10  12
ENDBRANCH   1  10
TORSDOF 3
