REMARK  10 active torsions:
REMARK  status: ('A' for Active; 'I' for Inactive)
REMARK    1  A    between atoms: N_17  and  CA_4 
REMARK    2  A    between atoms: C_18  and  CA_5 
REMARK    3  A    between atoms: C_13  and  S_22 
REMARK    4  A    between atoms: C_23  and  C_14 
REMARK    5  A    between atoms: S_26  and  C_15 
REMARK    6  A    between atoms: N_27  and  C_16 
REMARK       I    between atoms: C_19  and  N_17 
REMARK    7  A    between atoms: OXT_29  and  C_18 
REMARK    8  A    between atoms: C_28  and  C_19 
REMARK    9  A    between atoms: S_22  and  C_23 
REMARK   10  A    between atoms: C_30  and  C_28 
ROOT
ATOM      1  N   UNL d   1       0.680  -0.008   0.748  0.00  0.00    -0.195 NA
ATOM      2  C   UNL d   1       1.377   0.532  -0.308  0.00  0.00     0.230 C 
ATOM      3  C   UNL d   1      -0.319   1.088   0.767  0.00  0.00     0.164 C 
ATOM      4  CA  UNL d   1       0.642   1.899  -0.159  0.00  0.00     0.199 C 
ATOM      5  CA  UNL d   1       0.248  -1.324   0.809  0.00  0.00     0.097 C 
ATOM      6  S   UNL d   1      -1.927   0.734   0.004  0.00  0.00    -0.141 SA
ATOM      7  C   UNL d   1      -0.834  -1.758   0.107  0.00  0.00    -0.032 C 
ATOM      8  C   UNL d   1      -1.484  -0.788  -0.851  0.00  0.00     0.112 C 
ATOM      9  O   UNL d   1       2.238   0.059  -1.013  0.00  0.00    -0.277 OA
ENDROOT
BRANCH   7  10
ATOM     10  C   UNL d   1      -1.465  -3.142   0.291  0.00  0.00     0.119 C 
BRANCH  10  11
ATOM     11  S   UNL d   1      -2.395  -3.749  -1.155  0.00  0.00    -0.089 SA
BRANCH  11  12
ATOM     12  C   UNL d   1      -3.567  -4.857  -0.396  0.00  0.00     0.148 A 
ATOM     13  N   UNL d   1      -4.722  -4.984  -1.039  0.00  0.00    -0.317 N 
ATOM     14  C   UNL d   1      -5.540  -5.907  -0.548  0.00  0.00     0.148 A 
ATOM     15  HN  UNL d   1      -4.962  -4.414  -1.850  1.00  0.00     0.170 HD
ATOM     16  N   UNL d   1      -5.275  -6.677   0.503  0.00  0.00    -0.313 N 
ATOM     17  C   UNL d   1      -4.108  -6.445   1.081  0.00  0.00     0.158 A 
ATOM     18  HN  UNL d   1      -5.922  -7.392   0.838  1.00  0.00     0.170 HD
ATOM     19  N   UNL d   1      -3.210  -5.560   0.671  0.00  0.00    -0.313 N 
ATOM     20  HN  UNL d   1      -2.313  -5.430   1.140  1.00  0.00     0.170 HD
BRANCH  14  21
ATOM     21  S   UNL d   1      -7.087  -6.091  -1.412  0.00  0.00    -0.098 SA
ATOM     22  C   UNL d   1      -7.780  -7.550  -0.596  0.00  0.00     0.099 C 
ENDBRANCH  14  21
BRANCH  17  23
ATOM     23  N   UNL d   1      -3.780  -7.226   2.169  0.00  0.00    -0.274 NA
ATOM     24  H   UNL d   1      -4.268  -8.111   2.142  0.00  0.00     0.127 HD
ATOM     25  H   UNL d   1      -2.779  -7.257   2.304  0.00  0.00     0.127 HD
ENDBRANCH  17  23
ENDBRANCH  11  12
ENDBRANCH  10  11
ENDBRANCH   7  10
BRANCH   5  26
ATOM     26  C   UNL d   1       0.975  -2.172   1.820  0.00  0.00     0.188 C 
ATOM     27  O   UNL d   1       0.769  -3.352   2.051  0.00  0.00    -0.645 OA
BRANCH  26  28
ATOM     28  OXT UNL d   1       1.894  -1.460   2.522  0.00  0.00    -0.772 OA
ATOM     29  HXT UNL d   1       1.937  -0.532   2.224  0.00  0.00     0.167 HD
ENDBRANCH  26  28
ENDBRANCH   5  26
BRANCH   4  30
ATOM     30  N   UNL d   1       1.423   2.981   0.516  0.00  0.00    -0.346 N 
ATOM     31  C   UNL d   1       0.783   3.967   1.236  0.00  0.00     0.222 C 
ATOM     32  O   UNL d   1      -0.443   4.018   1.323  0.00  0.00    -0.273 OA
ATOM     33  H   UNL d   1       2.437   2.991   0.465  0.00  0.00     0.163 HD
BRANCH  31  34
ATOM     34  C   UNL d   1       1.693   4.939   1.960  0.00  0.00     0.141 C 
BRANCH  34  35
ATOM     35  C   UNL d   1       2.108   4.434   3.321  0.00  0.00    -0.050 A 
ATOM     36  C   UNL d   1       3.462   4.246   3.628  0.00  0.00     0.007 A 
ATOM     37  C   UNL d   1       3.846   3.806   4.897  0.00  0.00     0.001 A 
ATOM     38  C   UNL d   1       2.882   3.551   5.871  0.00  0.00     0.000 A 
ATOM     39  C   UNL d   1       1.533   3.735   5.578  0.00  0.00     0.001 A 
ATOM     40  C   UNL d   1       1.147   4.177   4.311  0.00  0.00     0.007 A 
ENDBRANCH  34  35
ENDBRANCH  31  34
ENDBRANCH   4  30
TORSDOF 10
