REMARK  4 active torsions:
REMARK  status: ('A' for Active; 'I' for Inactive)
REMARK    1  A    between atoms: N_2  and  C_1 
REMARK    2  A    between atoms: N_8  and  C_1 
REMARK    3  A    between atoms: C_6  and  N_2 
REMARK    4  A    between atoms: N_10  and  N_8 
ROOT
ATOM      1  N   UNL d   1       0.711   1.052  -0.538  0.00  0.00    -0.332 N 
ATOM      2  H   UNL d   1      -0.229   1.113  -0.158  0.00  0.00     0.168 HD
ENDROOT
BRANCH   1   3
ATOM      3  C   UNL d   1       1.319  -0.142  -0.202  0.00  0.00     0.186 C 
ATOM      4  S   UNL d   1       2.918  -0.421   0.190  0.00  0.00    -0.040 SA
BRANCH   3   5
ATOM      5  N   UNL d   1       0.442  -1.211  -0.149  0.00  0.00    -0.298 N 
ATOM      6  H   UNL d   1       0.848  -2.106   0.120  0.00  0.00     0.183 HD
BRANCH   5   7
ATOM      7  N   UNL d   1      -0.814  -1.176  -0.801  0.00  0.00    -0.242 NA
ATOM      8  C   UNL d   1      -1.092  -2.469  -1.427  0.00  0.00     0.133 C 
ATOM      9  H   UNL d   1      -0.755  -0.481  -1.554  0.00  0.00     0.146 HD
ENDBRANCH   5   7
ENDBRANCH   3   5
ENDBRANCH   1   3
BRANCH   1  10
ATOM     10  C   UNL d   1       1.304   2.244  -0.988  0.00  0.00     0.035 A 
ATOM     11  C   UNL d   1       2.418   2.246  -1.838  0.00  0.00     0.039 A 
ATOM     12  C   UNL d   1       2.964   3.449  -2.306  0.00  0.00    -0.021 A 
ATOM     13  C   UNL d   1       4.155   3.452  -3.214  0.00  0.00     0.051 C 
ATOM     14  C   UNL d   1       2.389   4.650  -1.890  0.00  0.00     0.122 A 
ATOM     15  C   UNL d   1       1.267   4.664  -1.068  0.00  0.00     0.045 A 
ATOM     16  F   UNL d   1       2.912   5.816  -2.295  0.00  0.00    -0.206 F 
ATOM     17  C   UNL d   1       0.708   3.460  -0.636  0.00  0.00     0.032 A 
ENDBRANCH   1  10
TORSDOF 4
