REMARK  4 active torsions:
REMARK  status: ('A' for Active; 'I' for Inactive)
REMARK    1  A    between atoms: C_12  and  C_3 
REMARK    2  A    between atoms: O_11  and  C_5 
REMARK    3  A    between atoms: C_18  and  C_12 
REMARK    4  A    between atoms: C_19  and  C_18 
ROOT
ATOM      1  N   UNL d   1      -0.091  -1.054   0.001  0.00  0.00    -0.276 N 
ATOM      2  C   UNL d   1      -0.645  -2.344  -0.014  0.00  0.00     0.262 A 
ATOM      3  C   UNL d   1      -2.156  -2.388   0.021  0.00  0.00     0.044 A 
ATOM      4  C   UNL d   1      -0.894   0.068   0.011  0.00  0.00     0.067 A 
ATOM      5  C   UNL d   1      -2.900  -1.258   0.026  0.00  0.00     0.089 A 
ATOM      6  C   UNL d   1      -2.288   0.079   0.016  0.00  0.00     0.026 A 
ATOM      7  C   UNL d   1       1.241  -0.656   0.000  0.00  0.00     0.054 A 
ATOM      8  C   UNL d   1      -0.097   1.198   0.003  0.00  0.00     0.005 A 
ATOM      9  C   UNL d   1       1.258   0.746   0.001  0.00  0.00     0.004 A 
ATOM     10  O   UNL d   1       0.078  -3.328  -0.062  0.00  0.00    -0.267 OA
ATOM     11  C   UNL d   1      -2.898   1.339   0.007  0.00  0.00     0.017 A 
ATOM     12  C   UNL d   1      -0.731   2.454  -0.001  0.00  0.00     0.014 A 
ATOM     13  C   UNL d   1       2.433  -1.404   0.001  0.00  0.00     0.031 A 
ATOM     14  C   UNL d   1       2.501   1.414   0.000  0.00  0.00     0.014 A 
ATOM     15  C   UNL d   1      -2.131   2.508  -0.001  0.00  0.00     0.002 A 
ATOM     16  C   UNL d   1       3.650  -0.716   0.001  0.00  0.00     0.002 A 
ATOM     17  C   UNL d   1       3.687   0.674   0.000  0.00  0.00     0.001 A 
ENDROOT
BRANCH   3  18
ATOM     18  C   UNL d   1      -2.775  -3.770  -0.013  0.00  0.00     0.047 C 
BRANCH  18  19
ATOM     19  C   UNL d   1      -2.457  -4.686   1.176  0.00  0.00     0.004 C 
BRANCH  19  20
ATOM     20  C   UNL d   1      -2.866  -4.119   2.535  0.00  0.00    -0.004 C 
ATOM     21  C   UNL d   1      -2.532  -5.106   3.645  0.00  0.00     0.005 C 
ENDBRANCH  19  20
ENDBRANCH  18  19
ENDBRANCH   3  18
BRANCH   5  22
ATOM     22  O   UNL d   1      -4.279  -1.338   0.028  0.00  0.00    -0.359 OA
ATOM     23  H   UNL d   1      -4.664  -0.451  -0.011  0.00  0.00     0.217 HD
ENDBRANCH   5  22
TORSDOF 4
