REMARK  3 active torsions:
REMARK  status: ('A' for Active; 'I' for Inactive)
REMARK    1  A    between atoms: C_2  and  C_1 
REMARK       I    between atoms: N_5  and  C_2 
REMARK    2  A    between atoms: N_4  and  C_8 
REMARK    3  A    between atoms: C_10  and  N_5 
ROOT
ATOM      1  C   UNL d   1       1.081  -6.051   0.316  0.00  0.00     0.030 A 
ATOM      2  C   UNL d   1      -1.347  -4.541   0.145  0.00  0.00     0.035 A 
ATOM      3  C   UNL d   1       0.072  -6.358  -0.608  0.00  0.00     0.031 A 
ATOM      4  C   UNL d   1       0.808  -4.988   1.189  0.00  0.00     0.031 A 
ATOM      5  C   UNL d   1      -1.116  -5.622  -0.697  0.00  0.00     0.032 A 
ATOM      6  C   UNL d   1      -0.379  -4.236   1.102  0.00  0.00     0.032 A 
ENDROOT
BRANCH   2   7
ATOM      7  N   UNL d   1      -2.480  -3.701   0.040  0.00  0.00    -0.323 N 
ATOM      8  C   UNL d   1      -3.588  -3.910  -0.761  0.00  0.00     0.257 C 
ATOM      9  O   UNL d   1      -3.844  -4.952  -1.362  0.00  0.00    -0.267 OA
ATOM     10  H   UNL d   1      -2.461  -2.863   0.609  0.00  0.00     0.169 HD
BRANCH   8  11
ATOM     11  C   UNL d   1      -4.534  -2.768  -0.959  0.00  0.00     0.054 A 
ATOM     12  C   UNL d   1      -4.747  -1.701  -0.074  0.00  0.00     0.051 A 
ATOM     13  C   UNL d   1      -5.642  -0.673  -0.411  0.00  0.00     0.048 A 
ATOM     14 CL   UNL d   1      -3.984  -1.572   1.471  0.00  0.00    -0.083 Cl
ATOM     15  C   UNL d   1      -6.332  -0.707  -1.621  0.00  0.00     0.035 A 
ATOM     16  C   UNL d   1      -6.153  -1.766  -2.500  0.00  0.00     0.025 A 
ATOM     17 CL   UNL d   1      -7.412   0.568  -2.029  0.00  0.00    -0.084 Cl
ATOM     18  C   UNL d   1      -5.263  -2.789  -2.169  0.00  0.00     0.020 A 
ENDBRANCH   8  11
ENDBRANCH   2   7
BRANCH   1  19
ATOM     19  N   UNL d   1       2.282  -6.733   0.328  0.00  0.00    -0.381 N 
ATOM     20  C   UNL d   1       3.043  -6.987   1.552  0.00  0.00     0.123 C 
ATOM     21  C   UNL d   1       4.475  -6.476   1.385  0.00  0.00     0.020 C 
ATOM     22  C   UNL d   1       5.129  -7.034   0.120  0.00  0.00     0.003 C 
ATOM     23  C   UNL d   1       4.253  -6.790  -1.106  0.00  0.00     0.020 C 
ATOM     24  C   UNL d   1       2.837  -7.326  -0.892  0.00  0.00     0.123 C 
ENDBRANCH   1  19
TORSDOF 3
