REMARK  2 active torsions:
REMARK  status: ('A' for Active; 'I' for Inactive)
REMARK    1  A    between atoms: N_2  and  S_1 
REMARK    2  A    between atoms: C_6  and  S_1 
ROOT
ATOM      1  N   UNL d   1      -0.106   1.276   0.867  0.00  0.00    -0.265 N 
ATOM      2  C   UNL d   1      -0.295   2.542   0.209  0.00  0.00     0.072 A 
ATOM      3  C   UNL d   1      -0.116   1.288   2.350  0.00  0.00     0.107 C 
ATOM      4  N   UNL d   1       1.330   3.890   1.566  0.00  0.00    -0.325 N 
ATOM      5  C   UNL d   1       1.612   3.196   2.690  0.00  0.00     0.224 C 
ATOM      6  C   UNL d   1       1.163   1.793   2.974  0.00  0.00     0.129 C 
ATOM      7  C   UNL d   1       0.445   3.697   0.493  0.00  0.00     0.062 A 
ATOM      8  O   UNL d   1       2.331   3.766   3.522  0.00  0.00    -0.273 OA
ATOM      9  C   UNL d   1      -1.246   2.559  -0.824  0.00  0.00     0.033 A 
ATOM     10  C   UNL d   1      -1.370   1.990   2.885  0.00  0.00     0.034 C 
ATOM     11  C   UNL d   1       0.244   4.833  -0.314  0.00  0.00     0.032 A 
ATOM     12  C   UNL d   1      -1.472   3.710  -1.575  0.00  0.00     0.002 A 
ATOM     13  C   UNL d   1      -0.714   4.846  -1.329  0.00  0.00     0.002 A 
ATOM     14  H   UNL d   1       1.786   4.795   1.606  0.00  0.00     0.169 HD
ENDROOT
BRANCH   1  15
ATOM     15  S   UNL d   1       1.012   0.258   0.043  0.00  0.00     0.265 S 
ATOM     16  O   UNL d   1       2.357   0.630   0.435  0.00  0.00    -0.200 OA
ATOM     17  O   UNL d   1       0.645   0.173  -1.354  0.00  0.00    -0.200 OA
BRANCH  15  18
ATOM     18  C   UNL d   1       0.664  -1.345   0.732  0.00  0.00     0.081 A 
ATOM     19  C   UNL d   1       1.654  -2.041   1.433  0.00  0.00     0.049 A 
ATOM     20  C   UNL d   1       1.349  -3.293   1.962  0.00  0.00     0.035 A 
ATOM     21 CL   UNL d   1       2.549  -4.169   2.829  0.00  0.00    -0.084 Cl
ATOM     22  C   UNL d   1       0.076  -3.845   1.797  0.00  0.00     0.024 A 
ATOM     23  C   UNL d   1      -0.904  -3.146   1.090  0.00  0.00     0.003 A 
ATOM     24  C   UNL d   1      -0.610  -1.895   0.550  0.00  0.00     0.025 A 
ENDBRANCH  15  18
ENDBRANCH   1  15
TORSDOF 2
