REMARK  4 active torsions:
REMARK  status: ('A' for Active; 'I' for Inactive)
REMARK    1  A    between atoms: C_6  and  N_1 
REMARK    2  A    between atoms: C_2  and  C_5 
REMARK       I    between atoms: N_3  and  C_2 
REMARK    3  A    between atoms: C_7  and  N_4 
REMARK    4  A    between atoms: O_17  and  C_16 
ROOT
ATOM      1  C   UNL d   1      -0.058  -4.312  -1.782  0.00  0.00     0.254 C 
ATOM      2  N   UNL d   1      -0.859  -5.074  -2.634  0.00  0.00    -0.345 N 
ATOM      3  N   UNL d   1      -2.547  -6.739  -4.263  0.00  0.00    -0.376 N 
ATOM      4  C   UNL d   1      -0.982  -4.883  -4.090  0.00  0.00     0.146 C 
ATOM      5  C   UNL d   1      -1.174  -6.449  -2.209  0.00  0.00     0.146 C 
ATOM      6  C   UNL d   1      -2.376  -5.312  -4.586  0.00  0.00     0.143 C 
ATOM      7  C   UNL d   1      -2.491  -6.992  -2.806  0.00  0.00     0.143 C 
ATOM      8  O   UNL d   1       0.273  -4.696  -0.658  0.00  0.00    -0.267 OA
ENDROOT
BRANCH   1   9
ATOM      9  C   UNL d   1       0.453  -2.986  -2.218  0.00  0.00     0.034 A 
ATOM     10  C   UNL d   1       1.776  -2.652  -1.905  0.00  0.00     0.053 A 
ATOM     11  C   UNL d   1       2.298  -1.424  -2.340  0.00  0.00     0.103 A 
ATOM     12  C   UNL d   1       1.518  -0.548  -3.106  0.00  0.00     0.036 A 
ATOM     13  C   UNL d   1       0.188  -0.869  -3.375  0.00  0.00     0.003 A 
ATOM     14  C   UNL d   1      -0.354  -2.061  -2.893  0.00  0.00     0.017 A 
BRANCH  11  15
ATOM     15  N   UNL d   1       3.674  -1.049  -1.984  0.00  0.00    -0.116 N 
ATOM     16  O   UNL d   1       4.308  -1.812  -1.243  0.00  0.00    -0.532 OA
ATOM     17  O   UNL d   1       4.114   0.013  -2.444  0.00  0.00    -0.532 OA
ENDBRANCH  11  15
ENDBRANCH   1   9
BRANCH   3  18
ATOM     18  C   UNL d   1      -3.393  -7.495  -5.082  0.00  0.00     0.064 A 
ATOM     19  C   UNL d   1      -3.238  -7.577  -6.490  0.00  0.00     0.094 A 
ATOM     20  C   UNL d   1      -4.068  -8.391  -7.274  0.00  0.00     0.039 A 
ATOM     21  C   UNL d   1      -5.070  -9.158  -6.687  0.00  0.00     0.003 A 
ATOM     22  C   UNL d   1      -5.256  -9.085  -5.315  0.00  0.00     0.002 A 
ATOM     23  C   UNL d   1      -4.434  -8.269  -4.529  0.00  0.00     0.032 A 
BRANCH  19  24
ATOM     24  O   UNL d   1      -2.337  -6.841  -7.222  0.00  0.00    -0.354 OA
ATOM     25  C   UNL d   1      -0.972  -7.107  -6.915  0.00  0.00     0.210 C 
ENDBRANCH  19  24
ENDBRANCH   3  18
TORSDOF 4
