REMARK  4 active torsions:
REMARK  status: ('A' for Active; 'I' for Inactive)
REMARK    1  A    between atoms: C_15  and  C_3 
REMARK    2  A    between atoms: C_17  and  N_5 
REMARK    3  A    between atoms: C_16  and  C_12 
REMARK    4  A    between atoms: C_18  and  C_15 
ROOT
ATOM      1  C   UNL d   1      -0.981   0.600  -0.102  0.00  0.00     0.142 A 
ATOM      2  C   UNL d   1       1.355  -0.835  -0.033  0.00  0.00     0.057 A 
ATOM      3  C   UNL d   1       3.419   0.133  -0.073  0.00  0.00     0.155 A 
ATOM      4  C   UNL d   1      -1.107  -0.784  -0.039  0.00  0.00     0.046 A 
ATOM      5  N   UNL d   1      -2.243   1.154  -0.031  0.00  0.00    -0.239 N 
ATOM      6  C   UNL d   1       2.765  -1.084   0.034  0.00  0.00     0.080 A 
ATOM      7  C   UNL d   1       1.276   0.550  -0.113  0.00  0.00     0.163 A 
ATOM      8  N   UNL d   1      -3.192   0.198   0.098  0.00  0.00    -0.296 N 
ATOM      9  HN  UNL d   1      -4.191   0.330   0.258  1.00  0.00     0.187 HD
ATOM     10  N   UNL d   1       0.172   1.285  -0.152  0.00  0.00    -0.320 N 
ATOM     11  HN  UNL d   1       0.197   2.302  -0.217  1.00  0.00     0.169 HD
ATOM     12  C   UNL d   1       0.109  -1.542  -0.027  0.00  0.00     0.007 A 
ATOM     13  O   UNL d   1       2.493   1.126  -0.151  0.00  0.00    -0.286 OA
ATOM     14  C   UNL d   1      -2.530  -0.965  -0.029  0.00  0.00     0.037 C 
ATOM     15  N   UNL d   1       3.401  -2.272   0.170  0.00  0.00    -0.396 N 
ATOM     16  C   UNL d   1      -3.362  -2.193  -0.108  0.00  0.00     0.070 C 
ATOM     17  H   UNL d   1       2.920  -3.087   0.538  0.00  0.00     0.156 HD
ATOM     18  H   UNL d   1       4.400  -2.281   0.380  0.00  0.00     0.156 HD
ENDROOT
BRANCH   3  19
ATOM     19  C   UNL d   1       4.817   0.509  -0.060  0.00  0.00     0.218 C 
ATOM     20  O   UNL d   1       5.702  -0.197   0.421  0.00  0.00    -0.284 OA
BRANCH  19  21
ATOM     21  C   UNL d   1       5.217   1.818  -0.666  0.00  0.00     0.017 A 
ATOM     22  C   UNL d   1       4.598   2.304  -1.829  0.00  0.00     0.017 A 
ATOM     23  C   UNL d   1       5.016   3.510  -2.400  0.00  0.00     0.025 A 
ATOM     24  C   UNL d   1       6.056   4.229  -1.816  0.00  0.00     0.034 A 
ATOM     25  C   UNL d   1       6.682   3.753  -0.662  0.00  0.00     0.025 A 
ATOM     26 CL   UNL d   1       6.579   5.703  -2.531  0.00  0.00    -0.084 Cl
ATOM     27  C   UNL d   1       6.267   2.547  -0.090  0.00  0.00     0.017 A 
ENDBRANCH  19  21
ENDBRANCH   3  19
BRANCH  12  28
ATOM     28  C   UNL d   1       0.094  -3.018   0.012  0.00  0.00    -0.024 A 
ATOM     29  C   UNL d   1       0.854  -3.777  -0.900  0.00  0.00     0.014 A 
ATOM     30  C   UNL d   1       0.865  -5.177  -0.864  0.00  0.00     0.024 A 
ATOM     31  C   UNL d   1       0.067  -5.848   0.055  0.00  0.00     0.034 A 
ATOM     32  C   UNL d   1      -0.710  -5.130   0.958  0.00  0.00     0.024 A 
ATOM     33 CL   UNL d   1       0.041  -7.567   0.075  0.00  0.00    -0.084 Cl
ATOM     34  C   UNL d   1      -0.670  -3.729   0.955  0.00  0.00     0.014 A 
ENDBRANCH  12  28
BRANCH   5  35
ATOM     35  C   UNL d   1      -2.571   2.537  -0.032  0.00  0.00     0.058 A 
ATOM     36  C   UNL d   1      -1.743   3.465  -0.683  0.00  0.00     0.031 A 
ATOM     37  C   UNL d   1      -2.029   4.828  -0.620  0.00  0.00     0.002 A 
ATOM     38  C   UNL d   1      -3.129   5.274   0.107  0.00  0.00     0.000 A 
ATOM     39  C   UNL d   1      -3.964   4.354   0.745  0.00  0.00     0.002 A 
ATOM     40  C   UNL d   1      -3.704   2.984   0.658  0.00  0.00     0.031 A 
ENDBRANCH   5  35
TORSDOF 4
