REMARK  5 active torsions:
REMARK  status: ('A' for Active; 'I' for Inactive)
REMARK    1  A    between atoms: N_7  and  C_1 
REMARK    2  A    between atoms: C_8  and  C_6 
REMARK       I    between atoms: C_11  and  N_7 
REMARK    3  A    between atoms: C_19  and  C_11 
REMARK    4  A    between atoms: C_14  and  O_15 
REMARK    5  A    between atoms: O_15  and  C_19 
ROOT
ATOM      1  N   UNL d   1      -0.346  -2.379   0.031  0.00  0.00    -0.310 N 
ATOM      2  C   UNL d   1      -1.651  -2.916  -0.205  0.00  0.00     0.247 C 
ATOM      3  O   UNL d   1      -1.715  -4.135  -0.143  0.00  0.00    -0.271 OA
ATOM      4  H   UNL d   1       0.329  -3.046   0.382  0.00  0.00     0.170 HD
ENDROOT
BRANCH   1   5
ATOM      5  C   UNL d   1       0.025  -1.061  -0.136  0.00  0.00     0.126 A 
ATOM      6  C   UNL d   1      -0.260  -0.234  -1.196  0.00  0.00     0.077 A 
ATOM      7  C   UNL d   1       0.427   0.966  -0.908  0.00  0.00     0.034 A 
ATOM      8  N   UNL d   1       1.064   0.913   0.264  0.00  0.00    -0.301 N 
ATOM      9  N   UNL d   1       0.856  -0.343   0.689  0.00  0.00    -0.281 N 
ATOM     10  HN  UNL d   1       1.588   1.654   0.728  1.00  0.00     0.187 HD
ATOM     11  C   UNL d   1       1.364  -0.757   1.972  0.00  0.00     0.179 C 
BRANCH   7  12
ATOM     12  C   UNL d   1       0.516   2.206  -1.780  0.00  0.00     0.037 A 
ATOM     13  C   UNL d   1      -0.617   2.582  -2.710  0.00  0.00     0.011 A 
ATOM     14  C   UNL d   1       0.646   2.035  -3.282  0.00  0.00     0.011 A 
ENDBRANCH   7  12
ENDBRANCH   1   5
BRANCH   2  15
ATOM     15  C   UNL d   1      -2.865  -2.012  -0.338  0.00  0.00     0.278 C 
BRANCH  15  16
ATOM     16  O   UNL d   1      -3.119  -1.703  -1.698  0.00  0.00    -0.340 OA
BRANCH  16  17
ATOM     17  C   UNL d   1      -4.199  -0.893  -1.948  0.00  0.00     0.091 A 
ATOM     18  C   UNL d   1      -4.176  -0.141  -3.136  0.00  0.00     0.069 A 
ATOM     19  C   UNL d   1      -5.231   0.711  -3.466  0.00  0.00     0.050 A 
ATOM     20 CL   UNL d   1      -2.847  -0.246  -4.238  0.00  0.00    -0.081 Cl
ATOM     21  C   UNL d   1      -6.338   0.787  -2.627  0.00  0.00     0.035 A 
ATOM     22  C   UNL d   1      -6.394   0.021  -1.465  0.00  0.00     0.026 A 
ATOM     23 CL   UNL d   1      -7.652   1.817  -3.033  0.00  0.00    -0.084 Cl
ATOM     24  C   UNL d   1      -5.326  -0.816  -1.123  0.00  0.00     0.040 A 
ENDBRANCH  16  17
ENDBRANCH  15  16
ENDBRANCH   2  15
TORSDOF 5
