REMARK  4 active torsions:
REMARK  status: ('A' for Active; 'I' for Inactive)
REMARK    1  A    between atoms: C_6  and  N_1 
REMARK    2  A    between atoms: C_17  and  N_7 
REMARK    3  A    between atoms: C_9  and  C_13 
REMARK    4  A    between atoms: C_10  and  C_15 
ROOT
ATOM      1  N   UNL d   1      -0.386  -0.940  -0.281  0.00  0.00    -0.261 N 
ATOM      2  C   UNL d   1      -1.574  -0.496   0.286  0.00  0.00     0.155 C 
ATOM      3  C   UNL d   1      -0.810   1.095  -1.432  0.00  0.00     0.097 A 
ATOM      4  C   UNL d   1       0.068  -0.108  -1.301  0.00  0.00     0.249 C 
ATOM      5  S   UNL d   1      -1.695   1.245   0.042  0.00  0.00    -0.073 SA
ATOM      6  N   UNL d   1      -2.466  -1.264   0.830  0.00  0.00    -0.336 N 
ATOM      7  HN  UNL d   1      -2.263  -2.260   0.920  1.00  0.00     0.168 HD
ATOM      8  C   UNL d   1      -1.525   1.366  -2.740  0.00  0.00     0.033 A 
ATOM      9  C   UNL d   1      -0.439   2.290  -2.264  0.00  0.00     0.033 A 
ATOM     10  O   UNL d   1       1.029  -0.241  -2.047  0.00  0.00    -0.271 OA
ENDROOT
BRANCH   1  11
ATOM     11  C   UNL d   1       0.356  -2.084   0.189  0.00  0.00     0.045 A 
ATOM     12  C   UNL d   1       1.463  -2.599  -0.514  0.00  0.00     0.046 A 
ATOM     13  C   UNL d   1       2.297  -3.603   0.020  0.00  0.00     0.050 A 
ATOM     14  C   UNL d   1       2.002  -4.130   1.280  0.00  0.00     0.016 A 
ATOM     15  C   UNL d   1       0.895  -3.668   1.982  0.00  0.00     0.003 A 
ATOM     16  C   UNL d   1       0.086  -2.659   1.443  0.00  0.00     0.030 A 
BRANCH  13  17
ATOM     17  C   UNL d   1       3.520  -4.081  -0.728  0.00  0.00     0.417 C 
ATOM     18  F   UNL d   1       3.659  -3.536  -1.968  0.00  0.00    -0.166 F 
ATOM     19  F   UNL d   1       4.674  -3.796  -0.064  0.00  0.00    -0.166 F 
ATOM     20  F   UNL d   1       3.522  -5.431  -0.912  0.00  0.00    -0.166 F 
ENDBRANCH  13  17
ENDBRANCH   1  11
BRANCH   6  21
ATOM     21  C   UNL d   1      -3.705  -0.782   1.301  0.00  0.00     0.034 C 
ATOM     22  C   UNL d   1      -4.539   0.058   0.553  0.00  0.00     0.045 C 
ATOM     23  C   UNL d   1      -5.693   0.632   1.109  0.00  0.00     0.050 C 
ATOM     24  C   UNL d   1      -6.101   0.219   2.382  0.00  0.00     0.016 C 
ATOM     25  C   UNL d   1      -5.348  -0.717   3.090  0.00  0.00     0.003 C 
ATOM     26  C   UNL d   1      -4.149  -1.199   2.556  0.00  0.00     0.029 C 
BRANCH  23  27
ATOM     27  C   UNL d   1      -6.445   1.711   0.371  0.00  0.00     0.417 C 
ATOM     28  F   UNL d   1      -5.845   2.094  -0.792  0.00  0.00    -0.166 F 
ATOM     29  F   UNL d   1      -7.709   1.340   0.037  0.00  0.00    -0.166 F 
ATOM     30  F   UNL d   1      -6.570   2.850   1.110  0.00  0.00    -0.166 F 
ENDBRANCH  23  27
ENDBRANCH   6  21
TORSDOF 4
