REMARK  4 active torsions:
REMARK  status: ('A' for Active; 'I' for Inactive)
REMARK    1  A    between atoms: C_13  and  N_5 
REMARK    2  A    between atoms: N_14  and  C_7 
REMARK    3  A    between atoms: C_15  and  C_13 
REMARK    4  A    between atoms: C_16  and  C_15 
ROOT
ATOM      1  C   UNL d   1       1.185  -1.098   0.171  0.00  0.00     0.116 A 
ATOM      2  N   UNL d   1       0.080  -0.660  -0.528  0.00  0.00    -0.346 N 
ATOM      3  HN  UNL d   1      -0.701  -1.219  -0.872  1.00  0.00     0.167 HD
ATOM      4  C   UNL d   1       2.016  -0.037   0.496  0.00  0.00     0.140 A 
ATOM      5  N   UNL d   1       1.406   1.067  -0.041  0.00  0.00    -0.327 N 
ATOM      6  C   UNL d   1       0.256   0.638  -0.652  0.00  0.00     0.185 A 
ATOM      7  C   UNL d   1       1.589  -2.376   0.591  0.00  0.00     0.109 A 
ATOM      8  N   UNL d   1       3.172  -0.097   1.179  0.00  0.00    -0.336 N 
ATOM      9  HN  UNL d   1       3.759   0.708   1.395  1.00  0.00     0.168 HD
ATOM     10  N   UNL d   1       2.735  -2.489   1.299  0.00  0.00    -0.341 N 
ATOM     11  HN  UNL d   1       3.052  -3.396   1.642  1.00  0.00     0.167 HD
ATOM     12  C   UNL d   1       3.451  -1.367   1.540  0.00  0.00     0.183 A 
ENDROOT
BRANCH   5  13
ATOM     13  C   UNL d   1       1.931   2.422  -0.014  0.00  0.00     0.136 C 
BRANCH  13  14
ATOM     14  C   UNL d   1       0.853   3.509   0.000  0.00  0.00     0.058 C 
BRANCH  14  15
ATOM     15  C   UNL d   1       1.414   4.909   0.052  0.00  0.00    -0.057 A 
ATOM     16  C   UNL d   1       1.679   5.613  -1.131  0.00  0.00     0.007 A 
ATOM     17  C   UNL d   1       2.151   6.926  -1.082  0.00  0.00     0.001 A 
ATOM     18  C   UNL d   1       2.369   7.545   0.147  0.00  0.00     0.000 A 
ATOM     19  C   UNL d   1       2.126   6.846   1.329  0.00  0.00     0.001 A 
ATOM     20  C   UNL d   1       1.654   5.533   1.283  0.00  0.00     0.007 A 
ENDBRANCH  14  15
ENDBRANCH  13  14
ENDBRANCH   5  13
BRANCH   7  21
ATOM     21  N   UNL d   1       0.858  -3.527   0.323  0.00  0.00    -0.287 NA
ATOM     22  H   UNL d   1      -0.114  -3.343   0.106  0.00  0.00     0.125 HD
ATOM     23  H   UNL d   1       1.066  -4.273   0.974  0.00  0.00     0.125 HD
ENDBRANCH   7  21
TORSDOF 4
