REMARK  6 active torsions:
REMARK  status: ('A' for Active; 'I' for Inactive)
REMARK    1  A    between atoms: C_16  and  N_1 
REMARK    2  A    between atoms: S_14  and  C_2 
REMARK    3  A    between atoms: O_22  and  C_3 
REMARK    4  A    between atoms: C_9  and  C_18 
REMARK    5  A    between atoms: C_18  and  S_14 
REMARK    6  A    between atoms: O_26  and  C_23 
ROOT
ATOM      1  N   UNL d   1       2.722   0.549  -1.800  0.00  0.00    -0.254 N 
ATOM      2  C   UNL d   1       2.660  -0.809  -1.509  0.00  0.00     0.169 A 
ATOM      3  C   UNL d   1       3.068   0.565  -3.148  0.00  0.00     0.245 A 
ATOM      4  N   UNL d   1       2.923  -1.520  -2.582  0.00  0.00    -0.276 N 
ATOM      5  HN  UNL d   1       2.942  -2.538  -2.636  1.00  0.00     0.189 HD
ATOM      6  N   UNL d   1       3.166  -0.655  -3.615  0.00  0.00    -0.263 N 
ATOM      7  HN  UNL d   1       3.384  -0.915  -4.577  1.00  0.00     0.190 HD
ENDROOT
BRANCH   2   8
ATOM      8  S   UNL d   1       2.171  -1.497   0.009  0.00  0.00    -0.087 SA
BRANCH   8   9
ATOM      9  C   UNL d   1       2.494  -3.267  -0.211  0.00  0.00     0.122 C 
BRANCH   9  10
ATOM     10  C   UNL d   1       3.942  -3.720  -0.217  0.00  0.00    -0.030 A 
ATOM     11  C   UNL d   1       4.220  -5.174  -0.139  0.00  0.00     0.005 A 
ATOM     12  C   UNL d   1       5.542  -5.620  -0.241  0.00  0.00     0.092 A 
ATOM     13  C   UNL d   1       3.229  -6.153   0.042  0.00  0.00     0.017 A 
ATOM     14  C   UNL d   1       5.886  -6.971  -0.186  0.00  0.00     0.074 A 
ATOM     15  O   UNL d   1       6.619  -4.727  -0.387  0.00  0.00    -0.275 OA
ATOM     16  C   UNL d   1       4.886  -7.911  -0.004  0.00  0.00     0.068 A 
ATOM     17  C   UNL d   1       3.559  -7.515   0.116  0.00  0.00     0.037 A 
ATOM     18  C   UNL d   1       6.406  -3.368  -0.374  0.00  0.00     0.288 A 
ATOM     19  C   UNL d   1       5.013  -2.911  -0.305  0.00  0.00     0.091 A 
ATOM     20  O   UNL d   1       7.324  -2.554  -0.423  0.00  0.00    -0.260 OA
BRANCH  16  21
ATOM     21  O   UNL d   1       5.249  -9.222   0.058  0.00  0.00    -0.361 OA
ATOM     22  H   UNL d   1       4.454  -9.768   0.170  0.00  0.00     0.217 HD
ENDBRANCH  16  21
ENDBRANCH   9  10
ENDBRANCH   8   9
ENDBRANCH   2   8
BRANCH   1  23
ATOM     23  C   UNL d   1       2.466   1.675  -0.973  0.00  0.00     0.060 A 
ATOM     24  C   UNL d   1       1.907   2.830  -1.514  0.00  0.00     0.117 A 
ATOM     25  N   UNL d   1       1.604   3.932  -0.788  0.00  0.00    -0.373 N 
ATOM     26  C   UNL d   1       1.845   3.880   0.539  0.00  0.00     0.088 A 
ATOM     27  HN  UNL d   1       1.212   4.765  -1.225  1.00  0.00     0.164 HD
ATOM     28  C   UNL d   1       2.405   2.784   1.169  0.00  0.00     0.019 A 
ATOM     29  C   UNL d   1       2.733   1.671   0.398  0.00  0.00     0.033 A 
ENDBRANCH   1  23
BRANCH   3  30
ATOM     30  O   UNL d   1       3.357   1.630  -3.886  0.00  0.00    -0.331 OA
ATOM     31  H   UNL d   1       3.752   2.311  -3.318  0.00  0.00     0.221 HD
ENDBRANCH   3  30
TORSDOF 6
