REMARK  5 active torsions:
REMARK  status: ('A' for Active; 'I' for Inactive)
REMARK    1  A    between atoms: C_8  and  N_1 
REMARK    2  A    between atoms: C_9  and  C_2 
REMARK    3  A    between atoms: S_14  and  C_3 
REMARK    4  A    between atoms: C_16  and  C_8 
REMARK    5  A    between atoms: C_10  and  C_9 
ROOT
ATOM      1  N   UNL d   1      -0.255  -1.116  -0.187  0.00  0.00    -0.311 N 
ATOM      2  C   UNL d   1       0.938  -0.417  -0.087  0.00  0.00     0.104 A 
ATOM      3  C   UNL d   1      -1.232  -0.151  -0.214  0.00  0.00     0.160 A 
ATOM      4  N   UNL d   1       0.672   0.875  -0.077  0.00  0.00    -0.286 N 
ATOM      5  HN  UNL d   1       1.360   1.626  -0.020  1.00  0.00     0.188 HD
ATOM      6  N   UNL d   1      -0.684   1.038  -0.157  0.00  0.00    -0.279 N 
ATOM      7  HN  UNL d   1      -1.181   1.928  -0.169  1.00  0.00     0.189 HD
ENDROOT
BRANCH   1   8
ATOM      8  C   UNL d   1      -0.417  -2.559  -0.143  0.00  0.00     0.171 C 
BRANCH   8   9
ATOM      9  C   UNL d   1       0.189  -3.292  -1.316  0.00  0.00    -0.040 A 
ATOM     10  C   UNL d   1       0.960  -4.443  -1.079  0.00  0.00     0.009 A 
ATOM     11  C   UNL d   1       1.510  -5.167  -2.137  0.00  0.00     0.001 A 
ATOM     12  C   UNL d   1       1.284  -4.762  -3.450  0.00  0.00     0.000 A 
ATOM     13  C   UNL d   1       0.501  -3.636  -3.703  0.00  0.00     0.001 A 
ATOM     14  C   UNL d   1      -0.051  -2.908  -2.645  0.00  0.00     0.009 A 
ENDBRANCH   8   9
ENDBRANCH   1   8
BRANCH   2  15
ATOM     15  C   UNL d   1       2.313  -0.997  -0.009  0.00  0.00     0.117 C 
BRANCH  15  16
ATOM     16  C   UNL d   1       2.785  -1.261   1.398  0.00  0.00    -0.044 A 
ATOM     17  C   UNL d   1       3.634  -2.297   1.749  0.00  0.00     0.057 A 
ATOM     18  S   UNL d   1       4.000  -2.328   3.419  0.00  0.00    -0.113 SA
ATOM     19  C   UNL d   1       3.068  -0.927   3.704  0.00  0.00     0.050 A 
ATOM     20  C   UNL d   1       2.488  -0.451   2.549  0.00  0.00     0.015 A 
ENDBRANCH  15  16
ENDBRANCH   2  15
BRANCH   3  21
ATOM     21  S   UNL d   1      -2.939  -0.400  -0.338  0.00  0.00    -0.105 SA
ATOM     22  H   UNL d   1      -3.065  -1.665   0.071  0.00  0.00     0.110 HD
ENDBRANCH   3  21
TORSDOF 5
