REMARK  5 active torsions:
REMARK  status: ('A' for Active; 'I' for Inactive)
REMARK       I    between atoms: C_3  and  N_1 
REMARK       I    between atoms: C_5  and  N_1 
REMARK    1  A    between atoms: O_12  and  C_3 
REMARK    2  A    between atoms: C_4  and  C_10 
REMARK    3  A    between atoms: C_11  and  C_5 
REMARK    4  A    between atoms: C_23  and  O_12 
REMARK    5  A    between atoms: C_13  and  C_14 
ROOT
ATOM      1  N   UNL d   1      -1.243  -0.601   1.635  0.00  0.00    -0.268 N 
ATOM      2  C   UNL d   1      -0.045  -0.723   2.307  0.00  0.00     0.372 C 
ATOM      3  C   UNL d   1      -1.554  -1.141   0.403  0.00  0.00     0.260 C 
ATOM      4  O   UNL d   1       0.188   0.001   3.273  0.00  0.00    -0.238 OA
ATOM      5  O   UNL d   1      -0.929  -2.056  -0.129  0.00  0.00    -0.267 OA
ATOM      6  H   UNL d   1      -1.785   0.165   2.000  0.00  0.00     0.174 HD
ENDROOT
BRANCH   2   7
ATOM      7  O   UNL d   1       0.833  -1.658   1.770  0.00  0.00    -0.261 OA
BRANCH   7   8
ATOM      8  C   UNL d   1       2.218  -1.625   2.038  0.00  0.00     0.081 A 
ATOM      9  C   UNL d   1       2.901  -2.834   1.947  0.00  0.00     0.038 A 
ATOM     10  C   UNL d   1       4.299  -2.850   2.032  0.00  0.00     0.011 A 
ATOM     11  C   UNL d   1       5.041  -1.662   2.188  0.00  0.00    -0.050 A 
ATOM     12  C   UNL d   1       4.316  -0.463   2.311  0.00  0.00     0.011 A 
ATOM     13  C   UNL d   1       2.919  -0.440   2.226  0.00  0.00     0.038 A 
BRANCH  11  14
ATOM     14  C   UNL d   1       6.582  -1.693   2.165  0.00  0.00    -0.024 C 
ATOM     15  C   UNL d   1       7.232  -0.295   2.280  0.00  0.00     0.019 C 
ATOM     16  C   UNL d   1       7.119  -2.547   3.332  0.00  0.00     0.019 C 
ATOM     17  C   UNL d   1       7.064  -2.305   0.831  0.00  0.00     0.019 C 
ENDBRANCH  11  14
ENDBRANCH   7   8
ENDBRANCH   2   7
BRANCH   3  18
ATOM     18  C   UNL d   1      -2.759  -0.606  -0.307  0.00  0.00     0.032 A 
ATOM     19  C   UNL d   1      -2.877  -0.907  -1.674  0.00  0.00     0.018 A 
ATOM     20  C   UNL d   1      -3.997  -0.508  -2.409  0.00  0.00     0.015 A 
ATOM     21  C   UNL d   1      -5.035   0.201  -1.794  0.00  0.00    -0.008 A 
ATOM     22  C   UNL d   1      -4.899   0.539  -0.438  0.00  0.00     0.015 A 
ATOM     23  C   UNL d   1      -3.776   0.137   0.305  0.00  0.00     0.018 A 
BRANCH  21  24
ATOM     24  C   UNL d   1      -6.244   0.563  -2.524  0.00  0.00     0.063 A 
ATOM     25  N   UNL d   1      -7.012   1.663  -2.156  0.00  0.00    -0.292 N 
ATOM     26  N   UNL d   1      -8.075   1.808  -2.930  0.00  0.00    -0.061 NA
ATOM     27  HN  UNL d   1      -6.783   2.284  -1.380  1.00  0.00     0.183 HD
ATOM     28  S   UNL d   1      -8.191   0.623  -4.104  0.00  0.00    -0.010 SA
ATOM     29  C   UNL d   1      -6.751  -0.157  -3.594  0.00  0.00     0.096 A 
ENDBRANCH  21  24
ENDBRANCH   3  18
TORSDOF 5
