REMARK  7 active torsions:
REMARK  status: ('A' for Active; 'I' for Inactive)
REMARK    1  A    between atoms: C_4  and  N_1 
REMARK       I    between atoms: C_2  and  N_5 
REMARK    2  A    between atoms: C_7  and  C_2 
REMARK    3  A    between atoms: C_3  and  C_7 
REMARK    4  A    between atoms: C_9  and  C_3 
REMARK    5  A    between atoms: N_5  and  C_13 
REMARK    6  A    between atoms: C_6  and  C_9 
REMARK    7  A    between atoms: O_14  and  C_6 
ROOT
ATOM      1  C   UNL d   1       6.956  -0.441   3.605  0.00  0.00     0.222 C 
ATOM      2  N   UNL d   1       5.668   0.029   3.508  0.00  0.00    -0.327 N 
ATOM      3  O   UNL d   1       7.703  -0.300   4.580  0.00  0.00    -0.273 OA
ATOM      4  H   UNL d   1       5.146  -0.250   2.676  0.00  0.00     0.169 HD
ENDROOT
BRANCH   1   5
ATOM      5  C   UNL d   1       7.477  -1.166   2.363  0.00  0.00     0.113 C 
BRANCH   5   6
ATOM      6  C   UNL d   1       7.689  -2.711   2.479  0.00  0.00    -0.023 C 
ATOM      7  C   UNL d   1       8.645  -3.165   3.629  0.00  0.00     0.010 C 
ATOM      8  C   UNL d   1      10.139  -2.966   3.419  0.00  0.00     0.001 C 
ATOM      9  C   UNL d   1      10.593  -3.550   2.091  0.00  0.00     0.000 C 
ATOM     10  C   UNL d   1       9.790  -2.927   0.958  0.00  0.00     0.001 C 
ATOM     11  C   UNL d   1       8.283  -3.209   1.119  0.00  0.00     0.010 C 
BRANCH   6  12
ATOM     12  C   UNL d   1       6.340  -3.408   2.830  0.00  0.00     0.119 C 
BRANCH  12  13
ATOM     13  C   UNL d   1       5.170  -3.181   1.905  0.00  0.00     0.140 C 
ATOM     14  O   UNL d   1       4.631  -2.094   1.744  0.00  0.00    -0.650 OA
BRANCH  13  15
ATOM     15  O   UNL d   1       4.737  -4.302   1.291  0.00  0.00    -0.776 OA
ATOM     16  H   UNL d   1       5.221  -5.116   1.533  0.00  0.00     0.167 HD
ENDBRANCH  13  15
ENDBRANCH  12  13
ENDBRANCH   6  12
ENDBRANCH   5   6
ENDBRANCH   1   5
BRANCH   2  17
ATOM     17  C   UNL d   1       4.934   0.767   4.473  0.00  0.00     0.034 A 
ATOM     18  C   UNL d   1       5.409   1.137   5.734  0.00  0.00     0.032 A 
ATOM     19  C   UNL d   1       4.559   1.771   6.664  0.00  0.00     0.031 A 
ATOM     20  C   UNL d   1       3.217   2.043   6.371  0.00  0.00     0.030 A 
ATOM     21  C   UNL d   1       2.787   1.762   5.070  0.00  0.00     0.031 A 
ATOM     22  C   UNL d   1       3.627   1.131   4.139  0.00  0.00     0.032 A 
BRANCH  20  23
ATOM     23  N   UNL d   1       2.344   2.444   7.371  0.00  0.00    -0.381 N 
ATOM     24  C   UNL d   1       0.965   1.956   7.347  0.00  0.00     0.123 C 
ATOM     25  C   UNL d   1       0.502   1.763   8.790  0.00  0.00     0.020 C 
ATOM     26  C   UNL d   1       0.706   3.018   9.640  0.00  0.00     0.003 C 
ATOM     27  C   UNL d   1       2.099   3.635   9.466  0.00  0.00     0.020 C 
ATOM     28  C   UNL d   1       2.501   3.759   7.992  0.00  0.00     0.123 C 
ENDBRANCH  20  23
ENDBRANCH   2  17
TORSDOF 7
