REMARK  3 active torsions:
REMARK  status: ('A' for Active; 'I' for Inactive)
REMARK    1  A    between atoms: N_6  and  C_1 
REMARK       I    between atoms: C_8  and  N_6 
REMARK    2  A    between atoms: C_13  and  C_8 
REMARK    3  A    between atoms: N_11  and  C_13 
ROOT
ATOM      1  C   UNL d   1       2.323  -0.403   0.743  0.00  0.00     0.098 A 
ATOM      2  C   UNL d   1       1.932   0.932   0.774  0.00  0.00     0.085 A 
ATOM      3  C   UNL d   1       0.507   1.087   0.610  0.00  0.00    -0.021 A 
ATOM      4  C   UNL d   1      -0.103  -0.140   0.436  0.00  0.00    -0.007 A 
ATOM      5  S   UNL d   1       0.975  -1.431   0.587  0.00  0.00    -0.075 SA
ATOM      6  C   UNL d   1       2.858   2.018   0.930  0.00  0.00     0.103 C 
ATOM      7  N   UNL d   1       3.623   2.881   1.062  0.00  0.00    -0.191 NA
ATOM      8  C   UNL d   1      -0.283   2.367   0.545  0.00  0.00     0.042 C 
ATOM      9  C   UNL d   1      -1.554  -0.377   0.162  0.00  0.00     0.051 C 
ATOM     10  C   UNL d   1      -1.806   2.113   0.560  0.00  0.00     0.009 C 
ATOM     11  C   UNL d   1      -2.243   0.917  -0.315  0.00  0.00    -0.014 C 
ATOM     12  C   UNL d   1      -1.990   1.176  -1.804  0.00  0.00     0.010 C 
ENDROOT
BRANCH   1  13
ATOM     13  N   UNL d   1       3.609  -0.935   0.803  0.00  0.00    -0.319 N 
ATOM     14  C   UNL d   1       3.938  -2.289   0.767  0.00  0.00     0.251 C 
ATOM     15  O   UNL d   1       3.167  -3.245   0.720  0.00  0.00    -0.271 OA
ATOM     16  H   UNL d   1       4.391  -0.287   0.796  0.00  0.00     0.169 HD
BRANCH  14  17
ATOM     17  C   UNL d   1       5.448  -2.549   0.792  0.00  0.00     0.374 C 
BRANCH  17  18
ATOM     18  N   UNL d   1       6.098  -2.152  -0.476  0.00  0.00     0.097 N 
ATOM     19  C   UNL d   1       5.533  -2.879  -1.633  0.00  0.00     0.273 C 
ATOM     20  C   UNL d   1       6.159  -2.366  -2.932  0.00  0.00     0.030 C 
ATOM     21  C   UNL d   1       7.679  -2.476  -2.919  0.00  0.00     0.003 C 
ATOM     22  C   UNL d   1       8.271  -1.922  -1.627  0.00  0.00     0.030 C 
ATOM     23  C   UNL d   1       7.541  -2.448  -0.392  0.00  0.00     0.273 C 
ENDBRANCH  17  18
ENDBRANCH  14  17
ENDBRANCH   1  13
TORSDOF 3
