REMARK  6 active torsions:
REMARK  status: ('A' for Active; 'I' for Inactive)
REMARK    1  A    between atoms: N_2  and  C_1 
REMARK    2  A    between atoms: N_4  and  C_3 
REMARK    3  A    between atoms: C_8  and  C_12 
REMARK    4  A    between atoms: O_18  and  C_13 
REMARK    5  A    between atoms: C_21  and  C_16 
REMARK    6  A    between atoms: O_19  and  C_21 
ROOT
ATOM      1  N   UNL d   1       0.537  -2.599   0.351  0.00  0.00    -0.379 N 
ATOM      2  C   UNL d   1       0.627  -3.406  -0.884  0.00  0.00     0.123 C 
ATOM      3  C   UNL d   1       1.455  -2.955   1.439  0.00  0.00     0.123 C 
ATOM      4  C   UNL d   1       1.686  -5.314   0.555  0.00  0.00     0.024 C 
ATOM      5  C   UNL d   1       0.789  -4.909  -0.626  0.00  0.00     0.029 C 
ATOM      6  C   UNL d   1       1.358  -4.436   1.766  0.00  0.00     0.029 C 
ENDROOT
BRANCH   1   7
ATOM      7  C   UNL d   1       0.199  -1.244   0.155  0.00  0.00     0.063 A 
ATOM      8  C   UNL d   1       0.889  -0.093   0.598  0.00  0.00     0.130 A 
ATOM      9  C   UNL d   1       0.381   1.216   0.463  0.00  0.00     0.047 A 
ATOM     10  C   UNL d   1      -0.850   1.437  -0.154  0.00  0.00    -0.032 A 
ATOM     11  C   UNL d   1      -1.537   0.330  -0.651  0.00  0.00     0.012 A 
ATOM     12  C   UNL d   1      -1.025  -0.970  -0.493  0.00  0.00     0.032 A 
BRANCH   8  13
ATOM     13  N   UNL d   1       2.221  -0.153   1.152  0.00  0.00    -0.113 N 
ATOM     14  O   UNL d   1       3.155  -0.389   0.365  0.00  0.00    -0.532 OA
ATOM     15  O   UNL d   1       2.345   0.073   2.364  0.00  0.00    -0.532 OA
ENDBRANCH   8  13
BRANCH  10  16
ATOM     16  C   UNL d   1      -1.436   2.817  -0.227  0.00  0.00     0.203 C 
BRANCH  16  17
ATOM     17  O   UNL d   1      -0.507   3.702  -0.835  0.00  0.00    -0.396 OA
ATOM     18  H   UNL d   1      -0.935   4.572  -0.877  0.00  0.00     0.209 HD
ENDBRANCH  16  17
ENDBRANCH  10  16
ENDBRANCH   1   7
BRANCH   4  19
ATOM     19  C   UNL d   1       3.182  -5.403   0.268  0.00  0.00    -0.021 A 
ATOM     20  C   UNL d   1       3.965  -6.469   0.758  0.00  0.00     0.074 A 
ATOM     21  C   UNL d   1       5.331  -6.565   0.458  0.00  0.00     0.037 A 
ATOM     22  C   UNL d   1       5.952  -5.589  -0.315  0.00  0.00     0.003 A 
ATOM     23  C   UNL d   1       5.209  -4.522  -0.793  0.00  0.00     0.001 A 
ATOM     24  C   UNL d   1       3.844  -4.429  -0.501  0.00  0.00     0.010 A 
BRANCH  20  25
ATOM     25  O   UNL d   1       3.430  -7.535   1.437  0.00  0.00    -0.355 OA
ATOM     26  C   UNL d   1       3.100  -7.224   2.788  0.00  0.00     0.210 C 
ENDBRANCH  20  25
ENDBRANCH   4  19
TORSDOF 6
