REMARK  5 active torsions:
REMARK  status: ('A' for Active; 'I' for Inactive)
REMARK       I    between atoms: C_2  and  N_1 
REMARK    1  A    between atoms: C_4  and  C_2 
REMARK    2  A    between atoms: C_5  and  C_4 
REMARK    3  A    between atoms: C_10  and  C_5 
REMARK    4  A    between atoms: C_6  and  C_10 
REMARK    5  A    between atoms: O_12  and  C_6 
ROOT
ATOM      1  N   UNL d   1      -1.200   1.134  -0.178  0.00  0.00    -0.318 N 
ATOM      2  C   UNL d   1      -1.364   2.499  -0.492  0.00  0.00     0.225 C 
ATOM      3  C   UNL d   1      -2.280   0.325   0.345  0.00  0.00     0.043 A 
ATOM      4  O   UNL d   1      -2.373   3.155  -0.230  0.00  0.00    -0.273 OA
ATOM      5  C   UNL d   1      -1.997  -0.885   1.020  0.00  0.00    -0.031 A 
ATOM      6  C   UNL d   1       0.085   0.428  -0.324  0.00  0.00     0.132 C 
ATOM      7  C   UNL d   1      -3.628   0.682   0.187  0.00  0.00     0.030 A 
ATOM      8  C   UNL d   1       0.447  -0.326   0.943  0.00  0.00     0.025 C 
ATOM      9  C   UNL d   1      -0.593  -1.398   1.203  0.00  0.00     0.042 C 
ATOM     10  C   UNL d   1      -3.044  -1.675   1.530  0.00  0.00     0.009 A 
ATOM     11  C   UNL d   1      -4.662  -0.112   0.697  0.00  0.00     0.002 A 
ATOM     12  C   UNL d   1      -4.370  -1.287   1.376  0.00  0.00     0.001 A 
ENDROOT
BRANCH   2  13
ATOM     13  C   UNL d   1      -0.181   3.191  -1.177  0.00  0.00     0.112 C 
BRANCH  13  14
ATOM     14  C   UNL d   1      -0.319   4.707  -1.512  0.00  0.00    -0.030 C 
ATOM     15  C   UNL d   1       1.020   5.171  -2.135  0.00  0.00     0.016 C 
ATOM     16  C   UNL d   1      -1.409   4.934  -2.584  0.00  0.00     0.016 C 
BRANCH  14  17
ATOM     17  C   UNL d   1      -0.664   5.598  -0.286  0.00  0.00     0.119 C 
BRANCH  17  18
ATOM     18  C   UNL d   1       0.205   5.432   0.939  0.00  0.00     0.140 C 
ATOM     19  O   UNL d   1       1.311   4.912   0.968  0.00  0.00    -0.650 OA
BRANCH  18  20
ATOM     20  O   UNL d   1      -0.349   5.986   2.045  0.00  0.00    -0.776 OA
ATOM     21  H   UNL d   1      -1.244   6.349   1.889  0.00  0.00     0.167 HD
ENDBRANCH  18  20
ENDBRANCH  17  18
ENDBRANCH  14  17
ENDBRANCH  13  14
ENDBRANCH   2  13
TORSDOF 5
