REMARK  5 active torsions:
REMARK  status: ('A' for Active; 'I' for Inactive)
REMARK    1  A    between atoms: N_4  and  S_1 
REMARK    2  A    between atoms: C_7  and  S_1 
REMARK       I    between atoms: C_3  and  N_2 
REMARK    3  A    between atoms: O_14  and  C_3 
REMARK    4  A    between atoms: C_11  and  N_4 
REMARK    5  A    between atoms: C_17  and  O_14 
ROOT
ATOM      1  N   UNL d   1      -0.108   2.757  -2.844  0.00  0.00    -0.328 N 
ATOM      2  C   UNL d   1      -0.503   4.062  -3.099  0.00  0.00     0.362 C 
ATOM      3  C   UNL d   1       0.979   2.549  -1.896  0.00  0.00     0.130 C 
ATOM      4  C   UNL d   1      -0.977   1.610  -3.081  0.00  0.00     0.130 C 
ATOM      5  O   UNL d   1       0.121   5.049  -2.727  0.00  0.00    -0.238 OA
ATOM      6  C   UNL d   1       0.975   0.083  -2.432  0.00  0.00     0.096 C 
ATOM      7  C   UNL d   1       1.821   1.351  -2.310  0.00  0.00     0.045 C 
ATOM      8  C   UNL d   1      -0.178   0.348  -3.419  0.00  0.00     0.045 C 
ENDROOT
BRANCH   6   9
ATOM      9  N   UNL d   1       0.408  -0.370  -1.150  0.00  0.00    -0.310 N 
ATOM     10  H   UNL d   1      -0.544  -0.734  -1.126  0.00  0.00     0.172 HD
BRANCH   9  11
ATOM     11  S   UNL d   1       1.294  -0.783   0.208  0.00  0.00     0.259 S 
ATOM     12  O   UNL d   1       0.311  -1.193   1.186  0.00  0.00    -0.201 OA
ATOM     13  O   UNL d   1       2.242   0.266   0.499  0.00  0.00    -0.201 OA
BRANCH  11  14
ATOM     14  C   UNL d   1       2.201  -2.234  -0.279  0.00  0.00     0.079 A 
ATOM     15  C   UNL d   1       3.482  -2.109  -0.822  0.00  0.00     0.025 A 
ATOM     16  C   UNL d   1       4.234  -3.256  -1.084  0.00  0.00     0.002 A 
ATOM     17  C   UNL d   1       3.714  -4.518  -0.786  0.00  0.00     0.000 A 
ATOM     18  C   UNL d   1       2.439  -4.639  -0.232  0.00  0.00     0.002 A 
ATOM     19  C   UNL d   1       1.680  -3.498   0.024  0.00  0.00     0.025 A 
ENDBRANCH  11  14
ENDBRANCH   9  11
ENDBRANCH   6   9
BRANCH   2  20
ATOM     20  O   UNL d   1      -1.678   4.130  -3.783  0.00  0.00    -0.304 OA
BRANCH  20  21
ATOM     21  C   UNL d   1      -2.255   5.439  -3.881  0.00  0.00     0.176 C 
ATOM     22  C   UNL d   1      -3.094   5.696  -2.642  0.00  0.00     0.034 C 
ENDBRANCH  20  21
ENDBRANCH   2  20
TORSDOF 5
