REMARK  4 active torsions:
REMARK  status: ('A' for Active; 'I' for Inactive)
REMARK    1  A    between atoms: C_3  and  C_2 
REMARK    2  A    between atoms: C_7  and  C_3 
REMARK    3  A    between atoms: C_5  and  N_8 
REMARK    4  A    between atoms: N_8  and  C_6 
ROOT
ATOM      1  C   UNL d   1      -5.626  -1.041  -0.061  0.00  0.00     0.072 C 
ATOM      2  C   UNL d   1      -4.375  -0.623   0.175  0.00  0.00     0.092 C 
ENDROOT
BRANCH   2   3
ATOM      3  N   UNL d   1      -3.212  -1.341   0.059  0.00  0.00    -0.363 N 
ATOM      4  H   UNL d   1      -3.269  -2.267  -0.357  0.00  0.00     0.165 HD
BRANCH   3   5
ATOM      5  C   UNL d   1      -1.905  -0.887   0.320  0.00  0.00     0.071 A 
ATOM      6  C   UNL d   1      -0.816  -1.516  -0.308  0.00  0.00     0.144 A 
ATOM      7  C   UNL d   1       0.492  -1.059  -0.153  0.00  0.00     0.068 A 
ATOM      8  F   UNL d   1      -1.037  -2.579  -1.097  0.00  0.00    -0.204 F 
ATOM      9  C   UNL d   1       0.730   0.051   0.650  0.00  0.00     0.037 A 
ATOM     10 CL   UNL d   1       2.333   0.642   0.842  0.00  0.00    -0.084 Cl
ATOM     11  C   UNL d   1      -0.325   0.690   1.298  0.00  0.00     0.026 A 
ATOM     12  C   UNL d   1      -1.634   0.225   1.128  0.00  0.00     0.034 A 
ENDBRANCH   3   5
ENDBRANCH   2   3
BRANCH   1  13
ATOM     13  C   UNL d   1      -6.735  -0.063   0.101  0.00  0.00     0.183 C 
ATOM     14  O   UNL d   1      -6.595   0.974   0.742  0.00  0.00    -0.288 OA
BRANCH  13  15
ATOM     15  C   UNL d   1      -8.049  -0.374  -0.521  0.00  0.00     0.014 A 
ATOM     16  C   UNL d   1      -9.196   0.208   0.038  0.00  0.00     0.017 A 
ATOM     17  C   UNL d   1     -10.451  -0.013  -0.533  0.00  0.00     0.020 A 
ATOM     18  C   UNL d   1     -10.559  -0.808  -1.672  0.00  0.00     0.011 A 
ATOM     19  C   UNL d   1      -9.423  -1.383  -2.244  0.00  0.00     0.020 A 
ATOM     20 BR   UNL d   1     -12.251  -1.089  -2.464  0.00  0.00    -0.051 Br
ATOM     21  C   UNL d   1      -8.166  -1.165  -1.671  0.00  0.00     0.017 A 
ENDBRANCH  13  15
ENDBRANCH   1  13
TORSDOF 4
