REMARK  6 active torsions:
REMARK  status: ('A' for Active; 'I' for Inactive)
REMARK    1  A    between atoms: N_5  and  S_1 
REMARK    2  A    between atoms: C_10  and  S_1 
REMARK    3  A    between atoms: C_2  and  N_5 
REMARK    4  A    between atoms: S_13  and  C_6 
REMARK    5  A    between atoms: C_16  and  S_13 
REMARK    6  A    between atoms: C_19  and  C_16 
ROOT
ATOM      1  C   UNL d   1       0.889   0.787  -2.509  0.00  0.00     0.188 C 
ATOM      2  N   UNL d   1       2.145   1.310  -2.647  0.00  0.00    -0.310 N 
ATOM      3  HN  UNL d   1       2.990   1.091  -2.120  1.00  0.00     0.170 HD
ATOM      4  C   UNL d   1       1.989   2.164  -3.629  0.00  0.00     0.161 C 
ATOM      5  N   UNL d   1      -0.000   1.192  -3.419  0.00  0.00    -0.273 N 
ATOM      6  HN  UNL d   1      -0.951   0.862  -3.587  1.00  0.00     0.189 HD
ATOM      7  N   UNL d   1       0.698   2.151  -4.053  0.00  0.00    -0.277 N 
ATOM      8  H   UNL d   1       0.256   2.722  -4.764  0.00  0.00     0.189 HD
ENDROOT
BRANCH   1   9
ATOM      9  N   UNL d   1       0.570  -0.199  -1.601  0.00  0.00    -0.150 NA
ATOM     10  H   UNL d   1      -0.189  -0.766  -1.975  0.00  0.00     0.149 HD
BRANCH   9  11
ATOM     11  S   UNL d   1      -0.016   0.363  -0.119  0.00  0.00     0.248 S 
ATOM     12  O   UNL d   1      -1.292  -0.294   0.073  0.00  0.00    -0.205 OA
ATOM     13  O   UNL d   1       0.110   1.798  -0.012  0.00  0.00    -0.205 OA
BRANCH  11  14
ATOM     14  C   UNL d   1       1.125  -0.355   1.046  0.00  0.00     0.075 A 
ATOM     15  C   UNL d   1       2.294   0.346   1.371  0.00  0.00     0.028 A 
ATOM     16  C   UNL d   1       3.121  -0.132   2.388  0.00  0.00     0.044 A 
ATOM     17  C   UNL d   1       2.773  -1.296   3.067  0.00  0.00     0.116 A 
ATOM     18  C   UNL d   1       1.617  -2.001   2.744  0.00  0.00     0.044 A 
ATOM     19  F   UNL d   1       3.555  -1.736   4.061  0.00  0.00    -0.206 F 
ATOM     20  C   UNL d   1       0.782  -1.529   1.729  0.00  0.00     0.028 A 
ENDBRANCH  11  14
ENDBRANCH   9  11
ENDBRANCH   1   9
BRANCH   4  21
ATOM     21  S   UNL d   1       3.150   3.194  -4.370  0.00  0.00    -0.088 SA
BRANCH  21  22
ATOM     22  C   UNL d   1       4.656   2.190  -4.197  0.00  0.00     0.121 C 
BRANCH  22  23
ATOM     23  C   UNL d   1       5.856   2.882  -4.806  0.00  0.00    -0.048 A 
ATOM     24  C   UNL d   1       6.633   3.764  -4.038  0.00  0.00     0.009 A 
ATOM     25  C   UNL d   1       7.734   4.417  -4.601  0.00  0.00     0.024 A 
ATOM     26  C   UNL d   1       8.065   4.195  -5.936  0.00  0.00     0.034 A 
ATOM     27  C   UNL d   1       7.302   3.325  -6.714  0.00  0.00     0.024 A 
ATOM     28 CL   UNL d   1       9.418   5.002  -6.628  0.00  0.00    -0.084 Cl
ATOM     29  C   UNL d   1       6.201   2.673  -6.151  0.00  0.00     0.009 A 
ENDBRANCH  22  23
ENDBRANCH  21  22
ENDBRANCH   4  21
TORSDOF 6
