REMARK  2 active torsions:
REMARK  status: ('A' for Active; 'I' for Inactive)
REMARK    1  A    between atoms: N_8  and  C_6 
REMARK    2  A    between atoms: C_11  and  N_8 
ROOT
ATOM      1  C   UNL d   1       1.739   0.380   0.019  0.00  0.00     0.106 A 
ATOM      2  C   UNL d   1       1.657  -1.094  -0.016  0.00  0.00     0.304 A 
ATOM      3  C   UNL d   1       0.536   1.238   0.054  0.00  0.00     0.202 A 
ATOM      4  O   UNL d   1       0.379  -1.629  -0.032  0.00  0.00    -0.274 OA
ATOM      5  C   UNL d   1      -0.755   0.539   0.035  0.00  0.00     0.049 A 
ATOM      6  C   UNL d   1       2.946   0.980   0.008  0.00  0.00     0.110 C 
ATOM      7  C   UNL d   1      -0.784  -0.847  -0.008  0.00  0.00     0.093 A 
ATOM      8  O   UNL d   1       2.642  -1.828  -0.034  0.00  0.00    -0.259 OA
ATOM      9  O   UNL d   1       0.580   2.462   0.096  0.00  0.00    -0.286 OA
ATOM     10  C   UNL d   1      -1.958   1.253   0.059  0.00  0.00     0.018 A 
ATOM     11  C   UNL d   1      -1.993  -1.541  -0.027  0.00  0.00     0.038 A 
ATOM     12  C   UNL d   1      -3.175   0.566   0.042  0.00  0.00     0.001 A 
ATOM     13  C   UNL d   1      -3.191  -0.830  -0.001  0.00  0.00     0.003 A 
ENDROOT
BRANCH   6  14
ATOM     14  N   UNL d   1       4.183   0.381  -0.040  0.00  0.00    -0.365 N 
ATOM     15  H   UNL d   1       4.166  -0.644  -0.051  0.00  0.00     0.165 HD
BRANCH  14  16
ATOM     16  C   UNL d   1       5.465   0.952  -0.062  0.00  0.00     0.031 A 
ATOM     17  C   UNL d   1       5.710   2.324   0.060  0.00  0.00     0.029 A 
ATOM     18  C   UNL d   1       7.014   2.828   0.017  0.00  0.00     0.002 A 
ATOM     19  C   UNL d   1       8.094   1.967  -0.160  0.00  0.00     0.000 A 
ATOM     20  C   UNL d   1       7.871   0.602  -0.296  0.00  0.00     0.002 A 
ATOM     21  C   UNL d   1       6.567   0.101  -0.249  0.00  0.00     0.029 A 
ENDBRANCH  14  16
ENDBRANCH   6  14
TORSDOF 2
