REMARK  4 active torsions:
REMARK  status: ('A' for Active; 'I' for Inactive)
REMARK       I    between atoms: C_2  and  N_1 
REMARK    1  A    between atoms: C_4  and  C_2 
REMARK    2  A    between atoms: C_14  and  C_5 
REMARK    3  A    between atoms: O_18  and  C_14 
REMARK    4  A    between atoms: C_20  and  O_18 
ROOT
ATOM      1  N   UNL d   1       1.034  -0.529  -0.350  0.00  0.00    -0.202 N 
ATOM      2  C   UNL d   1       2.134  -1.429  -0.435  0.00  0.00     0.288 C 
ATOM      3  C   UNL d   1       1.055   0.859  -0.180  0.00  0.00     0.142 A 
ATOM      4  C   UNL d   1      -0.259   1.265  -0.042  0.00  0.00     0.101 A 
ATOM      5  N   UNL d   1      -0.248  -1.003  -0.372  0.00  0.00    -0.300 N 
ATOM      6  HN  UNL d   1      -0.557  -1.965  -0.512  1.00  0.00     0.186 HD
ATOM      7  C   UNL d   1      -1.004   0.076  -0.170  0.00  0.00     0.129 A 
ATOM      8  O   UNL d   1       3.235  -0.980  -0.112  0.00  0.00    -0.265 OA
ATOM      9  N   UNL d   1       2.194   1.591  -0.177  0.00  0.00    -0.383 N 
ATOM     10  H   UNL d   1       3.115   1.153  -0.087  0.00  0.00     0.157 HD
ATOM     11  H   UNL d   1       2.177   2.587   0.055  0.00  0.00     0.157 HD
ENDROOT
BRANCH   2  12
ATOM     12  C   UNL d   1       1.983  -2.806  -0.851  0.00  0.00     0.112 A 
ATOM     13  C   UNL d   1       2.623  -3.955  -0.407  0.00  0.00     0.043 A 
ATOM     14  N   UNL d   1       2.291  -5.107  -1.114  0.00  0.00    -0.296 N 
ATOM     15  C   UNL d   1       3.591  -4.093   0.710  0.00  0.00     0.071 C 
ATOM     16  N   UNL d   1       1.433  -4.864  -2.088  0.00  0.00    -0.061 NA
ATOM     17  HN  UNL d   1       2.668  -6.032  -0.904  1.00  0.00     0.183 HD
ATOM     18  S   UNL d   1       1.000  -3.255  -2.181  0.00  0.00     0.007 SA
ENDBRANCH   2  12
BRANCH   4  19
ATOM     19  C   UNL d   1      -0.736   2.609   0.209  0.00  0.00     0.298 C 
ATOM     20  O   UNL d   1       0.003   3.582   0.311  0.00  0.00    -0.259 OA
BRANCH  19  21
ATOM     21  O   UNL d   1      -2.090   2.647   0.378  0.00  0.00    -0.318 OA
BRANCH  21  22
ATOM     22  C   UNL d   1      -2.621   3.900   0.835  0.00  0.00     0.174 C 
ATOM     23  C   UNL d   1      -2.561   3.944   2.351  0.00  0.00     0.034 C 
ENDBRANCH  21  22
ENDBRANCH  19  21
ENDBRANCH   4  19
TORSDOF 4
