REMARK  4 active torsions:
REMARK  status: ('A' for Active; 'I' for Inactive)
REMARK    1  A    between atoms: C_7  and  N_1 
REMARK    2  A    between atoms: C_11  and  C_4 
REMARK    3  A    between atoms: C_10  and  C_12 
REMARK    4  A    between atoms: O_23  and  C_17 
ROOT
ATOM      1  N   UNL d   1      -0.223  -1.220   0.277  0.00  0.00    -0.179 N 
ATOM      2  N   UNL d   1       1.075  -0.786   0.320  0.00  0.00    -0.266 N 
ATOM      3  HN  UNL d   1       1.920  -1.327   0.507  1.00  0.00     0.190 HD
ATOM      4  C   UNL d   1       0.969   0.478   0.066  0.00  0.00     0.181 A 
ATOM      5  C   UNL d   1      -1.069  -0.200  -0.094  0.00  0.00     0.394 A 
ATOM      6  O   UNL d   1      -0.290   0.925  -0.167  0.00  0.00    -0.240 OA
ATOM      7  O   UNL d   1      -2.253  -0.206  -0.386  0.00  0.00    -0.236 OA
ENDROOT
BRANCH   1   8
ATOM      8  C   UNL d   1      -0.476  -2.607   0.292  0.00  0.00     0.154 A 
ATOM      9  N   UNL d   1       0.534  -3.396  -0.178  0.00  0.00    -0.348 N 
ATOM     10  C   UNL d   1       0.360  -4.732  -0.229  0.00  0.00     0.106 A 
ATOM     11  HN  UNL d   1       1.412  -2.979  -0.488  1.00  0.00     0.167 HD
ATOM     12  C   UNL d   1      -0.784  -5.370   0.211  0.00  0.00     0.065 A 
ATOM     13  C   UNL d   1      -1.805  -4.569   0.730  0.00  0.00     0.045 A 
ATOM     14  C   UNL d   1      -1.661  -3.175   0.776  0.00  0.00     0.081 A 
ATOM     15 CL   UNL d   1      -2.894  -2.305   1.611  0.00  0.00    -0.080 Cl
BRANCH  12  16
ATOM     16  C   UNL d   1      -0.864  -6.862   0.134  0.00  0.00     0.418 C 
ATOM     17  F   UNL d   1      -2.009  -7.370   0.667  0.00  0.00    -0.166 F 
ATOM     18  F   UNL d   1      -0.808  -7.320  -1.144  0.00  0.00    -0.166 F 
ATOM     19  F   UNL d   1       0.158  -7.471   0.796  0.00  0.00    -0.166 F 
ENDBRANCH  12  16
ENDBRANCH   1   8
BRANCH   4  20
ATOM     20  C   UNL d   1       2.034   1.486  -0.019  0.00  0.00     0.050 A 
ATOM     21  C   UNL d   1       3.362   1.129  -0.325  0.00  0.00     0.082 A 
ATOM     22  C   UNL d   1       4.338   2.131  -0.390  0.00  0.00     0.038 A 
ATOM     23  C   UNL d   1       4.007   3.466  -0.139  0.00  0.00     0.003 A 
ATOM     24  C   UNL d   1       2.698   3.814   0.176  0.00  0.00     0.001 A 
ATOM     25  C   UNL d   1       1.712   2.829   0.235  0.00  0.00     0.018 A 
BRANCH  21  26
ATOM     26  O   UNL d   1       3.625  -0.178  -0.632  0.00  0.00    -0.355 OA
ATOM     27  C   UNL d   1       4.947  -0.644  -0.386  0.00  0.00     0.210 C 
ENDBRANCH  21  26
ENDBRANCH   4  20
TORSDOF 4
