REMARK  4 active torsions:
REMARK  status: ('A' for Active; 'I' for Inactive)
REMARK    1  A    between atoms: C_2  and  S_1 
REMARK    2  A    between atoms: C_5  and  S_1 
REMARK    3  A    between atoms: C_3  and  C_2 
REMARK    4  A    between atoms: C_4  and  C_3 
ROOT
ATOM      1  C   UNL d   1       0.343   0.213  -1.593  0.00  0.00     0.184 C 
ATOM      2  C   UNL d   1       0.921   1.503  -2.171  0.00  0.00     0.035 C 
ENDROOT
BRANCH   1   3
ATOM      3  S   UNL d   1       0.849  -0.049   0.099  0.00  0.00     0.186 S 
ATOM      4  O   UNL d   1       0.502  -1.411   0.467  0.00  0.00    -0.222 OA
ATOM      5  O   UNL d   1       0.424   1.072   0.910  0.00  0.00    -0.222 OA
BRANCH   3   6
ATOM      6  C   UNL d   1       2.634  -0.015   0.049  0.00  0.00     0.060 A 
ATOM      7  C   UNL d   1       3.334   0.913   0.822  0.00  0.00     0.024 A 
ATOM      8  C   UNL d   1       4.730   0.943   0.765  0.00  0.00     0.008 A 
ATOM      9  C   UNL d   1       5.428   0.051  -0.061  0.00  0.00    -0.062 A 
ATOM     10  C   UNL d   1       4.712  -0.880  -0.824  0.00  0.00     0.008 A 
ATOM     11  C   UNL d   1       6.929   0.091  -0.104  0.00  0.00     0.048 C 
ATOM     12  C   UNL d   1       3.317  -0.922  -0.766  0.00  0.00     0.024 A 
ENDBRANCH   3   6
ENDBRANCH   1   3
BRANCH   1  13
ATOM     13  C   UNL d   1      -1.175   0.228  -1.632  0.00  0.00     0.178 C 
ATOM     14  O   UNL d   1      -1.805   1.285  -1.560  0.00  0.00    -0.291 OA
BRANCH  13  15
ATOM     15  C   UNL d   1      -1.962  -1.040  -1.833  0.00  0.00     0.013 A 
ATOM     16  C   UNL d   1      -3.362  -0.947  -1.880  0.00  0.00     0.039 A 
ATOM     17  C   UNL d   1      -4.151  -2.078  -2.131  0.00  0.00     0.040 A 
ATOM     18 CL   UNL d   1      -5.866  -1.877  -2.173  0.00  0.00    -0.084 Cl
ATOM     19  C   UNL d   1      -3.557  -3.328  -2.348  0.00  0.00    -0.040 A 
ATOM     20  C   UNL d   1      -2.161  -3.421  -2.279  0.00  0.00     0.009 A 
ATOM     21  C   UNL d   1      -4.369  -4.559  -2.642  0.00  0.00     0.050 C 
ATOM     22  C   UNL d   1      -1.370  -2.293  -2.018  0.00  0.00     0.016 A 
ENDBRANCH  13  15
ENDBRANCH   1  13
TORSDOF 4
