REMARK  10 active torsions:
REMARK  status: ('A' for Active; 'I' for Inactive)
REMARK    1  A    between atoms: C_7  and  C_1 
REMARK       I    between atoms: N_13  and  C_7 
REMARK    2  A    between atoms: C_10  and  N_11 
REMARK    3  A    between atoms: S_18  and  C_10 
REMARK    4  A    between atoms: N_11  and  N_13 
REMARK    5  A    between atoms: C_16  and  C_21 
REMARK    6  A    between atoms: O_24  and  C_16 
REMARK    7  A    between atoms: C_23  and  N_17 
REMARK    8  A    between atoms: C_21  and  S_18 
REMARK    9  A    between atoms: C_25  and  C_23 
REMARK   10  A    between atoms: C_27  and  O_24 
ROOT
ATOM      1  N   UNL d   1       4.443   1.901   0.124  0.00  0.00    -0.277 N 
ATOM      2  HN  UNL d   1       4.205   0.915   0.236  1.00  0.00     0.189 HD
ENDROOT
BRANCH   1   3
ATOM      3  C   UNL d   1       5.699   2.208   0.012  0.00  0.00     0.155 C 
ATOM      4  N   UNL d   1       6.287   3.427  -0.114  0.00  0.00    -0.365 N 
ATOM      5  H   UNL d   1       5.683   4.224   0.061  0.00  0.00     0.162 HD
BRANCH   4   6
ATOM      6  C   UNL d   1       7.594   3.764  -0.622  0.00  0.00     0.160 C 
BRANCH   6   7
ATOM      7  C   UNL d   1       7.492   4.192  -2.066  0.00  0.00    -0.041 A 
ATOM      8  C   UNL d   1       7.396   5.548  -2.403  0.00  0.00     0.009 A 
ATOM      9  C   UNL d   1       7.308   5.940  -3.740  0.00  0.00     0.001 A 
ATOM     10  C   UNL d   1       7.307   4.981  -4.752  0.00  0.00     0.000 A 
ATOM     11  C   UNL d   1       7.390   3.628  -4.429  0.00  0.00     0.001 A 
ATOM     12  C   UNL d   1       7.480   3.235  -3.093  0.00  0.00     0.009 A 
ENDBRANCH   6   7
ENDBRANCH   4   6
BRANCH   3  13
ATOM     13  S   UNL d   1       6.762   0.793  -0.049  0.00  0.00    -0.083 SA
BRANCH  13  14
ATOM     14  C   UNL d   1       6.994   0.510   1.719  0.00  0.00     0.193 C 
BRANCH  14  15
ATOM     15  C   UNL d   1       7.850   1.548   2.415  0.00  0.00     0.268 C 
ATOM     16  O   UNL d   1       8.675   2.286   1.898  0.00  0.00    -0.264 OA
BRANCH  15  17
ATOM     17  O   UNL d   1       7.666   1.410   3.766  0.00  0.00    -0.321 OA
BRANCH  17  18
ATOM     18  C   UNL d   1       8.618   2.073   4.610  0.00  0.00     0.174 C 
ATOM     19  C   UNL d   1       9.764   1.117   4.892  0.00  0.00     0.034 C 
ENDBRANCH  17  18
ENDBRANCH  15  17
ENDBRANCH  14  15
ENDBRANCH  13  14
ENDBRANCH   3  13
ENDBRANCH   1   3
BRANCH   1  20
ATOM     20  N   UNL d   1       3.407   2.811   0.102  0.00  0.00    -0.263 N 
ATOM     21  C   UNL d   1       3.385   4.115   0.577  0.00  0.00     0.289 C 
ATOM     22  O   UNL d   1       4.355   4.660   1.097  0.00  0.00    -0.264 OA
ATOM     23  H   UNL d   1       2.509   2.357  -0.031  0.00  0.00     0.190 HD
BRANCH  21  24
ATOM     24  C   UNL d   1       2.107   4.797   0.465  0.00  0.00     0.132 A 
ATOM     25  N   UNL d   1       1.170   4.738  -0.562  0.00  0.00    -0.302 N 
ATOM     26  C   UNL d   1       0.137   5.607  -0.214  0.00  0.00     0.113 A 
ATOM     27  C   UNL d   1       1.155   4.024  -1.767  0.00  0.00     0.099 A 
ATOM     28  C   UNL d   1      -0.960   5.742  -1.109  0.00  0.00     0.056 A 
ATOM     29  N   UNL d   1       0.366   6.203   0.931  0.00  0.00    -0.344 N 
ATOM     30  C   UNL d   1      -0.990   5.044  -2.264  0.00  0.00    -0.057 A 
ATOM     31  C   UNL d   1       0.111   4.147  -2.608  0.00  0.00     0.024 A 
ATOM     32  C   UNL d   1      -2.132   5.186  -3.227  0.00  0.00     0.048 C 
ATOM     33  C   UNL d   1       1.585   5.738   1.350  0.00  0.00     0.040 A 
ATOM     34  HN  UNL d   1      -0.237   6.873   1.409  1.00  0.00     0.167 HD
ATOM     35  C   UNL d   1       2.150   6.249   2.624  0.00  0.00     0.071 C 
ENDBRANCH  21  24
ENDBRANCH   1  20
TORSDOF 10
