REMARK  2 active torsions:
REMARK  status: ('A' for Active; 'I' for Inactive)
REMARK    1  A    between atoms: C_3  and  C_1 
REMARK       I    between atoms: N_6  and  C_3 
REMARK    2  A    between atoms: C_10  and  N_6 
ROOT
ATOM      1  C   UNL d   1      -1.476  -1.323   0.228  0.00  0.00     0.066 A 
ATOM      2  C   UNL d   1      -0.295  -0.592   0.150  0.00  0.00     0.092 A 
ATOM      3  O   UNL d   1       0.967  -1.121   0.034  0.00  0.00    -0.339 OA
ATOM      4  C   UNL d   1      -0.301   0.794   0.179  0.00  0.00    -0.021 A 
ATOM      5  C   UNL d   1       1.877   0.016  -0.055  0.00  0.00     0.064 A 
ATOM      6  C   UNL d   1       1.074   1.328   0.065  0.00  0.00     0.079 A 
ATOM      7  C   UNL d   1      -2.675  -0.596   0.354  0.00  0.00     0.020 A 
ATOM      8  C   UNL d   1      -1.482   1.513   0.296  0.00  0.00     0.010 A 
ATOM      9  C   UNL d   1      -2.678   0.806   0.388  0.00  0.00     0.002 A 
ATOM     10  C   UNL d   1       2.595  -0.074  -1.405  0.00  0.00     0.046 C 
ATOM     11  C   UNL d   1       2.889  -0.115   1.086  0.00  0.00     0.046 C 
ENDROOT
BRANCH   1  12
ATOM     12  C   UNL d   1      -1.569  -2.812   0.135  0.00  0.00     0.259 C 
ATOM     13  N   UNL d   1      -0.379  -3.503   0.004  0.00  0.00    -0.323 N 
ATOM     14  H   UNL d   1       0.473  -2.959   0.113  0.00  0.00     0.169 HD
ATOM     15  O   UNL d   1      -2.684  -3.323   0.180  0.00  0.00    -0.267 OA
BRANCH  13  16
ATOM     16  C   UNL d   1      -0.222  -4.872  -0.301  0.00  0.00     0.035 A 
ATOM     17  C   UNL d   1      -1.279  -5.707  -0.677  0.00  0.00     0.031 A 
ATOM     18  C   UNL d   1      -1.047  -7.041  -1.029  0.00  0.00     0.026 A 
ATOM     19  C   UNL d   1       0.247  -7.550  -0.997  0.00  0.00     0.034 A 
ATOM     20  C   UNL d   1       1.310  -6.737  -0.612  0.00  0.00     0.026 A 
ATOM     21 CL   UNL d   1       0.535  -9.185  -1.445  0.00  0.00    -0.084 Cl
ATOM     22  C   UNL d   1       1.075  -5.399  -0.271  0.00  0.00     0.031 A 
ENDBRANCH  13  16
ENDBRANCH   1  12
TORSDOF 2
