REMARK  2 active torsions:
REMARK  status: ('A' for Active; 'I' for Inactive)
REMARK    1  A    between atoms: C_14  and  C_5 
REMARK    2  A    between atoms: N_15  and  C_6 
ROOT
ATOM      1  C   UNL d   1      -0.309   0.945  -0.125  0.00  0.00     0.066 A 
ATOM      2  C   UNL d   1       0.139  -0.316  -0.047  0.00  0.00     0.103 A 
ATOM      3  C   UNL d   1      -2.638  -0.028  -0.086  0.00  0.00     0.081 A 
ATOM      4  C   UNL d   1       0.646   2.072  -0.209  0.00  0.00     0.298 C 
ATOM      5  C   UNL d   1      -1.791   1.242  -0.191  0.00  0.00     0.109 A 
ATOM      6  C   UNL d   1      -2.075  -1.250   0.014  0.00  0.00     0.138 A 
ATOM      7  O   UNL d   1      -0.699  -1.413  -0.007  0.00  0.00    -0.296 OA
ATOM      8  C   UNL d   1       1.568  -0.613  -0.007  0.00  0.00     0.033 A 
ATOM      9  O   UNL d   1       1.993   1.780  -0.034  0.00  0.00    -0.274 OA
ATOM     10  C   UNL d   1       2.458   0.455   0.023  0.00  0.00     0.092 A 
ATOM     11  C   UNL d   1      -4.067   0.113  -0.082  0.00  0.00     0.100 C 
ATOM     12  N   UNL d   1      -5.222   0.193  -0.078  0.00  0.00    -0.191 NA
ATOM     13  O   UNL d   1       0.275   3.219  -0.432  0.00  0.00    -0.259 OA
ATOM     14  C   UNL d   1       2.088  -1.913   0.009  0.00  0.00     0.017 A 
ATOM     15  C   UNL d   1       3.837   0.265   0.082  0.00  0.00     0.038 A 
ATOM     16  C   UNL d   1       3.470  -2.121   0.059  0.00  0.00     0.001 A 
ATOM     17  C   UNL d   1       4.343  -1.033   0.098  0.00  0.00     0.003 A 
ENDROOT
BRANCH   5  18
ATOM     18  C   UNL d   1      -2.245   2.278   0.829  0.00  0.00    -0.029 A 
ATOM     19  C   UNL d   1      -2.171   2.044   2.201  0.00  0.00     0.095 A 
ATOM     20  N   UNL d   1      -2.623   2.903   3.141  0.00  0.00    -0.375 N 
ATOM     21  C   UNL d   1      -3.169   4.056   2.699  0.00  0.00     0.087 A 
ATOM     22  HN  UNL d   1      -2.554   2.691   4.137  1.00  0.00     0.164 HD
ATOM     23  C   UNL d   1      -3.271   4.399   1.362  0.00  0.00     0.018 A 
ATOM     24  C   UNL d   1      -2.800   3.497   0.417  0.00  0.00     0.011 A 
ENDBRANCH   5  18
BRANCH   6  25
ATOM     25  N   UNL d   1      -2.745  -2.441   0.147  0.00  0.00    -0.282 NA
ATOM     26  H   UNL d   1      -3.724  -2.452  -0.133  0.00  0.00     0.126 HD
ATOM     27  H   UNL d   1      -2.214  -3.239  -0.190  0.00  0.00     0.126 HD
ENDBRANCH   6  25
TORSDOF 2
