REMARK  1 active torsions:
REMARK  status: ('A' for Active; 'I' for Inactive)
REMARK    1  A    between atoms: C_8  and  C_5 
ROOT
ATOM      1  C   UNL d   1       0.730   1.245  -0.025  0.00  0.00     0.147 A 
ATOM      2  S   UNL d   1       1.413  -0.328  -0.219  0.00  0.00    -0.049 SA
ATOM      3  N   UNL d   1      -0.585   1.236   0.005  0.00  0.00    -0.339 N 
ATOM      4  HN  UNL d   1      -1.163   2.075   0.063  1.00  0.00     0.168 HD
ATOM      5  C   UNL d   1      -0.127  -1.050  -0.091  0.00  0.00     0.076 A 
ATOM      6  C   UNL d   1      -1.089  -0.055  -0.053  0.00  0.00     0.028 A 
ATOM      7  N   UNL d   1       1.485   2.361   0.166  0.00  0.00    -0.357 N 
ATOM      8  O   UNL d   1       3.005   4.714   0.678  0.00  0.00    -0.388 OA
ATOM      9  C   UNL d   1      -2.567  -0.233  -0.007  0.00  0.00     0.070 C 
ATOM     10  C   UNL d   1       0.806   3.642   0.404  0.00  0.00     0.151 C 
ATOM     11  C   UNL d   1       2.828   2.512  -0.404  0.00  0.00     0.151 C 
ATOM     12  C   UNL d   1       3.655   3.446   0.494  0.00  0.00     0.187 C 
ATOM     13  C   UNL d   1       1.710   4.530   1.276  0.00  0.00     0.187 C 
ENDROOT
BRANCH   5  14
ATOM     14  C   UNL d   1      -0.317  -2.493  -0.050  0.00  0.00     0.164 C 
ATOM     15  O   UNL d   1      -1.424  -3.010  -0.228  0.00  0.00    -0.292 OA
ATOM     16  C   UNL d   1       0.858  -3.400   0.236  0.00  0.00     0.097 C 
ENDBRANCH   5  14
TORSDOF 1
