REMARK  2 active torsions:
REMARK  status: ('A' for Active; 'I' for Inactive)
REMARK    1  A    between atoms: N_4  and  C_3 
REMARK    2  A    between atoms: C_8  and  S_5 
ROOT
ATOM      1  C   UNL d   1       3.908  -0.057  -1.073  0.00  0.00     0.139 C 
ATOM      2  N   UNL d   1       4.761  -0.216  -1.846  0.00  0.00    -0.184 NA
ATOM      3  S   UNL d   1       2.662   0.186   0.042  0.00  0.00    -0.011 SA
ENDROOT
BRANCH   3   4
ATOM      4  C   UNL d   1       3.249  -0.966   1.262  0.00  0.00     0.015 A 
ATOM      5  C   UNL d   1       4.093  -0.547   2.288  0.00  0.00     0.022 A 
ATOM      6  C   UNL d   1       4.528  -1.454   3.267  0.00  0.00     0.030 A 
ATOM      7  C   UNL d   1       4.132  -2.801   3.275  0.00  0.00     0.029 A 
ATOM      8  C   UNL d   1       3.273  -3.189   2.230  0.00  0.00     0.030 A 
ATOM      9  C   UNL d   1       2.838  -2.296   1.239  0.00  0.00     0.022 A 
BRANCH   7  10
ATOM     10  N   UNL d   1       4.497  -3.689   4.277  0.00  0.00    -0.390 N 
ATOM     11  C   UNL d   1       4.694  -5.110   3.987  0.00  0.00     0.149 C 
ATOM     12  C   UNL d   1       5.128  -3.243   5.518  0.00  0.00     0.149 C 
ENDBRANCH   7  10
ENDBRANCH   3   4
TORSDOF 2
