REMARK  3 active torsions:
REMARK  status: ('A' for Active; 'I' for Inactive)
REMARK       I    between atoms: N_2  and  C_1 
REMARK       I    between atoms: N_4  and  C_1 
REMARK    1  A    between atoms: C_5  and  N_3 
REMARK    2  A    between atoms: C_12  and  N_4 
REMARK    3  A    between atoms: O_19  and  C_11 
ROOT
ATOM      1  C   UNL d   1       1.162  -0.114  -0.097  0.00  0.00     0.323 C 
ATOM      2  N   UNL d   1       0.657  -0.468   1.161  0.00  0.00    -0.331 N 
ATOM      3  N   UNL d   1      -0.489  -0.688   3.791  0.00  0.00    -0.376 N 
ATOM      4  N   UNL d   1       0.602  -0.782  -1.163  0.00  0.00    -0.309 N 
ATOM      5  O   UNL d   1       2.047   0.729  -0.201  0.00  0.00    -0.247 OA
ATOM      6  C   UNL d   1       1.169   0.339   2.288  0.00  0.00     0.147 C 
ATOM      7  C   UNL d   1      -0.685  -1.030   1.372  0.00  0.00     0.147 C 
ATOM      8  C   UNL d   1       0.923  -0.279   3.685  0.00  0.00     0.143 C 
ATOM      9  C   UNL d   1      -0.857  -1.669   2.759  0.00  0.00     0.143 C 
ATOM     10  H   UNL d   1      -0.029  -1.536  -0.947  0.00  0.00     0.170 HD
ENDROOT
BRANCH   4  11
ATOM     11  C   UNL d   1       0.901  -0.642  -2.533  0.00  0.00     0.036 A 
ATOM     12  C   UNL d   1       1.849   0.254  -3.041  0.00  0.00     0.032 A 
ATOM     13  C   UNL d   1       2.104   0.311  -4.414  0.00  0.00     0.044 A 
ATOM     14  C   UNL d   1       1.406  -0.518  -5.282  0.00  0.00     0.116 A 
ATOM     15  C   UNL d   1       0.453  -1.404  -4.801  0.00  0.00     0.044 A 
ATOM     16  F   UNL d   1       1.655  -0.462  -6.596  0.00  0.00    -0.206 F 
ATOM     17  C   UNL d   1       0.202  -1.467  -3.429  0.00  0.00     0.032 A 
ENDBRANCH   4  11
BRANCH   3  18
ATOM     18  C   UNL d   1      -1.087  -0.770   5.049  0.00  0.00     0.064 A 
ATOM     19  C   UNL d   1      -1.233   0.342   5.911  0.00  0.00     0.094 A 
ATOM     20  C   UNL d   1      -1.975   0.244   7.099  0.00  0.00     0.039 A 
ATOM     21  C   UNL d   1      -2.582  -0.952   7.468  0.00  0.00     0.003 A 
ATOM     22  C   UNL d   1      -2.404  -2.075   6.674  0.00  0.00     0.002 A 
ATOM     23  C   UNL d   1      -1.665  -1.981   5.491  0.00  0.00     0.032 A 
BRANCH  19  24
ATOM     24  O   UNL d   1      -0.638   1.567   5.735  0.00  0.00    -0.354 OA
ATOM     25  C   UNL d   1      -0.994   2.244   4.536  0.00  0.00     0.210 C 
ENDBRANCH  19  24
ENDBRANCH   3  18
TORSDOF 3
