REMARK  7 active torsions:
REMARK  status: ('A' for Active; 'I' for Inactive)
REMARK    1  A    between atoms: O_4  and  S_1 
REMARK    2  A    between atoms: O_5  and  S_1 
REMARK       I    between atoms: N_10  and  C_8 
REMARK       I    between atoms: N_16  and  C_8 
REMARK    3  A    between atoms: O_19  and  C_9 
REMARK    4  A    between atoms: O_20  and  C_12 
REMARK    5  A    between atoms: C_21  and  N_14 
REMARK    6  A    between atoms: C_17  and  C_22 
REMARK    7  A    between atoms: C_22  and  C_21 
ROOT
ATOM      1  S   UNL d   1       2.277   0.674  -1.193  0.00  0.00     0.238 S 
ATOM      2  O   UNL d   1       2.191   1.253   0.128  0.00  0.00    -0.579 OA
ATOM      3  O   UNL d   1       1.178   0.685  -2.121  0.00  0.00    -0.579 OA
ENDROOT
BRANCH   1   4
ATOM      4  O   UNL d   1       2.720  -0.859  -1.006  0.00  0.00    -0.274 OA
ATOM      5  H   UNL d   1       1.931  -1.430  -1.134  0.00  0.00     0.234 HD
ENDBRANCH   1   4
BRANCH   1   6
ATOM      6  O   UNL d   1       3.571   1.313  -1.892  0.00  0.00    -0.274 OA
ATOM      7  H   UNL d   1       4.282   1.363  -1.223  0.00  0.00     0.234 HD
ENDBRANCH   1   6
TORSDOF 7
