REMARK  4 active torsions:
REMARK  status: ('A' for Active; 'I' for Inactive)
REMARK    1  A    between atoms: C_10  and  N_1 
REMARK    2  A    between atoms: S_9  and  C_5 
REMARK    3  A    between atoms: C_17  and  S_9 
REMARK    4  A    between atoms: C_16  and  C_17 
ROOT
ATOM      1  N   UNL d   1      -0.294  -1.308  -0.079  0.00  0.00    -0.273 N 
ATOM      2  C   UNL d   1       0.947  -0.674  -0.017  0.00  0.00     0.163 A 
ATOM      3  N   UNL d   1       0.785   0.636   0.006  0.00  0.00    -0.281 N 
ATOM      4  HN  UNL d   1       1.527   1.330   0.094  1.00  0.00     0.188 HD
ATOM      5  C   UNL d   1      -1.188  -0.248  -0.163  0.00  0.00     0.168 A 
ATOM      6  N   UNL d   1      -0.551   0.901  -0.110  0.00  0.00    -0.278 N 
ATOM      7  HN  UNL d   1      -0.979   1.826  -0.148  1.00  0.00     0.189 HD
ATOM      8  C   UNL d   1       2.237  -1.295  -0.064  0.00  0.00     0.120 A 
ATOM      9  O   UNL d   1       2.497  -2.431  -0.789  0.00  0.00    -0.319 OA
ATOM     10  C   UNL d   1       3.406  -0.909   0.573  0.00  0.00     0.043 A 
ATOM     11  C   UNL d   1       3.790  -2.778  -0.578  0.00  0.00     0.142 A 
ATOM     12  C   UNL d   1       4.394  -1.877   0.262  0.00  0.00     0.027 A 
ENDROOT
BRANCH   1  13
ATOM     13  C   UNL d   1      -0.554  -2.713  -0.024  0.00  0.00     0.043 A 
ATOM     14  C   UNL d   1       0.252  -3.553   0.761  0.00  0.00     0.030 A 
ATOM     15  C   UNL d   1       0.043  -4.934   0.775  0.00  0.00     0.002 A 
ATOM     16  C   UNL d   1      -0.992  -5.487   0.027  0.00  0.00     0.000 A 
ATOM     17  C   UNL d   1      -1.813  -4.662  -0.735  0.00  0.00     0.002 A 
ATOM     18  C   UNL d   1      -1.595  -3.280  -0.770  0.00  0.00     0.030 A 
ENDBRANCH   1  13
BRANCH   5  19
ATOM     19  S   UNL d   1      -2.922  -0.367  -0.090  0.00  0.00    -0.085 SA
BRANCH  19  20
ATOM     20  C   UNL d   1      -3.412   1.136  -0.974  0.00  0.00     0.160 C 
BRANCH  20  21
ATOM     21  C   UNL d   1      -2.979   1.136  -2.429  0.00  0.00     0.132 C 
ATOM     22  O   UNL d   1      -2.757   0.109  -3.073  0.00  0.00    -0.298 OA
ATOM     23  C   UNL d   1      -2.914   2.489  -3.095  0.00  0.00     0.091 C 
ENDBRANCH  20  21
ENDBRANCH  19  20
ENDBRANCH   5  19
TORSDOF 4
