REMARK  7 active torsions:
REMARK  status: ('A' for Active; 'I' for Inactive)
REMARK    1  A    between atoms: C_9  and  C_4 
REMARK       I    between atoms: C_8  and  N_11 
REMARK    2  A    between atoms: C_13  and  C_8 
REMARK    3  A    between atoms: C_10  and  C_13 
REMARK    4  A    between atoms: C_15  and  C_10 
REMARK    5  A    between atoms: N_11  and  C_19 
REMARK    6  A    between atoms: C_12  and  C_15 
REMARK    7  A    between atoms: O_22  and  C_12 
ROOT
ATOM      1  C   UNL d   1       8.307  -2.303   0.916  0.00  0.00     0.222 C 
ATOM      2  N   UNL d   1       7.143  -2.428   0.179  0.00  0.00    -0.327 N 
ATOM      3  O   UNL d   1       9.271  -3.055   0.831  0.00  0.00    -0.273 OA
ATOM      4  H   UNL d   1       6.382  -1.797   0.401  0.00  0.00     0.169 HD
ENDROOT
BRANCH   2   5
ATOM      5  C   UNL d   1       6.928  -3.291  -0.925  0.00  0.00     0.034 A 
ATOM      6  C   UNL d   1       7.896  -4.151  -1.454  0.00  0.00     0.030 A 
ATOM      7  C   UNL d   1       7.650  -4.888  -2.626  0.00  0.00     0.016 A 
ATOM      8  C   UNL d   1       6.425  -4.782  -3.293  0.00  0.00    -0.008 A 
ATOM      9  C   UNL d   1       5.439  -3.964  -2.730  0.00  0.00     0.016 A 
ATOM     10  C   UNL d   1       5.685  -3.229  -1.561  0.00  0.00     0.030 A 
BRANCH   8  11
ATOM     11  C   UNL d   1       6.172  -5.433  -4.574  0.00  0.00     0.060 A 
ATOM     12  N   UNL d   1       5.092  -5.085  -5.379  0.00  0.00    -0.335 N 
ATOM     13  C   UNL d   1       5.254  -5.804  -6.451  0.00  0.00     0.147 A 
ATOM     14  HN  UNL d   1       4.346  -4.421  -5.175  1.00  0.00     0.168 HD
ATOM     15  N   UNL d   1       6.341  -6.606  -6.383  0.00  0.00    -0.335 N 
ATOM     16  S   UNL d   1       4.410  -5.926  -7.940  0.00  0.00    -0.092 SA
ATOM     17  C   UNL d   1       6.958  -6.398  -5.194  0.00  0.00     0.123 A 
ATOM     18  C   UNL d   1       6.672  -7.381  -7.555  0.00  0.00     0.141 C 
ATOM     19  C   UNL d   1       5.438  -7.356  -8.466  0.00  0.00     0.102 C 
ENDBRANCH   8  11
ENDBRANCH   2   5
BRANCH   1  20
ATOM     20  C   UNL d   1       8.320  -1.095   1.870  0.00  0.00     0.113 C 
BRANCH  20  21
ATOM     21  C   UNL d   1       9.684  -0.319   1.895  0.00  0.00    -0.023 C 
ATOM     22  C   UNL d   1      10.807  -1.155   2.583  0.00  0.00     0.010 C 
ATOM     23  C   UNL d   1      10.638  -1.302   4.094  0.00  0.00     0.001 C 
ATOM     24  C   UNL d   1      10.638   0.065   4.755  0.00  0.00     0.000 C 
ATOM     25  C   UNL d   1       9.510   0.922   4.200  0.00  0.00     0.001 C 
ATOM     26  C   UNL d   1       9.550   1.030   2.675  0.00  0.00     0.010 C 
BRANCH  21  27
ATOM     27  C   UNL d   1      10.150  -0.001   0.436  0.00  0.00     0.119 C 
BRANCH  27  28
ATOM     28  C   UNL d   1       9.133   0.720  -0.437  0.00  0.00     0.140 C 
ATOM     29  O   UNL d   1       8.211   1.405  -0.032  0.00  0.00    -0.650 OA
BRANCH  28  30
ATOM     30  O   UNL d   1       9.364   0.545  -1.756  0.00  0.00    -0.776 OA
ATOM     31  H   UNL d   1      10.113  -0.047  -1.957  0.00  0.00     0.167 HD
ENDBRANCH  28  30
ENDBRANCH  27  28
ENDBRANCH  21  27
ENDBRANCH  20  21
ENDBRANCH   1  20
TORSDOF 7
