REMARK  7 active torsions:
REMARK  status: ('A' for Active; 'I' for Inactive)
REMARK    1  A    between atoms: C_2  and  C_1 
REMARK       I    between atoms: N_5  and  C_2 
REMARK    2  A    between atoms: C_4  and  C_3 
REMARK    3  A    between atoms: C_12  and  N_5 
REMARK    4  A    between atoms: C_24  and  N_5 
REMARK    5  A    between atoms: O_19  and  C_10 
REMARK    6  A    between atoms: C_16  and  C_12 
REMARK    7  A    between atoms: C_25  and  O_19 
ROOT
ATOM      1  C   UNL d   1       0.401   1.190   0.097  0.00  0.00     0.062 C 
ATOM      2  C   UNL d   1       0.313   0.115   0.992  0.00  0.00     0.069 C 
ATOM      3  C   UNL d   1      -0.086   0.981  -1.191  0.00  0.00     0.108 C 
ATOM      4  N   UNL d   1      -0.767  -0.118  -1.602  0.00  0.00    -0.346 N 
ATOM      5  HN  UNL d   1      -1.126  -0.200  -2.553  1.00  0.00     0.167 HD
ATOM      6  C   UNL d   1      -0.413  -1.031   0.586  0.00  0.00     0.073 C 
ATOM      7  C   UNL d   1      -0.945  -1.093  -0.696  0.00  0.00     0.142 C 
ENDROOT
BRANCH   1   8
ATOM      8  C   UNL d   1       1.033   2.502   0.385  0.00  0.00     0.256 C 
ATOM      9  N   UNL d   1       0.386   3.718   0.051  0.00  0.00    -0.344 N 
ATOM     10  O   UNL d   1       2.146   2.463   0.898  0.00  0.00    -0.267 OA
BRANCH   9  11
ATOM     11  C   UNL d   1       1.080   4.960   0.450  0.00  0.00     0.164 C 
BRANCH  11  12
ATOM     12  C   UNL d   1       1.183   6.097  -0.551  0.00  0.00    -0.040 A 
ATOM     13  C   UNL d   1       1.099   7.424  -0.076  0.00  0.00     0.010 A 
ATOM     14  C   UNL d   1       1.359   8.514  -0.910  0.00  0.00     0.024 A 
ATOM     15  C   UNL d   1       1.715   8.294  -2.236  0.00  0.00     0.034 A 
ATOM     16  C   UNL d   1       1.786   6.994  -2.734  0.00  0.00     0.024 A 
ATOM     17 CL   UNL d   1       2.100   9.630  -3.251  0.00  0.00    -0.084 Cl
ATOM     18  C   UNL d   1       1.528   5.900  -1.893  0.00  0.00     0.010 A 
ENDBRANCH  11  12
ENDBRANCH   9  11
BRANCH   9  19
ATOM     19  C   UNL d   1      -0.997   3.812  -0.457  0.00  0.00     0.122 C 
ATOM     20  C   UNL d   1      -1.886   4.859   0.196  0.00  0.00     0.026 C 
ENDBRANCH   9  19
ENDBRANCH   1   8
BRANCH   2  21
ATOM     21  C   UNL d   1       0.913   0.026   2.372  0.00  0.00     0.418 C 
ATOM     22  F   UNL d   1       1.654   1.070   2.812  0.00  0.00    -0.166 F 
ATOM     23  F   UNL d   1      -0.049  -0.153   3.321  0.00  0.00    -0.166 F 
ATOM     24  F   UNL d   1       1.724  -1.072   2.485  0.00  0.00    -0.166 F 
ENDBRANCH   2  21
BRANCH   7  25
ATOM     25  O   UNL d   1      -1.715  -2.195  -0.986  0.00  0.00    -0.336 OA
BRANCH  25  26
ATOM     26  C   UNL d   1      -1.993  -2.336  -2.380  0.00  0.00     0.173 C 
ATOM     27  C   UNL d   1      -3.000  -3.459  -2.559  0.00  0.00     0.034 C 
ENDBRANCH  25  26
ENDBRANCH   7  25
TORSDOF 7
