REMARK  3 active torsions:
REMARK  status: ('A' for Active; 'I' for Inactive)
REMARK    1  A    between atoms: C_2  and  C_1 
REMARK    2  A    between atoms: N_4  and  N_12 
REMARK    3  A    between atoms: N_12  and  C_16 
ROOT
ATOM      1  C   UNL d   1      -5.422  -1.022  -0.552  0.00  0.00     0.209 C 
ATOM      2  N   UNL d   1      -4.120  -1.054  -0.506  0.00  0.00    -0.282 N 
ATOM      3  HN  UNL d   1      -3.612  -1.851  -0.889  1.00  0.00     0.188 HD
ATOM      4  N   UNL d   1      -6.729   0.982   0.454  0.00  0.00    -0.189 NA
ATOM      5  N   UNL d   1      -6.571  -3.041  -1.714  0.00  0.00    -0.189 NA
ATOM      6  C   UNL d   1      -6.165   0.071   0.002  0.00  0.00     0.130 C 
ATOM      7  C   UNL d   1      -6.037  -2.146  -1.194  0.00  0.00     0.130 C 
ENDROOT
BRANCH   2   8
ATOM      8  N   UNL d   1      -3.442  -0.013   0.058  0.00  0.00    -0.299 N 
ATOM      9  H   UNL d   1      -3.861   0.900   0.247  0.00  0.00     0.187 HD
BRANCH   8  10
ATOM     10  C   UNL d   1      -2.035  -0.024   0.033  0.00  0.00     0.049 A 
ATOM     11  C   UNL d   1      -1.298  -1.216  -0.021  0.00  0.00     0.050 A 
ATOM     12  C   UNL d   1       0.111  -1.208  -0.015  0.00  0.00     0.088 A 
ATOM     13  C   UNL d   1       0.768   0.017  -0.000  0.00  0.00     0.131 A 
ATOM     14  C   UNL d   1       0.057   1.213   0.017  0.00  0.00     0.045 A 
ATOM     15  F   UNL d   1       2.106   0.076   0.000  0.00  0.00    -0.205 F 
ATOM     16  C   UNL d   1      -1.338   1.190   0.040  0.00  0.00     0.034 A 
BRANCH  12  17
ATOM     17  C   UNL d   1       0.872  -2.499   0.003  0.00  0.00     0.420 C 
ATOM     18  F   UNL d   1       2.227  -2.373  -0.003  0.00  0.00    -0.166 F 
ATOM     19  F   UNL d   1       0.580  -3.248   1.106  0.00  0.00    -0.166 F 
ATOM     20  F   UNL d   1       0.572  -3.291  -1.065  0.00  0.00    -0.166 F 
ENDBRANCH  12  17
ENDBRANCH   8  10
ENDBRANCH   2   8
TORSDOF 3
