REMARK  6 active torsions:
REMARK  status: ('A' for Active; 'I' for Inactive)
REMARK    1  A    between atoms: O_2  and  S_1 
REMARK    2  A    between atoms: C_10  and  S_1 
REMARK    3  A    between atoms: C_3  and  O_2 
REMARK    4  A    between atoms: O_23  and  C_11 
REMARK    5  A    between atoms: O_24  and  C_13 
REMARK    6  A    between atoms: C_22  and  C_17 
ROOT
ATOM      1  C   UNL d   1       0.650  -0.317  -2.519  0.00  0.00     0.162 A 
ATOM      2  N   UNL d   1       1.962  -0.050  -2.672  0.00  0.00    -0.339 N 
ATOM      3  HN  UNL d   1       2.601  -0.086  -1.878  1.00  0.00     0.168 HD
ATOM      4  C   UNL d   1       1.574   0.341  -5.050  0.00  0.00    -0.001 A 
ATOM      5  C   UNL d   1       0.220   0.031  -4.856  0.00  0.00    -0.017 A 
ATOM      6  C   UNL d   1       2.412   0.270  -3.915  0.00  0.00     0.018 A 
ATOM      7  C   UNL d   1       1.996   0.707  -6.353  0.00  0.00     0.054 A 
ATOM      8  C   UNL d   1       1.106   0.785  -7.439  0.00  0.00     0.102 A 
ATOM      9  C   UNL d   1      -0.669   0.108  -5.939  0.00  0.00     0.052 A 
ATOM     10  C   UNL d   1      -0.247   0.490  -7.221  0.00  0.00     0.102 A 
ATOM     11  C   UNL d   1      -0.234  -0.331  -3.586  0.00  0.00     0.069 A 
ATOM     12  C   UNL d   1       3.879   0.586  -4.003  0.00  0.00     0.069 C 
ENDROOT
BRANCH   1  13
ATOM     13  O   UNL d   1       0.300  -0.569  -1.222  0.00  0.00    -0.211 OA
BRANCH  13  14
ATOM     14  S   UNL d   1      -1.220  -0.293  -0.722  0.00  0.00     0.304 S 
ATOM     15  O   UNL d   1      -1.977  -1.518  -0.905  0.00  0.00    -0.193 OA
ATOM     16  O   UNL d   1      -1.697   0.965  -1.266  0.00  0.00    -0.193 OA
BRANCH  14  17
ATOM     17  C   UNL d   1      -1.103  -0.023   1.031  0.00  0.00     0.086 A 
ATOM     18  C   UNL d   1       0.092   0.397   1.614  0.00  0.00     0.026 A 
ATOM     19  C   UNL d   1       0.118   0.682   2.982  0.00  0.00     0.009 A 
ATOM     20  C   UNL d   1      -1.038   0.546   3.772  0.00  0.00    -0.055 A 
ATOM     21  C   UNL d   1      -2.222   0.098   3.165  0.00  0.00     0.009 A 
ATOM     22  C   UNL d   1      -2.257  -0.189   1.801  0.00  0.00     0.026 A 
BRANCH  20  23
ATOM     23  C   UNL d   1      -1.041   0.880   5.254  0.00  0.00     0.010 C 
ATOM     24  C   UNL d   1      -0.068  -0.005   6.034  0.00  0.00     0.015 C 
ATOM     25  C   UNL d   1      -0.752   2.363   5.502  0.00  0.00     0.015 C 
ENDBRANCH  20  23
ENDBRANCH  14  17
ENDBRANCH  13  14
ENDBRANCH   1  13
BRANCH  10  26
ATOM     26  O   UNL d   1      -1.290   0.521  -8.111  0.00  0.00    -0.353 OA
ATOM     27  C   UNL d   1      -1.046   0.922  -9.449  0.00  0.00     0.210 C 
ENDBRANCH  10  26
BRANCH   8  28
ATOM     28  O   UNL d   1       1.500   1.137  -8.701  0.00  0.00    -0.353 OA
ATOM     29  C   UNL d   1       2.874   1.416  -8.933  0.00  0.00     0.210 C 
ENDBRANCH   8  28
TORSDOF 6
