REMARK  3 active torsions:
REMARK  status: ('A' for Active; 'I' for Inactive)
REMARK    1  A    between atoms: N_2  and  S_1 
REMARK    2  A    between atoms: C_3  and  S_1 
REMARK    3  A    between atoms: C_16  and  C_4 
ROOT
ATOM      1  N   UNL d   1       0.484  -1.241  -1.028  0.00  0.00    -0.203 NA
ATOM      2  C   UNL d   1       0.838  -3.616  -2.681  0.00  0.00    -0.049 C 
ATOM      3  C   UNL d   1       1.141  -2.395  -3.152  0.00  0.00    -0.004 C 
ATOM      4  C   UNL d   1       1.038  -1.109  -2.397  0.00  0.00     0.135 C 
ATOM      5  C   UNL d   1       0.696  -2.583  -0.396  0.00  0.00     0.112 C 
ATOM      6  C   UNL d   1       0.268  -3.741  -1.295  0.00  0.00     0.054 C 
ENDROOT
BRANCH   1   7
ATOM      7  S   UNL d   1       1.029  -0.000   0.040  0.00  0.00     0.243 S 
ATOM      8  O   UNL d   1       2.466  -0.149   0.156  0.00  0.00    -0.206 OA
ATOM      9  O   UNL d   1       0.184  -0.019   1.215  0.00  0.00    -0.206 OA
BRANCH   7  10
ATOM     10  C   UNL d   1       0.716   1.524  -0.820  0.00  0.00     0.075 A 
ATOM     11  C   UNL d   1       1.783   2.404  -1.058  0.00  0.00     0.034 A 
ATOM     12  C   UNL d   1       1.497   3.615  -1.661  0.00  0.00    -0.021 A 
ATOM     13  C   UNL d   1       2.402   4.730  -2.018  0.00  0.00     0.068 C 
ATOM     14  C   UNL d   1       0.205   3.923  -2.056  0.00  0.00     0.075 A 
ATOM     15  C   UNL d   1       1.358   5.795  -2.360  0.00  0.00     0.180 C 
ATOM     16  O   UNL d   1       0.093   5.152  -2.652  0.00  0.00    -0.350 OA
ATOM     17  C   UNL d   1      -0.852   3.055  -1.857  0.00  0.00     0.039 A 
ATOM     18  C   UNL d   1      -0.596   1.841  -1.212  0.00  0.00     0.027 A 
ENDBRANCH   7  10
ENDBRANCH   1   7
BRANCH   2  19
ATOM     19  C   UNL d   1       1.067  -4.842  -3.487  0.00  0.00    -0.030 A 
ATOM     20  C   UNL d   1       2.143  -4.917  -4.391  0.00  0.00     0.012 A 
ATOM     21  C   UNL d   1       2.389  -6.077  -5.133  0.00  0.00     0.001 A 
ATOM     22  C   UNL d   1       1.572  -7.190  -4.973  0.00  0.00     0.000 A 
ATOM     23  C   UNL d   1       0.512  -7.142  -4.071  0.00  0.00     0.001 A 
ATOM     24  C   UNL d   1       0.261  -5.978  -3.336  0.00  0.00     0.012 A 
ENDBRANCH   2  19
TORSDOF 3
