REMARK  2 active torsions:
REMARK  status: ('A' for Active; 'I' for Inactive)
REMARK    1  A    between atoms: N_6  and  C_4 
REMARK    2  A    between atoms: C_12  and  C_9 
ROOT
ATOM      1  N   UNL d   1      -2.552  -1.498  -0.260  0.00  0.00    -0.350 N 
ATOM      2  HN  UNL d   1      -3.373  -1.042  -0.658  1.00  0.00     0.166 HD
ATOM      3  C   UNL d   1      -2.532  -2.741   0.104  0.00  0.00     0.102 C 
ENDROOT
BRANCH   1   4
ATOM      4  C   UNL d   1      -1.331  -0.846  -0.049  0.00  0.00     0.128 A 
ATOM      5  C   UNL d   1      -0.903   0.249  -0.815  0.00  0.00     0.084 A 
ATOM      6  C   UNL d   1       0.284   0.615  -0.226  0.00  0.00     0.076 A 
ATOM      7  O   UNL d   1       0.540  -0.212   0.825  0.00  0.00    -0.241 OA
ATOM      8  C   UNL d   1       1.275   1.675  -0.480  0.00  0.00     0.079 C 
ATOM      9  N   UNL d   1      -0.492  -1.129   0.950  0.00  0.00    -0.245 N 
ATOM     10  HN  UNL d   1      -0.590  -1.862   1.653  1.00  0.00     0.196 HD
ENDBRANCH   1   4
BRANCH   3  11
ATOM     11  C   UNL d   1      -3.735  -3.589   0.039  0.00  0.00    -0.005 A 
ATOM     12  C   UNL d   1      -3.646  -4.918   0.429  0.00  0.00     0.100 A 
ATOM     13  N   UNL d   1      -4.697  -5.773   0.428  0.00  0.00    -0.374 N 
ATOM     14  C   UNL d   1      -5.885  -5.270   0.025  0.00  0.00     0.087 A 
ATOM     15  HN  UNL d   1      -4.597  -6.746   0.717  1.00  0.00     0.164 HD
ATOM     16  C   UNL d   1      -6.070  -3.957  -0.382  0.00  0.00     0.018 A 
ATOM     17  C   UNL d   1      -4.972  -3.100  -0.376  0.00  0.00     0.015 A 
ENDBRANCH   3  11
TORSDOF 2
