REMARK  1 active torsions:
REMARK  status: ('A' for Active; 'I' for Inactive)
REMARK    1  A    between atoms: C_7  and  C_5 
ROOT
ATOM      1  C   UNL d   1      -1.191  -0.737   0.039  0.00  0.00     0.045 A 
ATOM      2  C   UNL d   1      -1.810   0.640   0.070  0.00  0.00     0.257 A 
ATOM      3  N   UNL d   1      -0.733   1.513   0.079  0.00  0.00    -0.322 N 
ATOM      4  C   UNL d   1       0.266  -0.552   0.030  0.00  0.00     0.006 A 
ATOM      5  C   UNL d   1      -1.843  -1.908   0.018  0.00  0.00     0.029 C 
ATOM      6  C   UNL d   1       0.479   0.830   0.052  0.00  0.00     0.046 A 
ATOM      7  O   UNL d   1      -2.987   0.941   0.086  0.00  0.00    -0.267 OA
ATOM      8  C   UNL d   1       1.341  -1.422  -0.008  0.00  0.00     0.015 A 
ATOM      9  C   UNL d   1       1.740   1.391   0.043  0.00  0.00     0.030 A 
ATOM     10  C   UNL d   1       2.631  -0.876  -0.020  0.00  0.00     0.001 A 
ATOM     11  C   UNL d   1       2.829   0.517   0.006  0.00  0.00     0.002 A 
ATOM     12  H   UNL d   1      -0.848   2.514   0.098  0.00  0.00     0.169 HD
ENDROOT
BRANCH   5  13
ATOM     13  C   UNL d   1      -3.300  -2.055  -0.005  0.00  0.00    -0.029 A 
ATOM     14  C   UNL d   1      -3.983  -2.084  -1.226  0.00  0.00     0.053 A 
ATOM     15  C   UNL d   1      -5.366  -2.251  -1.243  0.00  0.00     0.120 A 
ATOM     16  F   UNL d   1      -6.009  -2.291  -2.418  0.00  0.00    -0.206 F 
ATOM     17  C   UNL d   1      -6.088  -2.388  -0.066  0.00  0.00     0.084 A 
ATOM     18  C   UNL d   1      -5.406  -2.344   1.142  0.00  0.00     0.120 A 
ATOM     19  C   UNL d   1      -4.023  -2.179   1.186  0.00  0.00     0.053 A 
ATOM     20  F   UNL d   1      -6.089  -2.476   2.286  0.00  0.00    -0.206 F 
ENDBRANCH   5  13
TORSDOF 1
