REMARK  5 active torsions:
REMARK  status: ('A' for Active; 'I' for Inactive)
REMARK    1  A    between atoms: C_2  and  C_1 
REMARK       I    between atoms: N_3  and  C_2 
REMARK    2  A    between atoms: C_9  and  N_3 
REMARK       I    between atoms: N_8  and  C_5 
REMARK    3  A    between atoms: C_9  and  C_5 
REMARK    4  A    between atoms: C_15  and  N_8 
REMARK    5  A    between atoms: C_18  and  C_15 
ROOT
ATOM      1  C   UNL d   1       0.743  -4.736   1.250  0.00  0.00     0.254 C 
ATOM      2  N   UNL d   1      -0.483  -4.122   1.165  0.00  0.00    -0.344 N 
ATOM      3  O   UNL d   1       1.237  -5.308   0.281  0.00  0.00    -0.268 OA
ATOM      4  H   UNL d   1      -0.865  -3.615   1.960  0.00  0.00     0.163 HD
ENDROOT
BRANCH   2   5
ATOM      5  C   UNL d   1      -1.295  -4.090  -0.056  0.00  0.00     0.172 C 
ATOM      6  C   UNL d   1      -1.800  -5.482  -0.438  0.00  0.00     0.042 C 
BRANCH   5   7
ATOM      7  C   UNL d   1      -2.490  -3.122   0.141  0.00  0.00     0.240 C 
ATOM      8  N   UNL d   1      -3.264  -2.916  -0.987  0.00  0.00    -0.359 N 
ATOM      9  H   UNL d   1      -2.877  -3.175  -1.886  0.00  0.00     0.162 HD
ATOM     10  O   UNL d   1      -2.730  -2.594   1.226  0.00  0.00    -0.271 OA
BRANCH   8  11
ATOM     11  C   UNL d   1      -4.421  -2.033  -0.977  0.00  0.00     0.126 C 
BRANCH  11  12
ATOM     12  C   UNL d   1      -5.471  -2.427  -2.030  0.00  0.00    -0.005 C 
ATOM     13  C   UNL d   1      -6.043  -3.823  -1.768  0.00  0.00     0.011 C 
ATOM     14  C   UNL d   1      -6.611  -1.405  -2.057  0.00  0.00     0.011 C 
ENDBRANCH  11  12
ENDBRANCH   8  11
ENDBRANCH   5   7
ENDBRANCH   2   5
BRANCH   1  15
ATOM     15  C   UNL d   1       1.488  -4.724   2.560  0.00  0.00     0.053 A 
ATOM     16  C   UNL d   1       1.108  -4.065   3.741  0.00  0.00     0.051 A 
ATOM     17  C   UNL d   1       1.898  -4.159   4.900  0.00  0.00     0.048 A 
ATOM     18 CL   UNL d   1      -0.311  -3.090   3.902  0.00  0.00    -0.083 Cl
ATOM     19  C   UNL d   1       3.075  -4.906   4.898  0.00  0.00     0.035 A 
ATOM     20  C   UNL d   1       3.478  -5.559   3.743  0.00  0.00     0.025 A 
ATOM     21 CL   UNL d   1       4.025  -5.016   6.326  0.00  0.00    -0.084 Cl
ATOM     22  C   UNL d   1       2.692  -5.468   2.587  0.00  0.00     0.020 A 
ENDBRANCH   1  15
TORSDOF 5
