REMARK  7 active torsions:
REMARK  status: ('A' for Active; 'I' for Inactive)
REMARK    1  A    between atoms: C_7  and  N_1 
REMARK    2  A    between atoms: C_6  and  C_2 
REMARK    3  A    between atoms: O_14  and  C_2 
REMARK    4  A    between atoms: C_8  and  C_6 
REMARK    5  A    between atoms: N_9  and  C_7 
REMARK    6  A    between atoms: C_13  and  C_8 
REMARK    7  A    between atoms: O_24  and  C_20 
ROOT
ATOM      1  N   UNL d   1      -1.893   0.617   0.471  0.00  0.00    -0.287 N 
ATOM      2  C   UNL d   1      -1.327  -1.645  -0.100  0.00  0.00     0.175 A 
ATOM      3  C   UNL d   1      -2.479  -0.616   0.161  0.00  0.00     0.266 A 
ATOM      4  C   UNL d   1      -0.113  -0.821   0.276  0.00  0.00     0.014 A 
ATOM      5  C   UNL d   1      -0.495   0.500   0.538  0.00  0.00     0.049 A 
ATOM      6  C   UNL d   1       0.452   1.477   0.794  0.00  0.00     0.032 A 
ATOM      7  C   UNL d   1       1.223  -1.199   0.281  0.00  0.00     0.032 A 
ATOM      8  O   UNL d   1      -3.670  -0.892   0.146  0.00  0.00    -0.269 OA
ATOM      9  C   UNL d   1       2.182  -0.216   0.529  0.00  0.00     0.011 A 
ATOM     10  C   UNL d   1       1.804   1.111   0.784  0.00  0.00     0.021 A 
ATOM     11 BR   UNL d   1       4.016  -0.671   0.480  0.00  0.00    -0.051 Br
ENDROOT
BRANCH   2  12
ATOM     12  C   UNL d   1      -1.196  -2.028  -1.576  0.00  0.00     0.137 C 
BRANCH  12  13
ATOM     13  C   UNL d   1      -2.432  -2.683  -2.148  0.00  0.00     0.163 C 
ATOM     14  O   UNL d   1      -3.393  -1.994  -2.489  0.00  0.00    -0.292 OA
BRANCH  13  15
ATOM     15  C   UNL d   1      -2.465  -4.153  -2.418  0.00  0.00     0.010 A 
ATOM     16  C   UNL d   1      -1.486  -5.044  -1.971  0.00  0.00     0.018 A 
ATOM     17  C   UNL d   1      -1.529  -6.387  -2.368  0.00  0.00     0.037 A 
ATOM     18  C   UNL d   1      -2.548  -6.858  -3.201  0.00  0.00     0.068 A 
ATOM     19  C   UNL d   1      -3.562  -5.990  -3.591  0.00  0.00     0.037 A 
ATOM     20  C   UNL d   1      -3.518  -4.645  -3.205  0.00  0.00     0.018 A 
BRANCH  18  21
ATOM     21  O   UNL d   1      -2.439  -8.174  -3.561  0.00  0.00    -0.356 OA
ATOM     22  C   UNL d   1      -3.285  -8.616  -4.618  0.00  0.00     0.210 C 
ENDBRANCH  18  21
ENDBRANCH  13  15
ENDBRANCH  12  13
ENDBRANCH   2  12
BRANCH   2  23
ATOM     23  O   UNL d   1      -1.380  -2.800   0.719  0.00  0.00    -0.375 OA
ATOM     24  H   UNL d   1      -2.329  -2.979   0.869  0.00  0.00     0.211 HD
ENDBRANCH   2  23
BRANCH   1  25
ATOM     25  C   UNL d   1      -2.628   1.861   0.523  0.00  0.00     0.405 C 
BRANCH  25  26
ATOM     26  N   UNL d   1      -3.251   2.175   1.810  0.00  0.00     0.106 N 
ATOM     27  C   UNL d   1      -2.323   2.262   2.935  0.00  0.00     0.274 C 
ATOM     28  C   UNL d   1      -3.025   2.772   4.199  0.00  0.00     0.030 C 
ATOM     29  C   UNL d   1      -4.247   1.926   4.537  0.00  0.00     0.003 C 
ATOM     30  C   UNL d   1      -5.175   1.855   3.332  0.00  0.00     0.030 C 
ATOM     31  C   UNL d   1      -4.425   1.348   2.099  0.00  0.00     0.274 C 
ENDBRANCH  25  26
ENDBRANCH   1  25
TORSDOF 7
