REMARK  5 active torsions:
REMARK  status: ('A' for Active; 'I' for Inactive)
REMARK    1  A    between atoms: C_26  and  N_1 
REMARK    2  A    between atoms: S_13  and  C_2 
REMARK    3  A    between atoms: C_22  and  C_5 
REMARK    4  A    between atoms: C_14  and  S_13 
REMARK    5  A    between atoms: C_27  and  C_26 
ROOT
ATOM      1  C   UNL d   1       3.165  -6.407  -0.202  0.00  0.00     0.068 A 
ATOM      2  C   UNL d   1       2.546  -8.788   0.028  0.00  0.00     0.088 A 
ATOM      3  C   UNL d   1       3.878  -8.593   0.372  0.00  0.00     0.032 A 
ATOM      4  S   UNL d   1       1.783  -7.373  -0.522  0.00  0.00    -0.066 SA
ATOM      5  C   UNL d   1       4.191  -7.182   0.341  0.00  0.00     0.067 A 
ATOM      6  C   UNL d   1       3.403  -5.047  -0.422  0.00  0.00     0.098 A 
ATOM      7  N   UNL d   1       1.862  -9.950   0.053  0.00  0.00    -0.354 N 
ATOM      8  HN  UNL d   1       0.877 -10.012  -0.204  1.00  0.00     0.166 HD
ATOM      9  C   UNL d   1       4.634  -9.759   0.678  0.00  0.00    -0.045 A 
ATOM     10  N   UNL d   1       4.567  -4.504   0.001  0.00  0.00    -0.345 N 
ATOM     11  HN  UNL d   1       4.756  -3.508  -0.115  1.00  0.00     0.167 HD
ATOM     12  N   UNL d   1       5.367  -6.633   0.745  0.00  0.00    -0.350 N 
ATOM     13  HN  UNL d   1       6.123  -7.189   1.146  1.00  0.00     0.166 HD
ATOM     14  C   UNL d   1       5.462  -5.314   0.577  0.00  0.00     0.181 A 
ATOM     15  C   UNL d   1       3.936 -10.979   0.727  0.00  0.00     0.032 A 
ATOM     16  C   UNL d   1       2.577 -11.021   0.442  0.00  0.00     0.006 A 
ATOM     17  C   UNL d   1       6.117  -9.784   0.928  0.00  0.00     0.049 C 
ATOM     18  C   UNL d   1       1.843 -12.327   0.547  0.00  0.00     0.068 C 
ENDROOT
BRANCH   6  19
ATOM     19  S   UNL d   1       2.439  -4.113  -1.570  0.00  0.00    -0.033 SA
BRANCH  19  20
ATOM     20  C   UNL d   1       1.519  -3.092  -0.522  0.00  0.00     0.169 C 
ATOM     21  N   UNL d   1       1.690  -1.731  -0.453  0.00  0.00    -0.307 N 
ATOM     22  C   UNL d   1       0.425  -1.220  -0.214  0.00  0.00     0.135 C 
ATOM     23  N   UNL d   1      -0.352  -2.230   0.145  0.00  0.00    -0.283 N 
ATOM     24  N   UNL d   1       0.336  -3.405  -0.046  0.00  0.00    -0.278 N 
ATOM     25  HN  UNL d   1      -1.303  -2.149   0.504  1.00  0.00     0.188 HD
ATOM     26  HN  UNL d   1      -0.009  -4.345   0.146  1.00  0.00     0.189 HD
BRANCH  21  27
ATOM     27  C   UNL d   1       2.916  -0.987  -0.675  0.00  0.00     0.159 C 
BRANCH  27  28
ATOM     28  C   UNL d   1       3.495  -0.474   0.619  0.00  0.00    -0.017 C 
ATOM     29  C   UNL d   1       4.054   0.735   0.774  0.00  0.00     0.008 C 
ENDBRANCH  27  28
ENDBRANCH  21  27
BRANCH  22  30
ATOM     30  C   UNL d   1      -0.047   0.131  -0.514  0.00  0.00     0.010 A 
ATOM     31  C   UNL d   1      -1.086   0.284  -1.451  0.00  0.00     0.017 A 
ATOM     32  C   UNL d   1      -1.558   1.552  -1.805  0.00  0.00     0.025 A 
ATOM     33  C   UNL d   1      -0.999   2.682  -1.218  0.00  0.00     0.034 A 
ATOM     34  C   UNL d   1       0.015   2.549  -0.272  0.00  0.00     0.025 A 
ATOM     35 CL   UNL d   1      -1.566   4.245  -1.658  0.00  0.00    -0.084 Cl
ATOM     36  C   UNL d   1       0.480   1.279   0.088  0.00  0.00     0.017 A 
ENDBRANCH  22  30
ENDBRANCH  19  20
ENDBRANCH   6  19
TORSDOF 5
