REMARK  9 active torsions:
REMARK  status: ('A' for Active; 'I' for Inactive)
REMARK    1  A    between atoms: N_4  and  C_1 
REMARK    2  A    between atoms: N_8  and  C_1 
REMARK       I    between atoms: C_2  and  N_9 
REMARK    3  A    between atoms: O_5  and  C_2 
REMARK    4  A    between atoms: C_10  and  N_4 
REMARK    5  A    between atoms: C_7  and  O_5 
REMARK    6  A    between atoms: C_11  and  N_8 
REMARK    7  A    between atoms: N_9  and  C_12 
REMARK    8  A    between atoms: C_16  and  C_10 
REMARK    9  A    between atoms: C_12  and  C_11 
ROOT
ATOM      1  C   UNL d   1       2.940  -1.388  -0.678  0.00  0.00     0.141 C 
ENDROOT
BRANCH   1   2
ATOM      2  N   UNL d   1       2.101  -0.335  -0.107  0.00  0.00    -0.366 N 
ATOM      3  H   UNL d   1       1.887  -0.456   0.872  0.00  0.00     0.161 HD
BRANCH   2   4
ATOM      4  C   UNL d   1       1.589   0.770  -0.751  0.00  0.00     0.167 C 
ATOM      5  S   UNL d   1       1.857   1.146  -2.357  0.00  0.00    -0.041 SA
BRANCH   4   6
ATOM      6  N   UNL d   1       0.806   1.518   0.109  0.00  0.00    -0.367 N 
ATOM      7  H   UNL d   1       0.751   1.194   1.062  0.00  0.00     0.161 HD
BRANCH   6   8
ATOM      8  C   UNL d   1      -0.205   2.484  -0.312  0.00  0.00     0.126 C 
BRANCH   8   9
ATOM      9  C   UNL d   1      -0.859   3.260   0.842  0.00  0.00    -0.005 C 
ATOM     10  C   UNL d   1      -1.590   2.349   1.828  0.00  0.00     0.011 C 
ATOM     11  C   UNL d   1       0.150   4.150   1.566  0.00  0.00     0.011 C 
ENDBRANCH   8   9
ENDBRANCH   6   8
ENDBRANCH   4   6
ENDBRANCH   2   4
ENDBRANCH   1   2
BRANCH   1  12
ATOM     12  C   UNL d   1       4.433  -1.116  -0.494  0.00  0.00     0.144 C 
BRANCH  12  13
ATOM     13  N   UNL d   1       4.814  -0.988   0.902  0.00  0.00    -0.335 N 
ATOM     14  C   UNL d   1       4.860  -2.043   1.768  0.00  0.00     0.361 C 
ATOM     15  O   UNL d   1       4.559  -3.184   1.479  0.00  0.00    -0.238 OA
ATOM     16  H   UNL d   1       5.148  -0.101   1.254  0.00  0.00     0.164 HD
BRANCH  14  17
ATOM     17  O   UNL d   1       5.290  -1.605   2.970  0.00  0.00    -0.294 OA
BRANCH  17  18
ATOM     18  C   UNL d   1       5.524  -2.542   4.053  0.00  0.00     0.061 C 
ATOM     19  C   UNL d   1       6.555  -3.608   3.653  0.00  0.00     0.046 C 
ATOM     20  C   UNL d   1       6.093  -1.680   5.194  0.00  0.00     0.046 C 
ATOM     21  C   UNL d   1       4.210  -3.179   4.525  0.00  0.00     0.046 C 
ENDBRANCH  17  18
ENDBRANCH  14  17
ENDBRANCH  12  13
ENDBRANCH   1  12
TORSDOF 9
