REMARK  4 active torsions:
REMARK  status: ('A' for Active; 'I' for Inactive)
REMARK    1  A    between atoms: C_8  and  C_1 
REMARK    2  A    between atoms: C_6  and  C_4 
REMARK    3  A    between atoms: O_15  and  C_8 
REMARK    4  A    between atoms: C_18  and  O_15 
ROOT
ATOM      1  C   UNL d   1      -1.148  -1.514  -0.002  0.00  0.00     0.054 A 
ATOM      2  N   UNL d   1      -1.204   1.256  -0.073  0.00  0.00    -0.354 N 
ATOM      3  HN  UNL d   1      -1.226   2.275  -0.124  1.00  0.00     0.166 HD
ATOM      4  C   UNL d   1      -2.356   0.551  -0.032  0.00  0.00     0.051 A 
ATOM      5  C   UNL d   1      -2.368  -0.828  -0.002  0.00  0.00     0.049 A 
ATOM      6  C   UNL d   1       0.079  -0.801  -0.007  0.00  0.00     0.007 A 
ATOM      7  C   UNL d   1      -0.030   0.606  -0.047  0.00  0.00     0.043 A 
ATOM      8  C   UNL d   1       1.384  -1.366   0.045  0.00  0.00     0.015 A 
ATOM      9  C   UNL d   1       1.124   1.378  -0.051  0.00  0.00     0.030 A 
ATOM     10  C   UNL d   1       2.529  -0.567   0.029  0.00  0.00     0.001 A 
ATOM     11  C   UNL d   1       2.397   0.810  -0.017  0.00  0.00     0.002 A 
ENDROOT
BRANCH   1  12
ATOM     12  C   UNL d   1      -1.283  -2.992   0.041  0.00  0.00     0.294 C 
ATOM     13  O   UNL d   1      -2.224  -3.546   0.590  0.00  0.00    -0.259 OA
BRANCH  12  14
ATOM     14  O   UNL d   1      -0.305  -3.611  -0.662  0.00  0.00    -0.318 OA
BRANCH  14  15
ATOM     15  C   UNL d   1      -0.384  -5.045  -0.691  0.00  0.00     0.174 C 
ATOM     16  C   UNL d   1       0.130  -5.640   0.609  0.00  0.00     0.034 C 
ENDBRANCH  14  15
ENDBRANCH  12  14
ENDBRANCH   1  12
BRANCH   4  17
ATOM     17  C   UNL d   1      -3.573   1.373  -0.058  0.00  0.00     0.031 A 
ATOM     18  S   UNL d   1      -5.041   0.824   0.653  0.00  0.00    -0.100 SA
ATOM     19  C   UNL d   1      -5.880   2.242   0.206  0.00  0.00     0.050 A 
ATOM     20  C   UNL d   1      -5.069   3.135  -0.454  0.00  0.00     0.008 A 
ATOM     21  C   UNL d   1      -3.739   2.640  -0.591  0.00  0.00     0.021 A 
ENDBRANCH   4  17
TORSDOF 4
