REMARK  3 active torsions:
REMARK  status: ('A' for Active; 'I' for Inactive)
REMARK    1  A    between atoms: C_2  and  C_1 
REMARK    2  A    between atoms: N_6  and  C_3 
REMARK       I    between atoms: C_8  and  N_6 
REMARK       I    between atoms: N_11  and  C_8 
REMARK    3  A    between atoms: C_13  and  N_11 
ROOT
ATOM      1  C   UNL d   1      -4.145  -1.101   0.272  0.00  0.00     0.032 A 
ATOM      2  C   UNL d   1      -4.472  -1.107  -1.077  0.00  0.00     0.090 A 
ATOM      3  S   UNL d   1      -5.861  -2.062  -1.369  0.00  0.00    -0.083 SA
ATOM      4  C   UNL d   1      -5.067  -1.891   1.042  0.00  0.00     0.024 A 
ATOM      5  C   UNL d   1      -6.050  -2.461   0.270  0.00  0.00     0.053 A 
ENDROOT
BRANCH   2   6
ATOM      6  N   UNL d   1      -3.773  -0.528  -2.130  0.00  0.00    -0.302 N 
ATOM      7  C   UNL d   1      -4.036  -0.530  -3.482  0.00  0.00     0.325 C 
ATOM      8  N   UNL d   1      -5.350  -0.633  -3.847  0.00  0.00    -0.306 N 
ATOM      9  O   UNL d   1      -3.107  -0.369  -4.272  0.00  0.00    -0.247 OA
ATOM     10  H   UNL d   1      -6.014  -0.419  -3.112  0.00  0.00     0.171 HD
ATOM     11  H   UNL d   1      -2.840  -0.194  -1.897  0.00  0.00     0.171 HD
BRANCH   8  12
ATOM     12  C   UNL d   1      -5.900  -0.891  -5.116  0.00  0.00     0.075 A 
ATOM     13  C   UNL d   1      -7.287  -0.723  -5.262  0.00  0.00     0.146 A 
ATOM     14  C   UNL d   1      -7.937  -1.003  -6.458  0.00  0.00     0.086 A 
ATOM     15  F   UNL d   1      -8.012  -0.281  -4.222  0.00  0.00    -0.204 F 
ATOM     16  C   UNL d   1      -7.189  -1.476  -7.524  0.00  0.00     0.119 A 
ATOM     17  C   UNL d   1      -5.813  -1.663  -7.408  0.00  0.00     0.044 A 
ATOM     18  F   UNL d   1      -7.800  -1.767  -8.680  0.00  0.00    -0.206 F 
ATOM     19  C   UNL d   1      -5.164  -1.364  -6.203  0.00  0.00     0.036 A 
ENDBRANCH   8  12
ENDBRANCH   2   6
BRANCH   1  20
ATOM     20  C   UNL d   1      -2.975  -0.359   0.880  0.00  0.00     0.088 A 
ATOM     21  N   UNL d   1      -2.187   0.435   0.182  0.00  0.00    -0.349 N 
ATOM     22  C   UNL d   1      -1.254   1.036   1.028  0.00  0.00     0.050 A 
ATOM     23  HN  UNL d   1      -2.250   0.588  -0.824  1.00  0.00     0.166 HD
ATOM     24  C   UNL d   1      -0.280   1.988   0.663  0.00  0.00     0.031 A 
ATOM     25  C   UNL d   1      -1.319   0.643   2.366  0.00  0.00     0.033 A 
ATOM     26  C   UNL d   1       0.588   2.511   1.632  0.00  0.00     0.002 A 
ATOM     27  C   UNL d   1       0.505   2.093   2.956  0.00  0.00     0.002 A 
ATOM     28  C   UNL d   1      -0.448   1.150   3.345  0.00  0.00     0.021 A 
ATOM     29  S   UNL d   1      -2.591  -0.488   2.553  0.00  0.00    -0.069 SA
ENDBRANCH   1  20
TORSDOF 3
