REMARK  2 active torsions:
REMARK  status: ('A' for Active; 'I' for Inactive)
REMARK    1  A    between atoms: C_8  and  C_1 
REMARK    2  A    between atoms: C_10  and  C_8 
ROOT
ATOM      1  C   UNL d   1       0.631   1.257  -0.041  0.00  0.00     0.017 A 
ATOM      2  N   UNL d   1       0.269  -0.738  -1.384  0.00  0.00    -0.266 N 
ATOM      3  C   UNL d   1       0.892   0.482  -1.283  0.00  0.00     0.266 A 
ATOM      4  N   UNL d   1      -0.523  -1.319  -0.438  0.00  0.00    -0.302 N 
ATOM      5  HN  UNL d   1      -0.921  -2.249  -0.566  1.00  0.00     0.186 HD
ATOM      6  C   UNL d   1      -0.210   0.733   0.864  0.00  0.00     0.039 A 
ATOM      7  C   UNL d   1      -0.742  -0.624   0.633  0.00  0.00     0.022 A 
ATOM      8  O   UNL d   1       1.624   0.916  -2.168  0.00  0.00    -0.266 OA
ATOM      9  C   UNL d   1      -1.557  -1.222   1.749  0.00  0.00     0.070 C 
ATOM     10  H   UNL d   1       0.446  -1.282  -2.222  0.00  0.00     0.190 HD
ENDROOT
BRANCH   1  11
ATOM     11  C   UNL d   1       1.357   2.574   0.079  0.00  0.00     0.083 C 
BRANCH  11  12
ATOM     12  C   UNL d   1       1.039   3.368   1.330  0.00  0.00    -0.054 A 
ATOM     13  C   UNL d   1       1.707   3.103   2.534  0.00  0.00     0.008 A 
ATOM     14  C   UNL d   1       1.353   3.780   3.704  0.00  0.00     0.007 A 
ATOM     15  C   UNL d   1       0.333   4.738   3.689  0.00  0.00    -0.062 A 
ATOM     16  C   UNL d   1      -0.333   5.004   2.487  0.00  0.00     0.007 A 
ATOM     17  C   UNL d   1      -0.040   5.457   4.952  0.00  0.00     0.048 C 
ATOM     18  C   UNL d   1       0.015   4.324   1.318  0.00  0.00     0.008 A 
ENDBRANCH  11  12
ENDBRANCH   1  11
TORSDOF 2
