REMARK  1 active torsions:
REMARK  status: ('A' for Active; 'I' for Inactive)
REMARK    1  A    between atoms: C_8  and  C_4 
ROOT
ATOM      1  N   UNL d   1       2.431  -0.699  -0.067  0.00  0.00    -0.302 N 
ATOM      2  HN  UNL d   1       3.335  -1.171  -0.092  1.00  0.00     0.171 HD
ATOM      3  C   UNL d   1       1.278  -1.430  -0.042  0.00  0.00     0.260 A 
ATOM      4  C   UNL d   1       2.376   0.591  -0.058  0.00  0.00     0.161 A 
ATOM      5  C   UNL d   1      -0.005  -0.718  -0.038  0.00  0.00     0.066 A 
ATOM      6  O   UNL d   1       1.235   1.367  -0.045  0.00  0.00    -0.292 OA
ATOM      7  C   UNL d   1       0.029   0.667  -0.042  0.00  0.00     0.093 A 
ATOM      8  O   UNL d   1       1.272  -2.657  -0.019  0.00  0.00    -0.267 OA
ATOM      9  C   UNL d   1      -1.230  -1.391  -0.030  0.00  0.00     0.020 A 
ATOM     10  C   UNL d   1      -1.152   1.406  -0.043  0.00  0.00     0.038 A 
ATOM     11  C   UNL d   1      -2.418  -0.659  -0.035  0.00  0.00     0.001 A 
ATOM     12  C   UNL d   1      -2.378   0.738  -0.042  0.00  0.00     0.003 A 
ENDROOT
BRANCH   4  13
ATOM     13  C   UNL d   1       3.598   1.439  -0.044  0.00  0.00     0.015 A 
ATOM     14  C   UNL d   1       4.842   0.817  -0.215  0.00  0.00     0.016 A 
ATOM     15  C   UNL d   1       6.023   1.557  -0.118  0.00  0.00     0.007 A 
ATOM     16  C   UNL d   1       5.978   2.929   0.152  0.00  0.00    -0.062 A 
ATOM     17  C   UNL d   1       4.735   3.557   0.287  0.00  0.00     0.007 A 
ATOM     18  C   UNL d   1       7.257   3.692   0.336  0.00  0.00     0.048 C 
ATOM     19  C   UNL d   1       3.550   2.819   0.188  0.00  0.00     0.016 A 
ENDBRANCH   4  13
TORSDOF 1
