REMARK  3 active torsions:
REMARK  status: ('A' for Active; 'I' for Inactive)
REMARK    1  A    between atoms: C_5  and  C_1 
REMARK    2  A    between atoms: O_9  and  C_5 
REMARK    3  A    between atoms: C_10  and  O_9 
ROOT
ATOM      1  C   UNL d   1       1.214  -0.842   0.014  0.00  0.00     0.128 A 
ATOM      2  N   UNL d   1      -0.988  -0.469   0.312  0.00  0.00    -0.061 NA
ATOM      3  N   UNL d   1      -0.060  -1.395   0.142  0.00  0.00    -0.287 N 
ATOM      4  HN  UNL d   1      -0.253  -2.396   0.108  1.00  0.00     0.183 HD
ATOM      5  S   UNL d   1      -0.366   1.082   0.328  0.00  0.00    -0.010 SA
ATOM      6  C   UNL d   1       1.244   0.542   0.102  0.00  0.00     0.102 A 
ENDROOT
BRANCH   1   7
ATOM      7  C   UNL d   1       2.391  -1.665  -0.219  0.00  0.00     0.311 C 
ATOM      8  O   UNL d   1       3.513  -1.198  -0.385  0.00  0.00    -0.258 OA
BRANCH   7   9
ATOM      9  O   UNL d   1       2.093  -2.996  -0.269  0.00  0.00    -0.317 OA
BRANCH   9  10
ATOM     10  C   UNL d   1       3.161  -3.870  -0.659  0.00  0.00     0.175 C 
ATOM     11  C   UNL d   1       3.178  -3.990  -2.172  0.00  0.00     0.034 C 
ENDBRANCH   9  10
ENDBRANCH   7   9
ENDBRANCH   1   7
TORSDOF 3
