REMARK  2 active torsions:
REMARK  status: ('A' for Active; 'I' for Inactive)
REMARK    1  A    between atoms: C_8  and  C_3 
REMARK    2  A    between atoms: C_10  and  C_7 
ROOT
ATOM      1  N   UNL d   1      -0.793   0.036   0.003  0.00  0.00    -0.331 N 
ATOM      2  HN  UNL d   1      -1.779  -0.225   0.006  1.00  0.00     0.168 HD
ATOM      3  C   UNL d   1      -0.271   1.220  -0.008  0.00  0.00     0.162 A 
ATOM      4  C   UNL d   1       0.307  -0.778   0.008  0.00  0.00     0.111 A 
ATOM      5  O   UNL d   1       1.081   1.311  -0.023  0.00  0.00    -0.256 OA
ATOM      6  C   UNL d   1       1.551   0.032  -0.011  0.00  0.00     0.316 A 
ATOM      7  C   UNL d   1       0.324  -2.116   0.031  0.00  0.00     0.047 C 
ATOM      8  O   UNL d   1       2.711  -0.329  -0.017  0.00  0.00    -0.257 OA
ENDROOT
BRANCH   7   9
ATOM      9  C   UNL d   1      -0.903  -2.911   0.011  0.00  0.00    -0.034 A 
ATOM     10  C   UNL d   1      -1.470  -3.278  -1.213  0.00  0.00     0.012 A 
ATOM     11  C   UNL d   1      -2.667  -3.997  -1.247  0.00  0.00     0.007 A 
ATOM     12  C   UNL d   1      -3.312  -4.358  -0.058  0.00  0.00    -0.062 A 
ATOM     13  C   UNL d   1      -2.738  -3.994   1.166  0.00  0.00     0.007 A 
ATOM     14  C   UNL d   1      -4.610  -5.106  -0.114  0.00  0.00     0.048 C 
ATOM     15  C   UNL d   1      -1.541  -3.274   1.201  0.00  0.00     0.012 A 
ENDBRANCH   7   9
BRANCH   3  16
ATOM     16  C   UNL d   1      -1.000   2.496   0.020  0.00  0.00     0.015 A 
ATOM     17  C   UNL d   1      -2.398   2.469   0.101  0.00  0.00     0.016 A 
ATOM     18  C   UNL d   1      -3.118   3.662   0.178  0.00  0.00     0.001 A 
ATOM     19  C   UNL d   1      -2.446   4.883   0.170  0.00  0.00     0.000 A 
ATOM     20  C   UNL d   1      -1.054   4.915   0.075  0.00  0.00     0.001 A 
ATOM     21  C   UNL d   1      -0.329   3.724  -0.001  0.00  0.00     0.016 A 
ENDBRANCH   3  16
TORSDOF 2
