REMARK  4 active torsions:
REMARK  status: ('A' for Active; 'I' for Inactive)
REMARK    1  A    between atoms: O_11  and  C_3 
REMARK    2  A    between atoms: S_9  and  C_4 
REMARK    3  A    between atoms: C_13  and  C_5 
REMARK    4  A    between atoms: C_10  and  C_13 
ROOT
ATOM      1  N   UNL d   1      -0.632   1.282   0.017  0.00  0.00    -0.317 N 
ATOM      2  HN  UNL d   1      -1.108   2.184   0.018  1.00  0.00     0.170 HD
ATOM      3  C   UNL d   1      -1.289   0.117   0.007  0.00  0.00     0.150 A 
ATOM      4  C   UNL d   1       0.702   1.169   0.026  0.00  0.00     0.143 A 
ATOM      5  C   UNL d   1      -0.722  -1.140   0.001  0.00  0.00     0.018 A 
ATOM      6  N   UNL d   1       1.382   0.014   0.032  0.00  0.00    -0.340 N 
ATOM      7  HN  UNL d   1       2.402   0.001   0.042  1.00  0.00     0.167 HD
ATOM      8  C   UNL d   1       0.665  -1.133   0.022  0.00  0.00     0.018 A 
ATOM      9  C   UNL d   1       1.472  -2.399   0.025  0.00  0.00     0.069 C 
ENDROOT
BRANCH   5  10
ATOM     10  C   UNL d   1      -1.553  -2.391  -0.022  0.00  0.00     0.071 C 
BRANCH  10  11
ATOM     11  C   UNL d   1      -1.886  -3.023   1.305  0.00  0.00    -0.032 C 
ATOM     12  C   UNL d   1      -1.609  -2.571   2.535  0.00  0.00     0.007 C 
ENDBRANCH  10  11
ENDBRANCH   5  10
BRANCH   3  13
ATOM     13  O   UNL d   1      -2.639   0.276  -0.012  0.00  0.00    -0.346 OA
ATOM     14  H   UNL d   1      -2.709   1.247   0.003  0.00  0.00     0.219 HD
ENDBRANCH   3  13
BRANCH   4  15
ATOM     15  S   UNL d   1       1.633   2.671   0.020  0.00  0.00    -0.107 SA
ATOM     16  H   UNL d   1       0.548   3.452   0.006  0.00  0.00     0.110 HD
ENDBRANCH   4  15
TORSDOF 4
