REMARK  8 active torsions:
REMARK  status: ('A' for Active; 'I' for Inactive)
REMARK    1  A    between atoms: C_14  and  N_7 
REMARK    2  A    between atoms: N_16  and  C_10 
REMARK    3  A    between atoms: O_27  and  C_11 
REMARK    4  A    between atoms: O_28  and  C_12 
REMARK    5  A    between atoms: O_29  and  C_13 
REMARK    6  A    between atoms: C_26  and  C_14 
REMARK    7  A    between atoms: N_18  and  N_16 
REMARK    8  A    between atoms: C_22  and  C_25 
ROOT
ATOM      1  C   UNL d   1      -0.240  -0.861   0.018  0.00  0.00     0.160 A 
ATOM      2  C   UNL d   1      -0.548   0.465   0.018  0.00  0.00     0.165 A 
ATOM      3  N   UNL d   1      -1.341  -1.639  -0.002  0.00  0.00    -0.172 N 
ATOM      4  HN  UNL d   1      -1.371  -2.658  -0.021  1.00  0.00     0.186 HD
ATOM      5  N   UNL d   1       1.050  -1.322   0.009  0.00  0.00    -0.287 N 
ATOM      6  N   UNL d   1       1.768   0.952   0.003  0.00  0.00    -0.269 N 
ATOM      7  N   UNL d   1      -1.930   0.507   0.057  0.00  0.00    -0.168 N 
ATOM      8  C   UNL d   1       2.103  -0.412   0.013  0.00  0.00     0.332 A 
ATOM      9  C   UNL d   1       0.467   1.468  -0.031  0.00  0.00     0.282 A 
ATOM     10  C   UNL d   1      -2.372  -0.814   0.007  0.00  0.00     0.701 A 
ATOM     11  O   UNL d   1       3.276  -0.797   0.019  0.00  0.00    -0.246 OA
ATOM     12  O   UNL d   1       0.226   2.672  -0.115  0.00  0.00    -0.265 OA
ATOM     13  C   UNL d   1       1.346  -2.741   0.005  0.00  0.00     0.163 C 
ATOM     14  C   UNL d   1       2.853   1.917  -0.008  0.00  0.00     0.164 C 
ENDROOT
BRANCH  10  15
ATOM     15  N   UNL d   1      -3.674  -1.213  -0.046  0.00  0.00    -0.132 N 
ATOM     16  H   UNL d   1      -4.434  -0.551   0.058  0.00  0.00     0.205 HD
BRANCH  15  17
ATOM     17  N   UNL d   1      -3.961  -2.380  -0.707  0.00  0.00    -0.297 N 
ATOM     18  C   UNL d   1      -4.905  -3.128  -0.233  0.00  0.00     0.119 C 
ATOM     19  HN  UNL d   1      -3.446  -2.650  -1.546  1.00  0.00     0.186 HD
BRANCH  18  20
ATOM     20  C   UNL d   1      -5.217  -4.438  -0.865  0.00  0.00    -0.014 A 
ATOM     21  C   UNL d   1      -4.463  -4.885  -1.951  0.00  0.00     0.052 A 
ATOM     22  C   UNL d   1      -4.731  -6.117  -2.569  0.00  0.00     0.105 A 
ATOM     23  C   UNL d   1      -5.761  -6.957  -2.069  0.00  0.00     0.135 A 
ATOM     24  C   UNL d   1      -6.516  -6.498  -0.959  0.00  0.00     0.105 A 
ATOM     25  C   UNL d   1      -6.234  -5.244  -0.376  0.00  0.00     0.052 A 
BRANCH  22  26
ATOM     26  O   UNL d   1      -3.955  -6.545  -3.619  0.00  0.00    -0.353 OA
ATOM     27  C   UNL d   1      -3.388  -5.538  -4.457  0.00  0.00     0.210 C 
ENDBRANCH  22  26
BRANCH  23  28
ATOM     28  O   UNL d   1      -6.101  -8.191  -2.569  0.00  0.00    -0.351 OA
ATOM     29  C   UNL d   1      -5.359  -8.753  -3.644  0.00  0.00     0.210 C 
ENDBRANCH  23  28
BRANCH  24  30
ATOM     30  O   UNL d   1      -7.544  -7.112  -0.287  0.00  0.00    -0.353 OA
ATOM     31  C   UNL d   1      -8.094  -8.336  -0.744  0.00  0.00     0.210 C 
ENDBRANCH  24  30
ENDBRANCH  18  20
ENDBRANCH  15  17
ENDBRANCH  10  15
BRANCH   7  32
ATOM     32  C   UNL d   1      -2.737   1.720  -0.001  0.00  0.00     0.186 C 
BRANCH  32  33
ATOM     33  C   UNL d   1      -3.062   2.260   1.375  0.00  0.00    -0.039 A 
ATOM     34  C   UNL d   1      -2.171   3.113   2.049  0.00  0.00     0.010 A 
ATOM     35  C   UNL d   1      -2.441   3.555   3.347  0.00  0.00     0.019 A 
ATOM     36  C   UNL d   1      -3.616   3.163   3.978  0.00  0.00     0.011 A 
ATOM     37  C   UNL d   1      -4.535   2.358   3.310  0.00  0.00     0.019 A 
ATOM     38 BR   UNL d   1      -3.960   3.713   5.752  0.00  0.00    -0.051 Br
ATOM     39  C   UNL d   1      -4.260   1.911   2.014  0.00  0.00     0.010 A 
ENDBRANCH  32  33
ENDBRANCH   7  32
TORSDOF 8
