REMARK  4 active torsions:
REMARK  status: ('A' for Active; 'I' for Inactive)
REMARK    1  A    between atoms: C_10  and  C_2 
REMARK       I    between atoms: C_5  and  N_8 
REMARK    2  A    between atoms: C_9  and  C_5 
REMARK    3  A    between atoms: N_8  and  N_11 
REMARK    4  A    between atoms: N_11  and  C_16 
ROOT
ATOM      1  N   UNL d   1       6.167  -3.848  -0.599  0.00  0.00    -0.203 NA
ATOM      2  H   UNL d   1       6.760  -3.978   0.231  0.00  0.00     0.153 HD
ENDROOT
BRANCH   1   3
ATOM      3  N   UNL d   1       6.122  -5.048  -1.337  0.00  0.00    -0.283 N 
ATOM      4  C   UNL d   1       7.065  -6.017  -1.006  0.00  0.00     0.266 C 
ATOM      5  O   UNL d   1       7.830  -5.899  -0.054  0.00  0.00    -0.266 OA
ATOM      6  H   UNL d   1       5.775  -4.981  -2.288  0.00  0.00     0.184 HD
BRANCH   4   7
ATOM      7  C   UNL d   1       7.053  -7.238  -1.869  0.00  0.00     0.039 A 
ATOM      8  C   UNL d   1       8.222  -7.921  -2.261  0.00  0.00    -0.046 A 
ATOM      9  C   UNL d   1       9.620  -7.452  -1.962  0.00  0.00     0.049 C 
ATOM     10  C   UNL d   1       8.090  -9.081  -3.052  0.00  0.00     0.007 A 
ATOM     11  C   UNL d   1       6.837  -9.573  -3.414  0.00  0.00     0.001 A 
ATOM     12  C   UNL d   1       5.687  -8.909  -3.005  0.00  0.00     0.001 A 
ATOM     13  C   UNL d   1       5.793  -7.750  -2.237  0.00  0.00     0.017 A 
ENDBRANCH   4   7
ENDBRANCH   1   3
BRANCH   1  14
ATOM     14  C   UNL d   1       4.896  -3.319  -0.254  0.00  0.00     0.027 A 
ATOM     15  C   UNL d   1       4.770  -2.565   0.922  0.00  0.00     0.026 A 
ATOM     16  C   UNL d   1       3.575  -1.901   1.244  0.00  0.00     0.015 A 
ATOM     17  C   UNL d   1       2.478  -1.945   0.375  0.00  0.00    -0.008 A 
ATOM     18  C   UNL d   1       2.600  -2.692  -0.804  0.00  0.00     0.015 A 
ATOM     19  C   UNL d   1       3.796  -3.356  -1.119  0.00  0.00     0.026 A 
BRANCH  17  20
ATOM     20  C   UNL d   1       1.238  -1.223   0.650  0.00  0.00     0.063 A 
ATOM     21  N   UNL d   1       0.030  -1.626   0.088  0.00  0.00    -0.292 N 
ATOM     22  N   UNL d   1      -0.969  -0.832   0.433  0.00  0.00    -0.061 NA
ATOM     23  HN  UNL d   1      -0.072  -2.440  -0.519  1.00  0.00     0.183 HD
ATOM     24  S   UNL d   1      -0.486   0.428   1.418  0.00  0.00    -0.010 SA
ATOM     25  C   UNL d   1       1.154  -0.078   1.426  0.00  0.00     0.096 A 
ENDBRANCH  17  20
ENDBRANCH   1  14
TORSDOF 4
