REMARK  2 active torsions:
REMARK  status: ('A' for Active; 'I' for Inactive)
REMARK    1  A    between atoms: C_3  and  N_1 
REMARK    2  A    between atoms: C_9  and  C_10 
ROOT
ATOM      1  C   UNL d   1      -0.379  -2.554   0.107  0.00  0.00     0.154 A 
ATOM      2  N   UNL d   1      -1.138  -3.105  -0.880  0.00  0.00    -0.348 N 
ATOM      3  HN  UNL d   1      -1.576  -2.511  -1.583  1.00  0.00     0.167 HD
ATOM      4  C   UNL d   1      -0.755  -5.317   0.001  0.00  0.00     0.065 A 
ATOM      5  C   UNL d   1       0.182  -3.367   1.105  0.00  0.00     0.081 A 
ATOM      6  C   UNL d   1      -0.011  -4.753   1.039  0.00  0.00     0.045 A 
ATOM      7  C   UNL d   1      -1.305  -4.447  -0.919  0.00  0.00     0.106 A 
ATOM      8 CL   UNL d   1       1.032  -2.795   2.499  0.00  0.00    -0.080 Cl
ENDROOT
BRANCH   1   9
ATOM      9  N   UNL d   1      -0.160  -1.159   0.036  0.00  0.00    -0.179 N 
ATOM     10  C   UNL d   1      -0.848  -0.257  -0.748  0.00  0.00     0.394 A 
ATOM     11  O   UNL d   1      -0.186   0.935  -0.621  0.00  0.00    -0.245 OA
ATOM     12  O   UNL d   1      -1.857  -0.378  -1.423  0.00  0.00    -0.236 OA
ATOM     13  C   UNL d   1       0.845   0.653   0.195  0.00  0.00     0.140 A 
ATOM     14  N   UNL d   1       0.924  -0.564   0.623  0.00  0.00    -0.271 N 
ATOM     15  C   UNL d   1       1.774   1.762   0.508  0.00  0.00     0.099 C 
ATOM     16  HN  UNL d   1       1.621  -0.977   1.243  1.00  0.00     0.189 HD
ENDBRANCH   1   9
BRANCH   4  17
ATOM     17  C   UNL d   1      -0.968  -6.792  -0.132  0.00  0.00     0.418 C 
ATOM     18  F   UNL d   1      -0.365  -7.514   0.853  0.00  0.00    -0.166 F 
ATOM     19  F   UNL d   1      -2.284  -7.136  -0.094  0.00  0.00    -0.166 F 
ATOM     20  F   UNL d   1      -0.483  -7.284  -1.304  0.00  0.00    -0.166 F 
ENDBRANCH   4  17
TORSDOF 2
