REMARK  4 active torsions:
REMARK  status: ('A' for Active; 'I' for Inactive)
REMARK    1  A    between atoms: C_2  and  C_1 
REMARK       I    between atoms: N_3  and  C_1 
REMARK       I    between atoms: C_4  and  N_3 
REMARK       I    between atoms: N_8  and  C_4 
REMARK    2  A    between atoms: C_5  and  C_6 
REMARK    3  A    between atoms: C_7  and  N_8 
REMARK    4  A    between atoms: O_21  and  C_9 
ROOT
ATOM      1  C   UNL d   1       0.867  -0.692   0.223  0.00  0.00     0.244 C 
ATOM      2  N   UNL d   1      -0.146  -1.534  -0.196  0.00  0.00    -0.175 NA
ATOM      3  C   UNL d   1      -0.960  -2.060   0.757  0.00  0.00     0.305 C 
ATOM      4  N   UNL d   1      -0.493  -3.174   1.399  0.00  0.00    -0.310 N 
ATOM      5  O   UNL d   1       1.861  -1.102   0.805  0.00  0.00    -0.273 OA
ATOM      6  O   UNL d   1      -2.084  -1.578   0.881  0.00  0.00    -0.253 OA
ATOM      7  H   UNL d   1      -0.828  -1.064  -0.775  0.00  0.00     0.141 HD
ATOM      8  H   UNL d   1       0.428  -3.056   1.813  0.00  0.00     0.170 HD
ENDROOT
BRANCH   1   9
ATOM      9  C   UNL d   1       0.687   0.759  -0.116  0.00  0.00     0.092 C 
ATOM     10  C   UNL d   1       0.161   1.212  -1.344  0.00  0.00     0.068 C 
ATOM     11  C   UNL d   1      -0.238   2.553  -1.458  0.00  0.00     0.034 C 
ATOM     12  C   UNL d   1      -0.017   3.408  -0.399  0.00  0.00     0.091 C 
ATOM     13  N   UNL d   1       0.610   3.030   0.728  0.00  0.00    -0.346 N 
ATOM     14  C   UNL d   1       0.968   1.726   0.851  0.00  0.00     0.158 C 
ATOM     15  HN  UNL d   1       0.811   3.703   1.468  1.00  0.00     0.167 HD
BRANCH  10  16
ATOM     16  C   UNL d   1       0.023   0.317  -2.542  0.00  0.00     0.418 C 
ATOM     17  F   UNL d   1       1.091  -0.500  -2.723  0.00  0.00    -0.166 F 
ATOM     18  F   UNL d   1      -1.063  -0.494  -2.428  0.00  0.00    -0.166 F 
ATOM     19  F   UNL d   1      -0.136   0.993  -3.711  0.00  0.00    -0.166 F 
ENDBRANCH  10  16
BRANCH  14  20
ATOM     20  O   UNL d   1       1.604   1.361   2.016  0.00  0.00    -0.340 OA
ATOM     21  C   UNL d   1       2.304   2.449   2.620  0.00  0.00     0.211 C 
ENDBRANCH  14  20
ENDBRANCH   1   9
BRANCH   4  22
ATOM     22  C   UNL d   1      -1.415  -4.038   2.059  0.00  0.00     0.079 A 
ATOM     23  C   UNL d   1      -2.582  -4.512   1.421  0.00  0.00     0.062 A 
ATOM     24 CL   UNL d   1      -2.867  -4.325  -0.283  0.00  0.00    -0.082 Cl
ATOM     25  C   UNL d   1      -3.522  -5.274   2.122  0.00  0.00     0.026 A 
ATOM     26  C   UNL d   1      -3.299  -5.604   3.455  0.00  0.00     0.003 A 
ATOM     27  C   UNL d   1      -2.116  -5.205   4.078  0.00  0.00     0.026 A 
ATOM     28  C   UNL d   1      -1.173  -4.439   3.381  0.00  0.00     0.062 A 
ATOM     29 CL   UNL d   1       0.263  -3.961   4.215  0.00  0.00    -0.082 Cl
ENDBRANCH   4  22
TORSDOF 4
