REMARK  0 active torsions:
REMARK  status: ('A' for Active; 'I' for Inactive)
ROOT
ATOM      1  C   UNL d   1       2.459  -0.023   0.003  0.00  0.00     0.148 A 
ATOM      2  N   UNL d   1       1.715   0.513   0.944  0.00  0.00    -0.334 N 
ATOM      3  HN  UNL d   1       2.088   1.028   1.742  1.00  0.00     0.168 HD
ATOM      4  C   UNL d   1       0.359   0.295   0.722  0.00  0.00     0.073 A 
ATOM      5  N   UNL d   1       3.816   0.080  -0.046  0.00  0.00    -0.357 N 
ATOM      6  S   UNL d   1       1.538  -0.857  -1.203  0.00  0.00    -0.052 SA
ATOM      7  C   UNL d   1       0.075  -0.440  -0.427  0.00  0.00     0.038 A 
ATOM      8  C   UNL d   1      -0.744   0.721   1.495  0.00  0.00     0.063 A 
ATOM      9  C   UNL d   1      -1.240  -0.749  -0.824  0.00  0.00     0.045 A 
ATOM     10  C   UNL d   1      -2.060   0.431   1.130  0.00  0.00     0.050 A 
ATOM     11  O   UNL d   1       6.417   1.086  -0.608  0.00  0.00    -0.378 OA
ATOM     12  C   UNL d   1       4.568   0.759   1.017  0.00  0.00     0.156 C 
ATOM     13  C   UNL d   1       4.658  -0.547  -1.063  0.00  0.00     0.156 C 
ATOM     14  C   UNL d   1      -2.292  -0.299  -0.027  0.00  0.00     0.037 A 
ATOM     15  C   UNL d   1       5.594   1.736   0.387  0.00  0.00     0.136 C 
ATOM     16  C   UNL d   1       5.602   0.519  -1.649  0.00  0.00     0.136 C 
ATOM     17 CL   UNL d   1      -0.387   1.619   2.906  0.00  0.00    -0.082 Cl
ATOM     18 CL   UNL d   1      -3.909  -0.660  -0.495  0.00  0.00    -0.084 Cl
ATOM     19  C   UNL d   1       6.514  -0.094  -2.701  0.00  0.00     0.041 C 
ATOM     20  C   UNL d   1       6.533   2.306   1.442  0.00  0.00     0.041 C 
ENDROOT
TORSDOF 0
