REMARK  13 active torsions:
REMARK  status: ('A' for Active; 'I' for Inactive)
REMARK    1  A    between atoms: C_13  and  C_3 
REMARK    2  A    between atoms: C_17  and  N_5 
REMARK    3  A    between atoms: C_14  and  C_8 
REMARK    4  A    between atoms: C_15  and  C_8 
REMARK    5  A    between atoms: N_16  and  C_9 
REMARK    6  A    between atoms: C_12  and  N_16 
REMARK    7  A    between atoms: O_28  and  C_13 
REMARK    8  A    between atoms: O_30  and  C_14 
REMARK    9  A    between atoms: O_29  and  C_15 
REMARK   10  A    between atoms: C_19  and  C_20 
REMARK   11  A    between atoms: C_36  and  O_28 
REMARK   12  A    between atoms: C_35  and  O_29 
REMARK   13  A    between atoms: C_34  and  O_30 
ROOT
ATOM      1  C   UNL d   1      -0.262  -0.752   0.001  0.00  0.00     0.081 A 
ATOM      2  C   UNL d   1      -0.293   0.681   0.057  0.00  0.00     0.023 A 
ATOM      3  C   UNL d   1       0.936   1.447   0.098  0.00  0.00     0.136 A 
ATOM      4  C   UNL d   1       1.027  -1.436  -0.092  0.00  0.00     0.281 A 
ATOM      5  N   UNL d   1       2.139  -0.568   0.026  0.00  0.00    -0.219 N 
ATOM      6  N   UNL d   1       2.080   0.823   0.128  0.00  0.00    -0.284 N 
ATOM      7  HN  UNL d   1       2.943   1.357   0.227  1.00  0.00     0.188 HD
ATOM      8  C   UNL d   1      -1.538  -1.300   0.000  0.00  0.00     0.090 A 
ATOM      9  C   UNL d   1      -1.573   1.181   0.030  0.00  0.00     0.067 A 
ATOM     10  S   UNL d   1      -2.733  -0.056  -0.084  0.00  0.00    -0.082 SA
ATOM     11  O   UNL d   1       1.122  -2.650  -0.253  0.00  0.00    -0.265 OA
ENDROOT
BRANCH   8  12
ATOM     12  N   UNL d   1      -2.011  -2.573   0.010  0.00  0.00    -0.358 N 
ATOM     13  H   UNL d   1      -2.990  -2.684  -0.263  0.00  0.00     0.166 HD
BRANCH  12  14
ATOM     14  C   UNL d   1      -1.505  -3.713   0.601  0.00  0.00     0.112 C 
ATOM     15  C   UNL d   1      -2.003  -4.970   0.609  0.00  0.00     0.129 C 
BRANCH  15  16
ATOM     16  C   UNL d   1      -3.229  -5.352  -0.139  0.00  0.00     0.300 C 
ATOM     17  O   UNL d   1      -3.501  -6.470  -0.541  0.00  0.00    -0.259 OA
BRANCH  16  18
ATOM     18  O   UNL d   1      -4.002  -4.249  -0.378  0.00  0.00    -0.318 OA
BRANCH  18  19
ATOM     19  C   UNL d   1      -4.942  -4.377  -1.455  0.00  0.00     0.174 C 
ATOM     20  C   UNL d   1      -4.222  -4.029  -2.746  0.00  0.00     0.034 C 
ENDBRANCH  18  19
ENDBRANCH  16  18
ENDBRANCH  15  16
BRANCH  15  21
ATOM     21  C   UNL d   1      -1.131  -5.971   1.265  0.00  0.00     0.300 C 
ATOM     22  O   UNL d   1      -0.286  -5.696   2.112  0.00  0.00    -0.259 OA
BRANCH  21  23
ATOM     23  O   UNL d   1      -1.306  -7.198   0.724  0.00  0.00    -0.318 OA
BRANCH  23  24
ATOM     24  C   UNL d   1      -0.210  -8.109   0.867  0.00  0.00     0.174 C 
ATOM     25  C   UNL d   1       0.677  -7.941  -0.354  0.00  0.00     0.034 C 
ENDBRANCH  23  24
ENDBRANCH  21  23
ENDBRANCH  15  21
ENDBRANCH  12  14
ENDBRANCH   8  12
BRANCH   3  26
ATOM     26  C   UNL d   1       0.957   2.976   0.008  0.00  0.00     0.312 C 
ATOM     27  O   UNL d   1       0.106   3.597  -0.607  0.00  0.00    -0.258 OA
BRANCH  26  28
ATOM     28  O   UNL d   1       2.081   3.475   0.562  0.00  0.00    -0.317 OA
BRANCH  28  29
ATOM     29  C   UNL d   1       2.446   4.785   0.104  0.00  0.00     0.175 C 
ATOM     30  C   UNL d   1       3.271   4.638  -1.164  0.00  0.00     0.034 C 
ENDBRANCH  28  29
ENDBRANCH  26  28
ENDBRANCH   3  26
BRANCH   5  31
ATOM     31  C   UNL d   1       3.472  -1.041  -0.128  0.00  0.00     0.060 A 
ATOM     32  C   UNL d   1       3.821  -1.933  -1.145  0.00  0.00     0.032 A 
ATOM     33  C   UNL d   1       5.148  -2.358  -1.295  0.00  0.00     0.010 A 
ATOM     34  C   UNL d   1       6.157  -1.947  -0.404  0.00  0.00    -0.051 A 
ATOM     35  C   UNL d   1       5.783  -1.057   0.617  0.00  0.00     0.010 A 
ATOM     36  C   UNL d   1       4.470  -0.588   0.736  0.00  0.00     0.032 A 
BRANCH  34  37
ATOM     37  C   UNL d   1       7.596  -2.472  -0.554  0.00  0.00    -0.024 C 
ATOM     38  C   UNL d   1       8.546  -1.970   0.557  0.00  0.00     0.019 C 
ATOM     39  C   UNL d   1       7.602  -4.015  -0.497  0.00  0.00     0.019 C 
ATOM     40  C   UNL d   1       8.191  -2.019  -1.904  0.00  0.00     0.019 C 
ENDBRANCH  34  37
ENDBRANCH   5  31
TORSDOF 13
