REMARK  7 active torsions:
REMARK  status: ('A' for Active; 'I' for Inactive)
REMARK    1  A    between atoms: C_5  and  N_1 
REMARK    2  A    between atoms: C_2  and  C_9 
REMARK       I    between atoms: N_4  and  C_2 
REMARK       I    between atoms: C_3  and  N_6 
REMARK    3  A    between atoms: C_20  and  C_3 
REMARK    4  A    between atoms: N_6  and  N_4 
REMARK    5  A    between atoms: C_15  and  C_21 
REMARK    6  A    between atoms: S_18  and  C_20 
REMARK    7  A    between atoms: C_21  and  S_18 
ROOT
ATOM      1  C   UNL d   1      -4.957  -1.050   4.598  0.00  0.00     0.245 C 
ATOM      2  N   UNL d   1      -4.847  -1.233   5.962  0.00  0.00    -0.267 N 
ATOM      3  O   UNL d   1      -4.425  -0.102   4.021  0.00  0.00    -0.271 OA
ATOM      4  H   UNL d   1      -5.474  -1.860   6.471  0.00  0.00     0.190 HD
ENDROOT
BRANCH   1   5
ATOM      5  C   UNL d   1      -5.671  -2.160   3.850  0.00  0.00     0.178 C 
BRANCH   5   6
ATOM      6  S   UNL d   1      -7.238  -2.658   4.638  0.00  0.00    -0.155 SA
BRANCH   6   7
ATOM      7  C   UNL d   1      -8.210  -1.186   4.224  0.00  0.00     0.113 C 
BRANCH   7   8
ATOM      8  C   UNL d   1      -9.611  -1.196   4.793  0.00  0.00    -0.038 A 
ATOM      9  C   UNL d   1     -10.757  -1.477   3.995  0.00  0.00    -0.019 A 
ATOM     10  C   UNL d   1     -12.037  -1.163   4.516  0.00  0.00    -0.025 A 
ATOM     11  C   UNL d   1     -10.701  -2.038   2.698  0.00  0.00     0.013 A 
ATOM     12  C   UNL d   1     -13.175  -1.285   3.701  0.00  0.00     0.012 A 
ATOM     13  C   UNL d   1     -12.164  -0.717   5.840  0.00  0.00     0.012 A 
ATOM     14  C   UNL d   1     -13.079  -1.780   2.401  0.00  0.00     0.001 A 
ATOM     15  C   UNL d   1     -11.846  -2.191   1.913  0.00  0.00     0.001 A 
ATOM     16  C   UNL d   1     -11.045  -0.565   6.653  0.00  0.00     0.001 A 
ATOM     17  C   UNL d   1      -9.777  -0.785   6.129  0.00  0.00     0.009 A 
ENDBRANCH   7   8
ENDBRANCH   6   7
ENDBRANCH   5   6
ENDBRANCH   1   5
BRANCH   2  18
ATOM     18  N   UNL d   1      -4.194  -0.244   6.705  0.00  0.00    -0.263 N 
ATOM     19  C   UNL d   1      -4.454  -0.152   8.058  0.00  0.00     0.270 C 
ATOM     20  O   UNL d   1      -5.271  -0.882   8.615  0.00  0.00    -0.266 OA
ATOM     21  H   UNL d   1      -3.617   0.396   6.168  0.00  0.00     0.190 HD
BRANCH  19  22
ATOM     22  C   UNL d   1      -3.691   0.872   8.841  0.00  0.00     0.033 A 
ATOM     23  C   UNL d   1      -2.683   1.672   8.285  0.00  0.00     0.019 A 
ATOM     24  C   UNL d   1      -1.980   2.587   9.082  0.00  0.00     0.037 A 
ATOM     25  C   UNL d   1      -2.282   2.702  10.444  0.00  0.00     0.102 A 
ATOM     26  C   UNL d   1      -3.288   1.912  11.014  0.00  0.00     0.037 A 
ATOM     27  C   UNL d   1      -3.986   1.003  10.210  0.00  0.00     0.019 A 
BRANCH  25  28
ATOM     28  N   UNL d   1      -1.534   3.649  11.280  0.00  0.00    -0.116 N 
ATOM     29  O   UNL d   1      -1.863   3.757  12.469  0.00  0.00    -0.532 OA
ATOM     30  O   UNL d   1      -0.613   4.285  10.744  0.00  0.00    -0.532 OA
ENDBRANCH  25  28
ENDBRANCH  19  22
ENDBRANCH   2  18
TORSDOF 7
