REMARK  2 active torsions:
REMARK  status: ('A' for Active; 'I' for Inactive)
REMARK    1  A    between atoms: C_9  and  C_1 
REMARK    2  A    between atoms: S_12  and  C_6 
ROOT
ATOM      1  C   UNL d   1      -0.674   1.153   0.016  0.00  0.00     0.133 A 
ATOM      2  N   UNL d   1      -1.389   0.013   0.044  0.00  0.00    -0.335 N 
ATOM      3  HN  UNL d   1      -2.409   0.021   0.059  1.00  0.00     0.168 HD
ATOM      4  N   UNL d   1       0.678   1.194   0.003  0.00  0.00    -0.344 N 
ATOM      5  HN  UNL d   1       1.181   2.081  -0.013  1.00  0.00     0.167 HD
ATOM      6  C   UNL d   1      -0.695  -1.133   0.052  0.00  0.00     0.070 A 
ATOM      7  C   UNL d   1       0.680  -1.191   0.035  0.00  0.00     0.061 A 
ATOM      8  C   UNL d   1       1.338   0.018   0.011  0.00  0.00     0.009 A 
ATOM      9  C   UNL d   1       2.834   0.087  -0.015  0.00  0.00     0.068 C 
ENDROOT
BRANCH   1  10
ATOM     10  C   UNL d   1      -1.404   2.448  -0.037  0.00  0.00     0.076 A 
ATOM     11  N   UNL d   1      -2.768   2.405  -0.056  0.00  0.00    -0.363 N 
ATOM     12  C   UNL d   1      -3.443   3.572  -0.138  0.00  0.00     0.088 A 
ATOM     13  HN  UNL d   1      -3.264   1.515  -0.010  1.00  0.00     0.165 HD
ATOM     14  C   UNL d   1      -2.834   4.811  -0.204  0.00  0.00     0.017 A 
ATOM     15  C   UNL d   1      -1.448   4.860  -0.174  0.00  0.00     0.004 A 
ATOM     16  C   UNL d   1      -0.726   3.671  -0.088  0.00  0.00     0.033 A 
ENDBRANCH   1  10
BRANCH   6  17
ATOM     17  S   UNL d   1      -1.656  -2.623   0.074  0.00  0.00    -0.125 SA
ATOM     18  H   UNL d   1      -2.829  -1.975   0.051  0.00  0.00     0.108 HD
ENDBRANCH   6  17
TORSDOF 2
