REMARK  3 active torsions:
REMARK  status: ('A' for Active; 'I' for Inactive)
REMARK    1  A    between atoms: O_4  and  C_1 
REMARK    2  A    between atoms: C_6  and  C_1 
REMARK    3  A    between atoms: C_3  and  O_4 
ROOT
ATOM      1  C   UNL d   1      -1.752  -0.276  -1.204  0.00  0.00     0.051 A 
ATOM      2  C   UNL d   1      -1.034  -1.233  -0.460  0.00  0.00     0.097 A 
ATOM      3  C   UNL d   1      -3.182  -0.231  -1.149  0.00  0.00    -0.007 A 
ATOM      4  C   UNL d   1      -1.715  -2.217   0.251  0.00  0.00     0.039 A 
ATOM      5  C   UNL d   1      -3.844  -1.220  -0.375  0.00  0.00    -0.025 A 
ATOM      6  C   UNL d   1      -3.106  -2.203   0.296  0.00  0.00     0.015 A 
ATOM      7  I   UNL d   1      -0.656   1.067  -2.439  0.00  0.00    -0.041 I 
ATOM      8  C   UNL d   1      -4.008   0.732  -1.792  0.00  0.00     0.013 A 
ATOM      9  C   UNL d   1      -5.246  -1.226  -0.270  0.00  0.00     0.012 A 
ATOM     10  C   UNL d   1      -5.404   0.718  -1.667  0.00  0.00     0.001 A 
ATOM     11  C   UNL d   1      -6.020  -0.262  -0.907  0.00  0.00     0.001 A 
ENDROOT
BRANCH   2  12
ATOM     12  O   UNL d   1       0.383  -1.216  -0.480  0.00  0.00    -0.274 OA
BRANCH  12  13
ATOM     13  C   UNL d   1       1.071  -1.397   0.711  0.00  0.00     0.298 C 
ATOM     14  O   UNL d   1       0.595  -1.641   1.809  0.00  0.00    -0.259 OA
BRANCH  13  15
ATOM     15  C   UNL d   1       2.542  -1.258   0.508  0.00  0.00     0.040 A 
ATOM     16  C   UNL d   1       3.387  -1.646   1.562  0.00  0.00     0.019 A 
ATOM     17  C   UNL d   1       4.772  -1.492   1.457  0.00  0.00     0.025 A 
ATOM     18  C   UNL d   1       5.318  -0.946   0.298  0.00  0.00     0.034 A 
ATOM     19  C   UNL d   1       4.491  -0.566  -0.760  0.00  0.00     0.025 A 
ATOM     20 CL   UNL d   1       7.020  -0.730   0.175  0.00  0.00    -0.084 Cl
ATOM     21  C   UNL d   1       3.103  -0.722  -0.657  0.00  0.00     0.019 A 
ENDBRANCH  13  15
ENDBRANCH  12  13
ENDBRANCH   2  12
TORSDOF 3
