REMARK  4 active torsions:
REMARK  status: ('A' for Active; 'I' for Inactive)
REMARK    1  A    between atoms: C_3  and  C_1 
REMARK       I    between atoms: N_8  and  C_1 
REMARK    2  A    between atoms: C_16  and  C_4 
REMARK    3  A    between atoms: C_13  and  N_8 
REMARK    4  A    between atoms: O_22  and  C_16 
ROOT
ATOM      1  C   UNL d   1      -1.613  -2.398   1.645  0.00  0.00     0.001 A 
ATOM      2  C   UNL d   1       0.247  -0.923   1.109  0.00  0.00     0.033 A 
ATOM      3  C   UNL d   1      -0.065  -1.712   3.397  0.00  0.00     0.001 A 
ATOM      4  C   UNL d   1      -1.216  -2.402   2.986  0.00  0.00     0.088 A 
ATOM      5  C   UNL d   1      -0.876  -1.661   0.712  0.00  0.00     0.029 A 
ATOM      6  C   UNL d   1       0.657  -0.962   2.446  0.00  0.00     0.029 A 
ATOM      7  O   UNL d   1      -1.944  -3.071   3.936  0.00  0.00    -0.325 OA
ATOM      8  O   UNL d   1      -3.293  -4.023   2.227  0.00  0.00    -0.362 OA
ATOM      9  C   UNL d   1      -3.267  -3.383   3.495  0.00  0.00     0.345 C 
ATOM     10  C   UNL d   1      -2.865  -3.110   1.225  0.00  0.00     0.212 C 
ENDROOT
BRANCH   2  11
ATOM     11  C   UNL d   1       0.891  -0.046   0.089  0.00  0.00     0.256 C 
ATOM     12  N   UNL d   1       2.225   0.263   0.282  0.00  0.00    -0.323 N 
ATOM     13  H   UNL d   1       2.714  -0.220   1.022  0.00  0.00     0.169 HD
ATOM     14  O   UNL d   1       0.195   0.311  -0.859  0.00  0.00    -0.267 OA
BRANCH  12  15
ATOM     15  C   UNL d   1       3.023   1.069  -0.563  0.00  0.00     0.035 A 
ATOM     16  C   UNL d   1       2.514   1.802  -1.638  0.00  0.00     0.031 A 
ATOM     17  C   UNL d   1       3.371   2.503  -2.495  0.00  0.00     0.026 A 
ATOM     18  C   UNL d   1       4.739   2.487  -2.266  0.00  0.00     0.034 A 
ATOM     19  C   UNL d   1       5.258   1.810  -1.165  0.00  0.00     0.026 A 
ATOM     20 CL   UNL d   1       5.797   3.291  -3.357  0.00  0.00    -0.084 Cl
ATOM     21  C   UNL d   1       4.400   1.107  -0.311  0.00  0.00     0.031 A 
ENDBRANCH  12  15
ENDBRANCH   2  11
BRANCH   3  22
ATOM     22  C   UNL d   1       0.408  -1.731   4.829  0.00  0.00     0.208 C 
BRANCH  22  23
ATOM     23  O   UNL d   1       0.469  -0.386   5.307  0.00  0.00    -0.391 OA
ATOM     24  C   UNL d   1       0.935  -0.331   6.648  0.00  0.00     0.201 C 
ENDBRANCH  22  23
ENDBRANCH   3  22
TORSDOF 4
