REMARK  1 active torsions:
REMARK  status: ('A' for Active; 'I' for Inactive)
REMARK    1  A    between atoms: C_12  and  C_7 
ROOT
ATOM      1  C   UNL d   1       2.184   0.570   0.029  0.00  0.00     0.151 A 
ATOM      2  N   UNL d   1       2.587  -0.722  -0.042  0.00  0.00    -0.284 N 
ATOM      3  C   UNL d   1      -0.028   0.053  -0.018  0.00  0.00     0.049 C 
ATOM      4  C   UNL d   1       0.220  -1.266  -0.131  0.00  0.00    -0.024 C 
ATOM      5  N   UNL d   1       0.970   0.994   0.023  0.00  0.00    -0.336 N 
ATOM      6  HN  UNL d   1       0.756   1.991   0.047  1.00  0.00     0.168 HD
ATOM      7  C   UNL d   1       1.629  -1.791  -0.242  0.00  0.00     0.159 C 
ATOM      8  S   UNL d   1       3.530   1.659   0.152  0.00  0.00    -0.084 SA
ATOM      9  C   UNL d   1       3.932  -0.969   0.101  0.00  0.00     0.236 A 
ATOM     10  C   UNL d   1      -1.441   0.514   0.010  0.00  0.00    -0.003 A 
ATOM     11  C   UNL d   1      -0.893  -2.288  -0.193  0.00  0.00     0.043 C 
ATOM     12  C   UNL d   1       4.732   0.311   0.151  0.00  0.00     0.185 A 
ATOM     13  C   UNL d   1      -2.484  -0.403   0.251  0.00  0.00    -0.045 A 
ATOM     14  O   UNL d   1       4.446  -2.078   0.178  0.00  0.00    -0.272 OA
ATOM     15  C   UNL d   1      -2.151  -1.840   0.549  0.00  0.00     0.044 C 
ATOM     16  C   UNL d   1      -1.769   1.860  -0.211  0.00  0.00     0.014 A 
ATOM     17  C   UNL d   1      -3.817   0.031   0.275  0.00  0.00     0.008 A 
ATOM     18  C   UNL d   1      -3.101   2.283  -0.204  0.00  0.00     0.001 A 
ATOM     19  C   UNL d   1      -4.123   1.370   0.038  0.00  0.00     0.001 A 
ENDROOT
BRANCH   7  20
ATOM     20  C   UNL d   1       1.869  -2.487  -1.582  0.00  0.00    -0.030 A 
ATOM     21  C   UNL d   1       2.175  -3.858  -1.615  0.00  0.00     0.011 A 
ATOM     22  C   UNL d   1       2.458  -4.492  -2.825  0.00  0.00     0.024 A 
ATOM     23  C   UNL d   1       2.434  -3.763  -4.012  0.00  0.00     0.034 A 
ATOM     24  C   UNL d   1       2.107  -2.409  -4.002  0.00  0.00     0.024 A 
ATOM     25 CL   UNL d   1       2.824  -4.537  -5.498  0.00  0.00    -0.084 Cl
ATOM     26  C   UNL d   1       1.820  -1.773  -2.792  0.00  0.00     0.011 A 
ENDBRANCH   7  20
TORSDOF 1
