REMARK  5 active torsions:
REMARK  status: ('A' for Active; 'I' for Inactive)
REMARK    1  A    between atoms: C_4  and  C_1 
REMARK    2  A    between atoms: C_8  and  C_1 
REMARK    3  A    between atoms: O_6  and  N_2 
REMARK    4  A    between atoms: C_5  and  O_6 
REMARK    5  A    between atoms: C_9  and  C_5 
ROOT
ATOM      1  C   UNL d   1       1.176   0.029   0.042  0.00  0.00     0.057 C 
ATOM      2  N   UNL d   1       0.423   1.008   0.465  0.00  0.00    -0.260 N 
ATOM      3  HN  UNL d   1      -0.592   0.917   0.504  1.00  0.00     0.194 HD
ENDROOT
BRANCH   1   4
ATOM      4  C   UNL d   1       0.430  -1.169  -0.414  0.00  0.00     0.030 A 
ATOM      5  S   UNL d   1      -1.081  -0.954  -1.226  0.00  0.00    -0.100 SA
ATOM      6  C   UNL d   1      -1.287  -2.630  -1.478  0.00  0.00     0.050 A 
ATOM      7  C   UNL d   1      -0.250  -3.358  -0.951  0.00  0.00     0.008 A 
ATOM      8  C   UNL d   1       0.723  -2.522  -0.325  0.00  0.00     0.021 A 
ENDBRANCH   1   4
BRANCH   1   9
ATOM      9  C   UNL d   1       2.748   0.009  -0.060  0.00  0.00    -0.005 C 
ATOM     10  C   UNL d   1       3.459   1.326   0.298  0.00  0.00     0.021 C 
ATOM     11  C   UNL d   1       3.348  -1.054   0.882  0.00  0.00     0.021 C 
ATOM     12  C   UNL d   1       3.135  -0.299  -1.523  0.00  0.00     0.021 C 
ENDBRANCH   1   9
BRANCH   2  13
ATOM     13  O   UNL d   1       1.062   2.190   0.864  0.00  0.00    -0.199 OA
BRANCH  13  14
ATOM     14  C   UNL d   1       0.123   3.155   1.156  0.00  0.00     0.288 C 
ATOM     15  O   UNL d   1      -1.095   3.015   1.068  0.00  0.00    -0.262 OA
BRANCH  14  16
ATOM     16  C   UNL d   1       0.772   4.497   1.541  0.00  0.00     0.039 C 
ATOM     17  C   UNL d   1       0.943   5.335   0.267  0.00  0.00     0.025 C 
ATOM     18  C   UNL d   1      -0.175   5.229   2.510  0.00  0.00     0.025 C 
ATOM     19  C   UNL d   1       2.131   4.341   2.236  0.00  0.00     0.025 C 
ENDBRANCH  14  16
ENDBRANCH  13  14
ENDBRANCH   2  13
TORSDOF 5
