REMARK  6 active torsions:
REMARK  status: ('A' for Active; 'I' for Inactive)
REMARK    1  A    between atoms: C_3  and  C_1 
REMARK    2  A    between atoms: C_4  and  C_2 
REMARK       I    between atoms: N_9  and  C_3 
REMARK    3  A    between atoms: S_12  and  C_8 
REMARK    4  A    between atoms: C_16  and  N_9 
REMARK    5  A    between atoms: C_23  and  S_12 
REMARK    6  A    between atoms: C_24  and  C_23 
ROOT
ATOM      1  C   UNL d   1       0.626   1.281  -0.286  0.00  0.00     0.062 A 
ATOM      2  C   UNL d   1       1.437   0.145  -0.230  0.00  0.00     0.067 A 
ATOM      3  C   UNL d   1      -0.748   1.093  -0.426  0.00  0.00     0.106 A 
ATOM      4  N   UNL d   1      -1.361  -0.118  -0.460  0.00  0.00    -0.360 N 
ATOM      5  HN  UNL d   1      -2.376  -0.199  -0.522  1.00  0.00     0.166 HD
ATOM      6  C   UNL d   1      -0.571  -1.208  -0.407  0.00  0.00     0.070 A 
ATOM      7  C   UNL d   1       0.812  -1.114  -0.312  0.00  0.00     0.054 A 
ENDROOT
BRANCH   1   8
ATOM      8  C   UNL d   1       1.163   2.657  -0.333  0.00  0.00     0.258 C 
ATOM      9  N   UNL d   1       0.553   3.571   0.511  0.00  0.00    -0.323 N 
ATOM     10  H   UNL d   1      -0.136   3.226   1.168  0.00  0.00     0.169 HD
ATOM     11  O   UNL d   1       2.064   2.862  -1.138  0.00  0.00    -0.267 OA
BRANCH   9  12
ATOM     12  C   UNL d   1       0.770   4.973   0.540  0.00  0.00     0.035 A 
ATOM     13  C   UNL d   1       1.688   5.628  -0.286  0.00  0.00     0.031 A 
ATOM     14  C   UNL d   1       1.809   7.026  -0.252  0.00  0.00     0.026 A 
ATOM     15  C   UNL d   1       1.017   7.772   0.614  0.00  0.00     0.034 A 
ATOM     16  C   UNL d   1       0.117   7.131   1.461  0.00  0.00     0.026 A 
ATOM     17 CL   UNL d   1       1.141   9.487   0.625  0.00  0.00    -0.084 Cl
ATOM     18  C   UNL d   1      -0.000   5.736   1.427  0.00  0.00     0.031 A 
ENDBRANCH   9  12
ENDBRANCH   1   8
BRANCH   2  19
ATOM     19  C   UNL d   1       2.934   0.161  -0.074  0.00  0.00     0.418 C 
ATOM     20  F   UNL d   1       3.477   1.326   0.355  0.00  0.00    -0.166 F 
ATOM     21  F   UNL d   1       3.330  -0.763   0.855  0.00  0.00    -0.166 F 
ATOM     22  F   UNL d   1       3.580  -0.188  -1.219  0.00  0.00    -0.166 F 
ENDBRANCH   2  19
BRANCH   6  23
ATOM     23  S   UNL d   1      -1.281  -2.841  -0.354  0.00  0.00    -0.108 SA
BRANCH  23  24
ATOM     24  C   UNL d   1      -3.003  -2.573  -0.931  0.00  0.00     0.049 C 
ATOM     25  C   UNL d   1      -3.800  -3.825  -0.551  0.00  0.00     0.021 C 
BRANCH  24  26
ATOM     26  C   UNL d   1      -3.095  -2.277  -2.439  0.00  0.00     0.011 C 
ATOM     27  C   UNL d   1      -2.558  -3.361  -3.367  0.00  0.00     0.006 C 
ENDBRANCH  24  26
ENDBRANCH  23  24
ENDBRANCH   6  23
TORSDOF 6
