REMARK  3 active torsions:
REMARK  status: ('A' for Active; 'I' for Inactive)
REMARK    1  A    between atoms: C_2  and  C_1 
REMARK       I    between atoms: N_4  and  C_2 
REMARK    2  A    between atoms: C_6  and  C_3 
REMARK    3  A    between atoms: C_5  and  N_4 
REMARK       I    between atoms: N_13  and  C_6 
ROOT
ATOM      1  C   UNL d   1       3.017  -1.281  -0.984  0.00  0.00     0.058 A 
ATOM      2  C   UNL d   1       3.708  -0.473  -0.059  0.00  0.00     0.050 A 
ATOM      3  C   UNL d   1       3.252  -2.664  -1.028  0.00  0.00     0.019 A 
ATOM      4  C   UNL d   1       4.640  -1.078   0.795  0.00  0.00     0.030 A 
ATOM      5  C   UNL d   1       4.179  -3.248  -0.166  0.00  0.00     0.001 A 
ATOM      6  C   UNL d   1       4.875  -2.454   0.741  0.00  0.00     0.002 A 
ENDROOT
BRANCH   2   7
ATOM      7  N   UNL d   1       3.436   0.914   0.027  0.00  0.00    -0.322 N 
ATOM      8  C   UNL d   1       4.353   1.877   0.399  0.00  0.00     0.258 C 
ATOM      9  O   UNL d   1       5.554   1.673   0.545  0.00  0.00    -0.267 OA
ATOM     10  H   UNL d   1       2.581   1.231  -0.433  0.00  0.00     0.169 HD
BRANCH   8  11
ATOM     11  C   UNL d   1       3.800   3.212   0.562  0.00  0.00     0.056 A 
ATOM     12  C   UNL d   1       4.564   4.363   0.538  0.00  0.00     0.158 A 
ATOM     13  O   UNL d   1       3.802   5.460   0.774  0.00  0.00    -0.334 OA
ATOM     14  C   UNL d   1       2.533   5.021   0.963  0.00  0.00     0.142 A 
ATOM     15  C   UNL d   1       2.471   3.653   0.830  0.00  0.00     0.043 A 
ENDBRANCH   8  11
ENDBRANCH   2   7
BRANCH   1  16
ATOM     16  C   UNL d   1       2.087  -0.661  -1.966  0.00  0.00     0.251 C 
ATOM     17  O   UNL d   1       1.450   0.352  -1.694  0.00  0.00    -0.268 OA
ATOM     18  N   UNL d   1       2.034  -1.224  -3.211  0.00  0.00    -0.366 N 
ATOM     19  H   UNL d   1       2.740  -1.874  -3.534  0.00  0.00     0.159 HD
ATOM     20  H   UNL d   1       1.525  -0.711  -3.920  0.00  0.00     0.159 HD
ENDBRANCH   1  16
TORSDOF 3
