REMARK  3 active torsions:
REMARK  status: ('A' for Active; 'I' for Inactive)
REMARK    1  A    between atoms: S_4  and  C_3 
REMARK    2  A    between atoms: C_8  and  S_4 
REMARK    3  A    between atoms: N_9  and  C_6 
ROOT
ATOM      1  N   UNL d   1      -1.263   0.342   1.276  0.00  0.00    -0.359 N 
ATOM      2  HN  UNL d   1      -1.852   0.398   2.107  1.00  0.00     0.166 HD
ATOM      3  C   UNL d   1      -1.794   0.220   0.040  0.00  0.00     0.074 A 
ATOM      4  C   UNL d   1       0.090   0.387   1.360  0.00  0.00     0.112 A 
ATOM      5  C   UNL d   1       0.961   0.259   0.280  0.00  0.00     0.021 A 
ATOM      6  C   UNL d   1      -1.013   0.153  -1.108  0.00  0.00     0.039 A 
ATOM      7  C   UNL d   1       0.377   0.196  -0.981  0.00  0.00     0.027 A 
ENDROOT
BRANCH   3   8
ATOM      8  S   UNL d   1      -3.565   0.081  -0.077  0.00  0.00    -0.073 SA
BRANCH   8   9
ATOM      9  C   UNL d   1      -4.058   1.793  -0.165  0.00  0.00     0.007 A 
ATOM     10  C   UNL d   1      -4.831   2.225  -1.249  0.00  0.00     0.019 A 
ATOM     11  C   UNL d   1      -5.274   3.548  -1.320  0.00  0.00     0.001 A 
ATOM     12  C   UNL d   1      -4.952   4.447  -0.305  0.00  0.00     0.000 A 
ATOM     13  C   UNL d   1      -4.190   4.023   0.782  0.00  0.00     0.001 A 
ATOM     14  C   UNL d   1      -3.747   2.700   0.854  0.00  0.00     0.019 A 
ENDBRANCH   8   9
ENDBRANCH   3   8
BRANCH   5  15
ATOM     15  N   UNL d   1       2.343   0.425   0.417  0.00  0.00    -0.302 NA
ATOM     16  H   UNL d   1       2.705   0.160   1.328  0.00  0.00     0.124 HD
ATOM     17  H   UNL d   1       2.885   0.018  -0.340  0.00  0.00     0.124 HD
ENDBRANCH   5  15
TORSDOF 3
