REMARK  5 active torsions:
REMARK  status: ('A' for Active; 'I' for Inactive)
REMARK    1  A    between atoms: C_11  and  C_1 
REMARK    2  A    between atoms: S_2  and  N_12 
REMARK    3  A    between atoms: C_6  and  S_2 
REMARK    4  A    between atoms: C_19  and  C_7 
REMARK       I    between atoms: N_16  and  C_11 
REMARK    5  A    between atoms: N_12  and  N_16 
ROOT
ATOM      1  C   UNL d   1       1.570  -0.888  -0.948  0.00  0.00     0.279 C 
ATOM      2  N   UNL d   1       2.128  -2.136  -1.191  0.00  0.00    -0.256 N 
ATOM      3  O   UNL d   1       1.089  -0.642   0.165  0.00  0.00    -0.265 OA
ATOM      4  H   UNL d   1       2.642  -2.349  -2.044  0.00  0.00     0.191 HD
ENDROOT
BRANCH   2   5
ATOM      5  N   UNL d   1       2.140  -3.134  -0.112  0.00  0.00    -0.220 N 
ATOM      6  H   UNL d   1       1.751  -2.827   0.787  0.00  0.00     0.200 HD
BRANCH   5   7
ATOM      7  S   UNL d   1       3.420  -4.255  -0.086  0.00  0.00     0.277 S 
ATOM      8  O   UNL d   1       3.302  -5.029  -1.303  0.00  0.00    -0.199 OA
ATOM      9  O   UNL d   1       4.645  -3.519   0.145  0.00  0.00    -0.199 OA
BRANCH   7  10
ATOM     10  C   UNL d   1       3.080  -5.250   1.399  0.00  0.00     0.094 A 
ATOM     11  C   UNL d   1       2.753  -6.636   1.306  0.00  0.00    -0.032 A 
ATOM     12  C   UNL d   1       2.794  -7.439   2.484  0.00  0.00    -0.048 A 
ATOM     13  C   UNL d   1       2.382  -7.326   0.014  0.00  0.00     0.050 C 
ATOM     14  C   UNL d   1       2.595  -8.946   2.433  0.00  0.00     0.049 C 
ATOM     15  C   UNL d   1       3.042  -6.850   3.752  0.00  0.00    -0.049 A 
ATOM     16  C   UNL d   1       3.236  -5.452   3.855  0.00  0.00    -0.048 A 
ATOM     17  C   UNL d   1       3.109  -7.747   4.975  0.00  0.00     0.049 C 
ATOM     18  C   UNL d   1       3.281  -4.646   2.680  0.00  0.00    -0.032 A 
ATOM     19  C   UNL d   1       3.431  -4.850   5.235  0.00  0.00     0.049 C 
ATOM     20  C   UNL d   1       3.543  -3.165   2.872  0.00  0.00     0.050 C 
ENDBRANCH   7  10
ENDBRANCH   5   7
ENDBRANCH   2   5
BRANCH   1  21
ATOM     21  C   UNL d   1       1.604   0.077  -2.034  0.00  0.00     0.098 A 
ATOM     22  S   UNL d   1       2.197  -0.294  -3.604  0.00  0.00    -0.064 SA
ATOM     23  C   UNL d   1       1.807   1.295  -4.152  0.00  0.00     0.085 A 
ATOM     24  N   UNL d   1       1.316   2.079  -3.214  0.00  0.00    -0.352 N 
ATOM     25  C   UNL d   1       1.170   1.396  -2.017  0.00  0.00     0.029 A 
ATOM     26  HN  UNL d   1       1.075   3.061  -3.352  1.00  0.00     0.166 HD
ATOM     27  C   UNL d   1       0.566   2.135  -0.874  0.00  0.00     0.070 C 
BRANCH  23  28
ATOM     28  C   UNL d   1       2.017   1.730  -5.548  0.00  0.00    -0.002 A 
ATOM     29  C   UNL d   1       2.002   0.844  -6.637  0.00  0.00     0.014 A 
ATOM     30  C   UNL d   1       2.138   1.315  -7.949  0.00  0.00     0.001 A 
ATOM     31  C   UNL d   1       2.293   2.677  -8.194  0.00  0.00     0.000 A 
ATOM     32  C   UNL d   1       2.317   3.572  -7.128  0.00  0.00     0.001 A 
ATOM     33  C   UNL d   1       2.177   3.102  -5.818  0.00  0.00     0.014 A 
ENDBRANCH  23  28
ENDBRANCH   1  21
TORSDOF 5
