REMARK  2 active torsions:
REMARK  status: ('A' for Active; 'I' for Inactive)
REMARK    1  A    between atoms: C_2  and  N_1 
REMARK    2  A    between atoms: C_6  and  C_4 
ROOT
ATOM      1  C   UNL d   1       0.080   2.768   2.349  0.00  0.00    -0.033 A 
ATOM      2  C   UNL d   1      -0.986   2.324   3.139  0.00  0.00     0.035 A 
ATOM      3  C   UNL d   1      -1.736   3.244   3.871  0.00  0.00     0.034 A 
ATOM      4 CL   UNL d   1      -3.055   2.697   4.832  0.00  0.00    -0.084 Cl
ATOM      5  C   UNL d   1      -0.364   5.048   3.046  0.00  0.00     0.003 A 
ATOM      6  C   UNL d   1       0.391   4.133   2.309  0.00  0.00     0.011 A 
ATOM      7  C   UNL d   1      -1.433   4.604   3.825  0.00  0.00     0.024 A 
ENDROOT
BRANCH   1   8
ATOM      8  C   UNL d   1       0.848   1.817   1.548  0.00  0.00     0.035 C 
ATOM      9  C   UNL d   1       0.464   1.529   0.298  0.00  0.00     0.168 C 
BRANCH   9  10
ATOM     10  N   UNL d   1       1.225   0.589  -0.491  0.00  0.00    -0.127 N 
ATOM     11  O   UNL d   1       0.807   0.391  -1.638  0.00  0.00    -0.532 OA
ATOM     12  O   UNL d   1       2.220   0.054   0.011  0.00  0.00    -0.532 OA
ENDBRANCH   9  10
ENDBRANCH   1   8
TORSDOF 2
