REMARK  1 active torsions:
REMARK  status: ('A' for Active; 'I' for Inactive)
REMARK    1  A    between atoms: S_12  and  C_5 
ROOT
ATOM      1  C   UNL d   1       0.093   1.333  -0.088  0.00  0.00     0.072 A 
ATOM      2  C   UNL d   1      -0.318   2.710   0.023  0.00  0.00     0.157 A 
ATOM      3  N   UNL d   1      -0.960   3.246   1.008  0.00  0.00    -0.359 N 
ATOM      4  HN  UNL d   1      -1.308   2.786   1.850  1.00  0.00     0.162 HD
ATOM      5  C   UNL d   1      -0.360   0.192   0.558  0.00  0.00     0.022 A 
ATOM      6  O   UNL d   1       0.021   3.485  -1.043  0.00  0.00    -0.332 OA
ATOM      7  S   UNL d   1       1.407   0.942  -1.142  0.00  0.00    -0.096 SA
ATOM      8  C   UNL d   1       0.381  -0.974   0.198  0.00  0.00     0.027 A 
ATOM      9  C   UNL d   1      -1.079   4.672   0.644  0.00  0.00     0.046 A 
ATOM     10  C   UNL d   1       1.377  -0.703  -0.709  0.00  0.00     0.052 A 
ATOM     11  C   UNL d   1      -0.438   4.791  -0.735  0.00  0.00     0.207 A 
ATOM     12  C   UNL d   1      -2.558   5.052   0.619  0.00  0.00     0.040 C 
ATOM     13  C   UNL d   1      -0.329   5.509   1.681  0.00  0.00     0.040 C 
ENDROOT
BRANCH   5  14
ATOM     14  S   UNL d   1      -1.661   0.061   1.741  0.00  0.00    -0.133 SA
ATOM     15  C   UNL d   1      -3.101   0.459   0.727  0.00  0.00     0.095 C 
ENDBRANCH   5  14
TORSDOF 1
