REMARK  1 active torsions:
REMARK  status: ('A' for Active; 'I' for Inactive)
REMARK    1  A    between atoms: O_12  and  C_4 
ROOT
ATOM      1  C   UNL d   1      -0.872  -1.472  -0.168  0.00  0.00     0.035 A 
ATOM      2  C   UNL d   1      -0.820  -1.531  -1.554  0.00  0.00     0.052 A 
ATOM      3  C   UNL d   1      -0.817  -2.627   0.711  0.00  0.00     0.194 C 
ATOM      4  C   UNL d   1      -0.836  -2.674  -2.420  0.00  0.00     0.087 C 
ATOM      5  C   UNL d   1      -0.289  -3.849  -2.056  0.00  0.00     0.050 C 
ATOM      6  C   UNL d   1       0.244  -3.620   0.434  0.00  0.00     0.025 A 
ATOM      7  C   UNL d   1       0.492  -4.146  -0.841  0.00  0.00    -0.019 A 
ATOM      8  S   UNL d   1      -0.742   0.068  -2.216  0.00  0.00    -0.098 SA
ATOM      9  C   UNL d   1      -1.000  -0.123   0.316  0.00  0.00     0.024 A 
ATOM     10  C   UNL d   1      -0.909   0.804  -0.691  0.00  0.00     0.051 A 
ATOM     11  O   UNL d   1      -1.465  -2.700   1.751  0.00  0.00    -0.287 OA
ATOM     12  C   UNL d   1       1.067  -3.965   1.520  0.00  0.00     0.016 A 
ATOM     13  C   UNL d   1       1.559  -5.052  -0.987  0.00  0.00     0.012 A 
ATOM     14  C   UNL d   1       2.147  -4.825   1.343  0.00  0.00     0.001 A 
ATOM     15  C   UNL d   1       2.387  -5.377   0.089  0.00  0.00     0.001 A 
ENDROOT
BRANCH   4  16
ATOM     16  O   UNL d   1      -1.476  -2.434  -3.620  0.00  0.00    -0.355 OA
ATOM     17  C   UNL d   1      -1.280  -3.353  -4.687  0.00  0.00     0.210 C 
ENDBRANCH   4  16
TORSDOF 1
