REMARK  3 active torsions:
REMARK  status: ('A' for Active; 'I' for Inactive)
REMARK    1  A    between atoms: N_6  and  C_2 
REMARK    2  A    between atoms: C_10  and  C_3 
REMARK       I    between atoms: C_9  and  N_6 
REMARK    3  A    between atoms: C_11  and  C_9 
ROOT
ATOM      1  N   UNL d   1       0.358   2.366   0.049  0.00  0.00    -0.302 N 
ATOM      2  C   UNL d   1       1.532   3.075  -0.045  0.00  0.00     0.257 C 
ATOM      3  O   UNL d   1       1.668   4.290  -0.030  0.00  0.00    -0.267 OA
ATOM      4  H   UNL d   1       0.383   1.361   0.146  0.00  0.00     0.171 HD
ENDROOT
BRANCH   1   5
ATOM      5  C   UNL d   1      -0.913   2.862   0.191  0.00  0.00     0.168 A 
ATOM      6  S   UNL d   1      -1.327   4.511   0.121  0.00  0.00    -0.037 SA
ATOM      7  C   UNL d   1      -2.947   4.042   0.441  0.00  0.00     0.074 A 
ATOM      8  N   UNL d   1      -3.113   2.741   0.553  0.00  0.00    -0.296 N 
ATOM      9  N   UNL d   1      -1.929   2.053   0.395  0.00  0.00    -0.279 N 
ATOM     10  HN  UNL d   1      -4.012   2.294   0.735  1.00  0.00     0.187 HD
ATOM     11  HN  UNL d   1      -1.850   1.037   0.432  1.00  0.00     0.189 HD
BRANCH   7  12
ATOM     12  C   UNL d   1      -4.158   4.962   0.609  0.00  0.00     0.044 A 
ATOM     13  C   UNL d   1      -4.309   6.203  -0.245  0.00  0.00     0.012 A 
ATOM     14  C   UNL d   1      -4.003   6.344   1.208  0.00  0.00     0.012 A 
ENDBRANCH   7  12
ENDBRANCH   1   5
BRANCH   2  15
ATOM     15  C   UNL d   1       2.756   2.213  -0.103  0.00  0.00     0.035 A 
ATOM     16  C   UNL d   1       3.918   2.659   0.542  0.00  0.00     0.056 A 
ATOM     17  C   UNL d   1       5.015   1.819   0.544  0.00  0.00     0.106 A 
ATOM     18  O   UNL d   1       6.208   2.068   1.147  0.00  0.00    -0.323 OA
ATOM     19  C   UNL d   1       4.992   0.592  -0.077  0.00  0.00     0.105 A 
ATOM     20  C   UNL d   1       6.921   0.846   0.864  0.00  0.00     0.352 A 
ATOM     21  O   UNL d   1       6.165  -0.082   0.058  0.00  0.00    -0.323 OA
ATOM     22  C   UNL d   1       3.879   0.139  -0.751  0.00  0.00     0.041 A 
ATOM     23  C   UNL d   1       2.748   0.963  -0.767  0.00  0.00     0.020 A 
ENDBRANCH   2  15
TORSDOF 3
