REMARK  1 active torsions:
REMARK  status: ('A' for Active; 'I' for Inactive)
REMARK    1  A    between atoms: N_10  and  C_2 
ROOT
ATOM      1  C   UNL d   1       1.941   0.696   0.041  0.00  0.00     0.085 A 
ATOM      2  C   UNL d   1       2.590  -0.525   0.075  0.00  0.00     0.089 A 
ATOM      3  C   UNL d   1       0.511   0.560   0.062  0.00  0.00    -0.021 A 
ATOM      4  C   UNL d   1       0.143  -0.772   0.084  0.00  0.00    -0.007 A 
ATOM      5  S   UNL d   1       1.472  -1.823   0.132  0.00  0.00    -0.075 SA
ATOM      6  C   UNL d   1       2.636   1.950  -0.027  0.00  0.00     0.103 C 
ATOM      7  N   UNL d   1       3.192   2.967  -0.088  0.00  0.00    -0.191 NA
ATOM      8  C   UNL d   1      -0.509   1.664   0.003  0.00  0.00     0.042 C 
ATOM      9  C   UNL d   1      -1.264  -1.284   0.079  0.00  0.00     0.051 C 
ATOM     10  C   UNL d   1      -1.938   1.149   0.260  0.00  0.00     0.009 C 
ATOM     11  C   UNL d   1      -2.236  -0.199  -0.432  0.00  0.00    -0.014 C 
ATOM     12  C   UNL d   1      -2.189  -0.080  -1.961  0.00  0.00     0.010 C 
ENDROOT
BRANCH   2  13
ATOM     13  N   UNL d   1       3.913  -0.793   0.065  0.00  0.00    -0.392 N 
ATOM     14  H   UNL d   1       4.634  -0.083  -0.009  0.00  0.00     0.156 HD
ATOM     15  H   UNL d   1       4.243  -1.754   0.062  0.00  0.00     0.156 HD
ENDBRANCH   2  13
TORSDOF 1
