REMARK  2 active torsions:
REMARK  status: ('A' for Active; 'I' for Inactive)
REMARK    1  A    between atoms: N_4  and  C_2 
REMARK    2  A    between atoms: C_5  and  N_4 
ROOT
ATOM      1  N   UNL d   1      -2.921  -1.499  -0.572  0.00  0.00    -0.260 NA
ATOM      2  H   UNL d   1      -3.506  -2.331  -0.455  0.00  0.00     0.133 HD
ENDROOT
BRANCH   1   3
ATOM      3  C   UNL d   1      -1.557  -1.797  -0.534  0.00  0.00    -0.002 C 
ATOM      4  C   UNL d   1      -0.658  -0.941  -0.005  0.00  0.00     0.036 C 
ATOM      5  C   UNL d   1       0.823  -1.055  -0.023  0.00  0.00     0.290 C 
ATOM      6  C   UNL d   1      -0.936   0.383   0.618  0.00  0.00     0.073 C 
ATOM      7  O   UNL d   1       1.324   0.212   0.085  0.00  0.00    -0.317 OA
ATOM      8  O   UNL d   1       1.494  -2.064  -0.102  0.00  0.00    -0.260 OA
ATOM      9  C   UNL d   1       0.243   1.148   0.085  0.00  0.00     0.184 C 
ATOM     10  C   UNL d   1      -1.197  -3.144  -1.119  0.00  0.00     0.062 C 
ENDBRANCH   1   3
BRANCH   1  11
ATOM     11  C   UNL d   1      -3.513  -0.704  -1.602  0.00  0.00     0.051 A 
ATOM     12  C   UNL d   1      -4.912  -0.674  -1.719  0.00  0.00     0.137 A 
ATOM     13  F   UNL d   1      -5.657  -1.449  -0.915  0.00  0.00    -0.204 F 
ATOM     14  C   UNL d   1      -5.555   0.125  -2.663  0.00  0.00     0.044 A 
ATOM     15  C   UNL d   1      -4.801   0.936  -3.505  0.00  0.00     0.003 A 
ATOM     16  C   UNL d   1      -3.412   0.950  -3.392  0.00  0.00     0.002 A 
ATOM     17  C   UNL d   1      -2.774   0.141  -2.442  0.00  0.00     0.027 A 
ENDBRANCH   1  11
TORSDOF 2
