REMARK  3 active torsions:
REMARK  status: ('A' for Active; 'I' for Inactive)
REMARK    1  A    between atoms: N_2  and  S_1 
REMARK    2  A    between atoms: C_3  and  S_1 
REMARK    3  A    between atoms: C_5  and  N_2 
ROOT
ATOM      1  N   UNL d   1       4.073   3.001   0.077  0.00  0.00    -0.191 NA
ATOM      2  C   UNL d   1       0.810   2.345   1.304  0.00  0.00     0.043 A 
ATOM      3  C   UNL d   1       3.163   2.933   0.795  0.00  0.00     0.101 C 
ATOM      4  C   UNL d   1       2.044   2.892   1.690  0.00  0.00     0.066 A 
ATOM      5  C   UNL d   1       2.182   3.459   2.965  0.00  0.00     0.024 A 
ATOM      6  C   UNL d   1      -0.260   2.341   2.206  0.00  0.00     0.026 A 
ATOM      7  C   UNL d   1       1.104   3.475   3.850  0.00  0.00     0.002 A 
ATOM      8  C   UNL d   1      -0.115   2.915   3.471  0.00  0.00     0.002 A 
ENDROOT
BRANCH   2   9
ATOM      9  N   UNL d   1       0.633   1.725   0.012  0.00  0.00    -0.180 NA
ATOM     10  H   UNL d   1      -0.328   1.850  -0.319  0.00  0.00     0.146 HD
BRANCH   9  11
ATOM     11  S   UNL d   1       0.912   0.036   0.006  0.00  0.00     0.245 S 
ATOM     12  O   UNL d   1      -0.386  -0.569   0.223  0.00  0.00    -0.206 OA
ATOM     13  O   UNL d   1       2.057  -0.276   0.830  0.00  0.00    -0.206 OA
BRANCH  11  14
ATOM     14  C   UNL d   1       1.376  -0.234  -1.688  0.00  0.00     0.075 A 
ATOM     15  C   UNL d   1       2.520   0.399  -2.189  0.00  0.00     0.028 A 
ATOM     16  C   UNL d   1       2.887   0.207  -3.522  0.00  0.00     0.044 A 
ATOM     17  C   UNL d   1       2.117  -0.620  -4.333  0.00  0.00     0.116 A 
ATOM     18  C   UNL d   1       0.986  -1.263  -3.837  0.00  0.00     0.044 A 
ATOM     19  F   UNL d   1       2.471  -0.803  -5.612  0.00  0.00    -0.206 F 
ATOM     20  C   UNL d   1       0.608  -1.072  -2.505  0.00  0.00     0.028 A 
ENDBRANCH  11  14
ENDBRANCH   9  11
ENDBRANCH   2   9
TORSDOF 3
