REMARK  10 active torsions:
REMARK  status: ('A' for Active; 'I' for Inactive)
REMARK       I    between atoms: N_5  and  C_1 
REMARK       I    between atoms: N_6  and  C_1 
REMARK    1  A    between atoms: C_2  and  C_8 
REMARK    2  A    between atoms: O_7  and  C_2 
REMARK    3  A    between atoms: C_10  and  N_5 
REMARK    4  A    between atoms: C_9  and  N_6 
REMARK    5  A    between atoms: C_8  and  C_11 
REMARK    6  A    between atoms: C_11  and  C_9 
REMARK    7  A    between atoms: C_12  and  C_10 
REMARK    8  A    between atoms: C_15  and  C_12 
REMARK    9  A    between atoms: C_13  and  C_14 
REMARK   10  A    between atoms: C_14  and  C_15 
ROOT
ATOM      1  C   UNL d   1       1.093  -0.332   1.610  0.00  0.00     0.316 C 
ATOM      2  O   UNL d   1       0.536  -1.190   2.285  0.00  0.00    -0.247 OA
ATOM      3  N   UNL d   1       0.420   0.657   0.953  0.00  0.00    -0.343 N 
ATOM      4  N   UNL d   1       2.442  -0.305   1.396  0.00  0.00    -0.343 N 
ATOM      5  H   UNL d   1       0.939   1.397   0.505  0.00  0.00     0.164 HD
ATOM      6  H   UNL d   1       2.857   0.482   0.919  0.00  0.00     0.164 HD
ENDROOT
BRANCH   3   7
ATOM      7  C   UNL d   1      -1.026   0.737   1.001  0.00  0.00     0.124 C 
BRANCH   7   8
ATOM      8  C   UNL d   1      -1.558   1.491   2.223  0.00  0.00     0.020 C 
BRANCH   8   9
ATOM      9  C   UNL d   1      -1.124   2.958   2.239  0.00  0.00     0.002 C 
BRANCH   9  10
ATOM     10  C   UNL d   1      -1.692   3.697   3.452  0.00  0.00    -0.000 C 
BRANCH  10  11
ATOM     11  C   UNL d   1      -1.241   5.157   3.472  0.00  0.00    -0.005 C 
ATOM     12  C   UNL d   1      -1.800   5.890   4.681  0.00  0.00     0.005 C 
ENDBRANCH  10  11
ENDBRANCH   9  10
ENDBRANCH   8   9
ENDBRANCH   7   8
ENDBRANCH   3   7
BRANCH   4  13
ATOM     13  C   UNL d   1       3.324  -1.281   2.010  0.00  0.00     0.125 C 
BRANCH  13  14
ATOM     14  C   UNL d   1       3.108  -2.708   1.489  0.00  0.00     0.030 C 
BRANCH  14  15
ATOM     15  C   UNL d   1       3.307  -2.853  -0.017  0.00  0.00     0.111 C 
BRANCH  15  16
ATOM     16  C   UNL d   1       4.713  -2.504  -0.425  0.00  0.00     0.139 C 
ATOM     17  O   UNL d   1       5.074  -1.375  -0.725  0.00  0.00    -0.650 OA
BRANCH  16  18
ATOM     18  O   UNL d   1       5.568  -3.549  -0.379  0.00  0.00    -0.776 OA
ATOM     19  H   UNL d   1       5.155  -4.394  -0.119  0.00  0.00     0.167 HD
ENDBRANCH  16  18
ENDBRANCH  15  16
ENDBRANCH  14  15
ENDBRANCH  13  14
ENDBRANCH   4  13
TORSDOF 10
