REMARK  3 active torsions:
REMARK  status: ('A' for Active; 'I' for Inactive)
REMARK    1  A    between atoms: C_8  and  N_1 
REMARK    2  A    between atoms: C_7  and  C_2 
REMARK    3  A    between atoms: O_18  and  C_14 
ROOT
ATOM      1  N   UNL d   1      -0.199  -1.325  -0.099  0.00  0.00    -0.238 N 
ATOM      2  C   UNL d   1       0.981  -0.678   0.035  0.00  0.00     0.147 A 
ATOM      3  N   UNL d   1       0.862   0.609   0.102  0.00  0.00    -0.238 N 
ATOM      4  HN  UNL d   1       1.606   1.293   0.240  1.00  0.00     0.196 HD
ATOM      5  C   UNL d   1      -1.142  -0.357  -0.220  0.00  0.00     0.395 A 
ATOM      6  O   UNL d   1      -0.531   0.867  -0.060  0.00  0.00    -0.179 OA
ATOM      7  O   UNL d   1      -2.342  -0.489  -0.402  0.00  0.00    -0.235 OA
ENDROOT
BRANCH   2   8
ATOM      8  C   UNL d   1       2.301  -1.343  -0.003  0.00  0.00     0.011 A 
ATOM      9  C   UNL d   1       2.540  -2.426  -0.860  0.00  0.00     0.018 A 
ATOM     10  C   UNL d   1       3.800  -3.029  -0.912  0.00  0.00     0.037 A 
ATOM     11  C   UNL d   1       4.846  -2.529  -0.139  0.00  0.00     0.068 A 
ATOM     12  C   UNL d   1       4.620  -1.418   0.680  0.00  0.00     0.037 A 
ATOM     13  C   UNL d   1       3.356  -0.821   0.748  0.00  0.00     0.018 A 
BRANCH  11  14
ATOM     14  O   UNL d   1       6.121  -3.021  -0.108  0.00  0.00    -0.356 OA
ATOM     15  C   UNL d   1       6.387  -4.163  -0.916  0.00  0.00     0.210 C 
ENDBRANCH  11  14
ENDBRANCH   2   8
BRANCH   1  16
ATOM     16  C   UNL d   1      -0.487  -2.700  -0.012  0.00  0.00     0.061 A 
ATOM     17  C   UNL d   1      -1.370  -3.311  -0.899  0.00  0.00     0.117 A 
ATOM     18  N   UNL d   1      -1.617  -4.644  -0.925  0.00  0.00    -0.373 N 
ATOM     19  C   UNL d   1      -1.001  -5.398   0.010  0.00  0.00     0.088 A 
ATOM     20  HN  UNL d   1      -2.238  -5.058  -1.620  1.00  0.00     0.164 HD
ATOM     21  C   UNL d   1      -0.150  -4.881   0.971  0.00  0.00     0.019 A 
ATOM     22  C   UNL d   1       0.116  -3.514   0.953  0.00  0.00     0.033 A 
ENDBRANCH   1  16
TORSDOF 3
