REMARK  3 active torsions:
REMARK  status: ('A' for Active; 'I' for Inactive)
REMARK    1  A    between atoms: C_11  and  C_3 
REMARK    2  A    between atoms: O_13  and  C_7 
REMARK    3  A    between atoms: O_15  and  C_12 
ROOT
ATOM      1  C   UNL d   1       1.219  -1.507   0.039  0.00  0.00     0.201 A 
ATOM      2  C   UNL d   1      -0.040  -0.759   0.024  0.00  0.00     0.082 A 
ATOM      3  C   UNL d   1       2.483  -0.724   0.021  0.00  0.00     0.055 A 
ATOM      4  C   UNL d   1       2.397   0.624   0.003  0.00  0.00     0.065 A 
ATOM      5  C   UNL d   1       0.015   0.629   0.015  0.00  0.00     0.095 A 
ATOM      6  O   UNL d   1       1.195   1.325   0.014  0.00  0.00    -0.313 OA
ATOM      7  C   UNL d   1      -1.280  -1.411   0.016  0.00  0.00     0.085 A 
ATOM      8  C   UNL d   1      -1.165   1.373   0.004  0.00  0.00     0.075 A 
ATOM      9  C   UNL d   1      -2.462  -0.675   0.004  0.00  0.00     0.074 A 
ATOM     10  O   UNL d   1       1.191  -2.735   0.058  0.00  0.00    -0.286 OA
ATOM     11  C   UNL d   1      -2.393   0.714  -0.000  0.00  0.00     0.071 A 
ATOM     12  C   UNL d   1       3.576   1.558  -0.042  0.00  0.00     0.077 C 
ENDROOT
BRANCH   3  13
ATOM     13  C   UNL d   1       3.763  -1.448   0.004  0.00  0.00    -0.019 A 
ATOM     14  C   UNL d   1       4.419  -1.764   1.201  0.00  0.00     0.012 A 
ATOM     15  C   UNL d   1       5.629  -2.462   1.175  0.00  0.00     0.001 A 
ATOM     16  C   UNL d   1       6.186  -2.849  -0.043  0.00  0.00     0.000 A 
ATOM     17  C   UNL d   1       5.535  -2.542  -1.238  0.00  0.00     0.001 A 
ATOM     18  C   UNL d   1       4.327  -1.843  -1.215  0.00  0.00     0.012 A 
ENDBRANCH   3  13
BRANCH   7  19
ATOM     19  O   UNL d   1      -1.406  -2.774   0.018  0.00  0.00    -0.360 OA
ATOM     20  H   UNL d   1      -0.500  -3.163   0.029  0.00  0.00     0.217 HD
ENDBRANCH   7  19
BRANCH  11  21
ATOM     21  O   UNL d   1      -3.523   1.477  -0.011  0.00  0.00    -0.361 OA
ATOM     22  H   UNL d   1      -4.299   0.889  -0.006  0.00  0.00     0.217 HD
ENDBRANCH  11  21
TORSDOF 3
