REMARK  11 active torsions:
REMARK  status: ('A' for Active; 'I' for Inactive)
REMARK       I    between atoms: N_6  and  C_1 
REMARK    1  A    between atoms: C_16  and  C_1 
REMARK    2  A    between atoms: C_2  and  C_15 
REMARK       I    between atoms: N_5  and  C_2 
REMARK    3  A    between atoms: C_3  and  C_11 
REMARK    4  A    between atoms: O_14  and  C_3 
REMARK    5  A    between atoms: C_4  and  C_12 
REMARK    6  A    between atoms: O_13  and  C_4 
REMARK    7  A    between atoms: C_12  and  N_5 
REMARK    8  A    between atoms: C_11  and  N_6 
REMARK    9  A    between atoms: C_15  and  C_18 
REMARK   10  A    between atoms: C_17  and  C_16 
REMARK   11  A    between atoms: C_18  and  C_17 
ROOT
ATOM      1  C   UNL d   1       3.062   0.369   1.548  0.00  0.00     0.010 C 
ENDROOT
BRANCH   1   2
ATOM      2  C   UNL d   1       2.447   1.713   1.931  0.00  0.00     0.103 C 
BRANCH   2   3
ATOM      3  C   UNL d   1       0.937   1.670   2.068  0.00  0.00     0.217 C 
ATOM      4  N   UNL d   1       0.229   1.437   0.916  0.00  0.00    -0.351 N 
ATOM      5  H   UNL d   1       0.691   1.329   0.018  0.00  0.00     0.163 HD
ATOM      6  O   UNL d   1       0.380   1.872   3.145  0.00  0.00    -0.274 OA
BRANCH   4   7
ATOM      7  C   UNL d   1      -1.223   1.486   0.941  0.00  0.00     0.232 C 
BRANCH   7   8
ATOM      8  C   UNL d   1      -1.852   1.216  -0.416  0.00  0.00     0.158 C 
ATOM      9  O   UNL d   1      -1.220   1.005  -1.442  0.00  0.00    -0.649 OA
BRANCH   8  10
ATOM     10  O   UNL d   1      -3.207   1.242  -0.388  0.00  0.00    -0.775 OA
ATOM     11  H   UNL d   1      -3.588   1.427   0.493  0.00  0.00     0.167 HD
ENDBRANCH   8  10
ENDBRANCH   7   8
ENDBRANCH   4   7
ENDBRANCH   2   3
ENDBRANCH   1   2
BRANCH   1  12
ATOM     12  C   UNL d   1       4.596   0.394   1.475  0.00  0.00     0.010 C 
BRANCH  12  13
ATOM     13  C   UNL d   1       5.303   0.655   2.812  0.00  0.00     0.103 C 
BRANCH  13  14
ATOM     14  C   UNL d   1       6.817   0.607   2.670  0.00  0.00     0.217 C 
ATOM     15  N   UNL d   1       7.510   0.852   3.834  0.00  0.00    -0.351 N 
ATOM     16  H   UNL d   1       7.025   1.050   4.706  0.00  0.00     0.163 HD
ATOM     17  O   UNL d   1       7.394   0.375   1.609  0.00  0.00    -0.274 OA
BRANCH  15  18
ATOM     18  C   UNL d   1       8.960   0.856   3.834  0.00  0.00     0.232 C 
BRANCH  18  19
ATOM     19  C   UNL d   1       9.547   1.155   5.205  0.00  0.00     0.158 C 
ATOM     20  O   UNL d   1       8.882   1.376   6.208  0.00  0.00    -0.649 OA
BRANCH  19  21
ATOM     21  O   UNL d   1      10.902   1.157   5.215  0.00  0.00    -0.775 OA
ATOM     22  H   UNL d   1      11.312   0.966   4.349  0.00  0.00     0.167 HD
ENDBRANCH  19  21
ENDBRANCH  18  19
ENDBRANCH  15  18
ENDBRANCH  13  14
ENDBRANCH  12  13
ENDBRANCH   1  12
TORSDOF 11
