REMARK  7 active torsions:
REMARK  status: ('A' for Active; 'I' for Inactive)
REMARK    1  A    between atoms: C_6  and  N_1 
REMARK    2  A    between atoms: C_8  and  C_4 
REMARK    3  A    between atoms: C_10  and  C_5 
REMARK    4  A    between atoms: C_9  and  C_11 
REMARK    5  A    between atoms: O_17  and  C_13 
REMARK    6  A    between atoms: C_26  and  O_17 
REMARK    7  A    between atoms: C_29  and  C_26 
ROOT
ATOM      1  N   UNL d   1       0.080  -1.076   0.245  0.00  0.00    -0.283 N 
ATOM      2  N   UNL d   1       1.095  -0.169   0.243  0.00  0.00    -0.301 N 
ATOM      3  HN  UNL d   1       2.084  -0.366   0.393  1.00  0.00     0.187 HD
ATOM      4  C   UNL d   1       0.563   0.998   0.014  0.00  0.00     0.041 A 
ATOM      5  C   UNL d   1      -1.236  -0.491   0.002  0.00  0.00     0.147 A 
ATOM      6  C   UNL d   1      -0.940   1.006  -0.101  0.00  0.00     0.091 A 
ENDROOT
BRANCH   4   7
ATOM      7  C   UNL d   1       1.380   2.237  -0.061  0.00  0.00     0.024 A 
ATOM      8  C   UNL d   1       1.052   3.355  -0.856  0.00  0.00     0.081 A 
ATOM      9  C   UNL d   1       1.896   4.479  -0.831  0.00  0.00     0.040 A 
ATOM     10  C   UNL d   1       3.073   4.473  -0.081  0.00  0.00     0.045 A 
ATOM     11  C   UNL d   1       3.401   3.352   0.666  0.00  0.00     0.117 A 
ATOM     12  C   UNL d   1       2.567   2.243   0.689  0.00  0.00     0.058 A 
ATOM     13  F   UNL d   1       4.537   3.345   1.375  0.00  0.00    -0.206 F 
BRANCH   8  14
ATOM     14  O   UNL d   1      -0.066   3.288  -1.649  0.00  0.00    -0.346 OA
BRANCH  14  15
ATOM     15  C   UNL d   1      -0.134   4.221  -2.733  0.00  0.00     0.214 C 
BRANCH  15  16
ATOM     16  C   UNL d   1      -1.147   3.784  -3.765  0.00  0.00    -0.034 A 
ATOM     17  C   UNL d   1      -2.076   4.703  -4.277  0.00  0.00     0.009 A 
ATOM     18  C   UNL d   1      -2.936   4.340  -5.315  0.00  0.00     0.001 A 
ATOM     19  C   UNL d   1      -2.873   3.057  -5.855  0.00  0.00     0.000 A 
ATOM     20  C   UNL d   1      -1.959   2.134  -5.351  0.00  0.00     0.001 A 
ATOM     21  C   UNL d   1      -1.099   2.494  -4.312  0.00  0.00     0.009 A 
ENDBRANCH  15  16
ENDBRANCH  14  15
ENDBRANCH   8  14
ENDBRANCH   4   7
BRANCH   1  22
ATOM     22  C   UNL d   1       0.342  -2.445   0.224  0.00  0.00     0.052 A 
ATOM     23  C   UNL d   1       1.301  -3.000   1.086  0.00  0.00     0.038 A 
ATOM     24  C   UNL d   1       1.509  -4.385   1.162  0.00  0.00    -0.059 A 
ATOM     25  C   UNL d   1       2.465  -4.973   2.158  0.00  0.00     0.048 C 
ATOM     26  C   UNL d   1       0.796  -5.232   0.306  0.00  0.00     0.013 A 
ATOM     27  C   UNL d   1      -0.132  -4.709  -0.598  0.00  0.00    -0.059 A 
ATOM     28  C   UNL d   1      -0.363  -3.325  -0.614  0.00  0.00     0.038 A 
ATOM     29  C   UNL d   1      -0.871  -5.621  -1.530  0.00  0.00     0.048 C 
ENDBRANCH   1  22
BRANCH   5  30
ATOM     30  C   UNL d   1      -2.196  -0.868   1.121  0.00  0.00    -0.032 A 
ATOM     31  C   UNL d   1      -3.344  -1.625   0.834  0.00  0.00     0.025 A 
ATOM     32  C   UNL d   1      -4.189  -2.084   1.859  0.00  0.00     0.048 A 
ATOM     33  C   UNL d   1      -3.884  -1.759   3.188  0.00  0.00     0.016 A 
ATOM     34  C   UNL d   1      -2.752  -1.002   3.488  0.00  0.00     0.001 A 
ATOM     35  C   UNL d   1      -1.913  -0.565   2.463  0.00  0.00     0.009 A 
BRANCH  32  36
ATOM     36  C   UNL d   1      -5.391  -2.941   1.550  0.00  0.00     0.417 C 
ATOM     37  F   UNL d   1      -5.558  -3.188   0.220  0.00  0.00    -0.166 F 
ATOM     38  F   UNL d   1      -5.336  -4.161   2.150  0.00  0.00    -0.166 F 
ATOM     39  F   UNL d   1      -6.556  -2.372   1.968  0.00  0.00    -0.166 F 
ENDBRANCH  32  36
ENDBRANCH   5  30
TORSDOF 7
