REMARK  7 active torsions:
REMARK  status: ('A' for Active; 'I' for Inactive)
REMARK    1  A    between atoms: C_10  and  N_1 
REMARK    2  A    between atoms: C_8  and  C_4 
REMARK    3  A    between atoms: C_11  and  C_7 
REMARK    4  A    between atoms: C_12  and  C_10 
REMARK    5  A    between atoms: O_14  and  C_15 
REMARK    6  A    between atoms: C_16  and  O_14 
REMARK    7  A    between atoms: C_21  and  C_16 
ROOT
ATOM      1  N   UNL d   1       0.075  -1.464  -0.089  0.00  0.00    -0.294 N 
ATOM      2  N   UNL d   1       1.477   0.300  -0.134  0.00  0.00    -0.337 N 
ATOM      3  HN  UNL d   1       2.336   0.849  -0.162  1.00  0.00     0.167 HD
ATOM      4  C   UNL d   1       1.367  -1.000  -0.121  0.00  0.00     0.121 A 
ATOM      5  C   UNL d   1       0.179   0.771  -0.102  0.00  0.00     0.103 A 
ATOM      6  C   UNL d   1      -0.766  -0.382  -0.091  0.00  0.00     0.276 A 
ATOM      7  C   UNL d   1      -0.165   2.065  -0.031  0.00  0.00     0.046 C 
ATOM      8  O   UNL d   1      -1.981  -0.373  -0.058  0.00  0.00    -0.265 OA
ENDROOT
BRANCH   7   9
ATOM      9  C   UNL d   1      -1.540   2.553   0.083  0.00  0.00    -0.034 A 
ATOM     10  C   UNL d   1      -2.119   2.713   1.347  0.00  0.00     0.014 A 
ATOM     11  C   UNL d   1      -3.462   3.097   1.471  0.00  0.00     0.037 A 
ATOM     12  C   UNL d   1      -4.237   3.322   0.333  0.00  0.00     0.069 A 
ATOM     13  C   UNL d   1      -3.646   3.203  -0.929  0.00  0.00     0.037 A 
ATOM     14  C   UNL d   1      -2.308   2.813  -1.056  0.00  0.00     0.014 A 
BRANCH  12  15
ATOM     15  O   UNL d   1      -5.554   3.698   0.336  0.00  0.00    -0.347 OA
BRANCH  15  16
ATOM     16  C   UNL d   1      -6.327   3.226   1.443  0.00  0.00     0.214 C 
BRANCH  16  17
ATOM     17  C   UNL d   1      -7.772   3.665   1.319  0.00  0.00    -0.034 A 
ATOM     18  C   UNL d   1      -8.795   2.866   1.854  0.00  0.00     0.009 A 
ATOM     19  C   UNL d   1     -10.123   3.298   1.828  0.00  0.00     0.001 A 
ATOM     20  C   UNL d   1     -10.444   4.536   1.275  0.00  0.00     0.000 A 
ATOM     21  C   UNL d   1      -9.438   5.341   0.746  0.00  0.00     0.001 A 
ATOM     22  C   UNL d   1      -8.110   4.911   0.772  0.00  0.00     0.009 A 
ENDBRANCH  16  17
ENDBRANCH  15  16
ENDBRANCH  12  15
ENDBRANCH   7   9
BRANCH   1  23
ATOM     23  C   UNL d   1      -0.463  -2.796   0.115  0.00  0.00     0.160 C 
BRANCH  23  24
ATOM     24  C   UNL d   1      -0.723  -3.520  -1.182  0.00  0.00    -0.017 C 
ATOM     25  C   UNL d   1      -0.959  -2.983  -2.388  0.00  0.00     0.008 C 
ENDBRANCH  23  24
ENDBRANCH   1  23
BRANCH   4  26
ATOM     26  C   UNL d   1       2.561  -1.893  -0.100  0.00  0.00     0.008 A 
ATOM     27  C   UNL d   1       3.743  -1.429   0.495  0.00  0.00     0.015 A 
ATOM     28  C   UNL d   1       4.873  -2.256   0.571  0.00  0.00     0.001 A 
ATOM     29  C   UNL d   1       4.831  -3.553   0.064  0.00  0.00     0.000 A 
ATOM     30  C   UNL d   1       3.679  -4.009  -0.563  0.00  0.00     0.001 A 
ATOM     31  C   UNL d   1       2.567  -3.170  -0.669  0.00  0.00     0.015 A 
ENDBRANCH   4  26
TORSDOF 7
