REMARK  6 active torsions:
REMARK  status: ('A' for Active; 'I' for Inactive)
REMARK    1  A    between atoms: C_10  and  N_1 
REMARK    2  A    between atoms: S_8  and  C_2 
REMARK    3  A    between atoms: N_7  and  C_9 
REMARK    4  A    between atoms: C_15  and  S_8 
REMARK    5  A    between atoms: C_12  and  C_15 
REMARK    6  A    between atoms: C_14  and  C_12 
ROOT
ATOM      1  S   UNL d   1       2.632  -1.368  -0.395  0.00  0.00    -0.084 SA
ENDROOT
BRANCH   1   2
ATOM      2  C   UNL d   1       1.001  -0.834  -0.175  0.00  0.00     0.177 A 
ATOM      3  N   UNL d   1       0.479   0.407  -0.527  0.00  0.00    -0.219 N 
ATOM      4  N   UNL d   1      -0.763   0.476   0.032  0.00  0.00     0.001 NA
ATOM      5  N   UNL d   1      -0.988  -0.694   0.607  0.00  0.00    -0.006 NA
ATOM      6  N   UNL d   1       0.094  -1.516   0.490  0.00  0.00    -0.264 N 
ATOM      7  HN  UNL d   1       0.182  -2.467   0.846  1.00  0.00     0.186 HD
BRANCH   3   8
ATOM      8  C   UNL d   1       0.976   1.499  -1.298  0.00  0.00     0.056 A 
ATOM      9  C   UNL d   1       2.104   1.394  -2.120  0.00  0.00     0.031 A 
ATOM     10  C   UNL d   1       2.565   2.501  -2.840  0.00  0.00     0.002 A 
ATOM     11  C   UNL d   1       1.897   3.720  -2.761  0.00  0.00     0.000 A 
ATOM     12  C   UNL d   1       0.757   3.832  -1.972  0.00  0.00     0.002 A 
ATOM     13  C   UNL d   1       0.293   2.728  -1.249  0.00  0.00     0.031 A 
ENDBRANCH   3   8
ENDBRANCH   1   2
BRANCH   1  14
ATOM     14  C   UNL d   1       2.493  -3.128   0.025  0.00  0.00     0.166 C 
BRANCH  14  15
ATOM     15  C   UNL d   1       3.846  -3.810  -0.094  0.00  0.00     0.169 C 
ATOM     16  O   UNL d   1       4.739  -3.437  -0.852  0.00  0.00    -0.291 OA
BRANCH  15  17
ATOM     17  C   UNL d   1       4.097  -5.019   0.740  0.00  0.00     0.011 A 
ATOM     18  C   UNL d   1       3.056  -5.844   1.186  0.00  0.00     0.017 A 
ATOM     19  C   UNL d   1       3.342  -6.980   1.952  0.00  0.00     0.037 A 
ATOM     20  C   UNL d   1       4.672  -7.288   2.272  0.00  0.00     0.102 A 
ATOM     21  C   UNL d   1       5.718  -6.469   1.830  0.00  0.00     0.037 A 
ATOM     22  C   UNL d   1       5.426  -5.339   1.061  0.00  0.00     0.017 A 
BRANCH  20  23
ATOM     23  N   UNL d   1       4.971  -8.486   3.068  0.00  0.00    -0.116 N 
ATOM     24  O   UNL d   1       4.018  -9.192   3.423  0.00  0.00    -0.532 OA
ATOM     25  O   UNL d   1       6.159  -8.717   3.337  0.00  0.00    -0.532 OA
ENDBRANCH  20  23
ENDBRANCH  15  17
ENDBRANCH  14  15
ENDBRANCH   1  14
TORSDOF 6
