REMARK  1 active torsions:
REMARK  status: ('A' for Active; 'I' for Inactive)
REMARK    1  A    between atoms: C_8  and  C_2 
ROOT
ATOM      1  C   UNL d   1       0.290  -0.093  -1.048  0.00  0.00     0.128 A 
ATOM      2  C   UNL d   1       1.079  -0.581  -0.086  0.00  0.00     0.003 A 
ATOM      3  C   UNL d   1      -0.712   0.757  -0.406  0.00  0.00     0.304 A 
ATOM      4  O   UNL d   1      -0.498   0.759   0.938  0.00  0.00    -0.312 OA
ATOM      5  C   UNL d   1       0.339  -0.284  -2.442  0.00  0.00     0.106 C 
ATOM      6  C   UNL d   1       0.647  -0.038   1.228  0.00  0.00     0.220 A 
ATOM      7  N   UNL d   1       0.404  -0.481  -3.583  0.00  0.00    -0.191 NA
ATOM      8  O   UNL d   1      -1.603   1.365  -0.969  0.00  0.00    -0.258 OA
ENDROOT
BRANCH   2   9
ATOM      9  C   UNL d   1       2.236  -1.489  -0.194  0.00  0.00    -0.026 A 
ATOM     10  C   UNL d   1       3.296  -1.409   0.725  0.00  0.00     0.012 A 
ATOM     11  C   UNL d   1       4.390  -2.278   0.646  0.00  0.00     0.001 A 
ATOM     12  C   UNL d   1       4.443  -3.246  -0.351  0.00  0.00     0.000 A 
ATOM     13  C   UNL d   1       3.399  -3.350  -1.263  0.00  0.00     0.001 A 
ATOM     14  C   UNL d   1       2.302  -2.486  -1.180  0.00  0.00     0.012 A 
ENDBRANCH   2   9
TORSDOF 1
