REMARK  2 active torsions:
REMARK  status: ('A' for Active; 'I' for Inactive)
REMARK    1  A    between atoms: N_5  and  C_2 
REMARK       I    between atoms: C_9  and  N_5 
REMARK       I    between atoms: N_12  and  C_9 
REMARK    2  A    between atoms: C_15  and  N_12 
ROOT
ATOM      1  C   UNL d   1       1.426  -0.408  -0.053  0.00  0.00     0.085 A 
ATOM      2  C   UNL d   1       2.786  -0.235   0.128  0.00  0.00     0.095 A 
ATOM      3  C   UNL d   1       0.714   0.826  -0.009  0.00  0.00     0.003 A 
ATOM      4  C   UNL d   1       0.748  -1.678  -0.277  0.00  0.00     0.302 A 
ATOM      5  O   UNL d   1      -0.652  -1.595  -0.429  0.00  0.00    -0.274 OA
ATOM      6  S   UNL d   1       3.186   1.405   0.325  0.00  0.00    -0.082 SA
ATOM      7  C   UNL d   1       1.554   1.903   0.159  0.00  0.00     0.065 A 
ATOM      8  C   UNL d   1      -0.727   0.860  -0.157  0.00  0.00     0.010 A 
ATOM      9  C   UNL d   1      -1.371  -0.370  -0.361  0.00  0.00     0.090 A 
ATOM     10  O   UNL d   1       1.336  -2.749  -0.339  0.00  0.00    -0.259 OA
ATOM     11  C   UNL d   1      -1.501   2.020  -0.083  0.00  0.00     0.015 A 
ATOM     12  C   UNL d   1      -2.756  -0.456  -0.496  0.00  0.00     0.038 A 
ATOM     13  C   UNL d   1      -2.893   1.941  -0.209  0.00  0.00     0.001 A 
ATOM     14  C   UNL d   1      -3.518   0.708  -0.415  0.00  0.00     0.003 A 
ENDROOT
BRANCH   2  15
ATOM     15  N   UNL d   1       3.744  -1.229   0.081  0.00  0.00    -0.302 N 
ATOM     16  C   UNL d   1       5.100  -1.218   0.231  0.00  0.00     0.325 C 
ATOM     17  N   UNL d   1       5.666  -0.189   0.938  0.00  0.00    -0.309 N 
ATOM     18  O   UNL d   1       5.723  -2.189  -0.199  0.00  0.00    -0.247 OA
ATOM     19  H   UNL d   1       5.046   0.228   1.618  0.00  0.00     0.170 HD
ATOM     20  H   UNL d   1       3.415  -2.141  -0.233  0.00  0.00     0.171 HD
BRANCH  17  21
ATOM     21  C   UNL d   1       7.053  -0.123   1.194  0.00  0.00     0.036 A 
ATOM     22  C   UNL d   1       7.994  -0.443   0.210  0.00  0.00     0.031 A 
ATOM     23  C   UNL d   1       9.358  -0.463   0.513  0.00  0.00     0.026 A 
ATOM     24  C   UNL d   1       9.778  -0.172   1.808  0.00  0.00     0.034 A 
ATOM     25  C   UNL d   1       8.851   0.191   2.784  0.00  0.00     0.026 A 
ATOM     26 CL   UNL d   1      11.448  -0.279   2.208  0.00  0.00    -0.084 Cl
ATOM     27  C   UNL d   1       7.488   0.244   2.470  0.00  0.00     0.031 A 
ENDBRANCH  17  21
ENDBRANCH   2  15
TORSDOF 2
