REMARK  5 active torsions:
REMARK  status: ('A' for Active; 'I' for Inactive)
REMARK    1  A    between atoms: C_4  and  N_1 
REMARK    2  A    between atoms: C_5  and  C_3 
REMARK    3  A    between atoms: O_16  and  C_6 
REMARK    4  A    between atoms: O_17  and  C_7 
REMARK    5  A    between atoms: C_18  and  O_17 
ROOT
ATOM      1  N   UNL d   1       1.122   0.038   0.190  0.00  0.00    -0.365 N 
ATOM      2  HN  UNL d   1       0.672  -0.709   0.718  1.00  0.00     0.165 HD
ATOM      3  C   UNL d   1       0.405   0.932  -0.413  0.00  0.00     0.099 C 
ENDROOT
BRANCH   1   4
ATOM      4  C   UNL d   1       2.524   0.103   0.112  0.00  0.00     0.032 A 
ATOM      5  C   UNL d   1       3.242   1.304   0.132  0.00  0.00     0.032 A 
ATOM      6  C   UNL d   1       4.641   1.313   0.137  0.00  0.00     0.039 A 
ATOM      7  C   UNL d   1       5.352   0.114   0.146  0.00  0.00     0.068 A 
ATOM      8  C   UNL d   1       4.646  -1.089   0.130  0.00  0.00     0.039 A 
ATOM      9  C   UNL d   1       3.245  -1.094   0.114  0.00  0.00     0.032 A 
BRANCH   7  10
ATOM     10  O   UNL d   1       6.715  -0.005   0.187  0.00  0.00    -0.352 OA
BRANCH  10  11
ATOM     11  C   UNL d   1       7.457   1.214   0.251  0.00  0.00     0.171 C 
ATOM     12  C   UNL d   1       8.934   0.881   0.346  0.00  0.00     0.034 C 
ENDBRANCH  10  11
ENDBRANCH   7  10
ENDBRANCH   1   4
BRANCH   3  13
ATOM     13  C   UNL d   1      -1.067   0.954  -0.300  0.00  0.00    -0.021 A 
ATOM     14  C   UNL d   1      -1.752  -0.066   0.364  0.00  0.00     0.015 A 
ATOM     15  C   UNL d   1      -3.146  -0.015   0.479  0.00  0.00     0.037 A 
ATOM     16  C   UNL d   1      -3.856   1.055  -0.068  0.00  0.00     0.068 A 
ATOM     17  C   UNL d   1      -3.162   2.075  -0.727  0.00  0.00     0.037 A 
ATOM     18  C   UNL d   1      -1.770   2.028  -0.847  0.00  0.00     0.015 A 
BRANCH  16  19
ATOM     19  O   UNL d   1      -5.212   1.224  -0.031  0.00  0.00    -0.356 OA
ATOM     20  C   UNL d   1      -5.969   0.219   0.631  0.00  0.00     0.210 C 
ENDBRANCH  16  19
ENDBRANCH   3  13
TORSDOF 5
