REMARK  5 active torsions:
REMARK  status: ('A' for Active; 'I' for Inactive)
REMARK    1  A    between atoms: N_2  and  C_1 
REMARK       I    between atoms: C_5  and  N_2 
REMARK    2  A    between atoms: C_8  and  C_5 
REMARK    3  A    between atoms: C_13  and  C_8 
REMARK    4  A    between atoms: C_12  and  O_19 
REMARK    5  A    between atoms: O_19  and  C_13 
ROOT
ATOM      1  N   UNL d   1       4.601  -3.513  -1.428  0.00  0.00    -0.307 N 
ATOM      2  C   UNL d   1       3.363  -3.882  -0.956  0.00  0.00     0.225 C 
ATOM      3  O   UNL d   1       2.689  -4.840  -1.325  0.00  0.00    -0.273 OA
ATOM      4  H   UNL d   1       5.042  -2.661  -1.104  0.00  0.00     0.171 HD
ENDROOT
BRANCH   2   5
ATOM      5  C   UNL d   1       2.857  -2.999   0.169  0.00  0.00     0.130 C 
BRANCH   5   6
ATOM      6  C   UNL d   1       2.861  -1.522  -0.197  0.00  0.00     0.185 C 
BRANCH   6   7
ATOM      7  O   UNL d   1       4.187  -1.014   0.014  0.00  0.00    -0.351 OA
BRANCH   7   8
ATOM      8  C   UNL d   1       4.284   0.351   0.056  0.00  0.00     0.069 A 
ATOM      9  C   UNL d   1       5.288   0.864   0.883  0.00  0.00     0.040 A 
ATOM     10  C   UNL d   1       5.480   2.244   0.985  0.00  0.00     0.045 A 
ATOM     11  C   UNL d   1       4.676   3.100   0.245  0.00  0.00     0.116 A 
ATOM     12  C   UNL d   1       3.687   2.604  -0.595  0.00  0.00     0.045 A 
ATOM     13  F   UNL d   1       4.860   4.424   0.337  0.00  0.00    -0.206 F 
ATOM     14  C   UNL d   1       3.490   1.223  -0.694  0.00  0.00     0.040 A 
ENDBRANCH   7   8
ENDBRANCH   6   7
ENDBRANCH   5   6
ENDBRANCH   2   5
BRANCH   1  15
ATOM     15  C   UNL d   1       5.276  -4.244  -2.365  0.00  0.00     0.150 A 
ATOM     16  N   UNL d   1       4.967  -5.396  -2.902  0.00  0.00    -0.346 N 
ATOM     17  C   UNL d   1       5.959  -5.772  -3.785  0.00  0.00     0.097 A 
ATOM     18  HN  UNL d   1       4.124  -5.933  -2.699  1.00  0.00     0.167 HD
ATOM     19  C   UNL d   1       7.003  -4.881  -3.917  0.00  0.00     0.070 A 
ATOM     20  S   UNL d   1       6.743  -3.537  -2.880  0.00  0.00    -0.064 SA
ENDBRANCH   1  15
TORSDOF 5
