REMARK  6 active torsions:
REMARK  status: ('A' for Active; 'I' for Inactive)
REMARK    1  A    between atoms: C_10  and  N_1 
REMARK    2  A    between atoms: C_8  and  C_2 
REMARK       I    between atoms: C_7  and  N_9 
REMARK    3  A    between atoms: C_11  and  C_7 
REMARK    4  A    between atoms: O_18  and  C_8 
REMARK    5  A    between atoms: N_9  and  C_16 
REMARK    6  A    between atoms: C_25  and  O_18 
ROOT
ATOM      1  C   UNL d   1      -0.688  -2.440  -0.095  0.00  0.00     0.056 A 
ATOM      2  C   UNL d   1      -0.184  -3.159   0.997  0.00  0.00     0.034 A 
ATOM      3  C   UNL d   1      -1.347  -3.130  -1.115  0.00  0.00     0.034 A 
ATOM      4  C   UNL d   1      -1.011  -5.243   0.064  0.00  0.00     0.034 A 
ATOM      5  C   UNL d   1      -1.495  -4.529  -1.038  0.00  0.00     0.032 A 
ATOM      6  C   UNL d   1      -0.368  -4.540   1.086  0.00  0.00     0.032 A 
ENDROOT
BRANCH   1   7
ATOM      7  N   UNL d   1      -0.453  -1.035  -0.130  0.00  0.00    -0.260 N 
ATOM      8  N   UNL d   1       0.674  -0.567   0.462  0.00  0.00    -0.297 N 
ATOM      9  C   UNL d   1       0.695   0.740   0.212  0.00  0.00     0.041 A 
ATOM     10  HN  UNL d   1       1.362  -1.105   0.990  1.00  0.00     0.187 HD
ATOM     11  C   UNL d   1       1.867   1.535   0.666  0.00  0.00     0.071 C 
ATOM     12  C   UNL d   1      -0.485   1.172  -0.447  0.00  0.00     0.087 A 
ATOM     13  C   UNL d   1      -1.221   0.003  -0.644  0.00  0.00     0.049 A 
ATOM     14  C   UNL d   1      -2.606  -0.179  -1.161  0.00  0.00     0.071 C 
BRANCH  12  15
ATOM     15  C   UNL d   1      -0.857   2.533  -0.824  0.00  0.00     0.297 C 
ATOM     16  O   UNL d   1      -1.868   2.818  -1.454  0.00  0.00    -0.259 OA
BRANCH  15  17
ATOM     17  O   UNL d   1       0.078   3.447  -0.434  0.00  0.00    -0.318 OA
BRANCH  17  18
ATOM     18  C   UNL d   1      -0.032   4.758  -1.004  0.00  0.00     0.174 C 
ATOM     19  C   UNL d   1       0.673   4.760  -2.347  0.00  0.00     0.034 C 
ENDBRANCH  17  18
ENDBRANCH  15  17
ENDBRANCH  12  15
ENDBRANCH   1   7
BRANCH   4  20
ATOM     20  N   UNL d   1      -1.101  -6.644   0.228  0.00  0.00    -0.327 N 
ATOM     21  C   UNL d   1      -1.605  -7.578  -0.660  0.00  0.00     0.229 C 
ATOM     22  O   UNL d   1      -2.102  -7.307  -1.753  0.00  0.00    -0.272 OA
ATOM     23  H   UNL d   1      -0.712  -7.001   1.088  0.00  0.00     0.169 HD
BRANCH  21  24
ATOM     24  C   UNL d   1      -1.504  -9.045  -0.166  0.00  0.00     0.030 C 
ATOM     25  C   UNL d   1      -2.360  -9.244   1.094  0.00  0.00     0.025 C 
ATOM     26  C   UNL d   1      -2.026  -9.991  -1.265  0.00  0.00     0.025 C 
ATOM     27  C   UNL d   1      -0.043  -9.421   0.137  0.00  0.00     0.025 C 
ENDBRANCH  21  24
ENDBRANCH   4  20
TORSDOF 6
