REMARK  4 active torsions:
REMARK  status: ('A' for Active; 'I' for Inactive)
REMARK    1  A    between atoms: C_3  and  C_1 
REMARK    2  A    between atoms: C_4  and  C_1 
REMARK    3  A    between atoms: O_13  and  N_5 
REMARK    4  A    between atoms: N_8  and  C_7 
ROOT
ATOM      1  C   UNL d   1      -1.274   1.162   0.157  0.00  0.00    -0.000 C 
ATOM      2  C   UNL d   1      -0.708   0.736   1.320  0.00  0.00    -0.075 C 
ATOM      3  C   UNL d   1       0.174  -0.479   1.513  0.00  0.00     0.044 C 
ATOM      4  C   UNL d   1      -0.885   1.458   2.645  0.00  0.00     0.044 C 
ENDROOT
BRANCH   1   5
ATOM      5  C   UNL d   1      -1.172   0.416  -1.180  0.00  0.00     0.039 C 
ATOM      6  N   UNL d   1      -0.608  -0.759  -1.267  0.00  0.00    -0.273 N 
ATOM      7  HN  UNL d   1      -0.228  -1.264  -0.466  1.00  0.00     0.194 HD
ATOM      8  C   UNL d   1      -1.754   1.067  -2.434  0.00  0.00     0.071 C 
BRANCH   6   9
ATOM      9  O   UNL d   1      -0.580  -1.250  -2.576  0.00  0.00    -0.290 OA
ATOM     10  H   UNL d   1      -0.071  -2.076  -2.477  0.00  0.00     0.244 HD
ENDBRANCH   6   9
ENDBRANCH   1   5
BRANCH   1  11
ATOM     11  C   UNL d   1      -2.001   2.458   0.167  0.00  0.00    -0.024 A 
ATOM     12  C   UNL d   1      -1.313   3.652  -0.052  0.00  0.00     0.014 A 
ATOM     13  C   UNL d   1      -2.008   4.872  -0.135  0.00  0.00     0.030 A 
ATOM     14  C   UNL d   1      -3.405   4.955  -0.002  0.00  0.00     0.029 A 
ATOM     15  C   UNL d   1      -4.062   3.740   0.264  0.00  0.00     0.030 A 
ATOM     16  C   UNL d   1      -3.382   2.513   0.350  0.00  0.00     0.014 A 
BRANCH  14  17
ATOM     17  N   UNL d   1      -4.111   6.142  -0.209  0.00  0.00    -0.390 N 
ATOM     18  C   UNL d   1      -5.355   6.400   0.517  0.00  0.00     0.149 C 
ATOM     19  C   UNL d   1      -3.410   7.355  -0.631  0.00  0.00     0.149 C 
ENDBRANCH  14  17
ENDBRANCH   1  11
TORSDOF 4
