REMARK  4 active torsions:
REMARK  status: ('A' for Active; 'I' for Inactive)
REMARK    1  A    between atoms: C_7  and  C_1 
REMARK    2  A    between atoms: C_8  and  C_3 
REMARK    3  A    between atoms: O_16  and  C_7 
REMARK    4  A    between atoms: C_20  and  O_16 
ROOT
ATOM      1  C   UNL d   1      -0.175  -1.106   0.077  0.00  0.00     0.104 A 
ATOM      2  S   UNL d   1       1.366  -0.348   0.081  0.00  0.00    -0.064 SA
ATOM      3  C   UNL d   1       0.621   1.199   0.057  0.00  0.00     0.085 A 
ATOM      4  N   UNL d   1      -0.695   1.172   0.106  0.00  0.00    -0.352 N 
ATOM      5  HN  UNL d   1      -1.290   2.000   0.153  1.00  0.00     0.166 HD
ATOM      6  C   UNL d   1      -1.165  -0.134   0.084  0.00  0.00     0.029 A 
ATOM      7  C   UNL d   1      -2.641  -0.325   0.036  0.00  0.00     0.070 C 
ENDROOT
BRANCH   3   8
ATOM      8  C   UNL d   1       1.417   2.438   0.013  0.00  0.00    -0.002 A 
ATOM      9  C   UNL d   1       0.913   3.590   0.645  0.00  0.00     0.024 A 
ATOM     10  C   UNL d   1       1.637   4.771   0.568  0.00  0.00    -0.022 A 
ATOM     11  C   UNL d   1       1.365   6.090   1.179  0.00  0.00     0.068 C 
ATOM     12  C   UNL d   1       2.839   4.822  -0.114  0.00  0.00     0.075 A 
ATOM     13  C   UNL d   1       2.389   6.926   0.409  0.00  0.00     0.180 C 
ATOM     14  O   UNL d   1       3.433   6.057  -0.092  0.00  0.00    -0.350 OA
ATOM     15  C   UNL d   1       3.371   3.716  -0.738  0.00  0.00     0.038 A 
ATOM     16  C   UNL d   1       2.649   2.519  -0.678  0.00  0.00     0.017 A 
ENDBRANCH   3   8
BRANCH   1  17
ATOM     17  C   UNL d   1      -0.249  -2.550   0.003  0.00  0.00     0.302 C 
ATOM     18  O   UNL d   1       0.697  -3.319  -0.099  0.00  0.00    -0.259 OA
BRANCH  17  19
ATOM     19  O   UNL d   1      -1.556  -2.942  -0.037  0.00  0.00    -0.317 OA
BRANCH  19  20
ATOM     20  C   UNL d   1      -1.801  -4.231  -0.612  0.00  0.00     0.174 C 
ATOM     21  C   UNL d   1      -1.919  -4.052  -2.116  0.00  0.00     0.034 C 
ENDBRANCH  19  20
ENDBRANCH  17  19
ENDBRANCH   1  17
TORSDOF 4
