REMARK  11 active torsions:
REMARK  status: ('A' for Active; 'I' for Inactive)
REMARK    1  A    between atoms: C_2  and  C_1 
REMARK    2  A    between atoms: C_3  and  C_1 
REMARK    3  A    between atoms: C_30  and  C_1 
REMARK       I    between atoms: N_13  and  C_2 
REMARK       I    between atoms: N_12  and  C_3 
REMARK    4  A    between atoms: C_4  and  C_19 
REMARK    5  A    between atoms: C_5  and  C_18 
REMARK    6  A    between atoms: N_6  and  N_12 
REMARK    7  A    between atoms: N_8  and  N_13 
REMARK    8  A    between atoms: O_29  and  C_10 
REMARK    9  A    between atoms: O_28  and  C_11 
REMARK   10  A    between atoms: C_31  and  C_30 
REMARK   11  A    between atoms: C_32  and  C_31 
ROOT
ATOM      1  C   UNL d   1       0.877   0.123  -0.001  0.00  0.00     0.173 C 
ENDROOT
BRANCH   1   2
ATOM      2  C   UNL d   1       0.205   0.735   1.213  0.00  0.00     0.249 C 
ATOM      3  N   UNL d   1      -0.088  -0.177   2.219  0.00  0.00    -0.270 N 
ATOM      4  H   UNL d   1       0.186  -1.153   2.152  0.00  0.00     0.190 HD
ATOM      5  O   UNL d   1      -0.028   1.943   1.287  0.00  0.00    -0.271 OA
BRANCH   3   6
ATOM      6  N   UNL d   1      -0.705   0.274   3.341  0.00  0.00    -0.308 N 
ATOM      7  C   UNL d   1      -0.767  -0.533   4.352  0.00  0.00     0.121 C 
ATOM      8  HN  UNL d   1      -1.103   1.212   3.387  1.00  0.00     0.186 HD
BRANCH   7   9
ATOM      9  C   UNL d   1      -1.403  -0.076   5.603  0.00  0.00     0.015 A 
ATOM     10  C   UNL d   1      -2.305   0.997   5.612  0.00  0.00     0.077 A 
ATOM     11  C   UNL d   1      -2.862   1.440   6.808  0.00  0.00     0.039 A 
ATOM     12  C   UNL d   1      -2.493   0.834   8.009  0.00  0.00     0.022 A 
ATOM     13  C   UNL d   1      -1.590  -0.230   8.000  0.00  0.00     0.011 A 
ATOM     14  C   UNL d   1      -1.053  -0.705   6.801  0.00  0.00     0.034 A 
ATOM     15 BR   UNL d   1      -1.062  -1.017   9.637  0.00  0.00    -0.051 Br
BRANCH  10  16
ATOM     16  O   UNL d   1      -2.684   1.664   4.480  0.00  0.00    -0.360 OA
ATOM     17  H   UNL d   1      -2.063   1.414   3.758  0.00  0.00     0.217 HD
ENDBRANCH  10  16
ENDBRANCH   7   9
ENDBRANCH   3   6
ENDBRANCH   1   2
BRANCH   1  18
ATOM     18  C   UNL d   1       0.510   0.798  -1.320  0.00  0.00     0.249 C 
ATOM     19  N   UNL d   1       0.232   2.156  -1.298  0.00  0.00    -0.270 N 
ATOM     20  H   UNL d   1       0.099   2.642  -0.406  0.00  0.00     0.190 HD
ATOM     21  O   UNL d   1       0.550   0.136  -2.365  0.00  0.00    -0.271 OA
BRANCH  19  22
ATOM     22  N   UNL d   1      -0.070   2.776  -2.475  0.00  0.00    -0.308 N 
ATOM     23  C   UNL d   1      -0.407   4.024  -2.435  0.00  0.00     0.121 C 
ATOM     24  HN  UNL d   1      -0.032   2.271  -3.360  1.00  0.00     0.186 HD
BRANCH  23  25
ATOM     25  C   UNL d   1      -0.731   4.736  -3.700  0.00  0.00     0.015 A 
ATOM     26  C   UNL d   1      -0.746   4.068  -4.934  0.00  0.00     0.077 A 
ATOM     27  C   UNL d   1      -1.028   4.757  -6.112  0.00  0.00     0.039 A 
ATOM     28  C   UNL d   1      -1.299   6.122  -6.072  0.00  0.00     0.022 A 
ATOM     29  C   UNL d   1      -1.291   6.789  -4.848  0.00  0.00     0.011 A 
ATOM     30  C   UNL d   1      -1.013   6.107  -3.658  0.00  0.00     0.034 A 
ATOM     31 BR   UNL d   1      -1.659   8.646  -4.802  0.00  0.00    -0.051 Br
BRANCH  26  32
ATOM     32  O   UNL d   1      -0.489   2.730  -5.071  0.00  0.00    -0.360 OA
ATOM     33  H   UNL d   1      -0.269   2.361  -4.184  0.00  0.00     0.217 HD
ENDBRANCH  26  32
ENDBRANCH  23  25
ENDBRANCH  19  22
ENDBRANCH   1  18
BRANCH   1  34
ATOM     34  C   UNL d   1       2.410   0.093   0.140  0.00  0.00     0.024 C 
BRANCH  34  35
ATOM     35  C   UNL d   1       2.941  -0.901   1.186  0.00  0.00     0.001 C 
BRANCH  35  36
ATOM     36  C   UNL d   1       4.473  -0.923   1.192  0.00  0.00    -0.005 C 
ATOM     37  C   UNL d   1       5.036  -1.887   2.226  0.00  0.00     0.005 C 
ENDBRANCH  35  36
ENDBRANCH  34  35
ENDBRANCH   1  34
TORSDOF 11
