REMARK  7 active torsions:
REMARK  status: ('A' for Active; 'I' for Inactive)
REMARK    1  A    between atoms: C_7  and  C_1 
REMARK    2  A    between atoms: O_17  and  C_1 
REMARK    3  A    between atoms: C_3  and  O_11 
REMARK    4  A    between atoms: C_5  and  C_3 
REMARK    5  A    between atoms: C_6  and  C_5 
REMARK    6  A    between atoms: O_11  and  C_16 
REMARK    7  A    between atoms: C_20  and  O_17 
ROOT
ATOM      1  C   UNL d   1       0.121   0.384   1.008  0.00  0.00     0.039 A 
ATOM      2  C   UNL d   1       0.212   1.769   1.200  0.00  0.00     0.020 A 
ATOM      3  C   UNL d   1      -0.778  -0.355   1.789  0.00  0.00     0.020 A 
ATOM      4  C   UNL d   1      -1.378   1.651   3.016  0.00  0.00     0.079 A 
ATOM      5  C   UNL d   1      -0.536   2.402   2.199  0.00  0.00     0.038 A 
ATOM      6  C   UNL d   1      -1.527   0.279   2.790  0.00  0.00     0.038 A 
ENDROOT
BRANCH   4   7
ATOM      7  O   UNL d   1      -2.068   2.158   4.151  0.00  0.00    -0.276 OA
BRANCH   7   8
ATOM      8  C   UNL d   1      -1.935   3.452   4.634  0.00  0.00     0.288 C 
ATOM      9  O   UNL d   1      -1.384   4.399   4.088  0.00  0.00    -0.260 OA
BRANCH   8  10
ATOM     10  C   UNL d   1      -2.505   3.614   5.988  0.00  0.00     0.084 C 
BRANCH  10  11
ATOM     11  C   UNL d   1      -3.147   2.679   6.704  0.00  0.00     0.025 C 
ATOM     12  C   UNL d   1      -3.614   2.945   8.031  0.00  0.00     0.005 A 
ATOM     13  S   UNL d   1      -4.572   1.753   8.832  0.00  0.00    -0.102 SA
ATOM     14  C   UNL d   1      -3.429   4.041   8.864  0.00  0.00     0.019 A 
ATOM     15  C   UNL d   1      -4.725   2.702  10.243  0.00  0.00     0.050 A 
ATOM     16  C   UNL d   1      -4.065   3.902  10.132  0.00  0.00     0.008 A 
ENDBRANCH  10  11
ENDBRANCH   8  10
ENDBRANCH   7   8
ENDBRANCH   4   7
BRANCH   1  17
ATOM     17  C   UNL d   1       1.026  -0.236   0.001  0.00  0.00     0.293 C 
ATOM     18  O   UNL d   1       1.730   0.414  -0.756  0.00  0.00    -0.259 OA
BRANCH  17  19
ATOM     19  O   UNL d   1       0.998  -1.589   0.094  0.00  0.00    -0.318 OA
BRANCH  19  20
ATOM     20  C   UNL d   1       1.902  -2.287  -0.778  0.00  0.00     0.174 C 
ATOM     21  C   UNL d   1       3.269  -2.415  -0.129  0.00  0.00     0.034 C 
ENDBRANCH  19  20
ENDBRANCH  17  19
ENDBRANCH   1  17
TORSDOF 7
