REMARK  4 active torsions:
REMARK  status: ('A' for Active; 'I' for Inactive)
REMARK    1  A    between atoms: C_16  and  N_1 
REMARK    2  A    between atoms: C_15  and  C_4 
REMARK    3  A    between atoms: C_7  and  N_11 
REMARK    4  A    between atoms: N_11  and  N_13 
ROOT
ATOM      1  N   UNL d   1      -6.791  -6.154  -3.036  0.00  0.00    -0.267 N 
ATOM      2  N   UNL d   1      -7.423  -6.786  -2.015  0.00  0.00    -0.298 N 
ATOM      3  HN  UNL d   1      -8.297  -7.311  -2.059  1.00  0.00     0.187 HD
ATOM      4  C   UNL d   1      -5.541  -5.756  -1.238  0.00  0.00     0.022 A 
ATOM      5  C   UNL d   1      -5.643  -5.531  -2.596  0.00  0.00     0.131 A 
ATOM      6  C   UNL d   1      -6.658  -6.573  -0.940  0.00  0.00     0.035 A 
ATOM      7  C   UNL d   1      -7.027  -7.187   0.362  0.00  0.00     0.070 C 
ENDROOT
BRANCH   4   8
ATOM      8  C   UNL d   1      -4.494  -5.253  -0.383  0.00  0.00     0.122 C 
ATOM      9  N   UNL d   1      -4.554  -5.486   0.888  0.00  0.00    -0.309 N 
ATOM     10  HN  UNL d   1      -5.310  -5.996   1.346  1.00  0.00     0.186 HD
BRANCH   9  11
ATOM     11  N   UNL d   1      -3.446  -4.947   1.555  0.00  0.00    -0.280 N 
ATOM     12  HN  UNL d   1      -2.651  -4.519   1.080  1.00  0.00     0.189 HD
BRANCH  11  13
ATOM     13  C   UNL d   1      -3.545  -5.053   2.838  0.00  0.00     0.162 A 
ATOM     14  N   UNL d   1      -4.599  -5.586   3.496  0.00  0.00    -0.306 N 
ATOM     15  C   UNL d   1      -4.580  -5.579   4.856  0.00  0.00     0.233 A 
ATOM     16  H   UNL d   1      -5.395  -5.901   2.964  0.00  0.00     0.171 HD
ATOM     17  O   UNL d   1      -5.516  -5.949   5.552  0.00  0.00    -0.272 OA
ATOM     18  C   UNL d   1      -3.268  -5.061   5.393  0.00  0.00     0.185 A 
ATOM     19  S   UNL d   1      -2.323  -4.511   3.941  0.00  0.00    -0.083 SA
ENDBRANCH  11  13
ENDBRANCH   9  11
ENDBRANCH   4   8
BRANCH   1  20
ATOM     20  C   UNL d   1      -7.320  -6.188  -4.357  0.00  0.00     0.056 A 
ATOM     21  C   UNL d   1      -8.573  -6.780  -4.583  0.00  0.00     0.031 A 
ATOM     22  C   UNL d   1      -9.112  -6.819  -5.871  0.00  0.00     0.002 A 
ATOM     23  C   UNL d   1      -8.402  -6.279  -6.942  0.00  0.00     0.000 A 
ATOM     24  C   UNL d   1      -7.156  -5.694  -6.727  0.00  0.00     0.002 A 
ATOM     25  C   UNL d   1      -6.613  -5.643  -5.439  0.00  0.00     0.031 A 
ENDBRANCH   1  20
TORSDOF 4
