REMARK  7 active torsions:
REMARK  status: ('A' for Active; 'I' for Inactive)
REMARK    1  A    between atoms: C_14  and  C_3 
REMARK    2  A    between atoms: C_7  and  C_4 
REMARK    3  A    between atoms: C_9  and  C_7 
REMARK    4  A    between atoms: C_8  and  N_10 
REMARK    5  A    between atoms: N_11  and  C_8 
REMARK       I    between atoms: N_13  and  C_9 
REMARK    6  A    between atoms: N_10  and  N_13 
REMARK    7  A    between atoms: C_16  and  N_11 
ROOT
ATOM      1  C   UNL d   1       1.788  -2.868  -0.329  0.00  0.00     0.241 C 
ATOM      2  N   UNL d   1       2.576  -1.945  -0.963  0.00  0.00    -0.268 N 
ATOM      3  O   UNL d   1       2.288  -3.921   0.080  0.00  0.00    -0.271 OA
ATOM      4  H   UNL d   1       3.560  -2.176  -1.094  0.00  0.00     0.190 HD
ENDROOT
BRANCH   1   5
ATOM      5  C   UNL d   1       0.314  -2.586  -0.167  0.00  0.00     0.162 C 
BRANCH   5   6
ATOM      6  C   UNL d   1       0.053  -1.579   0.902  0.00  0.00     0.031 A 
ATOM      7  N   UNL d   1      -0.221  -0.281   0.497  0.00  0.00    -0.352 N 
ATOM      8  C   UNL d   1      -0.521   0.479   1.533  0.00  0.00     0.085 A 
ATOM      9  HN  UNL d   1      -0.195   0.043  -0.470  1.00  0.00     0.166 HD
ATOM     10  S   UNL d   1      -0.360  -0.301   3.058  0.00  0.00    -0.075 SA
ATOM     11  C   UNL d   1       0.022  -1.777   2.272  0.00  0.00     0.004 A 
ATOM     12  C   UNL d   1       0.255  -3.017   3.063  0.00  0.00     0.058 C 
BRANCH   8  13
ATOM     13  C   UNL d   1      -1.034   1.851   1.422  0.00  0.00    -0.002 A 
ATOM     14  C   UNL d   1      -1.844   2.178   0.322  0.00  0.00     0.014 A 
ATOM     15  C   UNL d   1      -2.383   3.459   0.181  0.00  0.00     0.001 A 
ATOM     16  C   UNL d   1      -2.108   4.435   1.133  0.00  0.00     0.000 A 
ATOM     17  C   UNL d   1      -1.294   4.132   2.224  0.00  0.00     0.001 A 
ATOM     18  C   UNL d   1      -0.760   2.848   2.368  0.00  0.00     0.014 A 
ENDBRANCH   8  13
ENDBRANCH   5   6
ENDBRANCH   1   5
BRANCH   2  19
ATOM     19  N   UNL d   1       2.177  -0.651  -1.315  0.00  0.00    -0.274 N 
ATOM     20  H   UNL d   1       1.562  -0.143  -0.676  0.00  0.00     0.189 HD
BRANCH  19  21
ATOM     21  C   UNL d   1       2.840   0.013  -2.314  0.00  0.00     0.191 C 
ATOM     22  S   UNL d   1       3.476  -0.742  -3.669  0.00  0.00    -0.039 SA
BRANCH  21  23
ATOM     23  N   UNL d   1       2.979   1.367  -2.225  0.00  0.00    -0.332 N 
ATOM     24  H   UNL d   1       3.280   1.783  -3.100  0.00  0.00     0.168 HD
BRANCH  23  25
ATOM     25  C   UNL d   1       2.944   2.247  -1.123  0.00  0.00     0.034 A 
ATOM     26  C   UNL d   1       2.922   1.846   0.212  0.00  0.00     0.030 A 
ATOM     27  C   UNL d   1       2.862   2.796   1.240  0.00  0.00     0.009 A 
ATOM     28  C   UNL d   1       2.859   4.163   0.950  0.00  0.00    -0.062 A 
ATOM     29  C   UNL d   1       2.945   4.567  -0.384  0.00  0.00     0.009 A 
ATOM     30  C   UNL d   1       2.700   5.170   2.049  0.00  0.00     0.048 C 
ATOM     31  C   UNL d   1       2.998   3.616  -1.409  0.00  0.00     0.030 A 
ENDBRANCH  23  25
ENDBRANCH  21  23
ENDBRANCH  19  21
ENDBRANCH   2  19
TORSDOF 7
