REMARK  0 active torsions:
REMARK  status: ('A' for Active; 'I' for Inactive)
ROOT
ATOM      1  C   UNL d   1      -1.485  -0.469   0.005  0.00  0.00     0.142 A 
ATOM      2  C   UNL d   1      -0.157   0.158   0.004  0.00  0.00     0.051 A 
ATOM      3  N   UNL d   1      -2.579   0.352   0.011  0.00  0.00    -0.280 N 
ATOM      4  C   UNL d   1      -0.188   1.541   0.014  0.00  0.00     0.090 A 
ATOM      5  N   UNL d   1      -1.849  -1.724   0.006  0.00  0.00    -0.283 N 
ATOM      6  HN  UNL d   1      -1.233  -2.537   0.003  1.00  0.00     0.188 HD
ATOM      7  N   UNL d   1      -1.297   2.352   0.015  0.00  0.00    -0.345 N 
ATOM      8  HN  UNL d   1      -1.222   3.370   0.016  1.00  0.00     0.167 HD
ATOM      9  S   UNL d   1       1.407   2.162   0.032  0.00  0.00    -0.075 SA
ATOM     10  C   UNL d   1      -2.456   1.743   0.013  0.00  0.00     0.192 A 
ATOM     11  C   UNL d   1       1.135  -0.410  -0.005  0.00  0.00    -0.028 A 
ATOM     12  N   UNL d   1      -3.231  -1.738   0.013  0.00  0.00    -0.287 N 
ATOM     13  HN  UNL d   1      -3.818  -2.571   0.015  1.00  0.00     0.188 HD
ATOM     14  C   UNL d   1       2.087   0.593   0.027  0.00  0.00    -0.008 A 
ATOM     15  C   UNL d   1      -3.664  -0.488   0.015  0.00  0.00     0.101 A 
ATOM     16  C   UNL d   1       1.493  -1.863  -0.014  0.00  0.00     0.041 C 
ATOM     17  C   UNL d   1       3.568   0.365   0.018  0.00  0.00     0.047 C 
ATOM     18  C   UNL d   1      -5.081  -0.069   0.023  0.00  0.00     0.091 C 
ATOM     19  C   UNL d   1       2.964  -2.074  -0.401  0.00  0.00     0.005 C 
ATOM     20  C   UNL d   1       3.889  -1.103   0.349  0.00  0.00     0.005 C 
ENDROOT
TORSDOF 0
