REMARK  7 active torsions:
REMARK  status: ('A' for Active; 'I' for Inactive)
REMARK    1  A    between atoms: C_11  and  N_3 
REMARK    2  A    between atoms: O_12  and  C_9 
REMARK    3  A    between atoms: C_17  and  C_11 
REMARK    4  A    between atoms: C_21  and  O_12 
REMARK    5  A    between atoms: O_22  and  C_25 
REMARK    6  A    between atoms: C_28  and  O_22 
REMARK    7  A    between atoms: C_33  and  C_28 
ROOT
ATOM      1  C   UNL d   1      -0.194  -0.850   0.095  0.00  0.00     0.147 A 
ATOM      2  C   UNL d   1      -0.443   0.490   0.043  0.00  0.00     0.151 A 
ATOM      3  N   UNL d   1       1.892   0.881   0.083  0.00  0.00    -0.260 N 
ATOM      4  N   UNL d   1      -1.323  -1.589   0.055  0.00  0.00    -0.305 N 
ATOM      5  HN  UNL d   1      -1.402  -2.605   0.104  1.00  0.00     0.171 HD
ATOM      6  N   UNL d   1       1.077  -1.363   0.142  0.00  0.00    -0.287 N 
ATOM      7  C   UNL d   1       2.163  -0.496   0.184  0.00  0.00     0.333 A 
ATOM      8  C   UNL d   1       0.610   1.457   0.002  0.00  0.00     0.282 A 
ATOM      9  C   UNL d   1      -2.300  -0.716  -0.061  0.00  0.00     0.233 A 
ATOM     10  N   UNL d   1      -1.817   0.579   0.001  0.00  0.00    -0.309 N 
ATOM     11  O   UNL d   1       3.315  -0.928   0.281  0.00  0.00    -0.246 OA
ATOM     12  O   UNL d   1       0.410   2.661  -0.121  0.00  0.00    -0.265 OA
ATOM     13  C   UNL d   1       1.310  -2.793   0.104  0.00  0.00     0.163 C 
ATOM     14  C   UNL d   1      -2.631   1.768  -0.019  0.00  0.00     0.160 C 
ENDROOT
BRANCH   9  15
ATOM     15  O   UNL d   1      -3.586  -1.038  -0.262  0.00  0.00    -0.279 OA
BRANCH  15  16
ATOM     16  C   UNL d   1      -3.872  -2.249  -0.872  0.00  0.00     0.079 A 
ATOM     17  C   UNL d   1      -4.934  -3.025  -0.401  0.00  0.00     0.040 A 
ATOM     18  C   UNL d   1      -5.222  -4.271  -0.996  0.00  0.00     0.039 A 
ATOM     19  C   UNL d   1      -4.450  -4.735  -2.064  0.00  0.00     0.069 A 
ATOM     20  C   UNL d   1      -3.402  -3.947  -2.539  0.00  0.00     0.039 A 
ATOM     21  C   UNL d   1      -3.131  -2.704  -1.967  0.00  0.00     0.040 A 
BRANCH  19  22
ATOM     22  O   UNL d   1      -4.560  -5.951  -2.681  0.00  0.00    -0.347 OA
BRANCH  22  23
ATOM     23  C   UNL d   1      -5.866  -6.520  -2.773  0.00  0.00     0.214 C 
BRANCH  23  24
ATOM     24  C   UNL d   1      -5.858  -7.795  -3.602  0.00  0.00    -0.034 A 
ATOM     25  C   UNL d   1      -4.684  -8.357  -4.129  0.00  0.00     0.009 A 
ATOM     26  C   UNL d   1      -4.726  -9.544  -4.868  0.00  0.00     0.001 A 
ATOM     27  C   UNL d   1      -5.940 -10.189  -5.091  0.00  0.00     0.000 A 
ATOM     28  C   UNL d   1      -7.114  -9.647  -4.578  0.00  0.00     0.001 A 
ATOM     29  C   UNL d   1      -7.074  -8.459  -3.840  0.00  0.00     0.009 A 
ENDBRANCH  23  24
ENDBRANCH  22  23
ENDBRANCH  19  22
ENDBRANCH  15  16
ENDBRANCH   9  15
BRANCH   3  30
ATOM     30  C   UNL d   1       3.049   1.768   0.005  0.00  0.00     0.175 C 
BRANCH  30  31
ATOM     31  C   UNL d   1       3.448   2.323   1.356  0.00  0.00    -0.038 A 
ATOM     32  C   UNL d   1       4.364   1.643   2.176  0.00  0.00     0.034 A 
ATOM     33  C   UNL d   1       4.667   2.122   3.458  0.00  0.00     0.056 A 
ATOM     34 CL   UNL d   1       5.789   1.218   4.412  0.00  0.00    -0.083 Cl
ATOM     35  C   UNL d   1       4.057   3.289   3.928  0.00  0.00     0.055 A 
ATOM     36  C   UNL d   1       3.170   3.987   3.106  0.00  0.00     0.026 A 
ATOM     37 CL   UNL d   1       4.336   3.911   5.516  0.00  0.00    -0.083 Cl
ATOM     38  C   UNL d   1       2.870   3.509   1.829  0.00  0.00     0.010 A 
ENDBRANCH  30  31
ENDBRANCH   3  30
TORSDOF 7
