REMARK  2 active torsions:
REMARK  status: ('A' for Active; 'I' for Inactive)
REMARK    1  A    between atoms: C_14  and  N_3 
REMARK    2  A    between atoms: N_8  and  C_6 
ROOT
ATOM      1  C   UNL d   1      -0.429   0.795  -0.089  0.00  0.00     0.065 A 
ATOM      2  C   UNL d   1      -0.296  -0.581   0.015  0.00  0.00     0.143 A 
ATOM      3  N   UNL d   1      -1.592  -1.103   0.004  0.00  0.00    -0.239 N 
ATOM      4  N   UNL d   1      -2.526  -0.102  -0.073  0.00  0.00    -0.302 N 
ATOM      5  HN  UNL d   1      -3.542  -0.196  -0.072  1.00  0.00     0.186 HD
ATOM      6  C   UNL d   1       0.733   1.583  -0.145  0.00  0.00     0.099 A 
ATOM      7  C   UNL d   1      -1.812   1.017  -0.148  0.00  0.00     0.126 A 
ATOM      8  N   UNL d   1       0.879  -1.242   0.083  0.00  0.00    -0.336 N 
ATOM      9  HN  UNL d   1       0.960  -2.254   0.175  1.00  0.00     0.168 HD
ATOM     10  N   UNL d   1       1.922   0.932  -0.102  0.00  0.00    -0.342 N 
ATOM     11  HN  UNL d   1       2.798   1.451  -0.156  1.00  0.00     0.167 HD
ATOM     12  C   UNL d   1       1.929  -0.409   0.014  0.00  0.00     0.183 A 
ENDROOT
BRANCH   3  13
ATOM     13  C   UNL d   1      -2.032  -2.462   0.042  0.00  0.00     0.058 A 
ATOM     14  C   UNL d   1      -1.139  -3.533   0.160  0.00  0.00     0.031 A 
ATOM     15  C   UNL d   1      -1.618  -4.849   0.178  0.00  0.00     0.002 A 
ATOM     16  C   UNL d   1      -2.984  -5.105   0.076  0.00  0.00     0.000 A 
ATOM     17  C   UNL d   1      -3.880  -4.048  -0.042  0.00  0.00     0.002 A 
ATOM     18  C   UNL d   1      -3.409  -2.733  -0.056  0.00  0.00     0.031 A 
ENDBRANCH   3  13
BRANCH   6  19
ATOM     19  N   UNL d   1       0.675   2.966  -0.282  0.00  0.00    -0.269 NA
ATOM     20  C   UNL d   1       1.869   3.660  -0.784  0.00  0.00     0.097 C 
ATOM     21  C   UNL d   1       2.087   4.825   0.179  0.00  0.00     0.016 C 
ATOM     22  C   UNL d   1       0.704   5.079   0.750  0.00  0.00     0.016 C 
ATOM     23  C   UNL d   1       0.146   3.669   0.892  0.00  0.00     0.097 C 
ENDBRANCH   6  19
TORSDOF 2
