REMARK  3 active torsions:
REMARK  status: ('A' for Active; 'I' for Inactive)
REMARK    1  A    between atoms: N_2  and  S_1 
REMARK    2  A    between atoms: C_4  and  S_1 
REMARK    3  A    between atoms: C_11  and  C_4 
ROOT
ATOM      1  S   UNL d   1       0.963  -0.143  -0.281  0.00  0.00     0.232 S 
ATOM      2  O   UNL d   1      -0.197  -0.446  -1.097  0.00  0.00    -0.205 OA
ATOM      3  O   UNL d   1       2.113  -1.019  -0.262  0.00  0.00    -0.205 OA
ENDROOT
BRANCH   1   4
ATOM      4  N   UNL d   1       0.394  -0.035   1.331  0.00  0.00    -0.306 N 
ATOM      5  C   UNL d   1      -0.681   0.969   1.594  0.00  0.00     0.174 C 
ATOM      6  C   UNL d   1      -1.620   0.646   2.738  0.00  0.00    -0.033 A 
ATOM      7  C   UNL d   1      -2.205   1.649   3.522  0.00  0.00     0.009 A 
ATOM      8  C   UNL d   1      -1.985  -0.692   2.957  0.00  0.00    -0.049 A 
ATOM      9  C   UNL d   1      -3.141   1.318   4.505  0.00  0.00     0.001 A 
ATOM     10  C   UNL d   1      -3.516  -0.011   4.699  0.00  0.00     0.001 A 
ATOM     11  C   UNL d   1      -2.944  -1.018   3.922  0.00  0.00     0.008 A 
ATOM     12  C   UNL d   1      -1.297  -1.738   2.124  0.00  0.00     0.060 C 
ATOM     13  C   UNL d   1       0.182  -1.364   1.997  0.00  0.00     0.140 C 
ENDBRANCH   1   4
BRANCH   1  14
ATOM     14  C   UNL d   1       1.518   1.535  -0.626  0.00  0.00     0.201 C 
BRANCH  14  15
ATOM     15  C   UNL d   1       2.051   1.643  -2.039  0.00  0.00    -0.043 A 
ATOM     16  C   UNL d   1       1.183   1.916  -3.109  0.00  0.00     0.010 A 
ATOM     17  C   UNL d   1       1.680   2.109  -4.402  0.00  0.00     0.024 A 
ATOM     18  C   UNL d   1       3.049   2.025  -4.638  0.00  0.00     0.034 A 
ATOM     19  C   UNL d   1       3.923   1.724  -3.596  0.00  0.00     0.024 A 
ATOM     20 CL   UNL d   1       3.665   2.307  -6.221  0.00  0.00    -0.084 Cl
ATOM     21  C   UNL d   1       3.425   1.529  -2.302  0.00  0.00     0.010 A 
ENDBRANCH  14  15
ENDBRANCH   1  14
TORSDOF 3
