REMARK  4 active torsions:
REMARK  status: ('A' for Active; 'I' for Inactive)
REMARK    1  A    between atoms: C_13  and  N_1 
REMARK    2  A    between atoms: C_10  and  C_3 
REMARK    3  A    between atoms: C_6  and  C_14 
REMARK    4  A    between atoms: O_21  and  C_10 
ROOT
ATOM      1  C   UNL d   1       0.342  -2.442   0.027  0.00  0.00     0.037 A 
ATOM      2  C   UNL d   1       1.265  -5.135   0.084  0.00  0.00    -0.008 A 
ATOM      3  C   UNL d   1       1.243  -2.884   1.003  0.00  0.00     0.030 A 
ATOM      4  C   UNL d   1      -0.084  -3.381  -0.925  0.00  0.00     0.030 A 
ATOM      5  C   UNL d   1       0.379  -4.704  -0.905  0.00  0.00     0.016 A 
ATOM      6  C   UNL d   1       1.693  -4.211   1.039  0.00  0.00     0.016 A 
ENDROOT
BRANCH   1   7
ATOM      7  N   UNL d   1      -0.126  -1.099  -0.006  0.00  0.00    -0.317 N 
ATOM      8  C   UNL d   1       0.294  -0.052   0.821  0.00  0.00     0.225 C 
ATOM      9  C   UNL d   1      -0.530   1.169   0.492  0.00  0.00     0.120 C 
ATOM     10  O   UNL d   1       1.137  -0.043   1.703  0.00  0.00    -0.273 OA
ATOM     11  C   UNL d   1      -1.167   0.841  -0.846  0.00  0.00     0.111 C 
ATOM     12  C   UNL d   1      -1.215  -0.677  -0.861  0.00  0.00     0.148 C 
BRANCH  11  13
ATOM     13  C   UNL d   1      -0.358   1.383  -2.005  0.00  0.00     0.145 C 
ATOM     14  O   UNL d   1       0.191   0.703  -2.855  0.00  0.00    -0.650 OA
BRANCH  13  15
ATOM     15  O   UNL d   1      -0.343   2.734  -2.059  0.00  0.00    -0.776 OA
ATOM     16  H   UNL d   1      -0.839   3.192  -1.356  0.00  0.00     0.167 HD
ENDBRANCH  13  15
ENDBRANCH  11  13
ENDBRANCH   1   7
BRANCH   2  17
ATOM     17  C   UNL d   1       1.735  -6.513   0.087  0.00  0.00     0.063 A 
ATOM     18  N   UNL d   1       1.870  -7.230  -1.097  0.00  0.00    -0.292 N 
ATOM     19  N   UNL d   1       2.319  -8.455  -0.883  0.00  0.00    -0.061 NA
ATOM     20  HN  UNL d   1       1.649  -6.856  -2.019  1.00  0.00     0.183 HD
ATOM     21  S   UNL d   1       2.567  -8.783   0.738  0.00  0.00    -0.010 SA
ATOM     22  C   UNL d   1       2.058  -7.220   1.231  0.00  0.00     0.096 A 
ENDBRANCH   2  17
TORSDOF 4
