REMARK  3 active torsions:
REMARK  status: ('A' for Active; 'I' for Inactive)
REMARK    1  A    between atoms: C_26  and  N_9 
REMARK    2  A    between atoms: N_20  and  N_10 
REMARK    3  A    between atoms: C_13  and  C_22 
ROOT
ATOM      1  C   UNL d   1       1.496  -1.460   0.143  0.00  0.00     0.104 A 
ATOM      2  C   UNL d   1       0.727  -0.430  -0.329  0.00  0.00     0.069 A 
ATOM      3  C   UNL d   1       2.899  -1.345   0.417  0.00  0.00     0.286 C 
ATOM      4  S   UNL d   1       0.618  -2.889   0.346  0.00  0.00    -0.064 SA
ATOM      5  C   UNL d   1      -0.634  -0.796  -0.571  0.00  0.00     0.032 A 
ATOM      6  C   UNL d   1      -0.802  -2.143  -0.236  0.00  0.00     0.088 A 
ATOM      7  N   UNL d   1       1.263   0.848  -0.555  0.00  0.00    -0.349 N 
ATOM      8  HN  UNL d   1       0.695   1.644  -0.844  1.00  0.00     0.167 HD
ATOM      9  N   UNL d   1       3.401  -0.093   0.026  0.00  0.00    -0.215 N 
ATOM     10  C   UNL d   1       2.545   0.927  -0.365  0.00  0.00     0.211 C 
ATOM     11  N   UNL d   1      -1.930  -2.871  -0.333  0.00  0.00    -0.354 N 
ATOM     12  HN  UNL d   1      -1.973  -3.854  -0.067  1.00  0.00     0.166 HD
ATOM     13  C   UNL d   1      -1.777  -0.113  -1.061  0.00  0.00    -0.045 A 
ATOM     14  O   UNL d   1       3.572  -2.233   0.944  0.00  0.00    -0.265 OA
ATOM     15  C   UNL d   1      -2.965  -0.859  -1.170  0.00  0.00     0.032 A 
ATOM     16  C   UNL d   1      -2.994  -2.201  -0.806  0.00  0.00     0.006 A 
ATOM     17  C   UNL d   1      -1.816   1.333  -1.478  0.00  0.00     0.049 C 
ATOM     18  C   UNL d   1      -4.268  -2.982  -0.942  0.00  0.00     0.068 C 
ENDROOT
BRANCH   9  19
ATOM     19  N   UNL d   1       4.732   0.263   0.140  0.00  0.00    -0.301 N 
ATOM     20  C   UNL d   1       5.626  -0.663   0.006  0.00  0.00     0.122 C 
ATOM     21  HN  UNL d   1       5.002   1.228   0.326  1.00  0.00     0.186 HD
BRANCH  20  22
ATOM     22  C   UNL d   1       7.012  -0.293   0.135  0.00  0.00     0.022 A 
ATOM     23  C   UNL d   1       7.499   0.955   0.450  0.00  0.00     0.131 A 
ATOM     24  N   UNL d   1       8.868   0.902   0.350  0.00  0.00    -0.267 N 
ATOM     25  N   UNL d   1       9.290  -0.359   0.068  0.00  0.00    -0.298 N 
ATOM     26  C   UNL d   1       8.169  -1.083  -0.054  0.00  0.00     0.035 A 
ATOM     27  HN  UNL d   1      10.252  -0.685  -0.030  1.00  0.00     0.187 HD
ATOM     28  C   UNL d   1       8.236  -2.530  -0.382  0.00  0.00     0.070 C 
BRANCH  24  29
ATOM     29  C   UNL d   1       9.775   1.993   0.441  0.00  0.00     0.056 A 
ATOM     30  C   UNL d   1       9.327   3.271   0.810  0.00  0.00     0.031 A 
ATOM     31  C   UNL d   1      10.209   4.352   0.806  0.00  0.00     0.002 A 
ATOM     32  C   UNL d   1      11.539   4.167   0.439  0.00  0.00     0.000 A 
ATOM     33  C   UNL d   1      11.998   2.895   0.096  0.00  0.00     0.002 A 
ATOM     34  C   UNL d   1      11.123   1.806   0.105  0.00  0.00     0.031 A 
ENDBRANCH  24  29
ENDBRANCH  20  22
ENDBRANCH   9  19
TORSDOF 3
