REMARK  5 active torsions:
REMARK  status: ('A' for Active; 'I' for Inactive)
REMARK    1  A    between atoms: N_4  and  N_1 
REMARK    2  A    between atoms: C_7  and  C_2 
REMARK    3  A    between atoms: S_3  and  N_4 
REMARK    4  A    between atoms: C_10  and  S_3 
REMARK    5  A    between atoms: O_24  and  C_13 
ROOT
ATOM      1  N   UNL d   1       2.102  -0.149   0.403  0.00  0.00    -0.241 N 
ATOM      2  C   UNL d   1       1.859  -1.514  -0.058  0.00  0.00     0.219 C 
ATOM      3  C   UNL d   1       1.161   0.861   0.297  0.00  0.00     0.272 C 
ATOM      4  N   UNL d   1       0.490  -1.885   0.331  0.00  0.00    -0.265 NA
ATOM      5  C   UNL d   1      -0.228   0.432   0.048  0.00  0.00     0.054 A 
ATOM      6  C   UNL d   1      -0.509  -0.939   0.075  0.00  0.00     0.026 A 
ATOM      7  O   UNL d   1       1.444   2.046   0.467  0.00  0.00    -0.266 OA
ATOM      8  C   UNL d   1      -1.242   1.383  -0.114  0.00  0.00     0.019 A 
ATOM      9  C   UNL d   1      -1.851  -1.335   0.033  0.00  0.00     0.024 A 
ATOM     10  C   UNL d   1      -2.568   0.967  -0.204  0.00  0.00     0.001 A 
ATOM     11  C   UNL d   1      -2.873  -0.390  -0.117  0.00  0.00     0.002 A 
ATOM     12  H   UNL d   1       0.244  -2.813  -0.008  0.00  0.00     0.130 HD
ENDROOT
BRANCH   1  13
ATOM     13  N   UNL d   1       3.503   0.322   0.656  0.00  0.00    -0.119 NA
ATOM     14  H   UNL d   1       3.438   1.297   0.992  0.00  0.00     0.166 HD
BRANCH  13  15
ATOM     15  S   UNL d   1       4.574   0.367  -0.679  0.00  0.00     0.258 S 
ATOM     16  O   UNL d   1       4.751  -0.967  -1.210  0.00  0.00    -0.204 OA
ATOM     17  O   UNL d   1       4.151   1.454  -1.536  0.00  0.00    -0.204 OA
BRANCH  15  18
ATOM     18  C   UNL d   1       6.066   0.853   0.152  0.00  0.00     0.076 A 
ATOM     19  C   UNL d   1       6.880  -0.112   0.748  0.00  0.00     0.025 A 
ATOM     20  C   UNL d   1       8.035   0.289   1.426  0.00  0.00     0.008 A 
ATOM     21  C   UNL d   1       8.379   1.646   1.507  0.00  0.00    -0.062 A 
ATOM     22  C   UNL d   1       7.559   2.600   0.891  0.00  0.00     0.008 A 
ATOM     23  C   UNL d   1       9.627   2.063   2.231  0.00  0.00     0.048 C 
ATOM     24  C   UNL d   1       6.405   2.208   0.212  0.00  0.00     0.025 A 
ENDBRANCH  15  18
ENDBRANCH  13  15
ENDBRANCH   1  13
BRANCH   2  25
ATOM     25  C   UNL d   1       2.759  -2.563   0.572  0.00  0.00     0.015 A 
ATOM     26  C   UNL d   1       2.872  -2.734   1.960  0.00  0.00     0.075 A 
ATOM     27  C   UNL d   1       3.744  -3.673   2.510  0.00  0.00     0.038 A 
ATOM     28  C   UNL d   1       4.502  -4.492   1.675  0.00  0.00     0.022 A 
ATOM     29  C   UNL d   1       4.370  -4.372   0.295  0.00  0.00     0.011 A 
ATOM     30  C   UNL d   1       3.500  -3.430  -0.256  0.00  0.00     0.032 A 
ATOM     31 BR   UNL d   1       5.388  -5.486  -0.844  0.00  0.00    -0.051 Br
BRANCH  26  32
ATOM     32  O   UNL d   1       2.120  -2.019   2.851  0.00  0.00    -0.360 OA
ATOM     33  H   UNL d   1       1.387  -1.599   2.360  0.00  0.00     0.217 HD
ENDBRANCH  26  32
ENDBRANCH   2  25
TORSDOF 5
