REMARK  6 active torsions:
REMARK  status: ('A' for Active; 'I' for Inactive)
REMARK    1  A    between atoms: C_7  and  C_1 
REMARK    2  A    between atoms: N_17  and  C_2 
REMARK    3  A    between atoms: C_9  and  C_3 
REMARK    4  A    between atoms: C_11  and  N_4 
REMARK       I    between atoms: N_10  and  C_7 
REMARK    5  A    between atoms: N_8  and  C_13 
REMARK    6  A    between atoms: C_25  and  N_10 
ROOT
ATOM      1  C   UNL d   1      -0.199  -1.222   0.173  0.00  0.00     0.107 A 
ATOM      2  C   UNL d   1       1.101  -0.738  -0.011  0.00  0.00     0.139 A 
ATOM      3  C   UNL d   1      -0.970  -0.024   0.359  0.00  0.00     0.085 A 
ATOM      4  N   UNL d   1       1.057   0.642   0.087  0.00  0.00    -0.239 N 
ATOM      5  N   UNL d   1      -0.181   1.065   0.399  0.00  0.00    -0.290 N 
ATOM      6  HN  UNL d   1      -0.465   2.019   0.622  1.00  0.00     0.188 HD
ENDROOT
BRANCH   1   7
ATOM      7  C   UNL d   1      -0.430  -2.682   0.175  0.00  0.00     0.262 C 
ATOM      8  N   UNL d   1      -1.707  -3.147   0.393  0.00  0.00    -0.323 N 
ATOM      9  H   UNL d   1      -2.439  -2.458   0.471  0.00  0.00     0.169 HD
ATOM     10  O   UNL d   1       0.525  -3.439   0.001  0.00  0.00    -0.267 OA
BRANCH   8  11
ATOM     11  C   UNL d   1      -2.123  -4.500   0.470  0.00  0.00     0.035 A 
ATOM     12  C   UNL d   1      -1.252  -5.594   0.454  0.00  0.00     0.029 A 
ATOM     13  C   UNL d   1      -1.740  -6.904   0.514  0.00  0.00     0.002 A 
ATOM     14  C   UNL d   1      -3.108  -7.138   0.598  0.00  0.00     0.000 A 
ATOM     15  C   UNL d   1      -3.988  -6.060   0.631  0.00  0.00     0.002 A 
ATOM     16  C   UNL d   1      -3.498  -4.751   0.573  0.00  0.00     0.029 A 
ENDBRANCH   8  11
ENDBRANCH   1   7
BRANCH   2  17
ATOM     17  N   UNL d   1       2.256  -1.448  -0.183  0.00  0.00    -0.383 N 
ATOM     18  H   UNL d   1       2.166  -2.471  -0.108  0.00  0.00     0.157 HD
ATOM     19  H   UNL d   1       3.119  -1.129   0.254  0.00  0.00     0.157 HD
ENDBRANCH   2  17
BRANCH   3  20
ATOM     20  C   UNL d   1      -2.459   0.238   0.541  0.00  0.00     0.034 A 
ATOM     21  S   UNL d   1      -3.726  -0.896   0.587  0.00  0.00    -0.100 SA
ATOM     22  C   UNL d   1      -4.925   0.289   0.829  0.00  0.00     0.050 A 
ATOM     23  C   UNL d   1      -4.388   1.553   0.840  0.00  0.00     0.008 A 
ATOM     24  C   UNL d   1      -2.972   1.523   0.670  0.00  0.00     0.021 A 
ENDBRANCH   3  20
BRANCH   4  25
ATOM     25  C   UNL d   1       2.123   1.581  -0.058  0.00  0.00     0.058 A 
ATOM     26  C   UNL d   1       3.235   1.294  -0.864  0.00  0.00     0.034 A 
ATOM     27  C   UNL d   1       4.305   2.190  -0.940  0.00  0.00     0.038 A 
ATOM     28  C   UNL d   1       4.261   3.381  -0.206  0.00  0.00     0.103 A 
ATOM     29  C   UNL d   1       3.140   3.696   0.574  0.00  0.00     0.038 A 
ATOM     30  C   UNL d   1       2.063   2.803   0.631  0.00  0.00     0.034 A 
BRANCH  28  31
ATOM     31  N   UNL d   1       5.404   4.303  -0.253  0.00  0.00    -0.116 N 
ATOM     32  O   UNL d   1       5.348   5.326   0.445  0.00  0.00    -0.532 OA
ATOM     33  O   UNL d   1       6.360   3.999  -0.981  0.00  0.00    -0.532 OA
ENDBRANCH  28  31
ENDBRANCH   4  25
TORSDOF 6
