REMARK  4 active torsions:
REMARK  status: ('A' for Active; 'I' for Inactive)
REMARK    1  A    between atoms: C_2  and  C_1 
REMARK       I    between atoms: N_5  and  C_2 
REMARK    2  A    between atoms: C_4  and  C_3 
REMARK    3  A    between atoms: C_11  and  N_5 
REMARK    4  A    between atoms: O_19  and  C_9 
ROOT
ATOM      1  C   UNL d   1       1.820   0.122   0.086  0.00  0.00     0.063 A 
ATOM      2  C   UNL d   1       1.239  -0.863  -0.730  0.00  0.00     0.069 A 
ATOM      3  C   UNL d   1       0.979   0.935   0.839  0.00  0.00     0.108 A 
ATOM      4  N   UNL d   1      -0.374   0.884   0.786  0.00  0.00    -0.346 N 
ATOM      5  HN  UNL d   1      -0.962   1.525   1.319  1.00  0.00     0.167 HD
ATOM      6  C   UNL d   1      -0.891  -0.063  -0.011  0.00  0.00     0.140 A 
ATOM      7  C   UNL d   1      -0.160  -0.951  -0.768  0.00  0.00     0.073 A 
ENDROOT
BRANCH   1   8
ATOM      8  C   UNL d   1       3.279   0.178   0.295  0.00  0.00     0.260 C 
ATOM      9  N   UNL d   1       3.997   1.364   0.069  0.00  0.00    -0.318 N 
ATOM     10  C   UNL d   1       3.369   2.655  -0.224  0.00  0.00     0.159 C 
ATOM     11  O   UNL d   1       3.756  -0.887   0.684  0.00  0.00    -0.267 OA
BRANCH   9  12
ATOM     12  C   UNL d   1       5.436   1.357   0.150  0.00  0.00     0.037 A 
ATOM     13  C   UNL d   1       6.177   0.234  -0.248  0.00  0.00     0.031 A 
ATOM     14  C   UNL d   1       7.576   0.227  -0.194  0.00  0.00     0.026 A 
ATOM     15  C   UNL d   1       8.253   1.349   0.268  0.00  0.00     0.034 A 
ATOM     16  C   UNL d   1       7.543   2.479   0.662  0.00  0.00     0.026 A 
ATOM     17 CL   UNL d   1       9.971   1.341   0.350  0.00  0.00    -0.084 Cl
ATOM     18  C   UNL d   1       6.145   2.488   0.592  0.00  0.00     0.031 A 
ENDBRANCH   9  12
ENDBRANCH   1   8
BRANCH   2  19
ATOM     19  C   UNL d   1       2.051  -1.862  -1.510  0.00  0.00     0.418 C 
ATOM     20  F   UNL d   1       3.273  -1.417  -1.906  0.00  0.00    -0.166 F 
ATOM     21  F   UNL d   1       2.247  -3.026  -0.836  0.00  0.00    -0.166 F 
ATOM     22  F   UNL d   1       1.423  -2.220  -2.670  0.00  0.00    -0.166 F 
ENDBRANCH   2  19
BRANCH   6  23
ATOM     23  O   UNL d   1      -2.244  -0.115  -0.012  0.00  0.00    -0.346 OA
ATOM     24  H   UNL d   1      -2.450   0.593   0.625  0.00  0.00     0.219 HD
ENDBRANCH   6  23
TORSDOF 4
