REMARK  2 active torsions:
REMARK  status: ('A' for Active; 'I' for Inactive)
REMARK    1  A    between atoms: C_10  and  C_5 
REMARK    2  A    between atoms: N_8  and  C_7 
ROOT
ATOM      1  C   UNL d   1      -0.378   1.039   0.103  0.00  0.00     0.133 A 
ATOM      2  N   UNL d   1      -1.350   0.174  -0.360  0.00  0.00    -0.329 N 
ATOM      3  HN  UNL d   1      -2.350   0.346  -0.467  1.00  0.00     0.168 HD
ATOM      4  C   UNL d   1       0.936   0.318   0.137  0.00  0.00     0.318 A 
ATOM      5  C   UNL d   1      -0.691  -0.904  -0.628  0.00  0.00     0.162 A 
ATOM      6  O   UNL d   1       0.633  -0.906  -0.379  0.00  0.00    -0.255 OA
ATOM      7  C   UNL d   1      -0.611   2.319   0.484  0.00  0.00     0.035 C 
ATOM      8  O   UNL d   1       2.031   0.652   0.537  0.00  0.00    -0.257 OA
ATOM      9  C   UNL d   1      -2.064   2.779   0.530  0.00  0.00     0.070 C 
ENDROOT
BRANCH   5  10
ATOM     10  C   UNL d   1      -1.222  -2.159  -1.184  0.00  0.00     0.015 A 
ATOM     11  C   UNL d   1      -2.589  -2.249  -1.480  0.00  0.00     0.016 A 
ATOM     12  C   UNL d   1      -3.112  -3.430  -2.014  0.00  0.00     0.001 A 
ATOM     13  C   UNL d   1      -2.276  -4.520  -2.252  0.00  0.00     0.000 A 
ATOM     14  C   UNL d   1      -0.915  -4.434  -1.959  0.00  0.00     0.001 A 
ATOM     15  C   UNL d   1      -0.388  -3.256  -1.427  0.00  0.00     0.016 A 
ENDBRANCH   5  10
BRANCH   7  16
ATOM     16  N   UNL d   1       0.348   3.286   0.860  0.00  0.00    -0.391 N 
ATOM     17  C   UNL d   1       1.609   3.479   0.128  0.00  0.00     0.148 C 
ATOM     18  C   UNL d   1       0.035   4.423   1.731  0.00  0.00     0.148 C 
ENDBRANCH   7  16
TORSDOF 2
