REMARK  5 active torsions:
REMARK  status: ('A' for Active; 'I' for Inactive)
REMARK    1  A    between atoms: N_16  and  C_8 
REMARK    2  A    between atoms: S_15  and  C_11 
REMARK    3  A    between atoms: C_18  and  S_15 
REMARK    4  A    between atoms: C_27  and  N_16 
REMARK    5  A    between atoms: C_20  and  C_18 
ROOT
ATOM      1  C   UNL d   1       1.314  -0.774  -0.015  0.00  0.00     0.090 A 
ATOM      2  C   UNL d   1       0.785   0.507  -0.051  0.00  0.00     0.044 A 
ATOM      3  C   UNL d   1      -1.129  -0.855  -0.033  0.00  0.00     0.020 A 
ATOM      4  N   UNL d   1       2.609  -1.102   0.008  0.00  0.00    -0.330 N 
ATOM      5  HN  UNL d   1       2.941  -2.067   0.029  1.00  0.00     0.168 HD
ATOM      6  N   UNL d   1       3.055   1.248   0.010  0.00  0.00    -0.327 N 
ATOM      7  HN  UNL d   1       3.758   1.986   0.046  1.00  0.00     0.169 HD
ATOM      8  C   UNL d   1       1.732   1.560  -0.028  0.00  0.00     0.095 A 
ATOM      9  C   UNL d   1      -0.663   0.447  -0.093  0.00  0.00    -0.025 A 
ATOM     10  S   UNL d   1       0.126  -1.996  -0.010  0.00  0.00    -0.074 SA
ATOM     11  C   UNL d   1       3.427  -0.048  -0.000  0.00  0.00     0.146 A 
ATOM     12  N   UNL d   1      -3.450  -0.136   0.424  0.00  0.00     0.089 N 
ATOM     13  C   UNL d   1      -2.577  -1.256  -0.001  0.00  0.00     0.318 C 
ATOM     14  C   UNL d   1      -1.647   1.586  -0.121  0.00  0.00     0.071 C 
ATOM     15  C   UNL d   1      -3.100   1.094  -0.316  0.00  0.00     0.277 C 
ATOM     16  C   UNL d   1      -3.405   0.061   1.873  0.00  0.00     0.310 C 
ENDROOT
BRANCH  11  17
ATOM     17  S   UNL d   1       5.147  -0.475  -0.177  0.00  0.00    -0.089 SA
BRANCH  17  18
ATOM     18  C   UNL d   1       5.951   0.840   0.779  0.00  0.00     0.121 C 
BRANCH  18  19
ATOM     19  C   UNL d   1       7.444   0.577   0.892  0.00  0.00    -0.048 A 
ATOM     20  C   UNL d   1       8.325   1.016  -0.111  0.00  0.00     0.009 A 
ATOM     21  C   UNL d   1       9.697   0.749  -0.024  0.00  0.00     0.024 A 
ATOM     22  C   UNL d   1      10.196   0.040   1.064  0.00  0.00     0.034 A 
ATOM     23  C   UNL d   1       9.338  -0.414   2.062  0.00  0.00     0.024 A 
ATOM     24 CL   UNL d   1      11.883  -0.284   1.172  0.00  0.00    -0.084 Cl
ATOM     25  C   UNL d   1       7.965  -0.149   1.975  0.00  0.00     0.009 A 
ENDBRANCH  18  19
ENDBRANCH  17  18
ENDBRANCH  11  17
BRANCH   8  26
ATOM     26  N   UNL d   1       1.320   2.889  -0.091  0.00  0.00    -0.278 NA
ATOM     27  H   UNL d   1       0.334   2.993   0.096  0.00  0.00     0.129 HD
BRANCH  26  28
ATOM     28  C   UNL d   1       2.128   3.899   0.566  0.00  0.00     0.089 C 
ATOM     29  C   UNL d   1       1.406   5.237   0.434  0.00  0.00     0.021 C 
ENDBRANCH  26  28
ENDBRANCH   8  26
TORSDOF 5
