REMARK  8 active torsions:
REMARK  status: ('A' for Active; 'I' for Inactive)
REMARK    1  A    between atoms: C_2  and  S_1 
REMARK    2  A    between atoms: N_3  and  S_1 
REMARK    3  A    between atoms: C_12  and  N_3 
REMARK    4  A    between atoms: C_15  and  N_3 
REMARK       I    between atoms: C_6  and  N_11 
REMARK    5  A    between atoms: C_14  and  C_6 
REMARK    6  A    between atoms: C_16  and  C_7 
REMARK    7  A    between atoms: N_11  and  C_16 
REMARK    8  A    between atoms: C_17  and  C_12 
ROOT
ATOM      1  C   UNL d   1       0.471  -1.724   0.632  0.00  0.00     0.120 A 
ATOM      2  S   UNL d   1       0.962  -2.191   2.205  0.00  0.00    -0.080 SA
ATOM      3  C   UNL d   1      -0.272  -2.722   0.028  0.00  0.00     0.034 A 
ATOM      4  C   UNL d   1       0.247  -3.747   2.057  0.00  0.00     0.002 A 
ATOM      5  C   UNL d   1      -0.393  -3.886   0.840  0.00  0.00     0.018 A 
ENDROOT
BRANCH   1   6
ATOM      6  S   UNL d   1       1.084  -0.159  -0.016  0.00  0.00     0.268 S 
ATOM      7  O   UNL d   1       0.541  -0.142  -1.357  0.00  0.00    -0.200 OA
ATOM      8  O   UNL d   1       2.512  -0.257   0.181  0.00  0.00    -0.200 OA
BRANCH   6   9
ATOM      9  N   UNL d   1       0.424   1.155   0.894  0.00  0.00    -0.298 N 
BRANCH   9  10
ATOM     10  C   UNL d   1       1.270   1.563   2.066  0.00  0.00     0.174 C 
BRANCH  10  11
ATOM     11  C   UNL d   1       2.634   2.163   1.766  0.00  0.00    -0.040 A 
ATOM     12  C   UNL d   1       2.809   3.292   0.953  0.00  0.00     0.009 A 
ATOM     13  C   UNL d   1       4.086   3.755   0.625  0.00  0.00     0.001 A 
ATOM     14  C   UNL d   1       5.212   3.112   1.128  0.00  0.00     0.000 A 
ATOM     15  C   UNL d   1       5.061   2.020   1.976  0.00  0.00     0.001 A 
ATOM     16  C   UNL d   1       3.784   1.554   2.298  0.00  0.00     0.009 A 
ENDBRANCH  10  11
ENDBRANCH   9  10
BRANCH   9  17
ATOM     17  C   UNL d   1      -0.267   2.273   0.140  0.00  0.00     0.088 C 
ATOM     18  C   UNL d   1      -1.506   1.798  -0.631  0.00  0.00     0.032 C 
ATOM     19  C   UNL d   1      -0.779   3.389   1.073  0.00  0.00     0.032 C 
ENDBRANCH   9  17
ENDBRANCH   6   9
ENDBRANCH   1   6
BRANCH   4  20
ATOM     20  C   UNL d   1       0.353  -4.760   3.158  0.00  0.00     0.169 C 
BRANCH  20  21
ATOM     21  N   UNL d   1       1.545  -5.558   2.969  0.00  0.00    -0.352 N 
ATOM     22  C   UNL d   1       1.838  -6.588   3.836  0.00  0.00     0.251 C 
ATOM     23  O   UNL d   1       1.114  -6.893   4.779  0.00  0.00    -0.268 OA
ATOM     24  H   UNL d   1       2.055  -5.466   2.101  0.00  0.00     0.163 HD
BRANCH  22  25
ATOM     25  C   UNL d   1       3.087  -7.359   3.569  0.00  0.00     0.032 A 
ATOM     26  C   UNL d   1       4.185  -6.782   2.921  0.00  0.00     0.017 A 
ATOM     27  C   UNL d   1       5.350  -7.531   2.711  0.00  0.00     0.001 A 
ATOM     28  C   UNL d   1       5.423  -8.849   3.152  0.00  0.00     0.000 A 
ATOM     29  C   UNL d   1       4.337  -9.428   3.811  0.00  0.00     0.001 A 
ATOM     30  C   UNL d   1       3.172  -8.685   4.024  0.00  0.00     0.017 A 
ENDBRANCH  22  25
ENDBRANCH  20  21
ENDBRANCH   4  20
TORSDOF 8
