REMARK  7 active torsions:
REMARK  status: ('A' for Active; 'I' for Inactive)
REMARK    1  A    between atoms: C_10  and  C_2 
REMARK    2  A    between atoms: C_16  and  N_5 
REMARK    3  A    between atoms: C_8  and  C_7 
REMARK    4  A    between atoms: O_23  and  C_10 
REMARK    5  A    between atoms: O_25  and  C_15 
REMARK    6  A    between atoms: O_26  and  C_18 
REMARK    7  A    between atoms: C_31  and  O_23 
ROOT
ATOM      1  C   UNL d   1      -1.350   0.054   0.106  0.00  0.00     0.102 A 
ATOM      2  C   UNL d   1       0.766   0.501   1.147  0.00  0.00     0.167 A 
ATOM      3  N   UNL d   1       0.765  -0.748   0.811  0.00  0.00    -0.281 N 
ATOM      4  HN  UNL d   1       1.541  -1.400   0.932  1.00  0.00     0.188 HD
ATOM      5  N   UNL d   1      -0.482  -1.053   0.255  0.00  0.00    -0.249 N 
ATOM      6  S   UNL d   1      -0.622   1.483   0.878  0.00  0.00    -0.045 SA
ATOM      7  C   UNL d   1      -2.502   0.141  -0.590  0.00  0.00     0.069 C 
ENDROOT
BRANCH   5   8
ATOM      8  C   UNL d   1      -0.587  -2.345  -0.334  0.00  0.00     0.057 A 
ATOM      9  C   UNL d   1      -1.799  -3.046  -0.414  0.00  0.00     0.033 A 
ATOM     10  C   UNL d   1      -1.870  -4.303  -1.028  0.00  0.00     0.026 A 
ATOM     11  C   UNL d   1      -0.720  -4.893  -1.550  0.00  0.00     0.034 A 
ATOM     12  C   UNL d   1       0.504  -4.245  -1.443  0.00  0.00     0.026 A 
ATOM     13 CL   UNL d   1      -0.813  -6.427  -2.318  0.00  0.00    -0.084 Cl
ATOM     14  C   UNL d   1       0.567  -2.988  -0.834  0.00  0.00     0.033 A 
ENDBRANCH   5   8
BRANCH   7  15
ATOM     15  C   UNL d   1      -3.318   1.381  -0.815  0.00  0.00     0.041 C 
ATOM     16  C   UNL d   1      -4.107   1.464  -2.093  0.00  0.00    -0.001 A 
ATOM     17  C   UNL d   1      -3.894   0.631  -3.200  0.00  0.00     0.054 A 
ATOM     18  C   UNL d   1      -5.127   2.421  -2.143  0.00  0.00    -0.041 A 
ATOM     19  C   UNL d   1      -4.729   0.704  -4.331  0.00  0.00     0.102 A 
ATOM     20  C   UNL d   1      -5.747   1.671  -4.378  0.00  0.00     0.102 A 
ATOM     21  C   UNL d   1      -5.938   2.514  -3.277  0.00  0.00     0.047 A 
ATOM     22  C   UNL d   1      -5.375   3.304  -0.953  0.00  0.00     0.059 C 
ATOM     23  C   UNL d   1      -4.067   3.546  -0.221  0.00  0.00     0.124 C 
ATOM     24  N   UNL d   1      -3.380   2.294   0.097  0.00  0.00    -0.389 N 
ATOM     25  HN  UNL d   1      -2.962   2.145   1.016  1.00  0.00     0.159 HD
BRANCH  19  26
ATOM     26  O   UNL d   1      -4.560  -0.130  -5.406  0.00  0.00    -0.353 OA
ATOM     27  C   UNL d   1      -4.074  -1.439  -5.122  0.00  0.00     0.210 C 
ENDBRANCH  19  26
BRANCH  20  28
ATOM     28  O   UNL d   1      -6.660   1.909  -5.370  0.00  0.00    -0.353 OA
ATOM     29  C   UNL d   1      -6.425   1.367  -6.660  0.00  0.00     0.210 C 
ENDBRANCH  20  28
ENDBRANCH   7  15
BRANCH   2  30
ATOM     30  C   UNL d   1       1.881   1.329   1.706  0.00  0.00     0.318 C 
ATOM     31  O   UNL d   1       2.223   2.402   1.239  0.00  0.00    -0.257 OA
BRANCH  30  32
ATOM     32  O   UNL d   1       2.497   0.632   2.686  0.00  0.00    -0.316 OA
BRANCH  32  33
ATOM     33  C   UNL d   1       3.758   1.175   3.100  0.00  0.00     0.175 C 
ATOM     34  C   UNL d   1       4.835   0.762   2.112  0.00  0.00     0.034 C 
ENDBRANCH  32  33
ENDBRANCH  30  32
ENDBRANCH   2  30
TORSDOF 7
