REMARK  6 active torsions:
REMARK  status: ('A' for Active; 'I' for Inactive)
REMARK    1  A    between atoms: C_14  and  C_1 
REMARK    2  A    between atoms: C_2  and  C_5 
REMARK    3  A    between atoms: N_11  and  C_3 
REMARK       I    between atoms: C_5  and  N_11 
REMARK    4  A    between atoms: C_17  and  C_8 
REMARK    5  A    between atoms: C_15  and  C_9 
REMARK    6  A    between atoms: O_21  and  C_14 
ROOT
ATOM      1  C   UNL d   1       2.566   2.925   0.313  0.00  0.00     0.261 C 
ATOM      2  N   UNL d   1       2.522   1.547   0.191  0.00  0.00    -0.321 N 
ATOM      3  O   UNL d   1       1.609   3.672   0.153  0.00  0.00    -0.267 OA
ATOM      4  H   UNL d   1       3.400   1.082  -0.000  0.00  0.00     0.169 HD
ENDROOT
BRANCH   2   5
ATOM      5  C   UNL d   1       1.366   0.787  -0.017  0.00  0.00     0.059 C 
ATOM      6  C   UNL d   1       0.065   1.048   0.387  0.00  0.00     0.107 C 
ATOM      7  S   UNL d   1      -1.029  -0.131  -0.228  0.00  0.00    -0.081 SA
ATOM      8  C   UNL d   1       0.228  -1.121  -0.833  0.00  0.00     0.018 C 
ATOM      9  C   UNL d   1       1.447  -0.484  -0.677  0.00  0.00     0.051 C 
BRANCH   6  10
ATOM     10  C   UNL d   1      -0.493   2.043   1.286  0.00  0.00     0.302 C 
ATOM     11  O   UNL d   1      -1.621   2.518   1.239  0.00  0.00    -0.259 OA
BRANCH  10  12
ATOM     12  O   UNL d   1       0.388   2.257   2.313  0.00  0.00    -0.322 OA
ATOM     13  C   UNL d   1      -0.103   3.124   3.334  0.00  0.00     0.213 C 
ENDBRANCH  10  12
ENDBRANCH   6  10
BRANCH   8  14
ATOM     14  C   UNL d   1      -0.046  -2.442  -1.431  0.00  0.00    -0.019 A 
ATOM     15  C   UNL d   1       0.743  -2.910  -2.495  0.00  0.00     0.014 A 
ATOM     16  C   UNL d   1       0.554  -4.190  -3.030  0.00  0.00     0.024 A 
ATOM     17  C   UNL d   1      -0.435  -5.018  -2.508  0.00  0.00     0.034 A 
ATOM     18  C   UNL d   1      -1.239  -4.574  -1.464  0.00  0.00     0.024 A 
ATOM     19 CL   UNL d   1      -0.652  -6.599  -3.149  0.00  0.00    -0.084 Cl
ATOM     20  C   UNL d   1      -1.046  -3.294  -0.929  0.00  0.00     0.014 A 
ENDBRANCH   8  14
ENDBRANCH   2   5
BRANCH   1  21
ATOM     21  C   UNL d   1       3.901   3.444   0.556  0.00  0.00     0.093 A 
ATOM     22  C   UNL d   1       4.566   4.551  -0.063  0.00  0.00     0.083 A 
ATOM     23  N   UNL d   1       5.771   4.744   0.500  0.00  0.00    -0.259 N 
ATOM     24  O   UNL d   1       5.919   3.772   1.457  0.00  0.00    -0.241 OA
ATOM     25  HN  UNL d   1       6.445   5.472   0.262  1.00  0.00     0.195 HD
ATOM     26  C   UNL d   1       4.811   2.990   1.491  0.00  0.00     0.090 A 
ATOM     27  C   UNL d   1       4.832   1.912   2.500  0.00  0.00     0.080 C 
BRANCH  22  28
ATOM     28  C   UNL d   1       4.152   5.381  -1.195  0.00  0.00    -0.006 A 
ATOM     29  C   UNL d   1       3.529   4.809  -2.313  0.00  0.00     0.014 A 
ATOM     30  C   UNL d   1       3.196   5.596  -3.419  0.00  0.00     0.001 A 
ATOM     31  C   UNL d   1       3.482   6.959  -3.420  0.00  0.00     0.000 A 
ATOM     32  C   UNL d   1       4.104   7.540  -2.317  0.00  0.00     0.001 A 
ATOM     33  C   UNL d   1       4.441   6.754  -1.211  0.00  0.00     0.014 A 
ENDBRANCH  22  28
ENDBRANCH   1  21
TORSDOF 6
