REMARK  5 active torsions:
REMARK  status: ('A' for Active; 'I' for Inactive)
REMARK    1  A    between atoms: N_8  and  C_2 
REMARK       I    between atoms: C_3  and  N_8 
REMARK    2  A    between atoms: C_4  and  C_3 
REMARK    3  A    between atoms: S_19  and  C_12 
REMARK    4  A    between atoms: C_22  and  S_19 
REMARK    5  A    between atoms: C_24  and  C_22 
ROOT
ATOM      1  C   UNL d   1      -2.507  -3.604  -0.602  0.00  0.00     0.259 C 
ATOM      2  N   UNL d   1      -1.418  -2.758  -0.754  0.00  0.00    -0.321 N 
ATOM      3  O   UNL d   1      -2.481  -4.822  -0.673  0.00  0.00    -0.267 OA
ATOM      4  H   UNL d   1      -1.509  -1.800  -0.425  0.00  0.00     0.169 HD
ENDROOT
BRANCH   1   5
ATOM      5  C   UNL d   1      -3.789  -2.896  -0.364  0.00  0.00     0.065 A 
ATOM      6  C   UNL d   1      -4.701  -3.223   0.644  0.00  0.00     0.085 A 
ATOM      7  N   UNL d   1      -5.863  -2.530   0.793  0.00  0.00    -0.360 N 
ATOM      8  C   UNL d   1      -6.150  -1.536  -0.074  0.00  0.00     0.089 A 
ATOM      9  HN  UNL d   1      -6.508  -2.759   1.549  1.00  0.00     0.166 HD
ATOM     10  C   UNL d   1      -5.316  -1.171  -1.105  0.00  0.00     0.018 A 
ATOM     11  C   UNL d   1      -4.121  -1.859  -1.251  0.00  0.00     0.021 A 
BRANCH   6  12
ATOM     12  S   UNL d   1      -4.434  -4.475   1.898  0.00  0.00    -0.111 SA
BRANCH  12  13
ATOM     13  C   UNL d   1      -6.175  -4.850   2.338  0.00  0.00     0.080 C 
BRANCH  13  14
ATOM     14  C   UNL d   1      -6.275  -5.874   3.468  0.00  0.00     0.006 C 
ATOM     15  C   UNL d   1      -7.733  -6.231   3.743  0.00  0.00     0.006 C 
ENDBRANCH  13  14
ENDBRANCH  12  13
ENDBRANCH   6  12
ENDBRANCH   1   5
BRANCH   2  16
ATOM     16  C   UNL d   1      -0.103  -3.163  -1.045  0.00  0.00     0.066 A 
ATOM     17  C   UNL d   1       0.997  -2.359  -0.658  0.00  0.00     0.112 A 
ATOM     18  C   UNL d   1       2.376  -2.774  -0.868  0.00  0.00     0.087 A 
ATOM     19  N   UNL d   1       1.003  -1.169  -0.039  0.00  0.00    -0.237 N 
ATOM     20  N   UNL d   1       3.178  -1.836  -0.350  0.00  0.00    -0.239 N 
ATOM     21  C   UNL d   1       2.712  -3.982  -1.504  0.00  0.00     0.034 A 
ATOM     22  O   UNL d   1       2.339  -0.859   0.159  0.00  0.00    -0.156 OA
ATOM     23  HN  UNL d   1       4.198  -1.840  -0.334  1.00  0.00     0.197 HD
ATOM     24  C   UNL d   1       1.607  -4.739  -1.938  0.00  0.00     0.005 A 
ATOM     25  C   UNL d   1       0.256  -4.351  -1.714  0.00  0.00     0.032 A 
ATOM     26  HN  UNL d   1       0.193  -0.610   0.230  1.00  0.00     0.197 HD
ENDBRANCH   2  16
TORSDOF 5
