REMARK  4 active torsions:
REMARK  status: ('A' for Active; 'I' for Inactive)
REMARK    1  A    between atoms: C_2  and  C_1 
REMARK    2  A    between atoms: N_3  and  C_6 
REMARK    3  A    between atoms: C_7  and  C_5 
REMARK    4  A    between atoms: O_12  and  C_8 
ROOT
ATOM      1  N   UNL d   1       0.581  -2.708  -0.234  0.00  0.00    -0.364 N 
ATOM      2  HN  UNL d   1      -0.057  -3.478  -0.436  1.00  0.00     0.165 HD
ATOM      3  C   UNL d   1       1.362  -2.232  -1.155  0.00  0.00     0.102 C 
ENDROOT
BRANCH   1   4
ATOM      4  C   UNL d   1       0.637  -2.136   1.051  0.00  0.00     0.047 A 
ATOM      5  C   UNL d   1      -0.537  -1.818   1.751  0.00  0.00     0.074 A 
ATOM      6  C   UNL d   1      -0.441  -1.305   3.063  0.00  0.00     0.018 A 
ATOM      7  C   UNL d   1       0.796  -1.109   3.674  0.00  0.00     0.001 A 
ATOM      8  C   UNL d   1       1.957  -1.435   2.987  0.00  0.00     0.002 A 
ATOM      9  C   UNL d   1       1.875  -1.956   1.695  0.00  0.00     0.030 A 
BRANCH   5  10
ATOM     10  C   UNL d   1      -1.916  -2.031   1.182  0.00  0.00     0.419 C 
ATOM     11  F   UNL d   1      -1.983  -2.381  -0.131  0.00  0.00    -0.166 F 
ATOM     12  F   UNL d   1      -2.687  -0.907   1.294  0.00  0.00    -0.166 F 
ATOM     13  F   UNL d   1      -2.601  -3.000   1.858  0.00  0.00    -0.166 F 
ENDBRANCH   5  10
ENDBRANCH   1   4
BRANCH   3  14
ATOM     14  C   UNL d   1       1.411  -2.817  -2.510  0.00  0.00     0.012 A 
ATOM     15  C   UNL d   1       0.490  -3.776  -2.946  0.00  0.00     0.077 A 
ATOM     16  C   UNL d   1       0.594  -4.317  -4.226  0.00  0.00     0.037 A 
ATOM     17  C   UNL d   1       1.625  -3.909  -5.073  0.00  0.00     0.003 A 
ATOM     18  C   UNL d   1       2.547  -2.953  -4.644  0.00  0.00     0.001 A 
ATOM     19  C   UNL d   1       2.440  -2.403  -3.365  0.00  0.00     0.015 A 
BRANCH  15  20
ATOM     20  O   UNL d   1      -0.544  -4.226  -2.173  0.00  0.00    -0.360 OA
ATOM     21  H   UNL d   1      -0.485  -3.767  -1.305  0.00  0.00     0.217 HD
ENDBRANCH  15  20
ENDBRANCH   3  14
TORSDOF 4
