REMARK  4 active torsions:
REMARK  status: ('A' for Active; 'I' for Inactive)
REMARK    1  A    between atoms: O_3  and  S_1 
REMARK    2  A    between atoms: C_7  and  S_1 
REMARK    3  A    between atoms: N_2  and  C_8 
REMARK    4  A    between atoms: C_4  and  O_3 
ROOT
ATOM      1  S   UNL d   1       0.333  -1.288   2.440  0.00  0.00     0.298 S 
ATOM      2  O   UNL d   1       1.732  -1.148   2.780  0.00  0.00    -0.193 OA
ATOM      3  O   UNL d   1      -0.497  -2.298   3.066  0.00  0.00    -0.193 OA
ENDROOT
BRANCH   1   4
ATOM      4  O   UNL d   1       0.218  -1.466   0.821  0.00  0.00    -0.266 OA
BRANCH   4   5
ATOM      5  C   UNL d   1       0.917  -2.583   0.241  0.00  0.00     0.151 C 
ATOM      6  C   UNL d   1       0.992  -2.442  -1.302  0.00  0.00     0.017 C 
ATOM      7  C   UNL d   1       1.812  -3.618  -1.878  0.00  0.00     0.012 C 
ATOM      8  C   UNL d   1      -0.421  -2.492  -1.915  0.00  0.00     0.012 C 
ATOM      9  C   UNL d   1       1.142  -4.959  -1.526  0.00  0.00    -0.013 C 
ATOM     10  C   UNL d   1       1.055  -5.088  -0.001  0.00  0.00     0.012 C 
ATOM     11  C   UNL d   1      -0.281  -4.991  -2.111  0.00  0.00     0.009 C 
ATOM     12  C   UNL d   1       0.230  -3.928   0.579  0.00  0.00     0.017 C 
ATOM     13  C   UNL d   1      -1.187  -3.947  -0.022  0.00  0.00     0.012 C 
ATOM     14  C   UNL d   1      -1.109  -3.820  -1.552  0.00  0.00    -0.013 C 
ENDBRANCH   4   5
ENDBRANCH   1   4
BRANCH   1  15
ATOM     15  C   UNL d   1      -0.430   0.255   2.890  0.00  0.00     0.086 A 
ATOM     16  C   UNL d   1      -0.880   1.183   1.951  0.00  0.00     0.028 A 
ATOM     17  C   UNL d   1      -1.512   2.354   2.404  0.00  0.00     0.037 A 
ATOM     18  C   UNL d   1      -1.688   2.573   3.784  0.00  0.00     0.102 A 
ATOM     19  C   UNL d   1      -1.233   1.635   4.718  0.00  0.00     0.037 A 
ATOM     20  C   UNL d   1      -0.604   0.477   4.266  0.00  0.00     0.028 A 
BRANCH  18  21
ATOM     21  N   UNL d   1      -2.364   3.788   4.262  0.00  0.00    -0.116 N 
ATOM     22  O   UNL d   1      -2.756   4.599   3.409  0.00  0.00    -0.532 OA
ATOM     23  O   UNL d   1      -2.504   3.932   5.486  0.00  0.00    -0.532 OA
ENDBRANCH  18  21
ENDBRANCH   1  15
TORSDOF 4
