REMARK  8 active torsions:
REMARK  status: ('A' for Active; 'I' for Inactive)
REMARK    1  A    between atoms: N_2  and  C_1 
REMARK    2  A    between atoms: C_17  and  C_5 
REMARK    3  A    between atoms: N_6  and  C_15 
REMARK    4  A    between atoms: C_11  and  C_24 
REMARK    5  A    between atoms: O_25  and  C_12 
REMARK    6  A    between atoms: S_20  and  C_14 
REMARK    7  A    between atoms: O_26  and  C_16 
REMARK    8  A    between atoms: C_24  and  S_20 
ROOT
ATOM      1  N   UNL d   1      -7.619  -1.106  -0.306  0.00  0.00    -0.277 N 
ATOM      2  HN  UNL d   1      -8.529  -1.535  -0.135  1.00  0.00     0.189 HD
ATOM      3  C   UNL d   1      -7.395   0.086  -0.819  0.00  0.00     0.174 A 
ATOM      4  O   UNL d   1      -6.056   0.364  -0.942  0.00  0.00    -0.277 OA
ATOM      5  N   UNL d   1      -6.387  -1.659  -0.045  0.00  0.00    -0.281 N 
ATOM      6  HN  UNL d   1      -6.205  -2.580   0.354  1.00  0.00     0.189 HD
ATOM      7  C   UNL d   1      -5.488  -0.767  -0.412  0.00  0.00     0.150 A 
ENDROOT
BRANCH   7   8
ATOM      8  C   UNL d   1      -4.009  -0.913  -0.379  0.00  0.00     0.165 C 
BRANCH   8   9
ATOM      9  S   UNL d   1      -3.069   0.631  -0.161  0.00  0.00    -0.119 SA
BRANCH   9  10
ATOM     10  C   UNL d   1      -1.333   0.113  -0.083  0.00  0.00     0.037 A 
ATOM     11  C   UNL d   1      -0.424   1.183   0.091  0.00  0.00     0.060 A 
ATOM     12  C   UNL d   1       0.967   1.001   0.183  0.00  0.00     0.102 A 
ATOM     13  C   UNL d   1       1.443  -0.305   0.115  0.00  0.00     0.138 A 
ATOM     14  C   UNL d   1       0.568  -1.394  -0.064  0.00  0.00     0.077 A 
ATOM     15  C   UNL d   1      -0.815  -1.196  -0.162  0.00  0.00     0.087 A 
BRANCH  12  16
ATOM     16  O   UNL d   1       1.637   2.171   0.390  0.00  0.00    -0.353 OA
ATOM     17  C   UNL d   1       2.950   2.335  -0.134  0.00  0.00     0.210 C 
ENDBRANCH  12  16
BRANCH  13  18
ATOM     18  N   UNL d   1       2.838  -0.646   0.296  0.00  0.00    -0.113 N 
ATOM     19  O   UNL d   1       3.377  -1.302  -0.607  0.00  0.00    -0.532 OA
ATOM     20  O   UNL d   1       3.379  -0.307   1.357  0.00  0.00    -0.532 OA
ENDBRANCH  13  18
BRANCH  15  21
ATOM     21  O   UNL d   1      -1.693  -2.228  -0.323  0.00  0.00    -0.355 OA
ATOM     22  C   UNL d   1      -1.206  -3.563  -0.364  0.00  0.00     0.210 C 
ENDBRANCH  15  21
ENDBRANCH   9  10
ENDBRANCH   8   9
ENDBRANCH   7   8
BRANCH   3  23
ATOM     23  C   UNL d   1      -8.344   1.111  -1.233  0.00  0.00     0.019 A 
ATOM     24  C   UNL d   1      -7.923   2.353  -1.727  0.00  0.00     0.052 A 
ATOM     25  C   UNL d   1      -8.872   3.321  -2.090  0.00  0.00     0.103 A 
ATOM     26  C   UNL d   1     -10.244   3.064  -1.967  0.00  0.00     0.036 A 
ATOM     27  C   UNL d   1     -10.666   1.829  -1.480  0.00  0.00     0.003 A 
ATOM     28  C   UNL d   1      -9.724   0.863  -1.117  0.00  0.00     0.016 A 
BRANCH  25  29
ATOM     29  N   UNL d   1      -8.420   4.622  -2.600  0.00  0.00    -0.116 N 
ATOM     30  O   UNL d   1      -7.199   4.811  -2.692  0.00  0.00    -0.532 OA
ATOM     31  O   UNL d   1      -9.288   5.455  -2.909  0.00  0.00    -0.532 OA
ENDBRANCH  25  29
ENDBRANCH   3  23
TORSDOF 8
