REMARK  8 active torsions:
REMARK  status: ('A' for Active; 'I' for Inactive)
REMARK    1  A    between atoms: C_3  and  S_1 
REMARK    2  A    between atoms: N_7  and  S_1 
REMARK    3  A    between atoms: C_2  and  C_4 
REMARK    4  A    between atoms: C_17  and  C_5 
REMARK    5  A    between atoms: C_16  and  C_6 
REMARK    6  A    between atoms: O_24  and  C_16 
REMARK    7  A    between atoms: O_25  and  C_17 
REMARK    8  A    between atoms: N_23  and  C_18 
ROOT
ATOM      1  C   UNL d   1      -0.505  -2.179  -4.604  0.00  0.00     0.011 A 
ATOM      2  C   UNL d   1      -1.574  -3.087  -4.345  0.00  0.00     0.073 A 
ATOM      3  C   UNL d   1       0.272  -2.376  -5.780  0.00  0.00     0.073 A 
ATOM      4  N   UNL d   1      -0.979  -4.387  -6.271  0.00  0.00    -0.362 N 
ATOM      5  HN  UNL d   1      -1.130  -5.203  -6.864  1.00  0.00     0.165 HD
ATOM      6  C   UNL d   1      -1.749  -4.196  -5.175  0.00  0.00     0.022 A 
ATOM      7  C   UNL d   1      -0.008  -3.494  -6.580  0.00  0.00     0.022 A 
ATOM      8  C   UNL d   1      -2.741  -5.304  -4.980  0.00  0.00     0.069 C 
ATOM      9  C   UNL d   1       0.737  -3.854  -7.836  0.00  0.00     0.069 C 
ENDROOT
BRANCH   1  10
ATOM     10  C   UNL d   1      -0.207  -1.128  -3.602  0.00  0.00    -0.015 A 
ATOM     11  C   UNL d   1      -0.208  -1.307  -2.171  0.00  0.00     0.045 A 
ATOM     12  C   UNL d   1      -0.032  -0.134  -1.463  0.00  0.00     0.121 A 
ATOM     13  S   UNL d   1       0.265   1.176  -2.512  0.00  0.00    -0.088 SA
ATOM     14  C   UNL d   1       0.059   0.194  -3.907  0.00  0.00     0.063 A 
BRANCH  12  15
ATOM     15  S   UNL d   1      -0.113   0.198   0.290  0.00  0.00     0.270 S 
ATOM     16  O   UNL d   1       0.818   1.272   0.570  0.00  0.00    -0.200 OA
ATOM     17  O   UNL d   1       0.002  -1.100   0.916  0.00  0.00    -0.200 OA
BRANCH  15  18
ATOM     18  N   UNL d   1      -1.644   0.720   0.366  0.00  0.00    -0.276 N 
ATOM     19  C   UNL d   1      -2.091   1.025   1.537  0.00  0.00     0.188 C 
ATOM     20  HN  UNL d   1      -2.225   0.803  -0.469  1.00  0.00     0.179 HD
BRANCH  19  21
ATOM     21  N   UNL d   1      -3.367   1.454   1.829  0.00  0.00    -0.385 N 
ATOM     22  C   UNL d   1      -4.361   1.664   0.786  0.00  0.00     0.149 C 
ATOM     23  C   UNL d   1      -3.753   1.886   3.163  0.00  0.00     0.149 C 
ENDBRANCH  19  21
ENDBRANCH  15  18
ENDBRANCH  12  15
ENDBRANCH   1  10
BRANCH   2  24
ATOM     24  C   UNL d   1      -2.585  -2.782  -3.304  0.00  0.00     0.295 C 
ATOM     25  O   UNL d   1      -3.191  -1.724  -3.255  0.00  0.00    -0.259 OA
BRANCH  24  26
ATOM     26  O   UNL d   1      -2.704  -3.814  -2.433  0.00  0.00    -0.322 OA
ATOM     27  C   UNL d   1      -3.712  -3.641  -1.429  0.00  0.00     0.213 C 
ENDBRANCH  24  26
ENDBRANCH   2  24
BRANCH   3  28
ATOM     28  C   UNL d   1       1.430  -1.520  -6.144  0.00  0.00     0.295 C 
ATOM     29  O   UNL d   1       2.304  -1.177  -5.360  0.00  0.00    -0.259 OA
BRANCH  28  30
ATOM     30  O   UNL d   1       1.377  -1.195  -7.458  0.00  0.00    -0.322 OA
ATOM     31  C   UNL d   1       2.538  -0.539  -7.987  0.00  0.00     0.213 C 
ENDBRANCH  28  30
ENDBRANCH   3  28
TORSDOF 8
