REMARK  4 active torsions:
REMARK  status: ('A' for Active; 'I' for Inactive)
REMARK    1  A    between atoms: N_5  and  C_1 
REMARK    2  A    between atoms: N_6  and  C_2 
REMARK    3  A    between atoms: N_4  and  C_3 
REMARK    4  A    between atoms: C_7  and  C_8 
ROOT
ATOM      1  C   UNL d   1       0.108  -0.769   1.388  0.00  0.00     0.132 A 
ATOM      2  C   UNL d   1       0.145  -0.554  -0.957  0.00  0.00     0.132 A 
ATOM      3  C   UNL d   1       0.467  -1.376   0.155  0.00  0.00     0.097 A 
ATOM      4  C   UNL d   1      -0.687   1.312   0.387  0.00  0.00     0.052 A 
ATOM      5  C   UNL d   1      -0.414   0.748  -0.858  0.00  0.00     0.054 A 
ATOM      6  C   UNL d   1      -0.432   0.533   1.514  0.00  0.00     0.054 A 
ENDROOT
BRANCH   3   7
ATOM      7  N   UNL d   1       1.163  -2.593   0.024  0.00  0.00    -0.376 N 
ATOM      8  C   UNL d   1       2.123  -2.994   1.074  0.00  0.00     0.127 C 
ATOM      9  C   UNL d   1       3.384  -3.677   0.514  0.00  0.00     0.003 C 
ATOM     10  C   UNL d   1       3.252  -5.201   0.568  0.00  0.00     0.007 C 
ATOM     11  C   UNL d   1       3.701  -3.229  -0.920  0.00  0.00     0.007 C 
ATOM     12  C   UNL d   1       2.088  -5.705  -0.282  0.00  0.00     0.007 C 
ATOM     13  C   UNL d   1       1.634  -4.682  -1.339  0.00  0.00     0.003 C 
ATOM     14  C   UNL d   1       0.581  -3.691  -0.778  0.00  0.00     0.127 C 
ATOM     15  C   UNL d   1       2.866  -3.995  -1.954  0.00  0.00     0.007 C 
ENDBRANCH   3   7
BRANCH   2  16
ATOM     16  N   UNL d   1       0.427  -0.956  -2.323  0.00  0.00    -0.113 N 
ATOM     17  O   UNL d   1       1.604  -0.942  -2.696  0.00  0.00    -0.532 OA
ATOM     18  O   UNL d   1      -0.558  -1.186  -3.041  0.00  0.00    -0.532 OA
ENDBRANCH   2  16
BRANCH   1  19
ATOM     19  N   UNL d   1       0.194  -1.486   2.653  0.00  0.00    -0.113 N 
ATOM     20  O   UNL d   1      -0.551  -2.467   2.792  0.00  0.00    -0.532 OA
ATOM     21  O   UNL d   1       0.958  -1.028   3.510  0.00  0.00    -0.532 OA
ENDBRANCH   1  19
BRANCH   4  22
ATOM     22  C   UNL d   1      -1.246   2.708   0.530  0.00  0.00     0.417 C 
ATOM     23  F   UNL d   1      -1.462   3.328  -0.660  0.00  0.00    -0.166 F 
ATOM     24  F   UNL d   1      -2.436   2.718   1.186  0.00  0.00    -0.166 F 
ATOM     25  F   UNL d   1      -0.417   3.522   1.237  0.00  0.00    -0.166 F 
ENDBRANCH   4  22
TORSDOF 4
