REMARK  0 active torsions:
REMARK  status: ('A' for Active; 'I' for Inactive)
ROOT
ATOM      1  S   UNL d   1       0.236  -2.306  -0.493  0.00  0.00     0.184 S 
ATOM      2  C   UNL d   1      -1.684  -0.631   0.177  0.00  0.00     0.044 A 
ATOM      3  C   UNL d   1      -0.903   0.483  -0.076  0.00  0.00     0.072 A 
ATOM      4  C   UNL d   1      -1.253  -2.021   0.484  0.00  0.00     0.152 C 
ATOM      5  C   UNL d   1       0.547   0.401  -0.091  0.00  0.00     0.016 A 
ATOM      6  C   UNL d   1       1.201  -0.832  -0.252  0.00  0.00     0.072 A 
ATOM      7  N   UNL d   1      -2.913   1.457  -0.219  0.00  0.00    -0.061 NA
ATOM      8  N   UNL d   1      -1.605   1.657  -0.279  0.00  0.00    -0.291 N 
ATOM      9  HN  UNL d   1      -1.170   2.563  -0.452  1.00  0.00     0.183 HD
ATOM     10  S   UNL d   1      -3.318  -0.138   0.091  0.00  0.00    -0.001 SA
ATOM     11  O   UNL d   1      -0.115  -2.336  -1.900  0.00  0.00    -0.222 OA
ATOM     12  O   UNL d   1       0.978  -3.400   0.108  0.00  0.00    -0.222 OA
ATOM     13  C   UNL d   1       2.594  -0.934  -0.198  0.00  0.00     0.026 A 
ATOM     14  C   UNL d   1       1.323   1.552   0.091  0.00  0.00     0.039 A 
ATOM     15  C   UNL d   1       2.716   1.454   0.140  0.00  0.00     0.035 A 
ATOM     16  C   UNL d   1      -0.984  -2.202   1.975  0.00  0.00     0.032 C 
ATOM     17  C   UNL d   1       3.352   0.219   0.003  0.00  0.00     0.025 A 
ATOM     18 CL   UNL d   1       3.660   2.870   0.390  0.00  0.00    -0.084 Cl
ENDROOT
TORSDOF 0
