REMARK  5 active torsions:
REMARK  status: ('A' for Active; 'I' for Inactive)
REMARK    1  A    between atoms: N_6  and  C_1 
REMARK    2  A    between atoms: C_8  and  C_2 
REMARK       I    between atoms: C_7  and  N_6 
REMARK       I    between atoms: N_10  and  C_7 
REMARK    3  A    between atoms: O_20  and  C_8 
REMARK    4  A    between atoms: C_14  and  N_10 
REMARK    5  A    between atoms: C_25  and  O_20 
ROOT
ATOM      1  C   UNL d   1       2.386  -0.342   0.493  0.00  0.00     0.095 C 
ATOM      2  C   UNL d   1       1.942   0.947   0.181  0.00  0.00     0.080 C 
ATOM      3  C   UNL d   1       0.489   1.012   0.257  0.00  0.00    -0.026 C 
ATOM      4  C   UNL d   1      -0.052  -0.227   0.527  0.00  0.00    -0.008 C 
ATOM      5  S   UNL d   1       1.112  -1.348   0.996  0.00  0.00    -0.075 SA
ATOM      6  C   UNL d   1      -0.394   2.189  -0.064  0.00  0.00     0.041 C 
ATOM      7  C   UNL d   1      -1.492  -0.610   0.441  0.00  0.00     0.051 C 
ATOM      8  C   UNL d   1      -1.871   1.899   0.265  0.00  0.00     0.009 C 
ATOM      9  C   UNL d   1      -2.338   0.505  -0.206  0.00  0.00    -0.014 C 
ATOM     10  C   UNL d   1      -2.348   0.399  -1.736  0.00  0.00     0.010 C 
ENDROOT
BRANCH   1  11
ATOM     11  N   UNL d   1       3.663  -0.872   0.347  0.00  0.00    -0.302 N 
ATOM     12  C   UNL d   1       4.165  -2.134   0.561  0.00  0.00     0.325 C 
ATOM     13  N   UNL d   1       3.490  -2.944   1.432  0.00  0.00    -0.309 N 
ATOM     14  O   UNL d   1       5.220  -2.428  -0.000  0.00  0.00    -0.247 OA
ATOM     15  H   UNL d   1       2.729  -2.487   1.917  0.00  0.00     0.170 HD
ATOM     16  H   UNL d   1       4.313  -0.294  -0.178  0.00  0.00     0.171 HD
BRANCH  13  17
ATOM     17  C   UNL d   1       3.732  -4.292   1.765  0.00  0.00     0.038 A 
ATOM     18  C   UNL d   1       4.678  -5.096   1.125  0.00  0.00     0.055 A 
ATOM     19  C   UNL d   1       4.838  -6.439   1.497  0.00  0.00     0.058 A 
ATOM     20 CL   UNL d   1       6.019  -7.374   0.646  0.00  0.00    -0.082 Cl
ATOM     21  C   UNL d   1       4.053  -6.986   2.517  0.00  0.00     0.055 A 
ATOM     22  C   UNL d   1       3.107  -6.188   3.161  0.00  0.00     0.028 A 
ATOM     23 CL   UNL d   1       4.193  -8.633   3.021  0.00  0.00    -0.083 Cl
ATOM     24  C   UNL d   1       2.945  -4.851   2.782  0.00  0.00     0.031 A 
ENDBRANCH  13  17
ENDBRANCH   1  11
BRANCH   2  25
ATOM     25  C   UNL d   1       2.783   2.060  -0.278  0.00  0.00     0.296 C 
ATOM     26  O   UNL d   1       2.326   3.163  -0.584  0.00  0.00    -0.259 OA
BRANCH  25  27
ATOM     27  O   UNL d   1       4.101   1.728  -0.409  0.00  0.00    -0.318 OA
BRANCH  27  28
ATOM     28  C   UNL d   1       4.908   2.655  -1.153  0.00  0.00     0.174 C 
ATOM     29  C   UNL d   1       4.840   2.272  -2.620  0.00  0.00     0.034 C 
ENDBRANCH  27  28
ENDBRANCH  25  27
ENDBRANCH   2  25
TORSDOF 5
