REMARK  7 active torsions:
REMARK  status: ('A' for Active; 'I' for Inactive)
REMARK    1  A    between atoms: C_6  and  C_1 
REMARK    2  A    between atoms: N_7  and  C_1 
REMARK    3  A    between atoms: O_11  and  C_2 
REMARK    4  A    between atoms: O_12  and  C_4 
REMARK    5  A    between atoms: C_13  and  N_7 
REMARK    6  A    between atoms: C_9  and  C_14 
REMARK    7  A    between atoms: C_14  and  C_13 
ROOT
ATOM      1  C   UNL d   1       3.243   1.217   0.360  0.00  0.00     0.125 C 
ENDROOT
BRANCH   1   2
ATOM      2  N   UNL d   1       2.473   0.052  -0.080  0.00  0.00    -0.380 N 
ATOM      3  H   UNL d   1       2.385  -0.686   0.609  0.00  0.00     0.160 HD
BRANCH   2   4
ATOM      4  C   UNL d   1       1.968  -0.183  -1.355  0.00  0.00     0.106 C 
ATOM      5  S   UNL d   1       2.198   0.873  -2.648  0.00  0.00    -0.060 SA
BRANCH   4   6
ATOM      6  C   UNL d   1       1.191  -1.469  -1.496  0.00  0.00     0.002 A 
ATOM      7  C   UNL d   1       1.196  -2.191  -2.699  0.00  0.00     0.014 A 
ATOM      8  C   UNL d   1       0.470  -3.381  -2.821  0.00  0.00     0.001 A 
ATOM      9  C   UNL d   1      -0.261  -3.866  -1.738  0.00  0.00     0.000 A 
ATOM     10  C   UNL d   1      -0.279  -3.157  -0.540  0.00  0.00     0.001 A 
ATOM     11  C   UNL d   1       0.433  -1.960  -0.419  0.00  0.00     0.014 A 
ENDBRANCH   4   6
ENDBRANCH   2   4
ENDBRANCH   1   2
BRANCH   1  12
ATOM     12  C   UNL d   1       4.752   0.985   0.240  0.00  0.00     0.058 C 
BRANCH  12  13
ATOM     13  C   UNL d   1       5.536   2.211   0.640  0.00  0.00    -0.054 A 
ATOM     14  C   UNL d   1       5.902   2.423   1.980  0.00  0.00     0.046 A 
ATOM     15  C   UNL d   1       6.582   3.587   2.378  0.00  0.00     0.102 A 
ATOM     16  C   UNL d   1       6.915   4.543   1.403  0.00  0.00     0.101 A 
ATOM     17  C   UNL d   1       6.538   4.333   0.070  0.00  0.00     0.040 A 
ATOM     18  C   UNL d   1       5.858   3.179  -0.312  0.00  0.00     0.010 A 
BRANCH  15  19
ATOM     19  O   UNL d   1       6.908   3.859   3.680  0.00  0.00    -0.353 OA
ATOM     20  C   UNL d   1       6.556   2.907   4.675  0.00  0.00     0.210 C 
ENDBRANCH  15  19
BRANCH  16  21
ATOM     21  O   UNL d   1       7.543   5.747   1.596  0.00  0.00    -0.353 OA
ATOM     22  C   UNL d   1       8.490   5.820   2.653  0.00  0.00     0.210 C 
ENDBRANCH  16  21
ENDBRANCH  12  13
ENDBRANCH   1  12
TORSDOF 7
