REMARK  2 active torsions:
REMARK  status: ('A' for Active; 'I' for Inactive)
REMARK       I    between atoms: C_2  and  N_1 
REMARK    1  A    between atoms: C_8  and  C_2 
REMARK    2  A    between atoms: N_9  and  C_8 
ROOT
ATOM      1  N   UNL d   1       0.406  -1.201   0.590  0.00  0.00    -0.279 N 
ATOM      2  C   UNL d   1       0.226  -2.339   1.404  0.00  0.00     0.257 C 
ATOM      3  S   UNL d   1       0.457   1.847   0.319  0.00  0.00    -0.086 SA
ATOM      4  C   UNL d   1       1.698  -0.650   0.286  0.00  0.00     0.059 A 
ATOM      5  C   UNL d   1      -0.658  -0.627  -0.181  0.00  0.00     0.059 A 
ATOM      6  C   UNL d   1       1.843   0.738   0.076  0.00  0.00     0.033 A 
ATOM      7  C   UNL d   1      -0.762   0.757  -0.380  0.00  0.00     0.033 A 
ATOM      8  O   UNL d   1       1.075  -3.199   1.647  0.00  0.00    -0.271 OA
ATOM      9  C   UNL d   1       2.824  -1.465   0.115  0.00  0.00     0.031 A 
ATOM     10  C   UNL d   1      -1.532  -1.470  -0.884  0.00  0.00     0.031 A 
ATOM     11  C   UNL d   1      -1.771   1.284  -1.193  0.00  0.00     0.021 A 
ATOM     12  C   UNL d   1       3.064   1.282  -0.323  0.00  0.00     0.021 A 
ATOM     13  C   UNL d   1      -2.517  -0.945  -1.721  0.00  0.00     0.002 A 
ATOM     14  C   UNL d   1       4.036  -0.923  -0.318  0.00  0.00     0.002 A 
ATOM     15  C   UNL d   1       4.156   0.446  -0.541  0.00  0.00     0.002 A 
ATOM     16  C   UNL d   1      -2.645   0.432  -1.864  0.00  0.00     0.002 A 
ENDROOT
BRANCH   2  17
ATOM     17  C   UNL d   1      -1.102  -2.340   2.202  0.00  0.00     0.375 C 
BRANCH  17  18
ATOM     18  N   UNL d   1      -2.170  -3.106   1.533  0.00  0.00     0.097 N 
ATOM     19  C   UNL d   1      -1.988  -4.552   1.687  0.00  0.00     0.273 C 
ATOM     20  C   UNL d   1      -3.236  -5.377   1.347  0.00  0.00     0.030 C 
ATOM     21  C   UNL d   1      -4.215  -4.602   0.480  0.00  0.00     0.003 C 
ATOM     22  C   UNL d   1      -4.644  -3.330   1.201  0.00  0.00     0.030 C 
ATOM     23  C   UNL d   1      -3.491  -2.614   1.916  0.00  0.00     0.273 C 
ENDBRANCH  17  18
ENDBRANCH   2  17
TORSDOF 2
