REMARK  5 active torsions:
REMARK  status: ('A' for Active; 'I' for Inactive)
REMARK    1  A    between atoms: C_6  and  C_1 
REMARK    2  A    between atoms: C_7  and  N_2 
REMARK    3  A    between atoms: C_8  and  C_6 
REMARK    4  A    between atoms: C_9  and  C_11 
REMARK    5  A    between atoms: C_10  and  C_12 
ROOT
ATOM      1  C   UNL d   1       2.009  -1.647  -0.114  0.00  0.00     0.041 A 
ATOM      2  C   UNL d   1       3.016  -3.810   0.417  0.00  0.00     0.050 A 
ATOM      3  C   UNL d   1       4.122  -2.292  -1.146  0.00  0.00     0.050 A 
ATOM      4  C   UNL d   1       2.005  -2.854   0.602  0.00  0.00     0.046 A 
ATOM      5  C   UNL d   1       3.071  -1.371  -0.983  0.00  0.00     0.046 A 
ATOM      6  C   UNL d   1       4.077  -3.512  -0.452  0.00  0.00     0.032 A 
ENDROOT
BRANCH   1   7
ATOM      7  N   UNL d   1       0.908  -0.736   0.006  0.00  0.00    -0.319 N 
ATOM      8  C   UNL d   1       0.973   0.660   0.041  0.00  0.00     0.027 A 
ATOM      9  C   UNL d   1      -0.328   1.172   0.099  0.00  0.00     0.044 A 
ATOM     10  C   UNL d   1       2.242   1.455   0.110  0.00  0.00     0.070 C 
ATOM     11  C   UNL d   1      -1.194   0.054   0.119  0.00  0.00     0.042 A 
ATOM     12  C   UNL d   1      -0.436  -1.097   0.069  0.00  0.00     0.014 A 
ATOM     13  C   UNL d   1      -0.969  -2.490  -0.038  0.00  0.00     0.068 C 
BRANCH   9  14
ATOM     14  C   UNL d   1      -0.681   2.604   0.137  0.00  0.00     0.267 C 
ATOM     15  O   UNL d   1       0.128   3.452  -0.257  0.00  0.00    -0.282 OA
BRANCH  14  16
ATOM     16  C   UNL d   1      -2.065   3.016   0.646  0.00  0.00     0.456 C 
ATOM     17  F   UNL d   1      -2.742   2.036   1.311  0.00  0.00    -0.163 F 
ATOM     18  F   UNL d   1      -2.000   4.066   1.515  0.00  0.00    -0.163 F 
ATOM     19  F   UNL d   1      -2.887   3.415  -0.367  0.00  0.00    -0.163 F 
ENDBRANCH  14  16
ENDBRANCH   9  14
ENDBRANCH   1   7
BRANCH   2  20
ATOM     20  C   UNL d   1       2.957  -5.149   1.117  0.00  0.00     0.417 C 
ATOM     21  F   UNL d   1       1.836  -5.317   1.871  0.00  0.00    -0.166 F 
ATOM     22  F   UNL d   1       2.972  -6.188   0.237  0.00  0.00    -0.166 F 
ATOM     23  F   UNL d   1       4.010  -5.348   1.955  0.00  0.00    -0.166 F 
ENDBRANCH   2  20
BRANCH   3  24
ATOM     24  C   UNL d   1       5.277  -2.003  -2.077  0.00  0.00     0.417 C 
ATOM     25  F   UNL d   1       5.224  -0.768  -2.647  0.00  0.00    -0.166 F 
ATOM     26  F   UNL d   1       6.480  -2.073  -1.444  0.00  0.00    -0.166 F 
ATOM     27  F   UNL d   1       5.343  -2.890  -3.108  0.00  0.00    -0.166 F 
ENDBRANCH   3  24
TORSDOF 5
