REMARK  3 active torsions:
REMARK  status: ('A' for Active; 'I' for Inactive)
REMARK    1  A    between atoms: C_3  and  C_1 
REMARK       I    between atoms: N_6  and  C_1 
REMARK    2  A    between atoms: C_15  and  N_6 
REMARK    3  A    between atoms: C_9  and  C_15 
ROOT
ATOM      1  O   UNL d   1      -3.077   2.303   0.585  0.00  0.00    -0.339 OA
ATOM      2  O   UNL d   1      -2.335   1.000   3.067  0.00  0.00    -0.346 OA
ATOM      3  C   UNL d   1      -3.834   1.321   1.171  0.00  0.00     0.102 A 
ATOM      4  C   UNL d   1      -3.465   0.682   2.359  0.00  0.00     0.102 A 
ATOM      5  C   UNL d   1      -1.714   2.264   1.053  0.00  0.00     0.171 C 
ATOM      6  C   UNL d   1      -1.707   2.193   2.580  0.00  0.00     0.209 C 
ATOM      7  C   UNL d   1      -4.978   0.925   0.483  0.00  0.00     0.039 A 
ATOM      8  C   UNL d   1      -4.220  -0.388   2.833  0.00  0.00     0.039 A 
ATOM      9  C   UNL d   1      -5.728  -0.152   0.954  0.00  0.00     0.003 A 
ATOM     10  C   UNL d   1      -5.345  -0.812   2.124  0.00  0.00     0.003 A 
ENDROOT
BRANCH   5  11
ATOM     11  C   UNL d   1      -0.954   1.090   0.402  0.00  0.00     0.157 C 
BRANCH  11  12
ATOM     12  N   UNL d   1      -0.909   1.188  -1.046  0.00  0.00    -0.353 N 
ATOM     13  C   UNL d   1       0.117   1.825  -1.710  0.00  0.00     0.275 C 
ATOM     14  O   UNL d   1       1.043   2.369  -1.113  0.00  0.00    -0.265 OA
ATOM     15  H   UNL d   1      -1.693   0.859  -1.594  0.00  0.00     0.162 HD
BRANCH  13  16
ATOM     16  C   UNL d   1       0.012   1.780  -3.153  0.00  0.00     0.142 A 
ATOM     17  O   UNL d   1      -1.071   1.180  -3.744  0.00  0.00    -0.317 OA
ATOM     18  C   UNL d   1      -0.889   1.264  -5.088  0.00  0.00     0.143 A 
ATOM     19  C   UNL d   1       0.290   1.908  -5.378  0.00  0.00     0.027 A 
ATOM     20  C   UNL d   1       0.870   2.245  -4.133  0.00  0.00     0.045 A 
ENDBRANCH  13  16
ENDBRANCH  11  12
ENDBRANCH   5  11
TORSDOF 3
