REMARK  3 active torsions:
REMARK  status: ('A' for Active; 'I' for Inactive)
REMARK    1  A    between atoms: C_2  and  S_1 
REMARK    2  A    between atoms: N_3  and  S_1 
REMARK    3  A    between atoms: C_12  and  C_4 
ROOT
ATOM      1  N   UNL d   1       0.362   0.279   1.428  0.00  0.00    -0.203 NA
ATOM      2  C   UNL d   1      -1.328   1.260   3.509  0.00  0.00    -0.049 C 
ATOM      3  C   UNL d   1      -0.557   2.123   2.830  0.00  0.00    -0.004 C 
ATOM      4  C   UNL d   1       0.333   1.746   1.679  0.00  0.00     0.135 C 
ATOM      5  C   UNL d   1      -0.934  -0.404   1.700  0.00  0.00     0.112 C 
ATOM      6  C   UNL d   1      -1.355  -0.196   3.155  0.00  0.00     0.054 C 
ENDROOT
BRANCH   1   7
ATOM      7  S   UNL d   1       1.030  -0.155  -0.087  0.00  0.00     0.246 S 
ATOM      8  O   UNL d   1       0.950  -1.592  -0.248  0.00  0.00    -0.206 OA
ATOM      9  O   UNL d   1       0.444   0.721  -1.081  0.00  0.00    -0.206 OA
BRANCH   7  10
ATOM     10  C   UNL d   1       2.733   0.261   0.068  0.00  0.00     0.113 A 
ATOM     11  C   UNL d   1       3.511  -0.436   0.983  0.00  0.00     0.139 A 
ATOM     12  F   UNL d   1       2.979  -1.367   1.786  0.00  0.00    -0.204 F 
ATOM     13  C   UNL d   1       4.874  -0.172   1.086  0.00  0.00     0.044 A 
ATOM     14  C   UNL d   1       5.458   0.793   0.265  0.00  0.00     0.003 A 
ATOM     15  C   UNL d   1       4.677   1.495  -0.655  0.00  0.00     0.002 A 
ATOM     16  C   UNL d   1       3.310   1.230  -0.759  0.00  0.00     0.028 A 
ENDBRANCH   7  10
ENDBRANCH   1   7
BRANCH   2  17
ATOM     17  C   UNL d   1      -2.222   1.721   4.575  0.00  0.00    -0.030 A 
ATOM     18  C   UNL d   1      -3.519   2.151   4.265  0.00  0.00     0.012 A 
ATOM     19  C   UNL d   1      -4.378   2.586   5.276  0.00  0.00     0.001 A 
ATOM     20  C   UNL d   1      -3.943   2.599   6.601  0.00  0.00     0.000 A 
ATOM     21  C   UNL d   1      -2.651   2.178   6.915  0.00  0.00     0.001 A 
ATOM     22  C   UNL d   1      -1.791   1.741   5.905  0.00  0.00     0.012 A 
ENDBRANCH   2  17
TORSDOF 3
