REMARK  5 active torsions:
REMARK  status: ('A' for Active; 'I' for Inactive)
REMARK    1  A    between atoms: O_6  and  C_3 
REMARK    2  A    between atoms: C_4  and  C_10 
REMARK    3  A    between atoms: O_11  and  C_4 
REMARK    4  A    between atoms: C_10  and  O_6 
REMARK    5  A    between atoms: C_16  and  O_11 
ROOT
ATOM      1  C   UNL d   1      -0.319   0.653   0.015  0.00  0.00    -0.018 A 
ATOM      2  C   UNL d   1      -0.089  -0.726   0.003  0.00  0.00    -0.043 A 
ATOM      3  C   UNL d   1       0.729   1.562   0.064  0.00  0.00     0.076 A 
ATOM      4  C   UNL d   1       1.206  -1.237   0.024  0.00  0.00    -0.055 A 
ATOM      5  C   UNL d   1       2.031   1.065   0.071  0.00  0.00     0.038 A 
ATOM      6  C   UNL d   1       2.265  -0.320   0.052  0.00  0.00     0.010 A 
ATOM      7  C   UNL d   1      -1.375  -1.487  -0.047  0.00  0.00     0.040 A 
ATOM      8  C   UNL d   1      -1.778   0.977  -0.036  0.00  0.00     0.042 A 
ATOM      9  C   UNL d   1      -2.455  -0.397  -0.018  0.00  0.00     0.009 A 
ATOM     10  C   UNL d   1       1.505  -2.704  -0.001  0.00  0.00     0.049 C 
ENDROOT
BRANCH   3  11
ATOM     11  O   UNL d   1       0.382   2.882   0.049  0.00  0.00    -0.341 OA
BRANCH  11  12
ATOM     12  C   UNL d   1       1.309   3.779   0.643  0.00  0.00     0.286 C 
BRANCH  12  13
ATOM     13  C   UNL d   1       0.850   5.215   0.465  0.00  0.00     0.283 C 
ATOM     14  O   UNL d   1      -0.152   5.588  -0.130  0.00  0.00    -0.263 OA
BRANCH  13  15
ATOM     15  O   UNL d   1       1.798   6.043   1.000  0.00  0.00    -0.320 OA
BRANCH  15  16
ATOM     16  C   UNL d   1       1.728   7.411   0.576  0.00  0.00     0.174 C 
ATOM     17  C   UNL d   1       2.556   7.553  -0.689  0.00  0.00     0.034 C 
ENDBRANCH  15  16
ENDBRANCH  13  15
ENDBRANCH  12  13
ENDBRANCH  11  12
ENDBRANCH   3  11
TORSDOF 5
