REMARK  4 active torsions:
REMARK  status: ('A' for Active; 'I' for Inactive)
REMARK       I    between atoms: C_4  and  N_1 
REMARK    1  A    between atoms: C_15  and  C_3 
REMARK    2  A    between atoms: C_11  and  C_4 
REMARK    3  A    between atoms: C_5  and  C_14 
REMARK    4  A    between atoms: C_6  and  C_13 
ROOT
ATOM      1  N   UNL d   1      -2.518   0.273  -0.368  0.00  0.00    -0.335 N 
ATOM      2  C   UNL d   1      -0.157   0.751   0.086  0.00  0.00    -0.017 A 
ATOM      3  C   UNL d   1      -1.571   1.297   0.137  0.00  0.00     0.155 C 
ATOM      4  C   UNL d   1      -3.597   0.514  -1.235  0.00  0.00     0.254 C 
ATOM      5  C   UNL d   1       0.130  -0.596  -0.047  0.00  0.00    -0.007 A 
ATOM      6  C   UNL d   1      -2.293  -1.123   0.081  0.00  0.00     0.132 C 
ATOM      7  S   UNL d   1       1.796  -0.933  -0.063  0.00  0.00    -0.106 SA
ATOM      8  C   UNL d   1      -0.893  -1.663  -0.238  0.00  0.00     0.067 C 
ATOM      9  C   UNL d   1       1.059   1.517   0.018  0.00  0.00     0.018 A 
ATOM     10  C   UNL d   1       2.187   0.729  -0.016  0.00  0.00     0.051 A 
ATOM     11  O   UNL d   1      -4.299  -0.400  -1.665  0.00  0.00    -0.267 OA
ENDROOT
BRANCH   3  12
ATOM     12  C   UNL d   1      -1.840   1.752   1.584  0.00  0.00    -0.031 A 
ATOM     13  C   UNL d   1      -1.090   2.793   2.162  0.00  0.00     0.010 A 
ATOM     14  C   UNL d   1      -1.338   3.250   3.462  0.00  0.00     0.017 A 
ATOM     15  C   UNL d   1      -2.371   2.702   4.227  0.00  0.00     0.047 A 
ATOM     16  C   UNL d   1      -3.155   1.692   3.657  0.00  0.00     0.017 A 
ATOM     17  C   UNL d   1      -2.901   1.238   2.357  0.00  0.00     0.010 A 
BRANCH  15  18
ATOM     18  C   UNL d   1      -2.668   3.199   5.619  0.00  0.00     0.417 C 
ATOM     19  F   UNL d   1      -1.822   4.181   6.038  0.00  0.00    -0.166 F 
ATOM     20  F   UNL d   1      -3.923   3.720   5.726  0.00  0.00    -0.166 F 
ATOM     21  F   UNL d   1      -2.591   2.215   6.556  0.00  0.00    -0.166 F 
ENDBRANCH  15  18
ENDBRANCH   3  12
BRANCH   4  22
ATOM     22  C   UNL d   1      -3.933   1.891  -1.717  0.00  0.00     0.032 A 
ATOM     23  C   UNL d   1      -4.372   2.045  -3.040  0.00  0.00     0.018 A 
ATOM     24  C   UNL d   1      -4.668   3.317  -3.552  0.00  0.00     0.017 A 
ATOM     25  C   UNL d   1      -4.515   4.460  -2.753  0.00  0.00     0.048 A 
ATOM     26  C   UNL d   1      -4.133   4.296  -1.417  0.00  0.00     0.017 A 
ATOM     27  C   UNL d   1      -3.892   3.022  -0.896  0.00  0.00     0.018 A 
BRANCH  25  28
ATOM     28  C   UNL d   1      -4.781   5.837  -3.314  0.00  0.00     0.417 C 
ATOM     29  F   UNL d   1      -4.499   6.841  -2.435  0.00  0.00    -0.166 F 
ATOM     30  F   UNL d   1      -4.041   6.101  -4.426  0.00  0.00    -0.166 F 
ATOM     31  F   UNL d   1      -6.081   6.013  -3.675  0.00  0.00    -0.166 F 
ENDBRANCH  25  28
ENDBRANCH   4  22
TORSDOF 4
