REMARK  4 active torsions:
REMARK  status: ('A' for Active; 'I' for Inactive)
REMARK    1  A    between atoms: C_6  and  C_1 
REMARK    2  A    between atoms: C_2  and  C_5 
REMARK       I    between atoms: C_5  and  N_7 
REMARK    3  A    between atoms: N_7  and  N_9 
REMARK    4  A    between atoms: N_9  and  C_8 
ROOT
ATOM      1  N   UNL d   1       0.299   2.614   4.111  0.00  0.00    -0.187 NA
ATOM      2  H   UNL d   1       0.734   3.427   3.656  0.00  0.00     0.154 HD
ENDROOT
BRANCH   1   3
ATOM      3  N   UNL d   1      -0.669   2.972   5.067  0.00  0.00    -0.281 N 
ATOM      4  C   UNL d   1      -0.650   4.283   5.523  0.00  0.00     0.272 C 
ATOM      5  O   UNL d   1       0.035   5.154   4.998  0.00  0.00    -0.266 OA
ATOM      6  H   UNL d   1      -0.964   2.225   5.693  0.00  0.00     0.184 HD
BRANCH   4   7
ATOM      7  C   UNL d   1      -1.524   4.583   6.688  0.00  0.00     0.110 A 
ATOM      8  C   UNL d   1      -1.966   3.583   7.559  0.00  0.00     0.135 A 
ATOM      9  F   UNL d   1      -1.585   2.307   7.392  0.00  0.00    -0.205 F 
ATOM     10  C   UNL d   1      -2.822   3.872   8.625  0.00  0.00     0.043 A 
ATOM     11  C   UNL d   1      -3.248   5.181   8.836  0.00  0.00     0.006 A 
ATOM     12  C   UNL d   1      -2.804   6.191   7.986  0.00  0.00     0.043 A 
ATOM     13  C   UNL d   1      -1.946   5.891   6.924  0.00  0.00     0.135 A 
ATOM     14  F   UNL d   1      -1.575   6.901   6.126  0.00  0.00    -0.205 F 
ENDBRANCH   4   7
ENDBRANCH   1   3
BRANCH   1  15
ATOM     15  C   UNL d   1      -0.136   1.729   3.105  0.00  0.00     0.098 A 
ATOM     16  N   UNL d   1       0.372   1.919   1.869  0.00  0.00    -0.342 N 
ATOM     17  C   UNL d   1       0.068   1.023   0.882  0.00  0.00     0.117 A 
ATOM     18  HN  UNL d   1       0.973   2.720   1.673  1.00  0.00     0.167 HD
ATOM     19  C   UNL d   1      -0.758  -0.077   1.113  0.00  0.00     0.034 A 
ATOM     20  C   UNL d   1      -1.280  -0.265   2.384  0.00  0.00     0.005 A 
ATOM     21  C   UNL d   1      -0.957   0.640   3.390  0.00  0.00     0.044 A 
BRANCH  17  22
ATOM     22  C   UNL d   1       0.666   1.197  -0.508  0.00  0.00     0.432 C 
ATOM     23  F   UNL d   1       1.448   2.300  -0.659  0.00  0.00    -0.165 F 
ATOM     24  F   UNL d   1      -0.292   1.282  -1.479  0.00  0.00    -0.165 F 
ATOM     25  F   UNL d   1       1.448   0.134  -0.871  0.00  0.00    -0.165 F 
ENDBRANCH  17  22
ENDBRANCH   1  15
TORSDOF 4
