REMARK  4 active torsions:
REMARK  status: ('A' for Active; 'I' for Inactive)
REMARK    1  A    between atoms: S_2  and  C_1 
REMARK    2  A    between atoms: N_8  and  S_2 
REMARK    3  A    between atoms: C_16  and  N_8 
REMARK    4  A    between atoms: C_17  and  C_16 
ROOT
ATOM      1  S   UNL d   1      -0.857   2.962   0.106  0.00  0.00     0.245 S 
ATOM      2  O   UNL d   1      -0.923   1.527   0.250  0.00  0.00    -0.206 OA
ATOM      3  O   UNL d   1      -0.176   3.598  -0.997  0.00  0.00    -0.206 OA
ENDROOT
BRANCH   1   4
ATOM      4  C   UNL d   1      -2.482   3.530  -0.029  0.00  0.00     0.121 A 
ATOM      5  C   UNL d   1      -3.680   2.774  -0.065  0.00  0.00     0.047 A 
ATOM      6  N   UNL d   1      -4.748   3.577  -0.176  0.00  0.00    -0.302 N 
ATOM      7  C   UNL d   1      -3.940   1.313   0.022  0.00  0.00     0.071 C 
ATOM      8  N   UNL d   1      -4.245   4.819  -0.231  0.00  0.00    -0.299 N 
ATOM      9  HN  UNL d   1      -5.730   3.303  -0.212  1.00  0.00     0.186 HD
ATOM     10  C   UNL d   1      -2.882   4.861  -0.103  0.00  0.00     0.049 A 
ATOM     11  C   UNL d   1      -5.171   5.918  -0.386  0.00  0.00     0.177 C 
ATOM     12  C   UNL d   1      -2.114   6.133  -0.089  0.00  0.00     0.071 C 
ENDBRANCH   1   4
BRANCH   1  13
ATOM     13  N   UNL d   1      -0.212   3.598   1.526  0.00  0.00    -0.211 NA
ATOM     14  H   UNL d   1      -0.192   4.616   1.509  0.00  0.00     0.140 HD
BRANCH  13  15
ATOM     15  C   UNL d   1      -0.740   3.030   2.771  0.00  0.00     0.143 C 
BRANCH  15  16
ATOM     16  C   UNL d   1      -0.093   3.665   3.980  0.00  0.00    -0.044 A 
ATOM     17  C   UNL d   1       1.291   3.536   4.197  0.00  0.00     0.018 A 
ATOM     18  C   UNL d   1       1.846   4.127   5.319  0.00  0.00    -0.022 A 
ATOM     19  C   UNL d   1       3.258   4.195   5.758  0.00  0.00     0.068 C 
ATOM     20  C   UNL d   1       1.061   4.849   6.203  0.00  0.00     0.075 A 
ATOM     21  C   UNL d   1       3.051   4.748   7.169  0.00  0.00     0.180 C 
ATOM     22  O   UNL d   1       1.762   5.401   7.243  0.00  0.00    -0.350 OA
ATOM     23  C   UNL d   1      -0.296   5.001   6.017  0.00  0.00     0.038 A 
ATOM     24  C   UNL d   1      -0.877   4.396   4.901  0.00  0.00     0.011 A 
ENDBRANCH  15  16
ENDBRANCH  13  15
ENDBRANCH   1  13
TORSDOF 4
