REMARK  1 active torsions:
REMARK  status: ('A' for Active; 'I' for Inactive)
REMARK    1  A    between atoms: O_9  and  N_5 
ROOT
ATOM      1  C   UNL d   1       0.720  -1.291  -0.300  0.00  0.00    -0.032 C 
ATOM      2  C   UNL d   1       1.419  -0.050   0.204  0.00  0.00     0.038 C 
ATOM      3  C   UNL d   1       0.256  -2.237   0.547  0.00  0.00    -0.079 C 
ATOM      4  C   UNL d   1       0.583  -1.264  -1.803  0.00  0.00     0.041 C 
ATOM      5  N   UNL d   1       2.495  -0.146   0.933  0.00  0.00    -0.273 N 
ATOM      6  HN  UNL d   1       2.917  -1.031   1.214  1.00  0.00     0.194 HD
ATOM      7  C   UNL d   1       0.789   1.259  -0.252  0.00  0.00     0.064 C 
ATOM      8  C   UNL d   1      -0.070   0.037  -2.280  0.00  0.00     0.009 C 
ATOM      9  C   UNL d   1       0.667   1.289  -1.782  0.00  0.00    -0.013 C 
ATOM     10  C   UNL d   1      -0.466  -3.486   0.100  0.00  0.00     0.043 C 
ATOM     11  C   UNL d   1       0.380  -2.174   2.052  0.00  0.00     0.043 C 
ATOM     12  C   UNL d   1       2.039   1.443  -2.447  0.00  0.00     0.010 C 
ENDROOT
BRANCH   5  13
ATOM     13  O   UNL d   1       3.002   1.110   1.284  0.00  0.00    -0.290 OA
ATOM     14  H   UNL d   1       3.788   0.877   1.811  0.00  0.00     0.244 HD
ENDBRANCH   5  13
TORSDOF 1
