REMARK  6 active torsions:
REMARK  status: ('A' for Active; 'I' for Inactive)
REMARK    1  A    between atoms: C_3  and  C_1 
REMARK    2  A    between atoms: N_2  and  C_4 
REMARK    3  A    between atoms: C_7  and  C_14 
REMARK       I    between atoms: N_10  and  C_7 
REMARK    4  A    between atoms: C_14  and  N_8 
REMARK    5  A    between atoms: C_25  and  N_10 
REMARK    6  A    between atoms: C_26  and  C_16 
ROOT
ATOM      1  N   UNL d   1      -0.375  -0.507   5.193  0.00  0.00    -0.266 NA
ATOM      2  N   UNL d   1      -1.417  -2.494   7.190  0.00  0.00     0.099 N 
ATOM      3  C   UNL d   1       0.532  -1.191   6.136  0.00  0.00     0.127 C 
ATOM      4  C   UNL d   1      -1.748  -0.384   5.720  0.00  0.00     0.127 C 
ATOM      5  C   UNL d   1      -0.052  -2.550   6.593  0.00  0.00     0.287 C 
ATOM      6  C   UNL d   1      -2.293  -1.747   6.239  0.00  0.00     0.287 C 
ENDROOT
BRANCH   2   7
ATOM      7  C   UNL d   1      -1.427  -1.814   8.508  0.00  0.00     0.375 C 
BRANCH   7   8
ATOM      8  C   UNL d   1      -0.604  -2.530   9.588  0.00  0.00     0.250 C 
ATOM      9  N   UNL d   1      -0.635  -3.909   9.504  0.00  0.00    -0.326 N 
ATOM     10  H   UNL d   1      -1.032  -4.273   8.642  0.00  0.00     0.169 HD
ATOM     11  O   UNL d   1      -0.054  -1.871  10.464  0.00  0.00    -0.271 OA
BRANCH   9  12
ATOM     12  C   UNL d   1      -0.231  -4.834  10.493  0.00  0.00     0.034 A 
ATOM     13  C   UNL d   1       0.182  -4.462  11.773  0.00  0.00     0.030 A 
ATOM     14  C   UNL d   1       0.388  -5.424  12.769  0.00  0.00     0.010 A 
ATOM     15  C   UNL d   1       0.175  -6.782  12.512  0.00  0.00    -0.055 A 
ATOM     16  C   UNL d   1      -0.127  -7.161  11.196  0.00  0.00     0.010 A 
ATOM     17  C   UNL d   1      -0.334  -6.196  10.199  0.00  0.00     0.030 A 
BRANCH  15  18
ATOM     18  C   UNL d   1       0.192  -7.827  13.616  0.00  0.00     0.010 C 
ATOM     19  C   UNL d   1       1.605  -8.309  13.939  0.00  0.00     0.015 C 
ATOM     20  C   UNL d   1      -0.513  -7.343  14.892  0.00  0.00     0.015 C 
ENDBRANCH  15  18
ENDBRANCH   9  12
ENDBRANCH   7   8
ENDBRANCH   2   7
BRANCH   1  21
ATOM     21  C   UNL d   1      -0.241  -0.914   3.859  0.00  0.00     0.082 A 
ATOM     22  C   UNL d   1      -0.910  -0.241   2.837  0.00  0.00     0.043 A 
ATOM     23  C   UNL d   1      -0.728  -0.624   1.505  0.00  0.00     0.021 A 
ATOM     24  C   UNL d   1       0.137  -1.673   1.200  0.00  0.00     0.063 A 
ATOM     25  C   UNL d   1       0.776  -2.282   2.262  0.00  0.00     0.105 A 
ATOM     26  N   UNL d   1       0.605  -1.925   3.556  0.00  0.00    -0.356 N 
ATOM     27  HN  UNL d   1       1.109  -2.413   4.296  1.00  0.00     0.166 HD
BRANCH  24  28
ATOM     28  C   UNL d   1       0.380  -2.123  -0.206  0.00  0.00     0.418 C 
ATOM     29  F   UNL d   1       1.286  -3.135  -0.308  0.00  0.00    -0.166 F 
ATOM     30  F   UNL d   1       0.849  -1.123  -1.002  0.00  0.00    -0.166 F 
ATOM     31  F   UNL d   1      -0.753  -2.578  -0.809  0.00  0.00    -0.166 F 
ENDBRANCH  24  28
ENDBRANCH   1  21
TORSDOF 6
