REMARK  10 active torsions:
REMARK  status: ('A' for Active; 'I' for Inactive)
REMARK    1  A    between atoms: C_6  and  N_1 
REMARK    2  A    between atoms: N_2  and  C_5 
REMARK    3  A    between atoms: C_3  and  O_25 
REMARK    4  A    between atoms: C_14  and  C_3 
REMARK    5  A    between atoms: C_4  and  C_13 
REMARK    6  A    between atoms: O_26  and  C_4 
REMARK    7  A    between atoms: C_28  and  C_7 
REMARK    8  A    between atoms: C_8  and  C_27 
REMARK    9  A    between atoms: O_25  and  C_28 
REMARK   10  A    between atoms: C_27  and  O_26 
ROOT
ATOM      1  C   UNL d   1      -1.227   6.717  -6.572  0.00  0.00    -0.078 C 
ATOM      2  C   UNL d   1      -1.721   6.391  -5.526  0.00  0.00    -0.078 C 
ENDROOT
BRANCH   1   3
ATOM      3  C   UNL d   1      -0.642   7.082  -7.872  0.00  0.00     0.272 C 
BRANCH   3   4
ATOM      4  O   UNL d   1       0.583   7.810  -7.678  0.00  0.00    -0.305 OA
BRANCH   4   5
ATOM      5  C   UNL d   1       1.666   7.309  -8.317  0.00  0.00     0.294 C 
ATOM      6  O   UNL d   1       1.690   6.299  -9.004  0.00  0.00    -0.259 OA
BRANCH   5   7
ATOM      7  C   UNL d   1       2.880   8.153  -8.109  0.00  0.00     0.039 A 
ATOM      8  C   UNL d   1       4.086   7.703  -8.674  0.00  0.00     0.020 A 
ATOM      9  C   UNL d   1       5.267   8.441  -8.534  0.00  0.00     0.037 A 
ATOM     10  C   UNL d   1       5.244   9.646  -7.824  0.00  0.00     0.102 A 
ATOM     11  C   UNL d   1       4.048  10.111  -7.257  0.00  0.00     0.037 A 
ATOM     12  C   UNL d   1       2.868   9.363  -7.400  0.00  0.00     0.020 A 
BRANCH  10  13
ATOM     13  N   UNL d   1       6.482  10.425  -7.677  0.00  0.00    -0.116 N 
ATOM     14  O   UNL d   1       7.517   9.961  -8.176  0.00  0.00    -0.532 OA
ATOM     15  O   UNL d   1       6.418  11.500  -7.064  0.00  0.00    -0.532 OA
ENDBRANCH  10  13
ENDBRANCH   5   7
ENDBRANCH   4   5
ENDBRANCH   3   4
ENDBRANCH   1   3
BRANCH   2  16
ATOM     16  C   UNL d   1      -2.308   5.987  -4.240  0.00  0.00     0.272 C 
BRANCH  16  17
ATOM     17  O   UNL d   1      -1.576   4.885  -3.680  0.00  0.00    -0.305 OA
BRANCH  17  18
ATOM     18  C   UNL d   1      -0.468   5.246  -2.991  0.00  0.00     0.294 C 
ATOM     19  O   UNL d   1      -0.090   6.390  -2.787  0.00  0.00    -0.259 OA
BRANCH  18  20
ATOM     20  C   UNL d   1       0.283   4.056  -2.504  0.00  0.00     0.039 A 
ATOM     21  C   UNL d   1       1.527   4.284  -1.894  0.00  0.00     0.020 A 
ATOM     22  C   UNL d   1       2.294   3.219  -1.413  0.00  0.00     0.037 A 
ATOM     23  C   UNL d   1       1.812   1.911  -1.540  0.00  0.00     0.102 A 
ATOM     24  C   UNL d   1       0.569   1.668  -2.144  0.00  0.00     0.037 A 
ATOM     25  C   UNL d   1      -0.194   2.742  -2.627  0.00  0.00     0.020 A 
BRANCH  23  26
ATOM     26  N   UNL d   1       2.617   0.790  -1.035  0.00  0.00    -0.116 N 
ATOM     27  O   UNL d   1       2.156  -0.353  -1.166  0.00  0.00    -0.532 OA
ATOM     28  O   UNL d   1       3.706   1.053  -0.510  0.00  0.00    -0.532 OA
ENDBRANCH  23  26
ENDBRANCH  18  20
ENDBRANCH  17  18
ENDBRANCH  16  17
ENDBRANCH   2  16
TORSDOF 10
