REMARK  6 active torsions:
REMARK  status: ('A' for Active; 'I' for Inactive)
REMARK    1  A    between atoms: C_7  and  C_1 
REMARK    2  A    between atoms: C_8  and  C_2 
REMARK    3  A    between atoms: C_9  and  N_4 
REMARK    4  A    between atoms: C_10  and  C_7 
REMARK    5  A    between atoms: O_15  and  C_8 
REMARK    6  A    between atoms: O_17  and  C_10 
ROOT
ATOM      1  C   UNL d   1      -0.218  -1.292   0.016  0.00  0.00     0.076 C 
ATOM      2  C   UNL d   1       0.992  -0.604  -0.010  0.00  0.00     0.146 C 
ATOM      3  N   UNL d   1      -0.557   0.881  -0.393  0.00  0.00    -0.014 NA
ATOM      4  N   UNL d   1      -1.173  -0.294  -0.117  0.00  0.00    -0.241 N 
ATOM      5  N   UNL d   1       0.746   0.723  -0.246  0.00  0.00    -0.276 N 
ATOM      6  HN  UNL d   1       1.448   1.461  -0.300  1.00  0.00     0.184 HD
ENDROOT
BRANCH   4   7
ATOM      7  C   UNL d   1      -2.590  -0.331  -0.051  0.00  0.00     0.054 A 
ATOM      8  C   UNL d   1      -3.324   0.603  -0.802  0.00  0.00     0.032 A 
ATOM      9  C   UNL d   1      -4.719   0.616  -0.746  0.00  0.00     0.021 A 
ATOM     10  C   UNL d   1      -5.383  -0.280   0.086  0.00  0.00     0.011 A 
ATOM     11  C   UNL d   1      -4.665  -1.192   0.857  0.00  0.00     0.021 A 
ATOM     12 BR   UNL d   1      -7.270  -0.240   0.190  0.00  0.00    -0.051 Br
ATOM     13  C   UNL d   1      -3.268  -1.224   0.786  0.00  0.00     0.032 A 
ENDBRANCH   4   7
BRANCH   1  14
ATOM     14  C   UNL d   1      -0.490  -2.764   0.010  0.00  0.00     0.172 C 
BRANCH  14  15
ATOM     15  C   UNL d   1      -0.580  -3.356   1.400  0.00  0.00     0.264 C 
ATOM     16  O   UNL d   1      -0.473  -2.738   2.449  0.00  0.00    -0.265 OA
BRANCH  15  17
ATOM     17  O   UNL d   1      -0.884  -4.683   1.292  0.00  0.00    -0.326 OA
ATOM     18  C   UNL d   1      -1.092  -5.401   2.512  0.00  0.00     0.213 C 
ENDBRANCH  15  17
ENDBRANCH  14  15
ENDBRANCH   1  14
BRANCH   2  19
ATOM     19  C   UNL d   1       2.348  -1.128   0.087  0.00  0.00     0.312 C 
ATOM     20  O   UNL d   1       2.603  -2.325   0.181  0.00  0.00    -0.258 OA
BRANCH  19  21
ATOM     21  O   UNL d   1       3.282  -0.136   0.032  0.00  0.00    -0.321 OA
ATOM     22  C   UNL d   1       4.650  -0.541   0.072  0.00  0.00     0.213 C 
ENDBRANCH  19  21
ENDBRANCH   2  19
TORSDOF 6
