REMARK  3 active torsions:
REMARK  status: ('A' for Active; 'I' for Inactive)
REMARK    1  A    between atoms: C_7  and  C_1 
REMARK    2  A    between atoms: C_15  and  N_2 
REMARK    3  A    between atoms: N_3  and  C_7 
ROOT
ATOM      1  C   UNL d   1       2.262  -1.579   0.120  0.00  0.00     0.208 C 
ENDROOT
BRANCH   1   2
ATOM      2  N   UNL d   1       1.924  -2.961  -0.279  0.00  0.00    -0.337 N 
ATOM      3  C   UNL d   1       2.627  -4.055   0.282  0.00  0.00     0.052 A 
ATOM      4  C   UNL d   1       2.037  -5.336   0.328  0.00  0.00     0.032 A 
ATOM      5  C   UNL d   1       3.944  -3.936   0.764  0.00  0.00     0.031 A 
ATOM      6  C   UNL d   1       2.725  -6.429   0.878  0.00  0.00     0.021 A 
ATOM      7  S   UNL d   1       0.387  -5.630  -0.293  0.00  0.00    -0.086 SA
ATOM      8  C   UNL d   1       4.016  -6.269   1.375  0.00  0.00     0.002 A 
ATOM      9  C   UNL d   1       4.625  -5.024   1.315  0.00  0.00     0.002 A 
ATOM     10  C   UNL d   1       0.286  -4.321  -1.509  0.00  0.00     0.032 A 
ATOM     11  C   UNL d   1       1.029  -3.127  -1.368  0.00  0.00     0.052 A 
ATOM     12  C   UNL d   1      -0.563  -4.516  -2.606  0.00  0.00     0.021 A 
ATOM     13  C   UNL d   1       0.899  -2.165  -2.386  0.00  0.00     0.031 A 
ATOM     14  C   UNL d   1       0.065  -2.373  -3.491  0.00  0.00     0.002 A 
ATOM     15  C   UNL d   1      -0.669  -3.547  -3.599  0.00  0.00     0.002 A 
ENDBRANCH   1   2
BRANCH   1  16
ATOM     16  C   UNL d   1       2.542  -1.390   1.608  0.00  0.00     0.123 A 
ATOM     17  N   UNL d   1       1.758  -1.781   2.654  0.00  0.00    -0.274 N 
ATOM     18  C   UNL d   1       2.524  -1.492   3.779  0.00  0.00     0.199 A 
ATOM     19  S   UNL d   1       2.263  -1.617   5.416  0.00  0.00    -0.039 SA
ATOM     20  N   UNL d   1       3.698  -0.922   3.305  0.00  0.00    -0.274 N 
ATOM     21  N   UNL d   1       3.684  -0.850   1.957  0.00  0.00    -0.285 N 
ATOM     22  H   UNL d   1       4.471  -0.582   3.865  0.00  0.00     0.189 HD
ATOM     23  HN  UNL d   1       4.402  -0.461   1.345  1.00  0.00     0.188 HD
BRANCH  17  24
ATOM     24  C   UNL d   1       0.447  -2.336   2.624  0.00  0.00     0.043 A 
ATOM     25  C   UNL d   1       0.029  -3.283   3.573  0.00  0.00     0.030 A 
ATOM     26  C   UNL d   1      -1.268  -3.811   3.562  0.00  0.00     0.002 A 
ATOM     27  C   UNL d   1      -2.171  -3.421   2.583  0.00  0.00     0.000 A 
ATOM     28  C   UNL d   1      -1.782  -2.493   1.628  0.00  0.00     0.002 A 
ATOM     29  C   UNL d   1      -0.492  -1.946   1.658  0.00  0.00     0.030 A 
ENDBRANCH  17  24
ENDBRANCH   1  16
TORSDOF 3
