REMARK  2 active torsions:
REMARK  status: ('A' for Active; 'I' for Inactive)
REMARK    1  A    between atoms: S_10  and  C_3 
REMARK    2  A    between atoms: C_7  and  S_10 
ROOT
ATOM      1  N   UNL d   1      -0.407   0.371  -0.077  0.00  0.00    -0.287 N 
ATOM      2  C   UNL d   1      -0.292  -1.025  -0.077  0.00  0.00     0.135 A 
ATOM      3  C   UNL d   1       0.731   1.229  -0.043  0.00  0.00     0.093 A 
ATOM      4  C   UNL d   1       1.006  -1.609  -0.086  0.00  0.00     0.096 A 
ATOM      5  N   UNL d   1      -1.462  -1.626  -0.040  0.00  0.00    -0.339 N 
ATOM      6  HN  UNL d   1      -1.637  -2.630  -0.021  1.00  0.00     0.167 HD
ATOM      7  C   UNL d   1       1.977   0.669  -0.018  0.00  0.00    -0.016 A 
ATOM      8  C   UNL d   1       2.108  -0.814  -0.066  0.00  0.00    -0.025 A 
ATOM      9  C   UNL d   1      -1.787   0.628  -0.071  0.00  0.00     0.068 A 
ATOM     10  C   UNL d   1      -2.389  -0.630  -0.032  0.00  0.00     0.061 A 
ATOM     11  C   UNL d   1       1.112  -3.041  -0.053  0.00  0.00     0.104 C 
ATOM     12  N   UNL d   1       1.258  -4.196  -0.024  0.00  0.00    -0.191 NA
ATOM     13  C   UNL d   1       3.254   1.497   0.075  0.00  0.00     0.042 C 
ATOM     14  C   UNL d   1       3.494  -1.440  -0.026  0.00  0.00     0.041 C 
ATOM     15  C   UNL d   1      -2.581   1.791  -0.092  0.00  0.00     0.032 A 
ATOM     16  C   UNL d   1      -3.788  -0.751   0.008  0.00  0.00     0.032 A 
ATOM     17  C   UNL d   1       4.530   0.753   0.439  0.00  0.00     0.005 C 
ATOM     18  C   UNL d   1       4.637  -0.507  -0.393  0.00  0.00     0.005 C 
ATOM     19  C   UNL d   1      -3.975   1.655  -0.052  0.00  0.00     0.002 A 
ATOM     20  C   UNL d   1      -4.574   0.402  -0.001  0.00  0.00     0.002 A 
ENDROOT
BRANCH   3  21
ATOM     21  S   UNL d   1       0.476   2.943   0.208  0.00  0.00    -0.035 SA
BRANCH  21  22
ATOM     22  C   UNL d   1       1.064   3.685  -1.237  0.00  0.00     0.151 A 
ATOM     23  N   UNL d   1       1.802   3.204  -2.208  0.00  0.00    -0.335 N 
ATOM     24  C   UNL d   1       2.204   4.312  -2.930  0.00  0.00     0.061 A 
ATOM     25  HN  UNL d   1       2.029   2.226  -2.391  1.00  0.00     0.168 HD
ATOM     26  C   UNL d   1       3.094   4.420  -4.011  0.00  0.00     0.032 A 
ATOM     27  C   UNL d   1       1.629   5.474  -2.422  0.00  0.00     0.061 A 
ATOM     28  C   UNL d   1       3.383   5.694  -4.527  0.00  0.00     0.002 A 
ATOM     29  C   UNL d   1       2.782   6.837  -3.995  0.00  0.00     0.002 A 
ATOM     30  C   UNL d   1       1.879   6.751  -2.930  0.00  0.00     0.032 A 
ATOM     31  N   UNL d   1       0.866   5.032  -1.374  0.00  0.00    -0.335 N 
ATOM     32  H   UNL d   1       0.336   5.606  -0.738  0.00  0.00     0.168 HD
ENDBRANCH  21  22
ENDBRANCH   3  21
TORSDOF 2
