REMARK  3 active torsions:
REMARK  status: ('A' for Active; 'I' for Inactive)
REMARK       I    between atoms: C_6  and  N_2 
REMARK    1  A    between atoms: C_7  and  C_3 
REMARK    2  A    between atoms: C_12  and  C_6 
REMARK    3  A    between atoms: O_23  and  C_19 
ROOT
ATOM      1  C   UNL d   1       1.020  -0.794   0.092  0.00  0.00     0.049 A 
ATOM      2  N   UNL d   1       3.363  -0.238  -0.264  0.00  0.00    -0.329 N 
ATOM      3  C   UNL d   1       2.425  -1.335   0.137  0.00  0.00     0.245 C 
ATOM      4  C   UNL d   1       0.627   0.519  -0.036  0.00  0.00    -0.019 A 
ATOM      5  N   UNL d   1      -0.104  -1.575   0.108  0.00  0.00    -0.356 N 
ATOM      6  C   UNL d   1       4.688  -0.419  -0.711  0.00  0.00     0.254 C 
ATOM      7  C   UNL d   1      -0.795   0.548  -0.024  0.00  0.00    -0.001 A 
ATOM      8  C   UNL d   1      -1.225  -0.779   0.056  0.00  0.00     0.043 A 
ATOM      9  C   UNL d   1       3.022   1.115   0.252  0.00  0.00     0.132 C 
ATOM     10  C   UNL d   1       1.631   1.611  -0.190  0.00  0.00     0.061 C 
ATOM     11  O   UNL d   1       5.436   0.536  -0.901  0.00  0.00    -0.267 OA
ATOM     12  C   UNL d   1      -1.771   1.563  -0.083  0.00  0.00     0.014 A 
ATOM     13  C   UNL d   1      -2.574  -1.145   0.070  0.00  0.00     0.030 A 
ATOM     14  C   UNL d   1      -3.128   1.214  -0.051  0.00  0.00     0.001 A 
ATOM     15  C   UNL d   1      -3.522  -0.120   0.018  0.00  0.00     0.002 A 
ATOM     16  H   UNL d   1      -0.134  -2.583   0.163  0.00  0.00     0.166 HD
ENDROOT
BRANCH   3  17
ATOM     17  C   UNL d   1       2.778  -2.085   1.454  0.00  0.00     0.413 C 
ATOM     18  F   UNL d   1       1.741  -2.138   2.323  0.00  0.00    -0.168 F 
ATOM     19  F   UNL d   1       3.104  -3.375   1.177  0.00  0.00    -0.168 F 
ATOM     20  F   UNL d   1       3.825  -1.536   2.108  0.00  0.00    -0.168 F 
ENDBRANCH   3  17
BRANCH   6  21
ATOM     21  C   UNL d   1       5.285  -1.778  -0.904  0.00  0.00     0.032 C 
ATOM     22  C   UNL d   1       4.611  -2.869  -1.453  0.00  0.00     0.020 C 
ATOM     23  C   UNL d   1       5.182  -4.147  -1.442  0.00  0.00     0.038 C 
ATOM     24  C   UNL d   1       6.489  -4.327  -0.996  0.00  0.00     0.068 C 
ATOM     25  C   UNL d   1       7.231  -3.215  -0.605  0.00  0.00     0.038 C 
ATOM     26  C   UNL d   1       6.628  -1.953  -0.534  0.00  0.00     0.020 C 
BRANCH  24  27
ATOM     27  O   UNL d   1       7.147  -5.525  -0.980  0.00  0.00    -0.356 OA
ATOM     28  C   UNL d   1       6.335  -6.660  -0.686  0.00  0.00     0.210 C 
ENDBRANCH  24  27
ENDBRANCH   6  21
TORSDOF 3
