REMARK  4 active torsions:
REMARK  status: ('A' for Active; 'I' for Inactive)
REMARK    1  A    between atoms: C_8  and  N_1 
REMARK    2  A    between atoms: C_17  and  C_8 
REMARK    3  A    between atoms: C_10  and  O_16 
REMARK    4  A    between atoms: O_16  and  C_17 
ROOT
ATOM      1  C   UNL d   1       0.186  -2.311   0.003  0.00  0.00     0.161 C 
ENDROOT
BRANCH   1   2
ATOM      2  N   UNL d   1       0.262  -0.853   0.042  0.00  0.00    -0.291 N 
ATOM      3  C   UNL d   1       0.378  -0.053   1.145  0.00  0.00     0.177 A 
ATOM      4  N   UNL d   1       0.538   1.251   0.728  0.00  0.00    -0.358 N 
ATOM      5  S   UNL d   1       0.364  -0.463   2.749  0.00  0.00    -0.041 SA
ATOM      6  C   UNL d   1       0.560   1.361  -0.704  0.00  0.00     0.225 A 
ATOM      7  H   UNL d   1       0.659   2.017   1.380  0.00  0.00     0.162 HD
ATOM      8  C   UNL d   1       0.404  -0.099  -1.100  0.00  0.00     0.243 A 
ATOM      9  O   UNL d   1       0.429  -0.516  -2.249  0.00  0.00    -0.271 OA
ENDBRANCH   1   2
BRANCH   1  10
ATOM     10  C   UNL d   1       1.583  -2.932  -0.009  0.00  0.00     0.196 C 
BRANCH  10  11
ATOM     11  O   UNL d   1       1.485  -4.357  -0.021  0.00  0.00    -0.350 OA
BRANCH  11  12
ATOM     12  C   UNL d   1       2.675  -5.037  -0.030  0.00  0.00     0.068 A 
ATOM     13  C   UNL d   1       3.947  -4.455   0.001  0.00  0.00     0.038 A 
ATOM     14  C   UNL d   1       5.091  -5.256  -0.013  0.00  0.00     0.026 A 
ATOM     15  C   UNL d   1       4.969  -6.642  -0.057  0.00  0.00     0.034 A 
ATOM     16  C   UNL d   1       3.709  -7.234  -0.086  0.00  0.00     0.026 A 
ATOM     17 CL   UNL d   1       6.382  -7.622  -0.077  0.00  0.00    -0.084 Cl
ATOM     18  C   UNL d   1       2.565  -6.430  -0.071  0.00  0.00     0.038 A 
ENDBRANCH  11  12
ENDBRANCH  10  11
ENDBRANCH   1  10
TORSDOF 4
