REMARK  6 active torsions:
REMARK  status: ('A' for Active; 'I' for Inactive)
REMARK    1  A    between atoms: C_9  and  N_1 
REMARK    2  A    between atoms: C_7  and  N_10 
REMARK    3  A    between atoms: N_14  and  C_7 
REMARK    4  A    between atoms: C_8  and  C_9 
REMARK       I    between atoms: N_11  and  C_8 
REMARK    5  A    between atoms: N_10  and  N_11 
REMARK    6  A    between atoms: C_19  and  N_14 
ROOT
ATOM      1  N   UNL d   1       0.242  -1.381   0.391  0.00  0.00    -0.336 N 
ATOM      2  S   UNL d   1       0.294   1.733   0.340  0.00  0.00    -0.086 SA
ATOM      3  C   UNL d   1      -1.000  -0.741   0.144  0.00  0.00     0.052 A 
ATOM      4  C   UNL d   1       1.492  -0.781   0.100  0.00  0.00     0.052 A 
ATOM      5  C   UNL d   1      -1.099   0.659   0.015  0.00  0.00     0.032 A 
ATOM      6  C   UNL d   1       1.659   0.615   0.078  0.00  0.00     0.032 A 
ATOM      7  C   UNL d   1       2.595  -1.595  -0.213  0.00  0.00     0.031 A 
ATOM      8  C   UNL d   1      -2.155  -1.514  -0.081  0.00  0.00     0.031 A 
ATOM      9  C   UNL d   1       2.934   1.162  -0.121  0.00  0.00     0.021 A 
ATOM     10  C   UNL d   1      -2.323   1.250  -0.331  0.00  0.00     0.021 A 
ATOM     11  C   UNL d   1       3.851  -1.041  -0.462  0.00  0.00     0.002 A 
ATOM     12  C   UNL d   1      -3.370  -0.918  -0.426  0.00  0.00     0.002 A 
ATOM     13  C   UNL d   1       4.026   0.336  -0.384  0.00  0.00     0.002 A 
ATOM     14  C   UNL d   1      -3.453   0.464  -0.557  0.00  0.00     0.002 A 
ENDROOT
BRANCH   1  15
ATOM     15  C   UNL d   1       0.254  -2.245   1.604  0.00  0.00     0.234 C 
BRANCH  15  16
ATOM     16  C   UNL d   1       0.077  -1.462   2.919  0.00  0.00     0.254 C 
ATOM     17  N   UNL d   1       1.214  -0.783   3.349  0.00  0.00    -0.266 N 
ATOM     18  H   UNL d   1       1.830  -0.415   2.627  0.00  0.00     0.190 HD
ATOM     19  O   UNL d   1      -0.973  -1.488   3.563  0.00  0.00    -0.270 OA
BRANCH  17  20
ATOM     20  N   UNL d   1       1.044   0.091   4.444  0.00  0.00    -0.274 N 
ATOM     21  H   UNL d   1       0.114   0.499   4.566  0.00  0.00     0.189 HD
BRANCH  20  22
ATOM     22  C   UNL d   1       2.079   0.541   5.220  0.00  0.00     0.186 C 
ATOM     23  S   UNL d   1       1.808   1.835   6.239  0.00  0.00    -0.040 SA
BRANCH  22  24
ATOM     24  N   UNL d   1       3.262  -0.141   5.062  0.00  0.00    -0.366 N 
ATOM     25  H   UNL d   1       3.169  -0.986   4.514  0.00  0.00     0.161 HD
BRANCH  24  26
ATOM     26  C   UNL d   1       4.434  -0.050   5.928  0.00  0.00     0.117 C 
ATOM     27  C   UNL d   1       5.625   0.589   5.237  0.00  0.00     0.026 C 
ENDBRANCH  24  26
ENDBRANCH  22  24
ENDBRANCH  20  22
ENDBRANCH  17  20
ENDBRANCH  15  16
ENDBRANCH   1  15
TORSDOF 6
