REMARK  6 active torsions:
REMARK  status: ('A' for Active; 'I' for Inactive)
REMARK    1  A    between atoms: N_2  and  S_1 
REMARK    2  A    between atoms: C_3  and  S_1 
REMARK    3  A    between atoms: C_13  and  N_4 
REMARK    4  A    between atoms: N_8  and  C_5 
REMARK    5  A    between atoms: C_19  and  C_13 
REMARK    6  A    between atoms: C_20  and  C_13 
ROOT
ATOM      1  N   UNL d   1       0.367  -1.131   0.541  0.00  0.00    -0.203 NA
ATOM      2  N   UNL d   1       0.929  -3.705  -0.887  0.00  0.00     0.104 N 
ATOM      3  C   UNL d   1       1.298  -2.146   1.126  0.00  0.00     0.138 C 
ATOM      4  C   UNL d   1      -0.651  -1.791  -0.328  0.00  0.00     0.138 C 
ATOM      5  C   UNL d   1       0.030  -2.641  -1.417  0.00  0.00     0.289 C 
ATOM      6  C   UNL d   1       1.900  -3.062   0.033  0.00  0.00     0.289 C 
ENDROOT
BRANCH   1   7
ATOM      7  S   UNL d   1       1.091   0.256  -0.137  0.00  0.00     0.245 S 
ATOM      8  O   UNL d   1       0.130   0.898  -1.010  0.00  0.00    -0.206 OA
ATOM      9  O   UNL d   1       2.412  -0.092  -0.616  0.00  0.00    -0.206 OA
BRANCH   7  10
ATOM     10  C   UNL d   1       1.281   1.324   1.232  0.00  0.00     0.090 A 
ATOM     11  C   UNL d   1       0.155   1.777   1.889  0.00  0.00     0.114 A 
ATOM     12  N   UNL d   1       0.195   2.703   2.880  0.00  0.00    -0.351 N 
ATOM     13  C   UNL d   1       1.387   3.252   3.196  0.00  0.00     0.103 A 
ATOM     14  HN  UNL d   1      -0.655   2.977   3.373  1.00  0.00     0.166 HD
ATOM     15  C   UNL d   1       2.563   2.807   2.579  0.00  0.00     0.050 A 
ATOM     16  C   UNL d   1       2.518   1.828   1.593  0.00  0.00     0.030 A 
BRANCH  13  17
ATOM     17  N   UNL d   1       1.445   4.215   4.165  0.00  0.00    -0.363 N 
ATOM     18  C   UNL d   1       0.415   4.312   5.198  0.00  0.00     0.150 C 
ATOM     19  C   UNL d   1       1.146   4.574   6.531  0.00  0.00     0.187 C 
ATOM     20  O   UNL d   1       1.982   5.748   6.467  0.00  0.00    -0.388 OA
ATOM     21  C   UNL d   1       2.956   5.633   5.412  0.00  0.00     0.187 C 
ATOM     22  C   UNL d   1       2.280   5.410   4.051  0.00  0.00     0.150 C 
ENDBRANCH  13  17
ENDBRANCH   7  10
ENDBRANCH   1   7
BRANCH   2  23
ATOM     23  C   UNL d   1       0.161  -4.832  -0.283  0.00  0.00     0.289 C 
BRANCH  23  24
ATOM     24  C   UNL d   1      -0.768  -5.484  -1.317  0.00  0.00    -0.021 A 
ATOM     25  C   UNL d   1      -0.251  -6.037  -2.503  0.00  0.00     0.010 A 
ATOM     26  C   UNL d   1      -1.097  -6.610  -3.453  0.00  0.00     0.001 A 
ATOM     27  C   UNL d   1      -2.470  -6.627  -3.235  0.00  0.00     0.000 A 
ATOM     28  C   UNL d   1      -3.003  -6.072  -2.075  0.00  0.00     0.001 A 
ATOM     29  C   UNL d   1      -2.157  -5.506  -1.117  0.00  0.00     0.010 A 
ENDBRANCH  23  24
BRANCH  23  30
ATOM     30  C   UNL d   1       1.009  -5.918   0.395  0.00  0.00    -0.021 A 
ATOM     31  C   UNL d   1       0.506  -6.574   1.534  0.00  0.00     0.010 A 
ATOM     32  C   UNL d   1       1.240  -7.580   2.165  0.00  0.00     0.001 A 
ATOM     33  C   UNL d   1       2.486  -7.951   1.666  0.00  0.00     0.000 A 
ATOM     34  C   UNL d   1       2.992  -7.329   0.527  0.00  0.00     0.001 A 
ATOM     35  C   UNL d   1       2.254  -6.331  -0.111  0.00  0.00     0.010 A 
ENDBRANCH  23  30
ENDBRANCH   2  23
TORSDOF 6
