REMARK  5 active torsions:
REMARK  status: ('A' for Active; 'I' for Inactive)
REMARK    1  A    between atoms: C_10  and  C_1 
REMARK    2  A    between atoms: C_9  and  O_11 
REMARK    3  A    between atoms: C_13  and  C_9 
REMARK    4  A    between atoms: O_11  and  C_17 
REMARK    5  A    between atoms: C_16  and  C_13 
ROOT
ATOM      1  C   UNL d   1       0.826  -0.754   0.178  0.00  0.00     0.095 A 
ATOM      2  C   UNL d   1       0.032  -0.602   1.294  0.00  0.00     0.155 A 
ATOM      3  N   UNL d   1      -0.966   0.336  -0.475  0.00  0.00    -0.021 NA
ATOM      4  N   UNL d   1       0.185  -0.171  -0.894  0.00  0.00    -0.281 N 
ATOM      5  HN  UNL d   1       0.538  -0.135  -1.850  1.00  0.00     0.184 HD
ATOM      6  N   UNL d   1      -1.061   0.073   0.835  0.00  0.00    -0.273 N 
ATOM      7  C   UNL d   1       0.174  -1.031   2.630  0.00  0.00     0.121 C 
ATOM      8  N   UNL d   1       0.271  -1.355   3.737  0.00  0.00    -0.190 NA
ATOM      9  H   UNL d   1      -1.896   0.366   1.331  0.00  0.00     0.185 HD
ENDROOT
BRANCH   1  10
ATOM     10  C   UNL d   1       2.088  -1.465   0.034  0.00  0.00    -0.005 A 
ATOM     11  C   UNL d   1       2.416  -1.993  -1.225  0.00  0.00     0.016 A 
ATOM     12  C   UNL d   1       3.585  -2.732  -1.418  0.00  0.00     0.038 A 
ATOM     13  C   UNL d   1       4.429  -2.975  -0.340  0.00  0.00     0.079 A 
ATOM     14  C   UNL d   1       4.159  -2.409   0.905  0.00  0.00     0.038 A 
ATOM     15  C   UNL d   1       2.992  -1.654   1.091  0.00  0.00     0.016 A 
BRANCH  13  16
ATOM     16  O   UNL d   1       5.611  -3.732  -0.454  0.00  0.00    -0.279 OA
BRANCH  16  17
ATOM     17  C   UNL d   1       5.620  -4.873  -1.258  0.00  0.00     0.264 C 
ATOM     18  O   UNL d   1       4.673  -5.340  -1.878  0.00  0.00    -0.265 OA
BRANCH  17  19
ATOM     19  C   UNL d   1       6.998  -5.497  -1.261  0.00  0.00     0.119 C 
BRANCH  19  20
ATOM     20  C   UNL d   1       7.974  -4.924  -2.313  0.00  0.00    -0.043 C 
ATOM     21  C   UNL d   1       8.374  -3.482  -1.964  0.00  0.00     0.015 C 
ATOM     22  C   UNL d   1       9.245  -5.798  -2.313  0.00  0.00     0.015 C 
ATOM     23  C   UNL d   1       7.366  -4.956  -3.725  0.00  0.00     0.015 C 
ENDBRANCH  19  20
ENDBRANCH  17  19
ENDBRANCH  16  17
ENDBRANCH  13  16
ENDBRANCH   1  10
TORSDOF 5
