REMARK  8 active torsions:
REMARK  status: ('A' for Active; 'I' for Inactive)
REMARK    1  A    between atoms: C_6  and  C_1 
REMARK    2  A    between atoms: C_8  and  C_1 
REMARK    3  A    between atoms: C_9  and  C_1 
REMARK    4  A    between atoms: C_2  and  C_4 
REMARK    5  A    between atoms: C_10  and  C_3 
REMARK    6  A    between atoms: O_20  and  C_8 
REMARK    7  A    between atoms: O_19  and  C_9 
REMARK    8  A    between atoms: O_21  and  C_10 
ROOT
ATOM      1  C   UNL d   1       1.756  -4.280  -1.221  0.00  0.00     0.088 A 
ATOM      2  O   UNL d   1       0.985  -3.170  -1.436  0.00  0.00    -0.310 OA
ATOM      3  C   UNL d   1       0.551  -1.024  -0.299  0.00  0.00     0.061 C 
ATOM      4  C   UNL d   1       1.222  -2.266  -0.430  0.00  0.00     0.077 A 
ATOM      5  C   UNL d   1       2.537  -4.068  -0.104  0.00  0.00     0.041 A 
ATOM      6  C   UNL d   1       2.187  -2.800   0.406  0.00  0.00     0.040 A 
ENDROOT
BRANCH   3   7
ATOM      7  C   UNL d   1       0.991   0.121  -0.860  0.00  0.00     0.117 C 
BRANCH   7   8
ATOM      8  C   UNL d   1       0.281   1.388  -0.546  0.00  0.00     0.299 C 
ATOM      9  O   UNL d   1       0.287   2.377  -1.264  0.00  0.00    -0.259 OA
BRANCH   8  10
ATOM     10  O   UNL d   1      -0.357   1.311   0.657  0.00  0.00    -0.322 OA
ATOM     11  C   UNL d   1      -1.042   2.505   1.046  0.00  0.00     0.213 C 
ENDBRANCH   8  10
ENDBRANCH   7   8
BRANCH   7  12
ATOM     12  C   UNL d   1       2.141   0.138  -1.799  0.00  0.00     0.299 C 
ATOM     13  O   UNL d   1       2.449  -0.776  -2.549  0.00  0.00    -0.259 OA
BRANCH  12  14
ATOM     14  O   UNL d   1       2.830   1.302  -1.678  0.00  0.00    -0.322 OA
ATOM     15  C   UNL d   1       3.925   1.440  -2.588  0.00  0.00     0.213 C 
ENDBRANCH  12  14
ENDBRANCH   7  12
ENDBRANCH   3   7
BRANCH   1  16
ATOM     16  C   UNL d   1       1.754  -5.485  -2.112  0.00  0.00     0.021 A 
ATOM     17  C   UNL d   1       2.127  -6.771  -1.742  0.00  0.00     0.093 A 
ATOM     18  S   UNL d   1       2.081  -7.836  -3.097  0.00  0.00    -0.095 SA
ATOM     19  C   UNL d   1       1.509  -6.614  -4.138  0.00  0.00     0.051 A 
ATOM     20  C   UNL d   1       1.354  -5.414  -3.485  0.00  0.00     0.023 A 
BRANCH  17  21
ATOM     21  C   UNL d   1       2.431  -7.300  -0.420  0.00  0.00     0.300 C 
ATOM     22  O   UNL d   1       2.006  -6.865   0.647  0.00  0.00    -0.259 OA
BRANCH  21  23
ATOM     23  O   UNL d   1       3.296  -8.356  -0.501  0.00  0.00    -0.322 OA
ATOM     24  C   UNL d   1       3.670  -8.902   0.766  0.00  0.00     0.213 C 
ENDBRANCH  21  23
ENDBRANCH  17  21
ENDBRANCH   1  16
TORSDOF 8
