REMARK  5 active torsions:
REMARK  status: ('A' for Active; 'I' for Inactive)
REMARK    1  A    between atoms: O_16  and  C_4 
REMARK    2  A    between atoms: O_18  and  C_5 
REMARK    3  A    between atoms: O_17  and  C_6 
REMARK    4  A    between atoms: C_9  and  C_8 
REMARK    5  A    between atoms: C_11  and  C_10 
ROOT
ATOM      1  C   UNL d   1       8.381  -1.076   0.831  0.00  0.00     0.135 A 
ATOM      2  C   UNL d   1       7.550  -0.125   1.466  0.00  0.00     0.105 A 
ATOM      3  C   UNL d   1       7.833  -1.954  -0.118  0.00  0.00     0.105 A 
ATOM      4  C   UNL d   1       5.604  -1.053   0.334  0.00  0.00    -0.031 A 
ATOM      5  C   UNL d   1       6.450  -1.926  -0.356  0.00  0.00     0.051 A 
ATOM      6  C   UNL d   1       6.170  -0.140   1.230  0.00  0.00     0.051 A 
ENDROOT
BRANCH   4   7
ATOM      7  C   UNL d   1       4.160  -1.085   0.051  0.00  0.00     0.013 C 
ATOM      8  C   UNL d   1       3.230  -0.875   0.995  0.00  0.00     0.027 C 
BRANCH   8   9
ATOM      9  C   UNL d   1       1.758  -0.895   0.778  0.00  0.00     0.026 C 
ATOM     10  N   UNL d   1       1.010  -0.526   1.781  0.00  0.00    -0.302 N 
ATOM     11  N   UNL d   1      -0.337  -0.521   1.615  0.00  0.00    -0.270 N 
ATOM     12  HN  UNL d   1       1.428  -0.249   2.670  1.00  0.00     0.186 HD
ATOM     13  C   UNL d   1      -1.029  -1.098   0.581  0.00  0.00     0.236 C 
ATOM     14  H   UNL d   1      -0.885  -0.100   2.358  0.00  0.00     0.190 HD
ATOM     15  O   UNL d   1      -2.256  -1.064   0.527  0.00  0.00    -0.272 OA
ATOM     16  C   UNL d   1      -0.202  -1.853  -0.417  0.00  0.00     0.110 C 
ATOM     17  C   UNL d   1       1.180  -1.259  -0.568  0.00  0.00     0.068 C 
ENDBRANCH   8   9
ENDBRANCH   4   7
BRANCH   3  18
ATOM     18  O   UNL d   1       8.461  -2.892  -0.894  0.00  0.00    -0.353 OA
ATOM     19  C   UNL d   1       9.862  -3.072  -0.764  0.00  0.00     0.210 C 
ENDBRANCH   3  18
BRANCH   2  20
ATOM     20  O   UNL d   1       8.166   0.784   2.293  0.00  0.00    -0.353 OA
ATOM     21  C   UNL d   1       7.408   1.919   2.696  0.00  0.00     0.210 C 
ENDBRANCH   2  20
BRANCH   1  22
ATOM     22  O   UNL d   1       9.737  -1.070   1.049  0.00  0.00    -0.351 OA
ATOM     23  C   UNL d   1      10.105  -1.312   2.409  0.00  0.00     0.210 C 
ENDBRANCH   1  22
TORSDOF 5
