REMARK  5 active torsions:
REMARK  status: ('A' for Active; 'I' for Inactive)
REMARK    1  A    between atoms: N_2  and  S_1 
REMARK    2  A    between atoms: C_7  and  S_1 
REMARK    3  A    between atoms: C_8  and  C_4 
REMARK    4  A    between atoms: C_9  and  C_13 
REMARK    5  A    between atoms: C_10  and  C_14 
ROOT
ATOM      1  N   UNL d   1       0.392  -1.304  -0.607  0.00  0.00    -0.287 N 
ATOM      2  C   UNL d   1       0.863  -3.748  -0.777  0.00  0.00     0.049 A 
ATOM      3  C   UNL d   1       1.489  -2.382  -0.589  0.00  0.00     0.253 C 
ATOM      4  C   UNL d   1      -0.470  -4.048  -0.954  0.00  0.00    -0.019 A 
ATOM      5  N   UNL d   1       1.551  -4.938  -0.780  0.00  0.00    -0.356 N 
ATOM      6  C   UNL d   1      -0.617  -5.460  -0.900  0.00  0.00    -0.001 A 
ATOM      7  C   UNL d   1       0.668  -5.993  -0.794  0.00  0.00     0.043 A 
ATOM      8  C   UNL d   1      -1.026  -1.734  -0.320  0.00  0.00     0.141 C 
ATOM      9  C   UNL d   1      -1.476  -2.977  -1.093  0.00  0.00     0.062 C 
ATOM     10  C   UNL d   1      -1.715  -6.342  -0.909  0.00  0.00     0.014 A 
ATOM     11  C   UNL d   1       0.913  -7.369  -0.705  0.00  0.00     0.030 A 
ATOM     12  C   UNL d   1      -1.488  -7.719  -0.800  0.00  0.00     0.001 A 
ATOM     13  C   UNL d   1      -0.193  -8.223  -0.704  0.00  0.00     0.002 A 
ATOM     14  H   UNL d   1       2.551  -5.051  -0.673  0.00  0.00     0.166 HD
ENDROOT
BRANCH   1  15
ATOM     15  S   UNL d   1       0.699   0.263  -0.013  0.00  0.00     0.261 S 
ATOM     16  O   UNL d   1       0.897   0.196   1.413  0.00  0.00    -0.200 OA
ATOM     17  O   UNL d   1      -0.327   1.136  -0.554  0.00  0.00    -0.200 OA
BRANCH  15  18
ATOM     18  C   UNL d   1       2.203   0.734  -0.821  0.00  0.00     0.081 A 
ATOM     19  C   UNL d   1       2.178   0.890  -2.212  0.00  0.00     0.041 A 
ATOM     20  C   UNL d   1       3.330   1.288  -2.898  0.00  0.00     0.050 A 
ATOM     21  C   UNL d   1       4.508   1.521  -2.162  0.00  0.00     0.032 A 
ATOM     22  C   UNL d   1       4.536   1.382  -0.758  0.00  0.00     0.050 A 
ATOM     23  C   UNL d   1       3.364   0.995  -0.091  0.00  0.00     0.041 A 
BRANCH  20  24
ATOM     24  C   UNL d   1       3.315   1.477  -4.396  0.00  0.00     0.417 C 
ATOM     25  F   UNL d   1       2.094   1.255  -4.955  0.00  0.00    -0.166 F 
ATOM     26  F   UNL d   1       3.675   2.735  -4.766  0.00  0.00    -0.166 F 
ATOM     27  F   UNL d   1       4.173   0.634  -5.030  0.00  0.00    -0.166 F 
ENDBRANCH  20  24
BRANCH  22  28
ATOM     28  C   UNL d   1       5.817   1.652  -0.002  0.00  0.00     0.417 C 
ATOM     29  F   UNL d   1       5.694   1.515   1.345  0.00  0.00    -0.166 F 
ATOM     30  F   UNL d   1       6.821   0.812  -0.377  0.00  0.00    -0.166 F 
ATOM     31  F   UNL d   1       6.284   2.913  -0.213  0.00  0.00    -0.166 F 
ENDBRANCH  22  28
ENDBRANCH  15  18
ENDBRANCH   1  15
BRANCH   3  32
ATOM     32  C   UNL d   1       2.618  -2.404   0.503  0.00  0.00     0.413 C 
ATOM     33  F   UNL d   1       2.607  -1.415   1.401  0.00  0.00    -0.168 F 
ATOM     34  F   UNL d   1       2.649  -3.563   1.208  0.00  0.00    -0.168 F 
ATOM     35  F   UNL d   1       3.827  -2.329  -0.127  0.00  0.00    -0.168 F 
ENDBRANCH   3  32
TORSDOF 5
