REMARK  1 active torsions:
REMARK  status: ('A' for Active; 'I' for Inactive)
REMARK    1  A    between atoms: C_14  and  C_12 
ROOT
ATOM      1  C   UNL d   1      -1.181  -0.724   0.038  0.00  0.00     0.045 A 
ATOM      2  C   UNL d   1      -1.789   0.662   0.062  0.00  0.00     0.257 A 
ATOM      3  N   UNL d   1      -0.705   1.525   0.075  0.00  0.00    -0.322 N 
ATOM      4  C   UNL d   1       0.275  -0.550   0.038  0.00  0.00     0.006 A 
ATOM      5  C   UNL d   1      -1.850  -1.887   0.010  0.00  0.00     0.029 C 
ATOM      6  C   UNL d   1       0.499   0.831   0.057  0.00  0.00     0.046 A 
ATOM      7  O   UNL d   1      -2.962   0.979   0.067  0.00  0.00    -0.267 OA
ATOM      8  C   UNL d   1       1.344  -1.429   0.006  0.00  0.00     0.015 A 
ATOM      9  C   UNL d   1       1.763   1.383   0.049  0.00  0.00     0.030 A 
ATOM     10  C   UNL d   1       2.637  -0.891  -0.005  0.00  0.00     0.001 A 
ATOM     11  C   UNL d   1       2.845   0.502   0.016  0.00  0.00     0.002 A 
ATOM     12  H   UNL d   1      -0.814   2.526   0.090  0.00  0.00     0.169 HD
ENDROOT
BRANCH   5  13
ATOM     13  C   UNL d   1      -3.316  -1.955  -0.035  0.00  0.00    -0.033 A 
ATOM     14  C   UNL d   1      -4.033  -1.975   1.179  0.00  0.00     0.043 A 
ATOM     15  C   UNL d   1      -5.441  -1.891   1.067  0.00  0.00     0.067 A 
ATOM     16  N   UNL d   1      -6.313  -1.866   2.088  0.00  0.00    -0.310 N 
ATOM     17  C   UNL d   1      -6.109  -1.812  -0.283  0.00  0.00     0.067 A 
ATOM     18  S   UNL d   1      -7.823  -1.717   1.411  0.00  0.00     0.068 SA
ATOM     19  HN  UNL d   1      -6.092  -1.928   3.082  1.00  0.00     0.176 HD
ATOM     20  N   UNL d   1      -7.446  -1.725  -0.208  0.00  0.00    -0.310 N 
ATOM     21  HN  UNL d   1      -8.101  -1.674  -0.988  1.00  0.00     0.176 HD
ATOM     22  C   UNL d   1      -5.346  -1.832  -1.473  0.00  0.00     0.033 A 
ATOM     23  C   UNL d   1      -3.951  -1.901  -1.306  0.00  0.00     0.014 A 
ENDBRANCH   5  13
TORSDOF 1
