REMARK  5 active torsions:
REMARK  status: ('A' for Active; 'I' for Inactive)
REMARK    1  A    between atoms: N_2  and  C_1 
REMARK       I    between atoms: C_3  and  N_2 
REMARK       I    between atoms: N_9  and  C_3 
REMARK    2  A    between atoms: C_4  and  C_7 
REMARK    3  A    between atoms: O_17  and  C_5 
REMARK    4  A    between atoms: C_13  and  N_9 
REMARK    5  A    between atoms: C_21  and  O_17 
ROOT
ATOM      1  N   UNL d   1       0.011   2.522  -0.786  0.00  0.00    -0.300 N 
ATOM      2  C   UNL d   1       0.913   3.530  -0.996  0.00  0.00     0.325 C 
ATOM      3  N   UNL d   1       2.209   3.125  -1.216  0.00  0.00    -0.309 N 
ATOM      4  O   UNL d   1       0.480   4.671  -1.160  0.00  0.00    -0.247 OA
ATOM      5  H   UNL d   1      -0.931   2.742  -1.083  0.00  0.00     0.171 HD
ATOM      6  H   UNL d   1       2.330   2.122  -1.264  0.00  0.00     0.170 HD
ENDROOT
BRANCH   1   7
ATOM      7  C   UNL d   1       0.190   1.305  -0.170  0.00  0.00     0.111 A 
ATOM      8  C   UNL d   1      -0.536   0.154  -0.387  0.00  0.00     0.103 A 
ATOM      9  C   UNL d   1      -0.277  -0.826   0.616  0.00  0.00     0.047 A 
ATOM     10  C   UNL d   1       0.681  -0.402   1.512  0.00  0.00     0.055 A 
ATOM     11  S   UNL d   1       1.291   1.148   1.113  0.00  0.00    -0.081 SA
BRANCH   8  12
ATOM     12  O   UNL d   1      -1.371   0.075  -1.457  0.00  0.00    -0.349 OA
BRANCH  12  13
ATOM     13  C   UNL d   1      -1.573  -1.242  -1.974  0.00  0.00     0.171 C 
ATOM     14  C   UNL d   1      -0.339  -1.798  -2.674  0.00  0.00     0.034 C 
ENDBRANCH  12  13
ENDBRANCH   8  12
ENDBRANCH   1   7
BRANCH   3  15
ATOM     15  C   UNL d   1       3.234   3.920  -1.773  0.00  0.00     0.037 A 
ATOM     16  C   UNL d   1       3.220   5.315  -1.728  0.00  0.00     0.045 A 
ATOM     17  C   UNL d   1       4.194   6.071  -2.400  0.00  0.00     0.050 A 
ATOM     18  C   UNL d   1       5.204   5.404  -3.105  0.00  0.00     0.016 A 
ATOM     19  C   UNL d   1       5.253   4.010  -3.117  0.00  0.00     0.003 A 
ATOM     20  C   UNL d   1       4.276   3.272  -2.440  0.00  0.00     0.029 A 
BRANCH  17  21
ATOM     21  C   UNL d   1       4.140   7.577  -2.388  0.00  0.00     0.417 C 
ATOM     22  F   UNL d   1       3.134   8.093  -1.628  0.00  0.00    -0.166 F 
ATOM     23  F   UNL d   1       5.287   8.133  -1.907  0.00  0.00    -0.166 F 
ATOM     24  F   UNL d   1       3.970   8.100  -3.635  0.00  0.00    -0.166 F 
ENDBRANCH  17  21
ENDBRANCH   3  15
TORSDOF 5
