REMARK  4 active torsions:
REMARK  status: ('A' for Active; 'I' for Inactive)
REMARK    1  A    between atoms: C_5  and  N_1 
REMARK    2  A    between atoms: C_7  and  C_3 
REMARK    3  A    between atoms: O_12  and  C_7 
REMARK    4  A    between atoms: S_11  and  C_9 
ROOT
ATOM      1  N   UNL d   1      -0.056  -1.027  -0.125  0.00  0.00    -0.316 N 
ATOM      2  C   UNL d   1       0.755   0.096  -0.226  0.00  0.00     0.225 C 
ATOM      3  C   UNL d   1      -1.528   0.770  -0.450  0.00  0.00     0.111 C 
ATOM      4  C   UNL d   1      -1.460  -0.698  -0.063  0.00  0.00     0.148 C 
ATOM      5  C   UNL d   1      -0.136   1.310  -0.140  0.00  0.00     0.120 C 
ATOM      6  O   UNL d   1       1.966   0.156  -0.376  0.00  0.00    -0.273 OA
ENDROOT
BRANCH   1   7
ATOM      7  C   UNL d   1       0.406  -2.356  -0.000  0.00  0.00     0.053 A 
ATOM      8  C   UNL d   1       1.362  -2.761   0.960  0.00  0.00     0.027 A 
ATOM      9  C   UNL d   1       1.742  -4.115   1.007  0.00  0.00     0.021 A 
ATOM     10  C   UNL d   1       1.213  -5.045   0.111  0.00  0.00     0.002 A 
ATOM     11  C   UNL d   1       0.276  -4.643  -0.833  0.00  0.00     0.002 A 
ATOM     12  C   UNL d   1      -0.134  -3.311  -0.879  0.00  0.00     0.031 A 
BRANCH   8  13
ATOM     13  S   UNL d   1       1.928  -1.691   2.295  0.00  0.00    -0.132 SA
ATOM     14  C   UNL d   1       3.726  -1.864   2.111  0.00  0.00     0.095 C 
ENDBRANCH   8  13
ENDBRANCH   1   7
BRANCH   3  15
ATOM     15  C   UNL d   1      -1.880   0.953  -1.912  0.00  0.00     0.145 C 
ATOM     16  O   UNL d   1      -2.069   0.044  -2.706  0.00  0.00    -0.650 OA
BRANCH  15  17
ATOM     17  O   UNL d   1      -2.030   2.249  -2.265  0.00  0.00    -0.776 OA
ATOM     18  H   UNL d   1      -1.885   2.901  -1.552  0.00  0.00     0.167 HD
ENDBRANCH  15  17
ENDBRANCH   3  15
TORSDOF 4
