REMARK  8 active torsions:
REMARK  status: ('A' for Active; 'I' for Inactive)
REMARK    1  A    between atoms: C_3  and  C_1 
REMARK    2  A    between atoms: C_4  and  C_1 
REMARK    3  A    between atoms: N_5  and  C_2 
REMARK    4  A    between atoms: O_11  and  C_3 
REMARK    5  A    between atoms: O_10  and  C_4 
REMARK    6  A    between atoms: C_6  and  N_5 
REMARK    7  A    between atoms: C_16  and  O_10 
REMARK    8  A    between atoms: C_15  and  O_11 
ROOT
ATOM      1  C   UNL d   1       1.130  -0.076  -0.001  0.00  0.00     0.129 C 
ATOM      2  C   UNL d   1       0.454   0.971  -0.523  0.00  0.00     0.112 C 
ENDROOT
BRANCH   1   3
ATOM      3  C   UNL d   1       0.380  -1.260   0.492  0.00  0.00     0.300 C 
ATOM      4  O   UNL d   1       0.836  -2.391   0.569  0.00  0.00    -0.259 OA
BRANCH   3   5
ATOM      5  O   UNL d   1      -0.918  -0.942   0.754  0.00  0.00    -0.318 OA
BRANCH   5   6
ATOM      6  C   UNL d   1      -1.825  -2.052   0.788  0.00  0.00     0.174 C 
ATOM      7  C   UNL d   1      -2.268  -2.353  -0.634  0.00  0.00     0.034 C 
ENDBRANCH   5   6
ENDBRANCH   3   5
ENDBRANCH   1   3
BRANCH   1   8
ATOM      8  C   UNL d   1       2.611  -0.070  -0.119  0.00  0.00     0.300 C 
ATOM      9  O   UNL d   1       3.245   0.817  -0.673  0.00  0.00    -0.259 OA
BRANCH   8  10
ATOM     10  O   UNL d   1       3.156  -1.194   0.401  0.00  0.00    -0.318 OA
BRANCH  10  11
ATOM     11  C   UNL d   1       4.465  -1.524  -0.083  0.00  0.00     0.174 C 
ATOM     12  C   UNL d   1       4.310  -2.311  -1.374  0.00  0.00     0.034 C 
ENDBRANCH  10  11
ENDBRANCH   8  10
ENDBRANCH   1   8
BRANCH   2  13
ATOM     13  N   UNL d   1       0.954   2.115  -1.101  0.00  0.00    -0.362 N 
ATOM     14  H   UNL d   1       1.977   2.161  -1.147  0.00  0.00     0.165 HD
BRANCH  13  15
ATOM     15  C   UNL d   1       0.282   3.121  -1.820  0.00  0.00     0.071 A 
ATOM     16  C   UNL d   1      -1.039   3.036  -2.288  0.00  0.00     0.142 A 
ATOM     17  F   UNL d   1      -1.742   1.898  -2.176  0.00  0.00    -0.204 F 
ATOM     18  C   UNL d   1      -1.660   4.112  -2.925  0.00  0.00     0.044 A 
ATOM     19  C   UNL d   1      -0.975   5.313  -3.092  0.00  0.00     0.003 A 
ATOM     20  C   UNL d   1       0.332   5.428  -2.628  0.00  0.00     0.002 A 
ATOM     21  C   UNL d   1       0.951   4.343  -1.999  0.00  0.00     0.033 A 
ENDBRANCH  13  15
ENDBRANCH   2  13
TORSDOF 8
