REMARK  7 active torsions:
REMARK  status: ('A' for Active; 'I' for Inactive)
REMARK    1  A    between atoms: C_12  and  N_1 
REMARK    2  A    between atoms: S_3  and  C_13 
REMARK    3  A    between atoms: N_7  and  S_3 
REMARK    4  A    between atoms: C_11  and  C_5 
REMARK    5  A    between atoms: C_8  and  N_7 
REMARK    6  A    between atoms: C_25  and  C_11 
REMARK    7  A    between atoms: O_31  and  C_26 
ROOT
ATOM      1  C   UNL d   1       0.641  -2.587  -0.087  0.00  0.00     0.044 A 
ATOM      2  C   UNL d   1       1.566  -5.228  -0.086  0.00  0.00     0.075 A 
ATOM      3  C   UNL d   1       0.759  -4.777  -1.131  0.00  0.00     0.027 A 
ATOM      4  C   UNL d   1       1.881  -4.386   0.982  0.00  0.00     0.027 A 
ATOM      5  C   UNL d   1       0.288  -3.463  -1.124  0.00  0.00     0.031 A 
ATOM      6  C   UNL d   1       1.429  -3.063   0.972  0.00  0.00     0.031 A 
ENDROOT
BRANCH   1   7
ATOM      7  N   UNL d   1       0.172  -1.242  -0.096  0.00  0.00    -0.262 N 
ATOM      8  C   UNL d   1       1.001  -0.134  -0.007  0.00  0.00     0.153 A 
ATOM      9  S   UNL d   1       0.032   1.337  -0.059  0.00  0.00    -0.054 SA
ATOM     10  S   UNL d   1       2.671  -0.050   0.043  0.00  0.00    -0.052 SA
ATOM     11  C   UNL d   1      -1.456   0.474  -0.130  0.00  0.00     0.077 A 
ATOM     12  C   UNL d   1      -1.192  -0.994  -0.237  0.00  0.00     0.271 A 
ATOM     13  O   UNL d   1      -2.070  -1.830  -0.405  0.00  0.00    -0.266 OA
BRANCH  11  14
ATOM     14  C   UNL d   1      -2.643   1.089  -0.025  0.00  0.00     0.036 C 
BRANCH  14  15
ATOM     15  C   UNL d   1      -3.925   0.393   0.080  0.00  0.00    -0.035 A 
ATOM     16  C   UNL d   1      -4.413   0.050   1.345  0.00  0.00     0.014 A 
ATOM     17  C   UNL d   1      -5.596  -0.684   1.471  0.00  0.00     0.037 A 
ATOM     18  C   UNL d   1      -6.296  -1.077   0.330  0.00  0.00     0.068 A 
ATOM     19  C   UNL d   1      -5.833  -0.694  -0.930  0.00  0.00     0.037 A 
ATOM     20  C   UNL d   1      -4.647   0.034  -1.060  0.00  0.00     0.014 A 
BRANCH  18  21
ATOM     21  O   UNL d   1      -7.456  -1.803   0.338  0.00  0.00    -0.356 OA
ATOM     22  C   UNL d   1      -7.581  -2.728   1.414  0.00  0.00     0.210 C 
ENDBRANCH  18  21
ENDBRANCH  14  15
ENDBRANCH  11  14
ENDBRANCH   1   7
BRANCH   2  23
ATOM     23  S   UNL d   1       2.072  -6.928  -0.057  0.00  0.00     0.247 S 
ATOM     24  O   UNL d   1       2.293  -7.291   1.327  0.00  0.00    -0.205 OA
ATOM     25  O   UNL d   1       1.161  -7.705  -0.871  0.00  0.00    -0.205 OA
BRANCH  23  26
ATOM     26  N   UNL d   1       3.608  -6.901  -0.754  0.00  0.00    -0.160 NA
ATOM     27  H   UNL d   1       4.178  -7.566  -0.237  0.00  0.00     0.148 HD
BRANCH  26  28
ATOM     28  C   UNL d   1       3.573  -7.146  -2.141  0.00  0.00     0.136 A 
ATOM     29  N   UNL d   1       3.328  -6.175  -2.986  0.00  0.00    -0.350 N 
ATOM     30  C   UNL d   1       3.477  -6.653  -4.276  0.00  0.00     0.097 A 
ATOM     31  HN  UNL d   1       3.069  -5.222  -2.733  1.00  0.00     0.166 HD
ATOM     32  C   UNL d   1       3.787  -7.993  -4.382  0.00  0.00     0.069 A 
ATOM     33  S   UNL d   1       4.004  -8.656  -2.814  0.00  0.00    -0.070 SA
ENDBRANCH  26  28
ENDBRANCH  23  26
ENDBRANCH   2  23
TORSDOF 7
