REMARK  5 active torsions:
REMARK  status: ('A' for Active; 'I' for Inactive)
REMARK    1  A    between atoms: C_7  and  C_1 
REMARK    2  A    between atoms: C_2  and  C_10 
REMARK       I    between atoms: N_4  and  C_2 
REMARK    3  A    between atoms: S_6  and  C_3 
REMARK    4  A    between atoms: C_5  and  N_4 
REMARK    5  A    between atoms: C_19  and  S_6 
ROOT
ATOM      1  C   UNL d   1      -1.477   4.153  -5.498  0.00  0.00     0.101 A 
ATOM      2  C   UNL d   1      -0.585   3.073  -5.593  0.00  0.00     0.069 A 
ATOM      3  N   UNL d   1      -1.196   5.287  -4.807  0.00  0.00    -0.358 N 
ATOM      4  HN  UNL d   1      -1.857   6.064  -4.770  1.00  0.00     0.166 HD
ATOM      5  C   UNL d   1       0.626   3.166  -4.903  0.00  0.00     0.034 A 
ATOM      6  C   UNL d   1      -0.006   5.346  -4.172  0.00  0.00     0.089 A 
ATOM      7  C   UNL d   1       0.924   4.322  -4.186  0.00  0.00     0.019 A 
ENDROOT
BRANCH   2   8
ATOM      8  N   UNL d   1      -0.919   1.933  -6.355  0.00  0.00    -0.320 N 
ATOM      9  C   UNL d   1      -0.124   1.109  -7.120  0.00  0.00     0.256 C 
ATOM     10  O   UNL d   1      -0.538   0.005  -7.460  0.00  0.00    -0.267 OA
ATOM     11  H   UNL d   1      -1.907   1.711  -6.431  0.00  0.00     0.169 HD
BRANCH   9  12
ATOM     12  C   UNL d   1       1.185   1.585  -7.650  0.00  0.00     0.032 A 
ATOM     13  C   UNL d   1       2.190   0.646  -7.906  0.00  0.00     0.018 A 
ATOM     14  C   UNL d   1       3.435   1.065  -8.384  0.00  0.00     0.017 A 
ATOM     15  C   UNL d   1       3.694   2.427  -8.610  0.00  0.00     0.048 A 
ATOM     16  C   UNL d   1       2.660   3.352  -8.421  0.00  0.00     0.017 A 
ATOM     17  C   UNL d   1       1.407   2.931  -7.973  0.00  0.00     0.018 A 
BRANCH  15  18
ATOM     18  C   UNL d   1       5.066   2.880  -9.045  0.00  0.00     0.417 C 
ATOM     19  F   UNL d   1       5.194   4.234  -9.114  0.00  0.00    -0.166 F 
ATOM     20  F   UNL d   1       5.410   2.406 -10.274  0.00  0.00    -0.166 F 
ATOM     21  F   UNL d   1       6.042   2.460  -8.192  0.00  0.00    -0.166 F 
ENDBRANCH  15  18
ENDBRANCH   9  12
ENDBRANCH   2   8
BRANCH   1  22
ATOM     22  S   UNL d   1      -2.979   4.198  -6.472  0.00  0.00    -0.070 SA
BRANCH  22  23
ATOM     23  C   UNL d   1      -4.186   3.668  -5.278  0.00  0.00     0.007 A 
ATOM     24  C   UNL d   1      -4.368   4.352  -4.072  0.00  0.00     0.020 A 
ATOM     25  C   UNL d   1      -5.340   3.934  -3.162  0.00  0.00     0.025 A 
ATOM     26  C   UNL d   1      -6.142   2.834  -3.463  0.00  0.00     0.034 A 
ATOM     27  C   UNL d   1      -5.979   2.152  -4.667  0.00  0.00     0.025 A 
ATOM     28 CL   UNL d   1      -7.343   2.321  -2.345  0.00  0.00    -0.084 Cl
ATOM     29  C   UNL d   1      -5.003   2.571  -5.576  0.00  0.00     0.020 A 
ENDBRANCH  22  23
ENDBRANCH   1  22
TORSDOF 5
