REMARK  2 active torsions:
REMARK  status: ('A' for Active; 'I' for Inactive)
REMARK    1  A    between atoms: C_7  and  N_1 
REMARK    2  A    between atoms: C_15  and  C_7 
ROOT
ATOM      1  N   UNL d   1       4.078  -3.199  -6.734  0.00  0.00    -0.191 NA
ATOM      2  C   UNL d   1       4.122  -2.916  -5.613  0.00  0.00     0.099 C 
ATOM      3  C   UNL d   1       4.136  -2.542  -4.228  0.00  0.00     0.044 A 
ATOM      4  C   UNL d   1       3.960  -1.684  -1.557  0.00  0.00    -0.040 A 
ATOM      5  C   UNL d   1       4.774  -1.366  -3.825  0.00  0.00     0.023 A 
ATOM      6  C   UNL d   1       3.474  -3.329  -3.284  0.00  0.00     0.023 A 
ATOM      7  C   UNL d   1       4.691  -0.944  -2.495  0.00  0.00     0.010 A 
ATOM      8  C   UNL d   1       3.394  -2.905  -1.956  0.00  0.00     0.010 A 
ENDROOT
BRANCH   4   9
ATOM      9  C   UNL d   1       3.698  -1.140  -0.162  0.00  0.00     0.173 C 
BRANCH   9  10
ATOM     10  N   UNL d   1       2.398  -0.446  -0.085  0.00  0.00    -0.286 N 
ATOM     11  C   UNL d   1       2.287   0.935  -0.235  0.00  0.00     0.181 C 
ATOM     12  N   UNL d   1       1.034   1.475  -0.114  0.00  0.00    -0.332 N 
ATOM     13  S   UNL d   1       3.515   2.036  -0.544  0.00  0.00    -0.040 SA
ATOM     14  C   UNL d   1      -0.129   0.725   0.018  0.00  0.00     0.050 A 
ATOM     15  H   UNL d   1       0.967   2.482  -0.219  0.00  0.00     0.168 HD
ATOM     16  C   UNL d   1      -0.048  -0.654   0.112  0.00  0.00     0.059 A 
ATOM     17  C   UNL d   1      -1.370   1.360   0.013  0.00  0.00     0.031 A 
ATOM     18  C   UNL d   1       1.289  -1.275   0.166  0.00  0.00     0.262 C 
ATOM     19  C   UNL d   1      -1.216  -1.427   0.144  0.00  0.00     0.026 A 
ATOM     20  O   UNL d   1       1.364  -2.472   0.432  0.00  0.00    -0.267 OA
ATOM     21  C   UNL d   1      -2.471  -0.805   0.094  0.00  0.00    -0.061 A 
ATOM     22  C   UNL d   1      -3.735  -1.614   0.049  0.00  0.00     0.048 C 
ATOM     23  C   UNL d   1      -2.538   0.594   0.045  0.00  0.00     0.009 A 
ENDBRANCH   9  10
ENDBRANCH   4   9
TORSDOF 2
