REMARK  2 active torsions:
REMARK  status: ('A' for Active; 'I' for Inactive)
REMARK    1  A    between atoms: C_6  and  C_3 
REMARK    2  A    between atoms: C_13  and  N_7 
ROOT
ATOM      1  C   UNL d   1       1.278  -1.355   0.105  0.00  0.00     0.054 C 
ATOM      2  C   UNL d   1      -0.042  -0.664   0.039  0.00  0.00     0.005 A 
ATOM      3  C   UNL d   1       2.454  -0.697   0.059  0.00  0.00    -0.011 C 
ATOM      4  S   UNL d   1       1.241   1.843   0.247  0.00  0.00    -0.124 SA
ATOM      5  C   UNL d   1      -0.141   0.738   0.073  0.00  0.00     0.013 A 
ATOM      6  C   UNL d   1       2.659   0.780  -0.074  0.00  0.00     0.121 C 
ATOM      7  C   UNL d   1      -1.252  -1.393  -0.029  0.00  0.00     0.038 A 
ATOM      8 CL   UNL d   1       1.244  -3.104   0.196  0.00  0.00    -0.083 Cl
ATOM      9  C   UNL d   1      -1.401   1.367   0.034  0.00  0.00     0.021 A 
ATOM     10  C   UNL d   1      -2.497  -0.757  -0.053  0.00  0.00     0.035 A 
ATOM     11  C   UNL d   1      -2.577   0.625  -0.027  0.00  0.00     0.025 A 
ATOM     12 CL   UNL d   1      -3.938  -1.696  -0.103  0.00  0.00    -0.084 Cl
ENDROOT
BRANCH   3  13
ATOM     13  C   UNL d   1       3.754  -1.444   0.135  0.00  0.00     0.098 C 
ATOM     14  N   UNL d   1       4.890  -0.891  -0.162  0.00  0.00    -0.365 N 
ATOM     15  HN  UNL d   1       4.933   0.079  -0.476  1.00  0.00     0.165 HD
BRANCH  14  16
ATOM     16  C   UNL d   1       6.060  -1.658  -0.041  0.00  0.00     0.032 A 
ATOM     17  C   UNL d   1       6.185  -2.945  -0.584  0.00  0.00     0.031 A 
ATOM     18  C   UNL d   1       7.380  -3.659  -0.455  0.00  0.00     0.026 A 
ATOM     19  C   UNL d   1       8.465  -3.079   0.200  0.00  0.00     0.034 A 
ATOM     20  C   UNL d   1       8.365  -1.791   0.720  0.00  0.00     0.026 A 
ATOM     21 CL   UNL d   1       9.938  -3.953   0.352  0.00  0.00    -0.084 Cl
ATOM     22  C   UNL d   1       7.165  -1.086   0.595  0.00  0.00     0.031 A 
ENDBRANCH  14  16
ENDBRANCH   3  13
TORSDOF 2
