REMARK  5 active torsions:
REMARK  status: ('A' for Active; 'I' for Inactive)
REMARK    1  A    between atoms: C_4  and  C_1 
REMARK    2  A    between atoms: C_2  and  C_5 
REMARK    3  A    between atoms: C_3  and  C_7 
REMARK       I    between atoms: N_6  and  C_3 
REMARK    4  A    between atoms: N_10  and  N_6 
REMARK    5  A    between atoms: C_9  and  N_10 
ROOT
ATOM      1  C   UNL d   1       1.323  -4.786  -0.705  0.00  0.00     0.266 C 
ATOM      2  N   UNL d   1       1.066  -6.072  -1.141  0.00  0.00    -0.281 N 
ATOM      3  O   UNL d   1       0.663  -3.826  -1.107  0.00  0.00    -0.266 OA
ATOM      4  H   UNL d   1       1.478  -6.940  -0.812  0.00  0.00     0.184 HD
ENDROOT
BRANCH   2   5
ATOM      5  N   UNL d   1       0.037  -6.208  -2.098  0.00  0.00    -0.187 NA
ATOM      6  H   UNL d   1      -0.564  -5.377  -2.074  0.00  0.00     0.154 HD
BRANCH   5   7
ATOM      7  C   UNL d   1      -0.717  -7.394  -1.936  0.00  0.00     0.099 A 
ATOM      8  N   UNL d   1      -0.217  -8.427  -1.217  0.00  0.00    -0.356 N 
ATOM      9  C   UNL d   1      -0.937  -9.572  -1.181  0.00  0.00     0.090 A 
ATOM     10  HN  UNL d   1       0.670  -8.345  -0.720  1.00  0.00     0.166 HD
ATOM     11  C   UNL d   1      -2.146  -9.747  -1.831  0.00  0.00     0.033 A 
ATOM     12  C   UNL d   1      -2.660  -8.685  -2.576  0.00  0.00     0.052 A 
ATOM     13  C   UNL d   1      -1.919  -7.500  -2.635  0.00  0.00     0.060 A 
BRANCH  12  14
ATOM     14  C   UNL d   1      -3.970  -8.823  -3.303  0.00  0.00     0.417 C 
ATOM     15  F   UNL d   1      -4.366  -7.683  -3.933  0.00  0.00    -0.166 F 
ATOM     16  F   UNL d   1      -3.933  -9.788  -4.262  0.00  0.00    -0.166 F 
ATOM     17  F   UNL d   1      -4.991  -9.162  -2.469  0.00  0.00    -0.166 F 
ENDBRANCH  12  14
ENDBRANCH   5   7
ENDBRANCH   2   5
BRANCH   1  18
ATOM     18  C   UNL d   1       2.429  -4.568   0.274  0.00  0.00     0.034 A 
ATOM     19  C   UNL d   1       2.795  -3.237   0.545  0.00  0.00     0.033 A 
ATOM     20  C   UNL d   1       3.817  -2.932   1.458  0.00  0.00     0.048 A 
ATOM     21  C   UNL d   1       4.478  -3.987   2.101  0.00  0.00     0.016 A 
ATOM     22  C   UNL d   1       4.123  -5.311   1.839  0.00  0.00     0.002 A 
ATOM     23  C   UNL d   1       3.101  -5.604   0.929  0.00  0.00     0.017 A 
BRANCH  20  24
ATOM     24  C   UNL d   1       4.203  -1.502   1.749  0.00  0.00     0.417 C 
ATOM     25  F   UNL d   1       3.470  -0.584   1.061  0.00  0.00    -0.166 F 
ATOM     26  F   UNL d   1       5.505  -1.242   1.445  0.00  0.00    -0.166 F 
ATOM     27  F   UNL d   1       4.057  -1.184   3.065  0.00  0.00    -0.166 F 
ENDBRANCH  20  24
ENDBRANCH   1  18
TORSDOF 5
