REMARK  3 active torsions:
REMARK  status: ('A' for Active; 'I' for Inactive)
REMARK    1  A    between atoms: C_10  and  N_1 
REMARK    2  A    between atoms: C_7  and  C_2 
REMARK    3  A    between atoms: N_9  and  C_8 
ROOT
ATOM      1  N   UNL d   1       0.051  -0.808   0.995  0.00  0.00    -0.225 N 
ATOM      2  C   UNL d   1       1.050  -0.755   0.021  0.00  0.00     0.139 A 
ATOM      3  N   UNL d   1      -0.790  -0.016  -0.816  0.00  0.00    -0.007 NA
ATOM      4  N   UNL d   1      -1.108  -0.413   0.404  0.00  0.00     0.001 NA
ATOM      5  N   UNL d   1       0.534  -0.224  -1.070  0.00  0.00    -0.270 N 
ATOM      6  HN  UNL d   1       1.029  -0.009  -1.936  1.00  0.00     0.185 HD
ENDROOT
BRANCH   2   7
ATOM      7  C   UNL d   1       2.347  -1.276   0.213  0.00  0.00     0.068 C 
ATOM      8  C   UNL d   1       2.606  -2.563  -0.051  0.00  0.00     0.089 C 
BRANCH   8   9
ATOM      9  N   UNL d   1       3.795  -3.265   0.067  0.00  0.00    -0.386 N 
ATOM     10  C   UNL d   1       3.955  -4.654  -0.422  0.00  0.00     0.148 C 
ATOM     11  C   UNL d   1       5.095  -4.718  -1.453  0.00  0.00     0.187 C 
ATOM     12  O   UNL d   1       6.325  -4.196  -0.920  0.00  0.00    -0.388 OA
ATOM     13  C   UNL d   1       6.148  -2.831  -0.506  0.00  0.00     0.187 C 
ATOM     14  C   UNL d   1       5.065  -2.716   0.576  0.00  0.00     0.148 C 
ENDBRANCH   8   9
ENDBRANCH   2   7
BRANCH   1  15
ATOM     15  C   UNL d   1       0.067  -1.143   2.380  0.00  0.00     0.056 A 
ATOM     16  C   UNL d   1       1.250  -1.148   3.134  0.00  0.00     0.034 A 
ATOM     17  C   UNL d   1       1.209  -1.435   4.503  0.00  0.00     0.044 A 
ATOM     18  C   UNL d   1      -0.004  -1.728   5.113  0.00  0.00     0.116 A 
ATOM     19  C   UNL d   1      -1.185  -1.733   4.384  0.00  0.00     0.044 A 
ATOM     20  F   UNL d   1      -0.035  -1.997   6.425  0.00  0.00    -0.206 F 
ATOM     21  C   UNL d   1      -1.153  -1.431   3.020  0.00  0.00     0.034 A 
ENDBRANCH   1  15
TORSDOF 3
