REMARK  6 active torsions:
REMARK  status: ('A' for Active; 'I' for Inactive)
REMARK    1  A    between atoms: C_6  and  C_1 
REMARK    2  A    between atoms: C_12  and  N_2 
REMARK    3  A    between atoms: C_14  and  C_3 
REMARK       I    between atoms: N_8  and  C_6 
REMARK    4  A    between atoms: C_10  and  N_8 
REMARK    5  A    between atoms: N_9  and  C_11 
REMARK    6  A    between atoms: C_21  and  C_14 
ROOT
ATOM      1  C   UNL d   1      -0.800   2.222   0.055  0.00  0.00     0.259 C 
ATOM      2  N   UNL d   1      -0.007   3.352   0.135  0.00  0.00    -0.321 N 
ATOM      3  O   UNL d   1      -2.011   2.253  -0.163  0.00  0.00    -0.267 OA
ATOM      4  H   UNL d   1       0.895   3.293   0.579  0.00  0.00     0.169 HD
ENDROOT
BRANCH   1   5
ATOM      5  C   UNL d   1      -0.187   0.926   0.347  0.00  0.00     0.073 C 
ATOM      6  C   UNL d   1       1.119   0.425   0.328  0.00  0.00     0.051 C 
ATOM      7  N   UNL d   1       1.011  -0.953   0.619  0.00  0.00    -0.260 N 
ATOM      8  N   UNL d   1      -0.262  -1.267   0.973  0.00  0.00    -0.304 N 
ATOM      9  C   UNL d   1      -0.971  -0.177   0.737  0.00  0.00     0.126 C 
ATOM     10  HN  UNL d   1      -0.600  -2.156   1.342  1.00  0.00     0.186 HD
BRANCH   6  11
ATOM     11  C   UNL d   1       2.410   1.133   0.069  0.00  0.00     0.060 C 
BRANCH  11  12
ATOM     12  C   UNL d   1       2.686   1.302  -1.426  0.00  0.00     0.002 C 
ATOM     13  C   UNL d   1       4.081   1.859  -1.666  0.00  0.00     0.005 C 
ENDBRANCH  11  12
ENDBRANCH   6  11
BRANCH   7  14
ATOM     14  C   UNL d   1       1.965  -2.030   0.616  0.00  0.00     0.056 A 
ATOM     15  C   UNL d   1       3.235  -1.948   0.037  0.00  0.00     0.031 A 
ATOM     16  C   UNL d   1       4.115  -3.038   0.087  0.00  0.00     0.002 A 
ATOM     17  C   UNL d   1       3.735  -4.231   0.695  0.00  0.00     0.000 A 
ATOM     18  C   UNL d   1       2.463  -4.344   1.244  0.00  0.00     0.002 A 
ATOM     19  C   UNL d   1       1.587  -3.257   1.201  0.00  0.00     0.031 A 
ENDBRANCH   7  14
ENDBRANCH   1   5
BRANCH   2  20
ATOM     20  C   UNL d   1      -0.493   4.683   0.009  0.00  0.00     0.056 A 
ATOM     21  C   UNL d   1       0.179   5.737   0.687  0.00  0.00     0.037 A 
ATOM     22  C   UNL d   1      -0.353   7.036   0.534  0.00  0.00     0.026 A 
ATOM     23  C   UNL d   1      -1.472   7.294  -0.267  0.00  0.00     0.002 A 
ATOM     24  C   UNL d   1      -2.090   6.259  -0.948  0.00  0.00     0.002 A 
ATOM     25  C   UNL d   1      -1.602   4.962  -0.809  0.00  0.00     0.031 A 
BRANCH  21  26
ATOM     26  N   UNL d   1       1.344   5.495   1.460  0.00  0.00    -0.281 NA
ATOM     27  C   UNL d   1       2.215   6.666   1.710  0.00  0.00     0.096 C 
ATOM     28  C   UNL d   1       3.593   6.190   2.170  0.00  0.00     0.015 C 
ATOM     29  C   UNL d   1       3.497   5.248   3.370  0.00  0.00     0.002 C 
ATOM     30  C   UNL d   1       2.474   4.140   3.128  0.00  0.00     0.015 C 
ATOM     31  C   UNL d   1       1.122   4.718   2.697  0.00  0.00     0.096 C 
ENDBRANCH  21  26
ENDBRANCH   2  20
TORSDOF 6
