REMARK  3 active torsions:
REMARK  status: ('A' for Active; 'I' for Inactive)
REMARK    1  A    between atoms: C_6  and  N_2 
REMARK    2  A    between atoms: C_7  and  C_6 
REMARK    3  A    between atoms: C_10  and  C_7 
ROOT
ATOM      1  C   UNL d   1       2.284  -2.112   0.069  0.00  0.00     0.229 C 
ENDROOT
BRANCH   1   2
ATOM      2  N   UNL d   1       2.113  -1.585   1.421  0.00  0.00    -0.230 N 
ATOM      3  S   UNL d   1       2.790  -2.392   2.734  0.00  0.00     0.269 S 
ATOM      4  C   UNL d   1       2.620  -1.011   3.790  0.00  0.00     0.095 A 
ATOM      5  O   UNL d   1       1.883  -3.415   3.177  0.00  0.00    -0.200 OA
ATOM      6  O   UNL d   1       4.204  -2.589   2.505  0.00  0.00    -0.200 OA
ATOM      7  C   UNL d   1       2.063   0.058   3.103  0.00  0.00     0.056 A 
ATOM      8  C   UNL d   1       3.048  -0.911   5.100  0.00  0.00     0.026 A 
ATOM      9  C   UNL d   1       1.959   1.305   3.700  0.00  0.00     0.018 A 
ATOM     10  C   UNL d   1       1.697  -0.268   1.715  0.00  0.00     0.269 A 
ATOM     11  C   UNL d   1       2.407   1.441   5.017  0.00  0.00     0.001 A 
ATOM     12  C   UNL d   1       2.930   0.338   5.718  0.00  0.00     0.002 A 
ATOM     13  O   UNL d   1       1.131   0.474   0.942  0.00  0.00    -0.266 OA
ENDBRANCH   1   2
BRANCH   1  14
ATOM     14  C   UNL d   1       2.067  -3.597  -0.067  0.00  0.00     0.178 C 
ATOM     15  O   UNL d   1       3.022  -4.368  -0.153  0.00  0.00    -0.290 OA
BRANCH  14  16
ATOM     16  C   UNL d   1       0.677  -4.143  -0.090  0.00  0.00     0.014 A 
ATOM     17  C   UNL d   1       0.519  -5.527  -0.244  0.00  0.00     0.054 A 
ATOM     18  C   UNL d   1      -0.751  -6.106  -0.209  0.00  0.00     0.102 A 
ATOM     19  O   UNL d   1      -0.777  -7.463  -0.416  0.00  0.00    -0.348 OA
ATOM     20  C   UNL d   1      -1.871  -5.305   0.048  0.00  0.00     0.102 A 
ATOM     21  C   UNL d   1      -1.939  -7.903  -1.123  0.00  0.00     0.178 C 
ATOM     22  C   UNL d   1      -3.100  -8.145  -0.172  0.00  0.00     0.053 C 
ATOM     23  C   UNL d   1      -3.202  -7.047   0.872  0.00  0.00     0.178 C 
ATOM     24  O   UNL d   1      -3.149  -5.761   0.249  0.00  0.00    -0.348 OA
ATOM     25  C   UNL d   1      -1.724  -3.919   0.124  0.00  0.00     0.040 A 
ATOM     26  C   UNL d   1      -0.456  -3.335   0.053  0.00  0.00     0.018 A 
ENDBRANCH  14  16
ENDBRANCH   1  14
TORSDOF 3
