REMARK  5 active torsions:
REMARK  status: ('A' for Active; 'I' for Inactive)
REMARK    1  A    between atoms: C_4  and  N_1 
REMARK    2  A    between atoms: N_8  and  C_4 
REMARK    3  A    between atoms: C_5  and  O_7 
REMARK    4  A    between atoms: O_7  and  C_6 
REMARK    5  A    between atoms: C_10  and  N_8 
ROOT
ATOM      1  C   UNL d   1      -2.788   4.682   0.004  0.00  0.00     0.100 A 
ATOM      2  C   UNL d   1      -3.021   6.065   0.008  0.00  0.00     0.058 A 
ATOM      3  C   UNL d   1      -1.526   4.159  -0.357  0.00  0.00     0.043 A 
ATOM      4  C   UNL d   1      -0.535   5.080  -0.749  0.00  0.00     0.028 A 
ATOM      5  C   UNL d   1      -2.004   6.946  -0.346  0.00  0.00     0.013 A 
ATOM      6  C   UNL d   1      -0.761   6.459  -0.730  0.00  0.00     0.021 A 
ATOM      7 BR   UNL d   1      -2.328   8.807  -0.368  0.00  0.00    -0.051 Br
ENDROOT
BRANCH   3   8
ATOM      8  N   UNL d   1      -1.311   2.772  -0.489  0.00  0.00    -0.273 NA
ATOM      9  H   UNL d   1      -1.965   2.234   0.063  0.00  0.00     0.129 HD
BRANCH   8  10
ATOM     10  C   UNL d   1       0.038   2.283  -0.235  0.00  0.00     0.229 C 
BRANCH  10  11
ATOM     11  N   UNL d   1      -0.073   0.927   0.231  0.00  0.00    -0.275 N 
ATOM     12  C   UNL d   1      -0.050   0.590   1.550  0.00  0.00     0.227 C 
ATOM     13  C   UNL d   1      -0.094  -0.903   1.675  0.00  0.00     0.112 C 
ATOM     14  O   UNL d   1       0.030   1.350   2.503  0.00  0.00    -0.273 OA
ATOM     15  C   UNL d   1      -0.101  -1.404   0.243  0.00  0.00     0.112 C 
ATOM     16  C   UNL d   1       0.010  -0.156  -0.589  0.00  0.00     0.227 C 
ATOM     17  O   UNL d   1       0.177  -0.159  -1.795  0.00  0.00    -0.273 OA
ENDBRANCH  10  11
ENDBRANCH   8  10
ENDBRANCH   3   8
BRANCH   1  18
ATOM     18  O   UNL d   1      -3.905   3.912   0.199  0.00  0.00    -0.253 OA
BRANCH  18  19
ATOM     19  C   UNL d   1      -3.884   2.998   1.283  0.00  0.00     0.530 C 
ATOM     20  F   UNL d   1      -2.649   2.733   1.754  0.00  0.00    -0.144 F 
ATOM     21  F   UNL d   1      -4.646   3.462   2.295  0.00  0.00    -0.144 F 
ATOM     22  F   UNL d   1      -4.413   1.827   0.856  0.00  0.00    -0.144 F 
ENDBRANCH  18  19
ENDBRANCH   1  18
TORSDOF 5
