REMARK  5 active torsions:
REMARK  status: ('A' for Active; 'I' for Inactive)
REMARK    1  A    between atoms: C_9  and  N_1 
REMARK    2  A    between atoms: C_11  and  C_6 
REMARK    3  A    between atoms: C_12  and  C_8 
REMARK    4  A    between atoms: C_14  and  C_9 
REMARK    5  A    between atoms: O_19  and  C_13 
ROOT
ATOM      1  N   UNL d   1       0.408   1.390  -0.002  0.00  0.00    -0.267 N 
ATOM      2  C   UNL d   1       0.972  -0.975   0.184  0.00  0.00     0.104 C 
ATOM      3  C   UNL d   1       1.379   0.479   0.366  0.00  0.00     0.285 C 
ATOM      4  N   UNL d   1      -0.366  -1.322   0.152  0.00  0.00    -0.341 N 
ATOM      5  HN  UNL d   1      -0.675  -2.281   0.309  1.00  0.00     0.167 HD
ATOM      6  C   UNL d   1      -1.209  -0.361  -0.087  0.00  0.00     0.109 C 
ATOM      7  N   UNL d   1      -0.880   0.956  -0.366  0.00  0.00    -0.184 NA
ATOM      8  C   UNL d   1       1.909  -1.939   0.095  0.00  0.00     0.046 C 
ATOM      9  O   UNL d   1       2.461   0.836   0.826  0.00  0.00    -0.264 OA
ATOM     10  H   UNL d   1      -1.601   1.632  -0.117  0.00  0.00     0.154 HD
ENDROOT
BRANCH   8  11
ATOM     11  C   UNL d   1       3.364  -1.742   0.163  0.00  0.00    -0.034 A 
ATOM     12  C   UNL d   1       4.000  -1.760   1.411  0.00  0.00     0.014 A 
ATOM     13  C   UNL d   1       5.353  -1.422   1.524  0.00  0.00     0.037 A 
ATOM     14  C   UNL d   1       6.085  -1.076   0.390  0.00  0.00     0.068 A 
ATOM     15  C   UNL d   1       5.472  -1.127  -0.865  0.00  0.00     0.037 A 
ATOM     16  C   UNL d   1       4.114  -1.448  -0.980  0.00  0.00     0.014 A 
BRANCH  14  17
ATOM     17  O   UNL d   1       7.406  -0.713   0.393  0.00  0.00    -0.356 OA
ATOM     18  C   UNL d   1       7.829   0.013   1.546  0.00  0.00     0.210 C 
ENDBRANCH  14  17
ENDBRANCH   8  11
BRANCH   1  19
ATOM     19  C   UNL d   1       0.680   2.820  -0.047  0.00  0.00     0.185 C 
BRANCH  19  20
ATOM     20  C   UNL d   1       0.741   3.356  -1.460  0.00  0.00    -0.039 A 
ATOM     21  C   UNL d   1      -0.396   3.913  -2.063  0.00  0.00     0.009 A 
ATOM     22  C   UNL d   1      -0.351   4.361  -3.384  0.00  0.00     0.001 A 
ATOM     23  C   UNL d   1       0.832   4.265  -4.114  0.00  0.00     0.000 A 
ATOM     24  C   UNL d   1       1.974   3.730  -3.521  0.00  0.00     0.001 A 
ATOM     25  C   UNL d   1       1.929   3.273  -2.202  0.00  0.00     0.009 A 
ENDBRANCH  19  20
ENDBRANCH   1  19
BRANCH   6  26
ATOM     26  C   UNL d   1      -2.683  -0.684  -0.029  0.00  0.00     0.004 A 
ATOM     27  C   UNL d   1      -3.142  -1.715   0.800  0.00  0.00     0.015 A 
ATOM     28  C   UNL d   1      -4.513  -1.948   0.940  0.00  0.00     0.001 A 
ATOM     29  C   UNL d   1      -5.433  -1.158   0.248  0.00  0.00     0.000 A 
ATOM     30  C   UNL d   1      -4.983  -0.146  -0.597  0.00  0.00     0.001 A 
ATOM     31  C   UNL d   1      -3.613   0.089  -0.742  0.00  0.00     0.015 A 
ENDBRANCH   6  26
TORSDOF 5
