REMARK  10 active torsions:
REMARK  status: ('A' for Active; 'I' for Inactive)
REMARK    1  A    between atoms: N_4  and  C_1 
REMARK    2  A    between atoms: N_9  and  C_1 
REMARK    3  A    between atoms: O_19  and  C_2 
REMARK    4  A    between atoms: C_3  and  N_4 
REMARK    5  A    between atoms: O_21  and  C_5 
REMARK    6  A    between atoms: O_22  and  C_6 
REMARK       I    between atoms: C_8  and  N_11 
REMARK    7  A    between atoms: C_20  and  C_8 
REMARK    8  A    between atoms: N_11  and  N_9 
REMARK    9  A    between atoms: C_15  and  C_24 
REMARK   10  A    between atoms: C_24  and  C_20 
ROOT
ATOM      1  C   UNL d   1      -1.747  -1.851  -1.676  0.00  0.00     0.236 C 
ATOM      2  N   UNL d   1      -1.206  -1.038  -0.695  0.00  0.00    -0.268 N 
ATOM      3  O   UNL d   1      -1.061  -2.436  -2.508  0.00  0.00    -0.272 OA
ATOM      4  H   UNL d   1      -1.788  -0.409  -0.150  0.00  0.00     0.190 HD
ENDROOT
BRANCH   1   5
ATOM      5  C   UNL d   1      -3.256  -1.863  -1.657  0.00  0.00     0.109 C 
BRANCH   5   6
ATOM      6  C   UNL d   1      -3.824  -2.890  -2.628  0.00  0.00     0.048 C 
BRANCH   6   7
ATOM      7  C   UNL d   1      -5.327  -2.804  -2.677  0.00  0.00    -0.052 A 
ATOM      8  C   UNL d   1      -5.968  -1.968  -3.592  0.00  0.00     0.047 A 
ATOM      9  C   UNL d   1      -7.368  -1.867  -3.629  0.00  0.00     0.104 A 
ATOM     10  C   UNL d   1      -8.160  -2.606  -2.718  0.00  0.00     0.135 A 
ATOM     11  C   UNL d   1      -7.507  -3.409  -1.756  0.00  0.00     0.104 A 
ATOM     12  C   UNL d   1      -6.106  -3.504  -1.759  0.00  0.00     0.047 A 
BRANCH   9  13
ATOM     13  O   UNL d   1      -7.972  -0.978  -4.484  0.00  0.00    -0.353 OA
ATOM     14  C   UNL d   1      -7.348  -0.813  -5.756  0.00  0.00     0.210 C 
ENDBRANCH   9  13
BRANCH  10  15
ATOM     15  O   UNL d   1      -9.528  -2.611  -2.671  0.00  0.00    -0.351 OA
ATOM     16  C   UNL d   1     -10.291  -2.039  -3.720  0.00  0.00     0.210 C 
ENDBRANCH  10  15
BRANCH  11  17
ATOM     17  O   UNL d   1      -8.038  -4.148  -0.729  0.00  0.00    -0.353 OA
ATOM     18  C   UNL d   1      -9.438  -4.291  -0.596  0.00  0.00     0.210 C 
ENDBRANCH  11  17
ENDBRANCH   6   7
ENDBRANCH   5   6
ENDBRANCH   1   5
BRANCH   2  19
ATOM     19  N   UNL d   1       0.134  -0.672  -0.850  0.00  0.00    -0.274 N 
ATOM     20  H   UNL d   1       0.556  -1.009  -1.718  0.00  0.00     0.189 HD
BRANCH  19  21
ATOM     21  C   UNL d   1       0.989  -0.543   0.222  0.00  0.00     0.191 C 
ATOM     22  S   UNL d   1       0.610  -0.866   1.815  0.00  0.00    -0.039 SA
BRANCH  21  23
ATOM     23  N   UNL d   1       2.261  -0.132  -0.100  0.00  0.00    -0.331 N 
ATOM     24  H   UNL d   1       2.986  -0.373   0.575  0.00  0.00     0.168 HD
BRANCH  23  25
ATOM     25  C   UNL d   1       2.668   0.666  -1.200  0.00  0.00     0.057 A 
ATOM     26  C   UNL d   1       1.764   1.496  -1.879  0.00  0.00     0.055 A 
ATOM     27  C   UNL d   1       2.183   2.290  -2.944  0.00  0.00     0.036 A 
ATOM     28 CL   UNL d   1       1.051   3.304  -3.748  0.00  0.00    -0.084 Cl
ATOM     29  C   UNL d   1       3.515   2.277  -3.348  0.00  0.00     0.026 A 
ATOM     30  C   UNL d   1       4.435   1.480  -2.663  0.00  0.00     0.028 A 
ATOM     31  C   UNL d   1       4.020   0.694  -1.583  0.00  0.00     0.060 A 
ATOM     32 CL   UNL d   1       5.198  -0.268  -0.767  0.00  0.00    -0.082 Cl
ENDBRANCH  23  25
ENDBRANCH  21  23
ENDBRANCH  19  21
ENDBRANCH   2  19
TORSDOF 10
