REMARK  6 active torsions:
REMARK  status: ('A' for Active; 'I' for Inactive)
REMARK    1  A    between atoms: C_8  and  C_3 
REMARK    2  A    between atoms: C_13  and  N_4 
REMARK    3  A    between atoms: C_12  and  C_5 
REMARK    4  A    between atoms: C_9  and  C_6 
REMARK    5  A    between atoms: O_17  and  C_9 
REMARK    6  A    between atoms: C_23  and  O_17 
ROOT
ATOM      1  C   UNL d   1      -1.601   2.206  -1.014  0.00  0.00     0.120 C 
ATOM      2  C   UNL d   1      -0.954   2.713   0.054  0.00  0.00     0.044 C 
ATOM      3  C   UNL d   1      -1.311   2.595  -2.346  0.00  0.00     0.105 C 
ATOM      4  N   UNL d   1      -1.076   2.925  -3.434  0.00  0.00    -0.191 NA
ENDROOT
BRANCH   1   5
ATOM      5  C   UNL d   1      -2.588   1.128  -0.756  0.00  0.00     0.303 C 
ATOM      6  O   UNL d   1      -2.852   0.693   0.356  0.00  0.00    -0.258 OA
BRANCH   5   7
ATOM      7  O   UNL d   1      -3.057   0.629  -1.927  0.00  0.00    -0.317 OA
BRANCH   7   8
ATOM      8  C   UNL d   1      -3.632  -0.685  -1.867  0.00  0.00     0.174 C 
ATOM      9  C   UNL d   1      -2.513  -1.692  -2.070  0.00  0.00     0.034 C 
ENDBRANCH   7   8
ENDBRANCH   5   7
ENDBRANCH   1   5
BRANCH   2  10
ATOM     10  C   UNL d   1       0.119   3.650   0.015  0.00  0.00     0.012 A 
ATOM     11  C   UNL d   1       1.526   3.434  -0.039  0.00  0.00     0.070 A 
ATOM     12  N   UNL d   1       2.170   4.612  -0.094  0.00  0.00    -0.293 N 
ATOM     13  N   UNL d   1       1.210   5.568  -0.011  0.00  0.00    -0.266 N 
ATOM     14  HN  UNL d   1       3.175   4.759  -0.181  1.00  0.00     0.187 HD
ATOM     15  C   UNL d   1      -0.048   5.010   0.049  0.00  0.00     0.130 A 
BRANCH  11  16
ATOM     16  C   UNL d   1       2.268   2.165  -0.050  0.00  0.00    -0.007 A 
ATOM     17  C   UNL d   1       3.497   2.063  -0.715  0.00  0.00     0.014 A 
ATOM     18  C   UNL d   1       4.205   0.854  -0.732  0.00  0.00     0.007 A 
ATOM     19  C   UNL d   1       3.696  -0.276  -0.083  0.00  0.00    -0.062 A 
ATOM     20  C   UNL d   1       2.478  -0.177   0.593  0.00  0.00     0.007 A 
ATOM     21  C   UNL d   1       4.461  -1.566  -0.098  0.00  0.00     0.048 C 
ATOM     22  C   UNL d   1       1.777   1.033   0.616  0.00  0.00     0.014 A 
ENDBRANCH  11  16
BRANCH  13  23
ATOM     23  C   UNL d   1       1.541   6.953   0.011  0.00  0.00     0.056 A 
ATOM     24  C   UNL d   1       2.877   7.358  -0.129  0.00  0.00     0.031 A 
ATOM     25  C   UNL d   1       3.204   8.717  -0.120  0.00  0.00     0.002 A 
ATOM     26  C   UNL d   1       2.205   9.678   0.036  0.00  0.00     0.000 A 
ATOM     27  C   UNL d   1       0.879   9.283   0.187  0.00  0.00     0.002 A 
ATOM     28  C   UNL d   1       0.544   7.927   0.173  0.00  0.00     0.031 A 
ENDBRANCH  13  23
ENDBRANCH   2  10
TORSDOF 6
