REMARK  4 active torsions:
REMARK  status: ('A' for Active; 'I' for Inactive)
REMARK    1  A    between atoms: C_6  and  C_3 
REMARK    2  A    between atoms: C_15  and  C_4 
REMARK       I    between atoms: C_5  and  N_8 
REMARK    3  A    between atoms: O_13  and  C_5 
REMARK    4  A    between atoms: C_19  and  O_13 
ROOT
ATOM      1  C   UNL d   1       0.519  -6.320   1.811  0.00  0.00     0.363 C 
ATOM      2  N   UNL d   1       0.489  -5.169   1.040  0.00  0.00    -0.328 N 
ATOM      3  C   UNL d   1       0.443  -2.632  -0.284  0.00  0.00     0.046 C 
ATOM      4  O   UNL d   1       1.222  -6.429   2.811  0.00  0.00    -0.238 OA
ATOM      5  C   UNL d   1      -0.325  -5.015  -0.172  0.00  0.00     0.129 C 
ATOM      6  C   UNL d   1       1.581  -4.229   1.236  0.00  0.00     0.129 C 
ATOM      7  C   UNL d   1       1.103  -2.806   1.087  0.00  0.00     0.031 C 
ATOM      8  C   UNL d   1      -0.767  -3.555  -0.402  0.00  0.00     0.031 C 
ENDROOT
BRANCH   3   9
ATOM      9  C   UNL d   1       0.252  -1.163  -0.520  0.00  0.00     0.055 C 
ATOM     10  N   UNL d   1       1.228  -0.468  -1.061  0.00  0.00    -0.352 N 
ATOM     11  C   UNL d   1       1.119   0.858  -0.707  0.00  0.00     0.056 C 
ATOM     12  HN  UNL d   1       1.960  -0.855  -1.657  1.00  0.00     0.166 HD
ATOM     13  C   UNL d   1      -0.065   1.197  -0.086  0.00  0.00     0.082 C 
ATOM     14  S   UNL d   1      -1.013  -0.224   0.157  0.00  0.00    -0.086 SA
BRANCH  11  15
ATOM     15  C   UNL d   1       2.296   1.756  -0.935  0.00  0.00     0.033 A 
ATOM     16  S   UNL d   1       2.454   3.371  -0.408  0.00  0.00    -0.076 SA
ATOM     17  C   UNL d   1       4.058   3.438  -0.951  0.00  0.00     0.075 A 
ATOM     18 CL   UNL d   1       4.988   4.860  -0.703  0.00  0.00    -0.076 Cl
ATOM     19  C   UNL d   1       4.482   2.286  -1.559  0.00  0.00     0.033 A 
ATOM     20  C   UNL d   1       3.450   1.304  -1.554  0.00  0.00     0.023 A 
ENDBRANCH  11  15
ENDBRANCH   3   9
BRANCH   1  21
ATOM     21  O   UNL d   1      -0.302  -7.293   1.349  0.00  0.00    -0.294 OA
BRANCH  21  22
ATOM     22  C   UNL d   1      -0.480  -8.505   2.130  0.00  0.00     0.061 C 
ATOM     23  C   UNL d   1      -1.185  -8.172   3.451  0.00  0.00     0.046 C 
ATOM     24  C   UNL d   1      -1.403  -9.389   1.279  0.00  0.00     0.046 C 
ATOM     25  C   UNL d   1       0.833  -9.267   2.360  0.00  0.00     0.046 C 
ENDBRANCH  21  22
ENDBRANCH   1  21
TORSDOF 4
