REMARK  1 active torsions:
REMARK  status: ('A' for Active; 'I' for Inactive)
REMARK    1  A    between atoms: N_8  and  C_2 
REMARK       I    between atoms: C_11  and  N_8 
ROOT
ATOM      1  C   UNL d   1       1.596  -0.866   0.074  0.00  0.00     0.085 A 
ATOM      2  C   UNL d   1       2.959  -0.667   0.118  0.00  0.00     0.093 A 
ATOM      3  C   UNL d   1       0.905   0.390  -0.004  0.00  0.00     0.003 A 
ATOM      4  C   UNL d   1       0.867  -2.125   0.169  0.00  0.00     0.302 C 
ATOM      5  O   UNL d   1      -0.536  -2.018   0.004  0.00  0.00    -0.274 OA
ATOM      6  S   UNL d   1       3.385   0.978   0.238  0.00  0.00    -0.082 SA
ATOM      7  C   UNL d   1       1.760   1.470   0.030  0.00  0.00     0.065 A 
ATOM      8  C   UNL d   1      -0.540   0.448  -0.056  0.00  0.00     0.010 A 
ATOM      9  C   UNL d   1      -1.223  -0.775  -0.060  0.00  0.00     0.090 A 
ATOM     10  O   UNL d   1       1.369  -3.202   0.474  0.00  0.00    -0.259 OA
ATOM     11  C   UNL d   1      -1.281   1.633  -0.070  0.00  0.00     0.015 A 
ATOM     12  C   UNL d   1      -2.615  -0.832  -0.081  0.00  0.00     0.038 A 
ATOM     13  C   UNL d   1      -2.679   1.584  -0.080  0.00  0.00     0.001 A 
ATOM     14  C   UNL d   1      -3.344   0.356  -0.086  0.00  0.00     0.003 A 
ENDROOT
BRANCH   2  15
ATOM     15  N   UNL d   1       4.060  -1.493   0.101  0.00  0.00    -0.321 N 
ATOM     16  C   UNL d   1       4.128  -2.566  -0.767  0.00  0.00     0.218 C 
ATOM     17  O   UNL d   1       3.281  -2.867  -1.605  0.00  0.00    -0.274 OA
ATOM     18  C   UNL d   1       5.423  -3.331  -0.653  0.00  0.00     0.117 C 
ATOM     19  H   UNL d   1       4.936  -1.063   0.369  0.00  0.00     0.169 HD
ENDBRANCH   2  15
TORSDOF 1
