REMARK  4 active torsions:
REMARK  status: ('A' for Active; 'I' for Inactive)
REMARK    1  A    between atoms: C_2  and  N_1 
REMARK       I    between atoms: C_3  and  N_1 
REMARK    2  A    between atoms: N_4  and  C_2 
REMARK    3  A    between atoms: C_11  and  C_3 
REMARK    4  A    between atoms: C_8  and  N_4 
ROOT
ATOM      1  C   UNL d   1       0.548   1.279  -0.097  0.00  0.00     0.179 C 
ATOM      2  S   UNL d   1      -1.073   0.951   0.132  0.00  0.00    -0.040 SA
ENDROOT
BRANCH   1   3
ATOM      3  N   UNL d   1       1.574   0.367  -0.261  0.00  0.00    -0.299 N 
ATOM      4  C   UNL d   1       1.431  -1.016  -0.354  0.00  0.00     0.257 C 
ATOM      5  O   UNL d   1       0.625  -1.556  -1.110  0.00  0.00    -0.267 OA
ATOM      6  H   UNL d   1       2.428   0.723   0.131  0.00  0.00     0.171 HD
BRANCH   4   7
ATOM      7  C   UNL d   1       2.396  -1.872   0.412  0.00  0.00     0.032 A 
ATOM      8  C   UNL d   1       2.135  -3.254   0.475  0.00  0.00     0.017 A 
ATOM      9  C   UNL d   1       2.950  -4.106   1.225  0.00  0.00     0.001 A 
ATOM     10  C   UNL d   1       4.041  -3.591   1.918  0.00  0.00     0.000 A 
ATOM     11  C   UNL d   1       4.323  -2.226   1.849  0.00  0.00     0.001 A 
ATOM     12  C   UNL d   1       3.509  -1.372   1.101  0.00  0.00     0.017 A 
ENDBRANCH   4   7
ENDBRANCH   1   3
BRANCH   1  13
ATOM     13  N   UNL d   1       0.942   2.594   0.015  0.00  0.00    -0.333 N 
ATOM     14  H   UNL d   1       0.242   3.166   0.482  0.00  0.00     0.168 HD
BRANCH  13  15
ATOM     15  C   UNL d   1       1.812   3.330  -0.825  0.00  0.00     0.037 A 
ATOM     16  C   UNL d   1       1.912   4.706  -0.576  0.00  0.00     0.075 A 
ATOM     17  C   UNL d   1       2.612   5.528  -1.456  0.00  0.00     0.157 A 
ATOM     18  F   UNL d   1       2.665   6.847  -1.220  0.00  0.00    -0.203 F 
ATOM     19  C   UNL d   1       3.221   4.994  -2.581  0.00  0.00     0.154 A 
ATOM     20  C   UNL d   1       3.156   3.627  -2.826  0.00  0.00     0.048 A 
ATOM     21  F   UNL d   1       3.857   5.791  -3.450  0.00  0.00    -0.203 F 
ATOM     22  C   UNL d   1       2.453   2.792  -1.946  0.00  0.00     0.032 A 
ENDBRANCH  13  15
ENDBRANCH   1  13
TORSDOF 4
