REMARK  7 active torsions:
REMARK  status: ('A' for Active; 'I' for Inactive)
REMARK    1  A    between atoms: N_2  and  C_1 
REMARK    2  A    between atoms: N_9  and  C_1 
REMARK    3  A    between atoms: C_3  and  N_2 
REMARK    4  A    between atoms: N_5  and  C_14 
REMARK    5  A    between atoms: C_19  and  N_9 
REMARK    6  A    between atoms: C_14  and  C_15 
REMARK    7  A    between atoms: C_15  and  C_19 
ROOT
ATOM      1  C   UNL d   1       1.203  -0.639   0.226  0.00  0.00     0.172 C 
ATOM      2  S   UNL d   1      -0.051   0.017   1.121  0.00  0.00    -0.041 SA
ENDROOT
BRANCH   1   3
ATOM      3  N   UNL d   1       1.283  -1.924  -0.241  0.00  0.00    -0.333 N 
ATOM      4  H   UNL d   1       2.199  -2.361  -0.180  0.00  0.00     0.168 HD
BRANCH   3   5
ATOM      5  C   UNL d   1       0.220  -2.724  -0.715  0.00  0.00     0.040 A 
ATOM      6  C   UNL d   1       0.218  -4.120  -0.533  0.00  0.00    -0.034 A 
ATOM      7  C   UNL d   1      -0.757  -4.892  -1.196  0.00  0.00     0.028 A 
ATOM      8  C   UNL d   1       1.159  -4.841   0.389  0.00  0.00     0.050 C 
ATOM      9  C   UNL d   1      -1.718  -4.285  -1.999  0.00  0.00     0.011 A 
ATOM     10  C   UNL d   1      -1.747  -2.905  -2.140  0.00  0.00     0.021 A 
ATOM     11 BR   UNL d   1      -2.987  -5.346  -2.915  0.00  0.00    -0.051 Br
ATOM     12  C   UNL d   1      -0.782  -2.127  -1.497  0.00  0.00     0.031 A 
ENDBRANCH   3   5
ENDBRANCH   1   3
BRANCH   1  13
ATOM     13  N   UNL d   1       2.279   0.163  -0.028  0.00  0.00    -0.367 N 
ATOM     14  H   UNL d   1       2.171   1.098   0.348  0.00  0.00     0.161 HD
BRANCH  13  15
ATOM     15  C   UNL d   1       3.208   0.020  -1.139  0.00  0.00     0.123 C 
BRANCH  15  16
ATOM     16  C   UNL d   1       4.645  -0.158  -0.666  0.00  0.00     0.050 C 
BRANCH  16  17
ATOM     17  C   UNL d   1       4.901  -1.502   0.028  0.00  0.00     0.274 C 
BRANCH  17  18
ATOM     18  N   UNL d   1       4.507  -2.679  -0.768  0.00  0.00     0.092 N 
ATOM     19  C   UNL d   1       5.303  -2.838  -2.010  0.00  0.00     0.298 C 
ATOM     20  C   UNL d   1       6.757  -3.278  -1.764  0.00  0.00     0.198 C 
ATOM     21  O   UNL d   1       6.809  -4.500  -1.020  0.00  0.00    -0.388 OA
ATOM     22  C   UNL d   1       6.114  -4.373   0.226  0.00  0.00     0.198 C 
ATOM     23  C   UNL d   1       4.657  -3.928   0.015  0.00  0.00     0.298 C 
ENDBRANCH  17  18
ENDBRANCH  16  17
ENDBRANCH  15  16
ENDBRANCH  13  15
ENDBRANCH   1  13
TORSDOF 7
