REMARK  3 active torsions:
REMARK  status: ('A' for Active; 'I' for Inactive)
REMARK    1  A    between atoms: C_2  and  C_8 
REMARK       I    between atoms: N_7  and  C_2 
REMARK    2  A    between atoms: C_8  and  C_5 
REMARK    3  A    between atoms: N_13  and  N_7 
ROOT
ATOM      1  C   UNL d   1      -0.014   0.582  -0.021  0.00  0.00     0.056 A 
ATOM      2  C   UNL d   1      -0.112  -0.812   0.018  0.00  0.00     0.055 A 
ATOM      3  C   UNL d   1      -1.177   1.363  -0.049  0.00  0.00     0.033 A 
ATOM      4  C   UNL d   1      -2.444   0.761  -0.041  0.00  0.00    -0.048 A 
ATOM      5  C   UNL d   1      -1.371  -1.417   0.034  0.00  0.00     0.026 A 
ATOM      6 CL   UNL d   1       1.505   1.405  -0.031  0.00  0.00    -0.083 Cl
ATOM      7  C   UNL d   1      -2.529  -0.637   0.010  0.00  0.00     0.009 A 
ATOM      8 CL   UNL d   1       1.276  -1.839   0.052  0.00  0.00    -0.083 Cl
ENDROOT
BRANCH   4   9
ATOM      9  C   UNL d   1      -3.698   1.610  -0.043  0.00  0.00     0.142 C 
BRANCH   9  10
ATOM     10  C   UNL d   1      -4.680   1.337  -1.168  0.00  0.00     0.235 C 
ATOM     11  O   UNL d   1      -5.896   1.436  -1.008  0.00  0.00    -0.272 OA
ATOM     12  N   UNL d   1      -4.120   1.028  -2.401  0.00  0.00    -0.294 N 
ATOM     13  H   UNL d   1      -3.117   1.122  -2.558  0.00  0.00     0.183 HD
BRANCH  12  14
ATOM     14  N   UNL d   1      -4.966   0.809  -3.510  0.00  0.00    -0.247 NA
ATOM     15  H   UNL d   1      -5.891   1.188  -3.259  0.00  0.00     0.143 HD
ATOM     16  H   UNL d   1      -5.132  -0.199  -3.584  0.00  0.00     0.143 HD
ENDBRANCH  12  14
ENDBRANCH   9  10
ENDBRANCH   4   9
TORSDOF 3
