REMARK  3 active torsions:
REMARK  status: ('A' for Active; 'I' for Inactive)
REMARK    1  A    between atoms: C_2  and  S_1 
REMARK    2  A    between atoms: N_4  and  S_1 
REMARK    3  A    between atoms: C_11  and  N_4 
ROOT
ATOM      1  S   UNL d   1       0.376   0.218   2.416  0.00  0.00     0.265 S 
ATOM      2  O   UNL d   1       0.052   1.484   1.791  0.00  0.00    -0.200 OA
ATOM      3  O   UNL d   1      -0.446  -0.295   3.491  0.00  0.00    -0.200 OA
ENDROOT
BRANCH   1   4
ATOM      4  C   UNL d   1       2.006   0.364   3.033  0.00  0.00     0.110 A 
ATOM      5  C   UNL d   1       3.106   0.685   2.225  0.00  0.00     0.108 A 
ATOM      6  C   UNL d   1       4.440   0.862   2.796  0.00  0.00     0.086 A 
ATOM      7  N   UNL d   1       3.203   0.876   0.902  0.00  0.00    -0.238 N 
ATOM      8  N   UNL d   1       5.290   1.151   1.805  0.00  0.00    -0.239 N 
ATOM      9  C   UNL d   1       4.701   0.729   4.174  0.00  0.00     0.034 A 
ATOM     10  O   UNL d   1       4.531   1.172   0.650  0.00  0.00    -0.156 OA
ATOM     11  HN  UNL d   1       6.293   1.322   1.885  1.00  0.00     0.197 HD
ATOM     12  C   UNL d   1       3.578   0.409   4.959  0.00  0.00     0.004 A 
ATOM     13  C   UNL d   1       2.281   0.232   4.413  0.00  0.00     0.028 A 
ATOM     14  HN  UNL d   1       2.448   0.814   0.218  1.00  0.00     0.197 HD
ENDBRANCH   1   4
BRANCH   1  15
ATOM     15  N   UNL d   1       0.442  -0.919   1.197  0.00  0.00    -0.280 N 
ATOM     16  H   UNL d   1       0.436  -0.564   0.242  0.00  0.00     0.179 HD
BRANCH  15  17
ATOM     17  C   UNL d   1       0.752  -2.289   1.431  0.00  0.00     0.053 A 
ATOM     18  C   UNL d   1      -0.255  -3.230   1.771  0.00  0.00     0.001 A 
ATOM     19  C   UNL d   1       0.108  -4.598   1.867  0.00  0.00    -0.024 A 
ATOM     20  C   UNL d   1      -1.610  -2.894   1.993  0.00  0.00     0.014 A 
ATOM     21  C   UNL d   1      -0.865  -5.563   2.177  0.00  0.00     0.012 A 
ATOM     22  C   UNL d   1       1.436  -4.986   1.633  0.00  0.00     0.012 A 
ATOM     23  C   UNL d   1      -2.192  -5.199   2.400  0.00  0.00     0.001 A 
ATOM     24  C   UNL d   1      -2.564  -3.864   2.311  0.00  0.00     0.001 A 
ATOM     25  C   UNL d   1       2.409  -4.046   1.299  0.00  0.00     0.003 A 
ATOM     26  C   UNL d   1       2.065  -2.703   1.188  0.00  0.00     0.031 A 
ENDBRANCH  15  17
ENDBRANCH   1  15
TORSDOF 3
