REMARK  0 active torsions:
REMARK  status: ('A' for Active; 'I' for Inactive)
ROOT
ATOM      1  N   UNL d   1       1.050  -1.377   0.052  0.00  0.00    -0.349 N 
ATOM      2  C   UNL d   1       2.196  -0.894  -0.492  0.00  0.00     0.079 C 
ATOM      3  S   UNL d   1       0.706   1.778   0.980  0.00  0.00    -0.123 SA
ATOM      4  C   UNL d   1      -0.216  -0.765   0.170  0.00  0.00     0.050 A 
ATOM      5  C   UNL d   1      -0.493   0.569   0.476  0.00  0.00     0.027 A 
ATOM      6  C   UNL d   1       2.751   0.503  -0.305  0.00  0.00     0.084 C 
ATOM      7  S   UNL d   1       3.120  -2.026  -1.343  0.00  0.00    -0.065 SA
ATOM      8  C   UNL d   1       1.827   1.697  -0.443  0.00  0.00     0.055 C 
ATOM      9  C   UNL d   1      -1.293  -1.625  -0.134  0.00  0.00     0.031 A 
ATOM     10  C   UNL d   1      -1.821   1.032   0.419  0.00  0.00     0.021 A 
ATOM     11  C   UNL d   1       1.128   1.807  -1.796  0.00  0.00     0.022 C 
ATOM     12  C   UNL d   1      -2.863   0.182   0.043  0.00  0.00     0.002 A 
ATOM     13  C   UNL d   1      -2.600  -1.151  -0.220  0.00  0.00     0.002 A 
ATOM     14  H   UNL d   1       1.002  -2.381  -0.106  0.00  0.00     0.166 HD
ENDROOT
TORSDOF 0
