REMARK  3 active torsions:
REMARK  status: ('A' for Active; 'I' for Inactive)
REMARK    1  A    between atoms: C_8  and  N_1 
REMARK    2  A    between atoms: C_6  and  C_2 
REMARK    3  A    between atoms: C_9  and  C_10 
ROOT
ATOM      1  N   UNL d   1       0.930  -0.708   0.067  0.00  0.00    -0.271 N 
ATOM      2  C   UNL d   1       0.917   0.670  -0.075  0.00  0.00     0.141 A 
ATOM      3  N   UNL d   1      -0.278   1.178  -0.205  0.00  0.00    -0.282 N 
ATOM      4  HN  UNL d   1      -0.525   2.160  -0.329  1.00  0.00     0.188 HD
ATOM      5  C   UNL d   1      -0.414  -1.061   0.056  0.00  0.00     0.199 A 
ATOM      6  N   UNL d   1      -1.120   0.117  -0.138  0.00  0.00    -0.274 N 
ATOM      7  S   UNL d   1      -1.207  -2.504   0.309  0.00  0.00    -0.039 SA
ATOM      8  H   UNL d   1      -2.126   0.227  -0.128  0.00  0.00     0.189 HD
ENDROOT
BRANCH   1   9
ATOM      9  C   UNL d   1       2.039  -1.582   0.226  0.00  0.00     0.044 A 
ATOM     10  C   UNL d   1       3.170  -1.204   0.966  0.00  0.00     0.046 A 
ATOM     11  C   UNL d   1       4.325  -2.008   1.008  0.00  0.00     0.050 A 
ATOM     12  C   UNL d   1       4.313  -3.250   0.361  0.00  0.00     0.016 A 
ATOM     13  C   UNL d   1       3.184  -3.663  -0.337  0.00  0.00     0.003 A 
ATOM     14  C   UNL d   1       2.066  -2.829  -0.414  0.00  0.00     0.030 A 
BRANCH  11  15
ATOM     15  C   UNL d   1       5.574  -1.539   1.711  0.00  0.00     0.417 C 
ATOM     16  F   UNL d   1       5.493  -0.256   2.164  0.00  0.00    -0.166 F 
ATOM     17  F   UNL d   1       5.886  -2.302   2.795  0.00  0.00    -0.166 F 
ATOM     18  F   UNL d   1       6.666  -1.575   0.899  0.00  0.00    -0.166 F 
ENDBRANCH  11  15
ENDBRANCH   1   9
BRANCH   2  19
ATOM     19  C   UNL d   1       2.120   1.532  -0.154  0.00  0.00     0.032 A 
ATOM     20  C   UNL d   1       2.211   2.728   0.577  0.00  0.00     0.048 A 
ATOM     21 CL   UNL d   1       0.980   3.283   1.656  0.00  0.00    -0.083 Cl
ATOM     22  C   UNL d   1       3.366   3.514   0.489  0.00  0.00     0.025 A 
ATOM     23  C   UNL d   1       4.437   3.111  -0.310  0.00  0.00     0.002 A 
ATOM     24  C   UNL d   1       4.342   1.939  -1.055  0.00  0.00     0.001 A 
ATOM     25  C   UNL d   1       3.177   1.169  -1.004  0.00  0.00     0.017 A 
ENDBRANCH   2  19
TORSDOF 3
