REMARK  1 active torsions:
REMARK  status: ('A' for Active; 'I' for Inactive)
REMARK       I    between atoms: N_2  and  C_1 
REMARK       I    between atoms: N_3  and  C_1 
REMARK    1  A    between atoms: C_5  and  N_3 
ROOT
ATOM      1  C   UNL d   1       0.611  -0.115  -0.437  0.00  0.00     0.328 C 
ATOM      2  N   UNL d   1       0.350   1.266  -0.257  0.00  0.00    -0.299 N 
ATOM      3  N   UNL d   1       1.960  -0.342  -0.661  0.00  0.00    -0.302 N 
ATOM      4  C   UNL d   1      -0.739   1.738   0.577  0.00  0.00     0.051 C 
ATOM      5  O   UNL d   1      -0.244  -0.995  -0.378  0.00  0.00    -0.246 OA
ATOM      6  C   UNL d   1      -1.294   3.020   0.317  0.00  0.00    -0.030 C 
ATOM      7  C   UNL d   1      -1.237   1.029   1.698  0.00  0.00    -0.034 C 
ATOM      8  C   UNL d   1       0.761   2.127  -1.371  0.00  0.00     0.134 C 
ATOM      9  C   UNL d   1       0.727   3.595  -1.016  0.00  0.00     0.025 C 
ATOM     10  C   UNL d   1      -2.999   2.695   2.008  0.00  0.00     0.001 C 
ATOM     11  C   UNL d   1      -2.433   3.467   1.009  0.00  0.00     0.009 C 
ATOM     12  C   UNL d   1      -0.707   3.963  -0.702  0.00  0.00     0.042 C 
ATOM     13  C   UNL d   1      -2.392   1.498   2.364  0.00  0.00     0.009 C 
ATOM     14  C   UNL d   1      -0.599  -0.191   2.308  0.00  0.00     0.050 C 
ATOM     15  H   UNL d   1       2.597   0.419  -0.480  0.00  0.00     0.171 HD
ENDROOT
BRANCH   3  16
ATOM     16  C   UNL d   1       2.529  -1.585  -0.767  0.00  0.00     0.077 A 
ATOM     17  S   UNL d   1       4.229  -1.555  -0.707  0.00  0.00    -0.084 SA
ATOM     18  C   UNL d   1       4.312  -3.264  -0.761  0.00  0.00     0.052 A 
ATOM     19  C   UNL d   1       3.062  -3.834  -0.873  0.00  0.00     0.010 A 
ATOM     20  C   UNL d   1       2.022  -2.854  -0.892  0.00  0.00     0.038 A 
ENDBRANCH   3  16
TORSDOF 1
