REMARK  4 active torsions:
REMARK  status: ('A' for Active; 'I' for Inactive)
REMARK       I    between atoms: N_2  and  C_1 
REMARK       I    between atoms: N_4  and  C_1 
REMARK    1  A    between atoms: C_6  and  C_3 
REMARK    2  A    between atoms: C_10  and  N_4 
REMARK    3  A    between atoms: C_7  and  C_6 
REMARK       I    between atoms: N_9  and  C_7 
REMARK    4  A    between atoms: C_8  and  N_9 
ROOT
ATOM      1  C   UNL d   1       1.009   0.116   0.121  0.00  0.00     0.323 C 
ATOM      2  N   UNL d   1       0.360  -1.040   0.546  0.00  0.00    -0.318 N 
ATOM      3  C   UNL d   1       0.886  -1.875   1.679  0.00  0.00     0.189 C 
ATOM      4  N   UNL d   1       0.433   0.765  -0.955  0.00  0.00    -0.306 N 
ATOM      5  C   UNL d   1       1.207  -3.304   1.155  0.00  0.00     0.241 C 
ATOM      6  N   UNL d   1       0.279  -3.868   0.307  0.00  0.00    -0.358 N 
ATOM      7  O   UNL d   1       1.995   0.547   0.713  0.00  0.00    -0.247 OA
ATOM      8  O   UNL d   1       2.124  -4.010   1.568  0.00  0.00    -0.271 OA
ATOM      9  C   UNL d   1      -0.802  -1.669  -0.112  0.00  0.00     0.148 C 
ATOM     10  C   UNL d   1      -0.443  -3.057  -0.645  0.00  0.00     0.142 C 
ATOM     11  H   UNL d   1      -0.548   0.606  -1.085  0.00  0.00     0.171 HD
ATOM     12  H   UNL d   1       0.532  -4.811   0.037  0.00  0.00     0.162 HD
ENDROOT
BRANCH   3  13
ATOM     13  C   UNL d   1       2.059  -1.368   2.543  0.00  0.00     0.138 C 
BRANCH  13  14
ATOM     14  C   UNL d   1       2.218  -2.261   3.764  0.00  0.00     0.224 C 
ATOM     15  N   UNL d   1       3.524  -2.603   4.068  0.00  0.00    -0.326 N 
ATOM     16  H   UNL d   1       4.264  -2.090   3.599  0.00  0.00     0.169 HD
ATOM     17  O   UNL d   1       1.229  -2.609   4.411  0.00  0.00    -0.273 OA
BRANCH  15  18
ATOM     18  C   UNL d   1       3.959  -3.666   4.908  0.00  0.00     0.058 A 
ATOM     19  C   UNL d   1       3.075  -4.605   5.455  0.00  0.00     0.055 A 
ATOM     20  C   UNL d   1       3.556  -5.689   6.197  0.00  0.00     0.036 A 
ATOM     21 CL   UNL d   1       2.450  -6.832   6.857  0.00  0.00    -0.084 Cl
ATOM     22  C   UNL d   1       4.922  -5.863   6.400  0.00  0.00     0.026 A 
ATOM     23  C   UNL d   1       5.818  -4.927   5.882  0.00  0.00     0.028 A 
ATOM     24  C   UNL d   1       5.336  -3.833   5.149  0.00  0.00     0.060 A 
ATOM     25 CL   UNL d   1       6.494  -2.691   4.556  0.00  0.00    -0.082 Cl
ENDBRANCH  15  18
ENDBRANCH  13  14
ENDBRANCH   3  13
BRANCH   4  26
ATOM     26  C   UNL d   1       0.908   1.966  -1.550  0.00  0.00     0.075 A 
ATOM     27  C   UNL d   1       2.235   2.423  -1.509  0.00  0.00     0.146 A 
ATOM     28  C   UNL d   1       2.582   3.678  -2.006  0.00  0.00     0.086 A 
ATOM     29  F   UNL d   1       3.233   1.652  -1.059  0.00  0.00    -0.204 F 
ATOM     30  C   UNL d   1       1.608   4.469  -2.593  0.00  0.00     0.119 A 
ATOM     31  C   UNL d   1       0.303   4.012  -2.724  0.00  0.00     0.044 A 
ATOM     32  F   UNL d   1       1.930   5.684  -3.056  0.00  0.00    -0.206 F 
ATOM     33  C   UNL d   1      -0.045   2.758  -2.212  0.00  0.00     0.036 A 
ENDBRANCH   4  26
TORSDOF 4
