REMARK  4 active torsions:
REMARK  status: ('A' for Active; 'I' for Inactive)
REMARK    1  A    between atoms: N_3  and  C_1 
REMARK    2  A    between atoms: C_12  and  N_2 
REMARK       I    between atoms: C_7  and  N_3 
REMARK       I    between atoms: N_11  and  C_7 
REMARK    3  A    between atoms: C_8  and  C_10 
REMARK    4  A    between atoms: C_15  and  N_11 
ROOT
ATOM      1  N   UNL d   1      -0.865  -2.222   0.169  0.00  0.00    -0.293 N 
ATOM      2  C   UNL d   1      -0.909  -2.823  -1.065  0.00  0.00     0.326 C 
ATOM      3  N   UNL d   1      -0.346  -2.137  -2.112  0.00  0.00    -0.309 N 
ATOM      4  O   UNL d   1      -1.501  -3.894  -1.148  0.00  0.00    -0.247 OA
ATOM      5  H   UNL d   1      -1.636  -2.526   0.755  0.00  0.00     0.172 HD
ATOM      6  H   UNL d   1      -0.173  -1.153  -1.964  0.00  0.00     0.170 HD
ENDROOT
BRANCH   1   7
ATOM      7  C   UNL d   1      -0.216  -1.045   0.490  0.00  0.00     0.133 C 
ATOM      8  N   UNL d   1       1.126  -0.699   0.285  0.00  0.00    -0.240 N 
ATOM      9  N   UNL d   1       1.277   0.649   0.438  0.00  0.00    -0.297 N 
ATOM     10  C   UNL d   1       0.147   1.066   1.015  0.00  0.00     0.026 C 
ATOM     11  HN  UNL d   1       2.080   1.217   0.168  1.00  0.00     0.187 HD
ATOM     12  C   UNL d   1      -0.780   0.018   1.160  0.00  0.00     0.076 C 
ATOM     13  C   UNL d   1      -0.034   2.498   1.352  0.00  0.00     0.070 C 
BRANCH   8  14
ATOM     14  C   UNL d   1       2.280  -1.507   0.030  0.00  0.00     0.058 A 
ATOM     15  C   UNL d   1       2.223  -2.904  -0.040  0.00  0.00     0.031 A 
ATOM     16  C   UNL d   1       3.379  -3.650  -0.298  0.00  0.00     0.002 A 
ATOM     17  C   UNL d   1       4.609  -3.016  -0.444  0.00  0.00     0.000 A 
ATOM     18  C   UNL d   1       4.690  -1.632  -0.327  0.00  0.00     0.002 A 
ATOM     19  C   UNL d   1       3.534  -0.880  -0.098  0.00  0.00     0.031 A 
ENDBRANCH   8  14
ENDBRANCH   1   7
BRANCH   3  20
ATOM     20  C   UNL d   1      -0.145  -2.614  -3.426  0.00  0.00     0.037 A 
ATOM     21  C   UNL d   1      -0.263  -3.961  -3.778  0.00  0.00     0.045 A 
ATOM     22  C   UNL d   1       0.066  -4.406  -5.070  0.00  0.00     0.050 A 
ATOM     23  C   UNL d   1       0.465  -3.467  -6.032  0.00  0.00     0.016 A 
ATOM     24  C   UNL d   1       0.549  -2.116  -5.701  0.00  0.00     0.003 A 
ATOM     25  C   UNL d   1       0.257  -1.694  -4.401  0.00  0.00     0.029 A 
BRANCH  22  26
ATOM     26  C   UNL d   1       0.053  -5.877  -5.405  0.00  0.00     0.417 C 
ATOM     27  F   UNL d   1      -0.341  -6.676  -4.375  0.00  0.00    -0.166 F 
ATOM     28  F   UNL d   1      -0.773  -6.173  -6.446  0.00  0.00    -0.166 F 
ATOM     29  F   UNL d   1       1.286  -6.328  -5.770  0.00  0.00    -0.166 F 
ENDBRANCH  22  26
ENDBRANCH   3  20
TORSDOF 4
