REMARK  2 active torsions:
REMARK  status: ('A' for Active; 'I' for Inactive)
REMARK    1  A    between atoms: O_3  and  C_1 
REMARK    2  A    between atoms: C_6  and  O_3 
ROOT
ATOM      1  C   UNL d   1      -0.083  -0.991  -0.106  0.00  0.00     0.169 A 
ATOM      2  C   UNL d   1      -1.387  -0.699   0.270  0.00  0.00     0.096 A 
ATOM      3  C   UNL d   1      -2.239  -1.679   0.862  0.00  0.00     0.104 C 
ATOM      4  N   UNL d   1      -2.958  -2.448   1.357  0.00  0.00    -0.191 NA
ATOM      5  N   UNL d   1       0.750  -0.084  -0.681  0.00  0.00    -0.345 N 
ATOM      6  HN  UNL d   1       1.688  -0.344  -0.986  1.00  0.00     0.167 HD
ATOM      7  C   UNL d   1      -1.838   0.613   0.089  0.00  0.00     0.028 A 
ATOM      8  C   UNL d   1       0.289   1.173  -0.831  0.00  0.00     0.090 A 
ATOM      9  C   UNL d   1      -0.983   1.569  -0.459  0.00  0.00     0.019 A 
ENDROOT
BRANCH   1  10
ATOM     10  O   UNL d   1       0.404  -2.272   0.124  0.00  0.00    -0.291 OA
BRANCH  10  11
ATOM     11  C   UNL d   1       1.751  -2.400   0.406  0.00  0.00     0.099 A 
ATOM     12  C   UNL d   1       2.440  -3.512  -0.096  0.00  0.00     0.069 A 
ATOM     13  C   UNL d   1       3.794  -3.697   0.202  0.00  0.00     0.050 A 
ATOM     14 CL   UNL d   1       1.655  -4.682  -1.094  0.00  0.00    -0.081 Cl
ATOM     15  C   UNL d   1       4.457  -2.768   1.002  0.00  0.00     0.035 A 
ATOM     16  C   UNL d   1       3.780  -1.666   1.517  0.00  0.00     0.026 A 
ATOM     17 CL   UNL d   1       6.123  -2.987   1.370  0.00  0.00    -0.084 Cl
ATOM     18  C   UNL d   1       2.425  -1.494   1.238  0.00  0.00     0.041 A 
ENDBRANCH  10  11
ENDBRANCH   1  10
TORSDOF 2
