REMARK  3 active torsions:
REMARK  status: ('A' for Active; 'I' for Inactive)
REMARK    1  A    between atoms: N_3  and  S_1 
REMARK    2  A    between atoms: C_5  and  S_1 
REMARK    3  A    between atoms: C_2  and  N_3 
ROOT
ATOM      1  C   UNL d   1       1.902   0.002   2.659  0.00  0.00     0.070 A 
ATOM      2  C   UNL d   1       3.232   0.326   2.846  0.00  0.00     0.112 A 
ATOM      3  C   UNL d   1       3.954   1.355   2.157  0.00  0.00     0.109 C 
ATOM      4  S   UNL d   1       3.973  -0.641   4.046  0.00  0.00    -0.089 SA
ATOM      5  C   UNL d   1       1.482  -1.002   3.583  0.00  0.00     0.039 A 
ATOM      6  N   UNL d   1       4.543   2.213   1.647  0.00  0.00    -0.191 NA
ATOM      7  C   UNL d   1       2.515  -1.470   4.364  0.00  0.00     0.053 A 
ENDROOT
BRANCH   1   8
ATOM      8  N   UNL d   1       1.027   0.560   1.719  0.00  0.00    -0.279 N 
ATOM      9  H   UNL d   1       0.421   1.349   1.939  0.00  0.00     0.179 HD
BRANCH   8  10
ATOM     10  S   UNL d   1       0.908  -0.022   0.140  0.00  0.00     0.263 S 
ATOM     11  O   UNL d   1       2.239  -0.077  -0.418  0.00  0.00    -0.200 OA
ATOM     12  O   UNL d   1      -0.161   0.715  -0.499  0.00  0.00    -0.200 OA
BRANCH  10  13
ATOM     13  C   UNL d   1       0.333  -1.685   0.385  0.00  0.00     0.079 A 
ATOM     14  C   UNL d   1      -0.931  -1.909   0.940  0.00  0.00     0.026 A 
ATOM     15  C   UNL d   1      -1.358  -3.220   1.163  0.00  0.00     0.008 A 
ATOM     16  C   UNL d   1      -0.536  -4.305   0.821  0.00  0.00    -0.062 A 
ATOM     17  C   UNL d   1       0.723  -4.061   0.256  0.00  0.00     0.008 A 
ATOM     18  C   UNL d   1      -1.007  -5.713   1.046  0.00  0.00     0.048 C 
ATOM     19  C   UNL d   1       1.159  -2.755   0.036  0.00  0.00     0.026 A 
ENDBRANCH  10  13
ENDBRANCH   8  10
ENDBRANCH   1   8
TORSDOF 3
