REMARK  1 active torsions:
REMARK  status: ('A' for Active; 'I' for Inactive)
REMARK    1  A    between atoms: C_14  and  N_7 
ROOT
ATOM      1  C   UNL d   1       0.958  -0.910  -0.377  0.00  0.00     0.102 C 
ATOM      2  C   UNL d   1       0.503   0.393  -0.332  0.00  0.00     0.071 C 
ATOM      3  C   UNL d   1       2.302  -1.428  -0.299  0.00  0.00     0.268 C 
ATOM      4  S   UNL d   1      -0.322  -2.041  -0.412  0.00  0.00    -0.064 SA
ATOM      5  C   UNL d   1      -0.954   0.472  -0.312  0.00  0.00     0.032 A 
ATOM      6  C   UNL d   1      -1.482  -0.818  -0.221  0.00  0.00     0.088 A 
ATOM      7  N   UNL d   1       3.008  -0.798   0.718  0.00  0.00    -0.305 N 
ATOM      8  N   UNL d   1       1.310   1.516  -0.232  0.00  0.00    -0.324 N 
ATOM      9  N   UNL d   1      -2.764  -1.168  -0.002  0.00  0.00    -0.354 N 
ATOM     10  HN  UNL d   1      -3.065  -2.141   0.048  1.00  0.00     0.166 HD
ATOM     11  C   UNL d   1      -1.904   1.540  -0.252  0.00  0.00    -0.045 A 
ATOM     12  C   UNL d   1       2.579   1.652   0.227  0.00  0.00     0.240 C 
ATOM     13  C   UNL d   1       3.554   0.498   0.348  0.00  0.00     0.235 C 
ATOM     14  O   UNL d   1       2.728  -2.358  -0.984  0.00  0.00    -0.266 OA
ATOM     15  C   UNL d   1      -3.244   1.184  -0.003  0.00  0.00     0.032 A 
ATOM     16  C   UNL d   1      -3.615  -0.143   0.146  0.00  0.00     0.006 A 
ATOM     17  O   UNL d   1       2.971   2.814   0.423  0.00  0.00    -0.271 OA
ATOM     18  C   UNL d   1      -1.661   3.023  -0.387  0.00  0.00     0.049 C 
ATOM     19  C   UNL d   1      -5.034  -0.472   0.506  0.00  0.00     0.068 C 
ATOM     20  H   UNL d   1       0.861   2.415  -0.289  0.00  0.00     0.169 HD
ENDROOT
BRANCH   7  21
ATOM     21  C   UNL d   1       3.646  -1.534   1.765  0.00  0.00     0.038 A 
ATOM     22  C   UNL d   1       3.833  -2.921   1.701  0.00  0.00     0.030 A 
ATOM     23  C   UNL d   1       4.404  -3.623   2.769  0.00  0.00     0.009 A 
ATOM     24  C   UNL d   1       4.763  -2.961   3.945  0.00  0.00    -0.062 A 
ATOM     25  C   UNL d   1       4.559  -1.584   4.030  0.00  0.00     0.009 A 
ATOM     26  C   UNL d   1       5.356  -3.734   5.086  0.00  0.00     0.048 C 
ATOM     27  C   UNL d   1       4.010  -0.879   2.951  0.00  0.00     0.030 A 
ENDBRANCH   7  21
TORSDOF 1
