REMARK  7 active torsions:
REMARK  status: ('A' for Active; 'I' for Inactive)
REMARK    1  A    between atoms: C_18  and  C_9 
REMARK    2  A    between atoms: S_20  and  C_10 
REMARK    3  A    between atoms: N_13  and  C_16 
REMARK    4  A    between atoms: C_30  and  S_20 
REMARK    5  A    between atoms: C_23  and  C_30 
REMARK    6  A    between atoms: O_31  and  C_23 
REMARK    7  A    between atoms: C_34  and  O_31 
ROOT
ATOM      1  C   UNL d   1      -1.307   0.705  -0.053  0.00  0.00     0.120 A 
ATOM      2  C   UNL d   1      -1.343  -0.647  -0.019  0.00  0.00     0.067 A 
ATOM      3  N   UNL d   1      -2.445   1.490  -0.056  0.00  0.00    -0.322 N 
ATOM      4  HN  UNL d   1      -2.391   2.508  -0.088  1.00  0.00     0.169 HD
ATOM      5  C   UNL d   1      -2.658  -1.309  -0.058  0.00  0.00     0.258 A 
ATOM      6  C   UNL d   1       1.184  -0.702  -0.102  0.00  0.00     0.024 A 
ATOM      7  N   UNL d   1      -3.724  -0.470   0.011  0.00  0.00    -0.303 N 
ATOM      8  C   UNL d   1       1.153   0.646  -0.108  0.00  0.00     0.022 A 
ATOM      9  C   UNL d   1      -0.095  -1.517   0.033  0.00  0.00     0.099 A 
ATOM     10  C   UNL d   1      -3.579   0.874  -0.017  0.00  0.00     0.149 A 
ATOM     11  N   UNL d   1      -0.059   1.307  -0.060  0.00  0.00    -0.345 N 
ATOM     12  C   UNL d   1       2.488  -1.423  -0.210  0.00  0.00     0.159 C 
ATOM     13  C   UNL d   1       2.410   1.488  -0.108  0.00  0.00     0.067 C 
ATOM     14  C   UNL d   1       3.636   0.736   0.459  0.00  0.00    -0.036 C 
ATOM     15  C   UNL d   1       3.763  -0.608  -0.274  0.00  0.00     0.092 C 
ATOM     16  O   UNL d   1      -2.793  -2.520  -0.151  0.00  0.00    -0.267 OA
ATOM     17  O   UNL d   1       2.525  -2.647  -0.314  0.00  0.00    -0.293 OA
ATOM     18  C   UNL d   1       3.499   0.515   1.982  0.00  0.00     0.015 C 
ATOM     19  C   UNL d   1       4.910   1.566   0.220  0.00  0.00     0.015 C 
ATOM     20  H   UNL d   1      -4.648  -0.873  -0.011  0.00  0.00     0.171 HD
ATOM     21  H   UNL d   1      -0.079   2.320  -0.121  0.00  0.00     0.167 HD
ENDROOT
BRANCH   9  22
ATOM     22  C   UNL d   1      -0.044  -2.358   1.320  0.00  0.00    -0.045 A 
ATOM     23  C   UNL d   1      -0.002  -3.761   1.232  0.00  0.00     0.011 A 
ATOM     24  C   UNL d   1       0.132  -4.546   2.379  0.00  0.00     0.036 A 
ATOM     25  C   UNL d   1       0.214  -3.927   3.630  0.00  0.00     0.102 A 
ATOM     26  C   UNL d   1       0.160  -2.532   3.740  0.00  0.00     0.036 A 
ATOM     27  C   UNL d   1       0.029  -1.753   2.588  0.00  0.00     0.011 A 
BRANCH  25  28
ATOM     28  N   UNL d   1       0.366  -4.746   4.838  0.00  0.00    -0.116 N 
ATOM     29  O   UNL d   1       0.417  -5.977   4.702  0.00  0.00    -0.532 OA
ATOM     30  O   UNL d   1       0.436  -4.157   5.928  0.00  0.00    -0.532 OA
ENDBRANCH  25  28
ENDBRANCH   9  22
BRANCH  10  31
ATOM     31  S   UNL d   1      -5.125   1.670   0.074  0.00  0.00    -0.084 SA
BRANCH  31  32
ATOM     32  C   UNL d   1      -4.840   3.149  -0.929  0.00  0.00     0.193 C 
BRANCH  32  33
ATOM     33  C   UNL d   1      -4.377   2.835  -2.332  0.00  0.00     0.268 C 
ATOM     34  O   UNL d   1      -4.187   1.720  -2.804  0.00  0.00    -0.264 OA
BRANCH  33  35
ATOM     35  O   UNL d   1      -4.133   4.010  -2.983  0.00  0.00    -0.321 OA
BRANCH  35  36
ATOM     36  C   UNL d   1      -3.258   3.905  -4.116  0.00  0.00     0.174 C 
ATOM     37  C   UNL d   1      -1.838   4.060  -3.603  0.00  0.00     0.034 C 
ENDBRANCH  35  36
ENDBRANCH  33  35
ENDBRANCH  32  33
ENDBRANCH  31  32
ENDBRANCH  10  31
TORSDOF 7
