REMARK  7 active torsions:
REMARK  status: ('A' for Active; 'I' for Inactive)
REMARK    1  A    between atoms: C_8  and  N_1 
REMARK    2  A    between atoms: C_2  and  C_3 
REMARK    3  A    between atoms: C_4  and  N_12 
REMARK    4  A    between atoms: N_7  and  C_4 
REMARK    5  A    between atoms: C_5  and  N_7 
REMARK    6  A    between atoms: C_6  and  C_10 
REMARK       I    between atoms: N_9  and  C_6 
REMARK    7  A    between atoms: N_12  and  N_9 
ROOT
ATOM      1  N   UNL d   1      -1.388   1.460  -6.033  0.00  0.00    -0.273 N 
ATOM      2  H   UNL d   1      -1.814   1.490  -5.105  0.00  0.00     0.189 HD
ENDROOT
BRANCH   1   3
ATOM      3  C   UNL d   1      -2.229   1.508  -7.122  0.00  0.00     0.191 C 
ATOM      4  S   UNL d   1      -1.946   0.767  -8.594  0.00  0.00    -0.039 SA
BRANCH   3   5
ATOM      5  N   UNL d   1      -3.391   2.216  -6.932  0.00  0.00    -0.331 N 
ATOM      6  H   UNL d   1      -4.155   1.938  -7.545  0.00  0.00     0.168 HD
BRANCH   5   7
ATOM      7  C   UNL d   1      -3.549   3.446  -6.243  0.00  0.00     0.049 A 
ATOM      8  C   UNL d   1      -4.830   3.936  -5.936  0.00  0.00     0.074 A 
ATOM      9  C   UNL d   1      -4.952   5.215  -5.347  0.00  0.00     0.018 A 
ATOM     10  C   UNL d   1      -3.831   5.999  -5.079  0.00  0.00     0.001 A 
ATOM     11  C   UNL d   1      -2.569   5.512  -5.383  0.00  0.00     0.002 A 
ATOM     12  C   UNL d   1      -2.429   4.248  -5.959  0.00  0.00     0.030 A 
BRANCH   8  13
ATOM     13  C   UNL d   1      -6.101   3.153  -6.145  0.00  0.00     0.419 C 
ATOM     14  F   UNL d   1      -5.941   1.982  -6.825  0.00  0.00    -0.166 F 
ATOM     15  F   UNL d   1      -6.703   2.821  -4.968  0.00  0.00    -0.166 F 
ATOM     16  F   UNL d   1      -7.032   3.855  -6.850  0.00  0.00    -0.166 F 
ENDBRANCH   8  13
ENDBRANCH   5   7
ENDBRANCH   3   5
ENDBRANCH   1   3
BRANCH   1  17
ATOM     17  N   UNL d   1      -0.148   0.812  -6.091  0.00  0.00    -0.264 N 
ATOM     18  C   UNL d   1       0.342   0.231  -4.938  0.00  0.00     0.270 C 
ATOM     19  O   UNL d   1      -0.331   0.100  -3.922  0.00  0.00    -0.266 OA
ATOM     20  H   UNL d   1       0.338   0.850  -6.979  0.00  0.00     0.190 HD
BRANCH  18  21
ATOM     21  C   UNL d   1       1.773  -0.205  -4.958  0.00  0.00     0.036 A 
ATOM     22  C   UNL d   1       2.224  -1.048  -3.933  0.00  0.00     0.053 A 
ATOM     23  C   UNL d   1       3.580  -1.410  -3.876  0.00  0.00     0.103 A 
ATOM     24  C   UNL d   1       4.485  -0.937  -4.833  0.00  0.00     0.036 A 
ATOM     25  C   UNL d   1       4.034  -0.099  -5.852  0.00  0.00     0.003 A 
ATOM     26  C   UNL d   1       2.687   0.269  -5.912  0.00  0.00     0.017 A 
BRANCH  23  27
ATOM     27  N   UNL d   1       4.061  -2.276  -2.794  0.00  0.00    -0.116 N 
ATOM     28  O   UNL d   1       3.229  -2.709  -1.985  0.00  0.00    -0.532 OA
ATOM     29  O   UNL d   1       5.276  -2.524  -2.753  0.00  0.00    -0.532 OA
ENDBRANCH  23  27
ENDBRANCH  18  21
ENDBRANCH   1  17
TORSDOF 7
