REMARK  5 active torsions:
REMARK  status: ('A' for Active; 'I' for Inactive)
REMARK    1  A    between atoms: C_10  and  N_2 
REMARK    2  A    between atoms: C_5  and  N_6 
REMARK    3  A    between atoms: N_6  and  C_21 
REMARK    4  A    between atoms: C_7  and  C_11 
REMARK    5  A    between atoms: C_21  and  C_12 
ROOT
ATOM      1  N   UNL d   1       0.997   0.510  -0.517  0.00  0.00    -0.197 NA
ATOM      2  C   UNL d   1       2.126   0.635  -0.280  0.00  0.00     0.060 C 
ATOM      3  C   UNL d   1       3.554   0.788   0.006  0.00  0.00     0.143 C 
ENDROOT
BRANCH   3   4
ATOM      4  C   UNL d   1       4.358   0.750  -1.294  0.00  0.00     0.136 C 
BRANCH   4   5
ATOM      5  N   UNL d   1       5.781   1.035  -1.056  0.00  0.00    -0.384 N 
ATOM      6  C   UNL d   1       6.415   1.958  -1.999  0.00  0.00     0.149 C 
BRANCH   5   7
ATOM      7  C   UNL d   1       6.595   0.172  -0.331  0.00  0.00     0.029 A 
ATOM      8  C   UNL d   1       6.303  -1.191  -0.159  0.00  0.00     0.030 A 
ATOM      9  C   UNL d   1       7.109  -2.028   0.628  0.00  0.00     0.015 A 
ATOM     10  C   UNL d   1       8.236  -1.508   1.260  0.00  0.00    -0.021 A 
ATOM     11  C   UNL d   1       8.560  -0.164   1.098  0.00  0.00     0.015 A 
ATOM     12  C   UNL d   1       7.744   0.659   0.315  0.00  0.00     0.030 A 
BRANCH  10  13
ATOM     13  C   UNL d   1       9.068  -2.388   2.108  0.00  0.00     0.099 C 
ATOM     14  N   UNL d   1      10.180  -1.967   2.617  0.00  0.00    -0.365 N 
ATOM     15  HN  UNL d   1      10.486  -1.010   2.439  1.00  0.00     0.165 HD
BRANCH  14  16
ATOM     16  C   UNL d   1      10.969  -2.812   3.412  0.00  0.00     0.032 A 
ATOM     17  C   UNL d   1      11.138  -4.181   3.173  0.00  0.00     0.031 A 
ATOM     18  C   UNL d   1      12.005  -4.943   3.965  0.00  0.00     0.026 A 
ATOM     19  C   UNL d   1      12.723  -4.333   4.990  0.00  0.00     0.034 A 
ATOM     20  C   UNL d   1      12.574  -2.972   5.238  0.00  0.00     0.026 A 
ATOM     21 CL   UNL d   1      13.814  -5.263   5.941  0.00  0.00    -0.084 Cl
ATOM     22  C   UNL d   1      11.699  -2.220   4.449  0.00  0.00     0.031 A 
ENDBRANCH  14  16
ENDBRANCH  10  13
ENDBRANCH   5   7
ENDBRANCH   4   5
ENDBRANCH   3   4
TORSDOF 5
