REMARK  8 active torsions:
REMARK  status: ('A' for Active; 'I' for Inactive)
REMARK    1  A    between atoms: C_13  and  N_1 
REMARK    2  A    between atoms: N_3  and  C_2 
REMARK    3  A    between atoms: C_16  and  C_6 
REMARK    4  A    between atoms: N_7  and  C_11 
REMARK    5  A    between atoms: C_12  and  N_21 
REMARK    6  A    between atoms: C_26  and  C_16 
REMARK    7  A    between atoms: N_21  and  N_19 
REMARK    8  A    between atoms: C_30  and  C_29 
ROOT
ATOM      1  N   UNL d   1      -4.290  -2.074  -0.486  0.00  0.00    -0.315 N 
ATOM      2  HN  UNL d   1      -4.701  -1.509  -1.230  1.00  0.00     0.185 HD
ATOM      3  C   UNL d   1      -3.320  -1.648   0.259  0.00  0.00     0.087 C 
ENDROOT
BRANCH   1   4
ATOM      4  N   UNL d   1      -4.721  -3.334  -0.201  0.00  0.00    -0.299 N 
ATOM      5  H   UNL d   1      -4.094  -3.982   0.297  0.00  0.00     0.187 HD
BRANCH   4   6
ATOM      6  C   UNL d   1      -5.569  -3.967  -1.146  0.00  0.00     0.081 A 
ATOM      7  C   UNL d   1      -5.741  -5.368  -1.227  0.00  0.00     0.133 A 
ATOM      8  C   UNL d   1      -6.592  -5.946  -2.193  0.00  0.00     0.074 A 
ATOM      9  C   UNL d   1      -7.300  -5.117  -3.071  0.00  0.00     0.105 A 
ATOM     10  C   UNL d   1      -7.188  -3.729  -2.977  0.00  0.00     0.038 A 
ATOM     11  C   UNL d   1      -6.337  -3.170  -2.019  0.00  0.00     0.036 A 
BRANCH   7  12
ATOM     12  N   UNL d   1      -5.023  -6.281  -0.320  0.00  0.00    -0.113 N 
ATOM     13  O   UNL d   1      -5.233  -7.496  -0.442  0.00  0.00    -0.532 OA
ATOM     14  O   UNL d   1      -4.251  -5.791   0.518  0.00  0.00    -0.532 OA
ENDBRANCH   7  12
BRANCH   9  15
ATOM     15  N   UNL d   1      -8.162  -5.707  -4.104  0.00  0.00    -0.116 N 
ATOM     16  O   UNL d   1      -8.194  -6.942  -4.186  0.00  0.00    -0.532 OA
ATOM     17  O   UNL d   1      -8.798  -4.934  -4.833  0.00  0.00    -0.532 OA
ENDBRANCH   9  15
ENDBRANCH   4   6
ENDBRANCH   1   4
BRANCH   3  18
ATOM     18  C   UNL d   1      -2.769  -0.258   0.072  0.00  0.00     0.125 C 
BRANCH  18  19
ATOM     19  C   UNL d   1      -1.302  -0.308  -0.139  0.00  0.00     0.119 A 
ATOM     20  N   UNL d   1      -0.447   0.777  -0.340  0.00  0.00    -0.229 N 
ATOM     21  N   UNL d   1       0.793   0.269  -0.570  0.00  0.00     0.000 NA
ATOM     22  N   UNL d   1       0.695  -1.044  -0.471  0.00  0.00    -0.007 NA
ATOM     23  N   UNL d   1      -0.585  -1.416  -0.205  0.00  0.00    -0.273 N 
ATOM     24  HN  UNL d   1      -0.927  -2.369  -0.080  1.00  0.00     0.185 HD
BRANCH  20  25
ATOM     25  C   UNL d   1      -0.648   2.190  -0.344  0.00  0.00     0.056 A 
ATOM     26  C   UNL d   1       0.425   3.025  -0.711  0.00  0.00     0.032 A 
ATOM     27  C   UNL d   1       0.273   4.416  -0.763  0.00  0.00     0.009 A 
ATOM     28  C   UNL d   1      -0.952   5.007  -0.446  0.00  0.00    -0.058 A 
ATOM     29  C   UNL d   1      -2.006   4.184  -0.039  0.00  0.00     0.009 A 
ATOM     30  C   UNL d   1      -1.861   2.791   0.006  0.00  0.00     0.032 A 
BRANCH  28  31
ATOM     31  C   UNL d   1      -1.142   6.499  -0.545  0.00  0.00     0.034 C 
ATOM     32  C   UNL d   1      -0.825   7.221   0.752  0.00  0.00     0.010 C 
ENDBRANCH  28  31
ENDBRANCH  20  25
ENDBRANCH  18  19
ENDBRANCH   3  18
TORSDOF 8
