REMARK  2 active torsions:
REMARK  status: ('A' for Active; 'I' for Inactive)
REMARK    1  A    between atoms: C_7  and  C_2 
REMARK    2  A    between atoms: C_8  and  C_4 
ROOT
ATOM      1  C   UNL d   1      -0.467  -0.394   0.021  0.00  0.00     0.124 A 
ATOM      2  C   UNL d   1       0.274  -1.524  -0.025  0.00  0.00     0.009 A 
ATOM      3  C   UNL d   1       0.232   0.926   0.070  0.00  0.00     0.267 A 
ATOM      4  C   UNL d   1       2.354  -0.247   0.038  0.00  0.00     0.053 A 
ATOM      5  N   UNL d   1       1.601   0.895   0.080  0.00  0.00    -0.321 N 
ATOM      6  C   UNL d   1       1.733  -1.435  -0.010  0.00  0.00     0.045 A 
ATOM      7  C   UNL d   1      -1.889  -0.375   0.011  0.00  0.00     0.106 C 
ATOM      8  N   UNL d   1      -3.051  -0.395   0.002  0.00  0.00    -0.191 NA
ATOM      9  O   UNL d   1      -0.375   1.992   0.090  0.00  0.00    -0.266 OA
ATOM     10  H   UNL d   1       2.067   1.795   0.109  0.00  0.00     0.169 HD
ENDROOT
BRANCH   2  11
ATOM     11  C   UNL d   1      -0.387  -2.794  -0.124  0.00  0.00     0.016 A 
ATOM     12  S   UNL d   1      -0.819  -3.670   1.293  0.00  0.00    -0.101 SA
ATOM     13  C   UNL d   1      -1.534  -4.928   0.383  0.00  0.00     0.050 A 
ATOM     14  C   UNL d   1      -1.420  -4.715  -0.972  0.00  0.00     0.008 A 
ATOM     15  C   UNL d   1      -0.748  -3.493  -1.264  0.00  0.00     0.020 A 
ENDBRANCH   2  11
BRANCH   4  16
ATOM     16  C   UNL d   1       3.781  -0.145   0.044  0.00  0.00     0.031 A 
ATOM     17  S   UNL d   1       4.570   1.252  -0.606  0.00  0.00    -0.100 SA
ATOM     18  C   UNL d   1       6.124   0.642  -0.262  0.00  0.00     0.050 A 
ATOM     19  C   UNL d   1       6.073  -0.593   0.337  0.00  0.00     0.008 A 
ATOM     20  C   UNL d   1       4.732  -1.043   0.512  0.00  0.00     0.021 A 
ENDBRANCH   4  16
TORSDOF 2
