REMARK  3 active torsions:
REMARK  status: ('A' for Active; 'I' for Inactive)
REMARK    1  A    between atoms: C_2  and  C_1 
REMARK    2  A    between atoms: C_14  and  N_3 
REMARK    3  A    between atoms: C_9  and  C_4 
ROOT
ATOM      1  C   UNL d   1      -0.412  -2.700  -0.073  0.00  0.00     0.065 A 
ATOM      2  C   UNL d   1      -1.237  -3.272  -1.018  0.00  0.00     0.127 A 
ATOM      3  N   UNL d   1      -0.521  -4.934   0.332  0.00  0.00    -0.271 N 
ATOM      4  HN  UNL d   1      -0.371  -5.857   0.739  1.00  0.00     0.194 HD
ATOM      5  O   UNL d   1      -1.294  -4.618  -0.772  0.00  0.00    -0.236 OA
ATOM      6  C   UNL d   1      -0.015  -3.774   0.749  0.00  0.00     0.132 A 
ENDROOT
BRANCH   1   7
ATOM      7  C   UNL d   1      -0.067  -1.266   0.068  0.00  0.00     0.153 C 
ATOM      8  N   UNL d   1       1.064  -0.703   0.641  0.00  0.00    -0.224 N 
ATOM      9  N   UNL d   1       0.803   0.605   0.871  0.00  0.00     0.001 NA
ATOM     10  N   UNL d   1      -0.341   0.859   0.253  0.00  0.00    -0.007 NA
ATOM     11  N   UNL d   1      -0.878  -0.284  -0.273  0.00  0.00    -0.269 N 
ATOM     12  HN  UNL d   1      -1.736  -0.361  -0.820  1.00  0.00     0.185 HD
BRANCH   8  13
ATOM     13  C   UNL d   1       2.359  -1.240   0.849  0.00  0.00     0.056 A 
ATOM     14  C   UNL d   1       2.813  -2.341   0.107  0.00  0.00     0.033 A 
ATOM     15  C   UNL d   1       4.098  -2.848   0.320  0.00  0.00     0.026 A 
ATOM     16  C   UNL d   1       4.933  -2.253   1.262  0.00  0.00     0.034 A 
ATOM     17  C   UNL d   1       4.502  -1.139   1.980  0.00  0.00     0.026 A 
ATOM     18 CL   UNL d   1       6.508  -2.887   1.526  0.00  0.00    -0.084 Cl
ATOM     19  C   UNL d   1       3.220  -0.622   1.767  0.00  0.00     0.033 A 
ENDBRANCH   8  13
ENDBRANCH   1   7
BRANCH   2  20
ATOM     20  C   UNL d   1      -1.946  -2.827  -2.212  0.00  0.00     0.040 A 
ATOM     21  C   UNL d   1      -3.142  -3.436  -2.620  0.00  0.00     0.132 A 
ATOM     22  C   UNL d   1      -3.818  -3.024  -3.765  0.00  0.00     0.085 A 
ATOM     23  F   UNL d   1      -3.678  -4.436  -1.903  0.00  0.00    -0.205 F 
ATOM     24  C   UNL d   1      -3.295  -1.985  -4.520  0.00  0.00     0.119 A 
ATOM     25  C   UNL d   1      -2.108  -1.362  -4.153  0.00  0.00     0.043 A 
ATOM     26  F   UNL d   1      -3.938  -1.576  -5.620  0.00  0.00    -0.206 F 
ATOM     27  C   UNL d   1      -1.432  -1.788  -3.006  0.00  0.00     0.020 A 
ENDBRANCH   2  20
TORSDOF 3
