REMARK  6 active torsions:
REMARK  status: ('A' for Active; 'I' for Inactive)
REMARK    1  A    between atoms: N_2  and  C_1 
REMARK    2  A    between atoms: N_4  and  C_1 
REMARK       I    between atoms: C_3  and  N_2 
REMARK    3  A    between atoms: C_10  and  C_3 
REMARK    4  A    between atoms: C_7  and  N_4 
REMARK    5  A    between atoms: C_5  and  O_8 
REMARK    6  A    between atoms: O_8  and  C_16 
ROOT
ATOM      1  N   UNL d   1       0.244   1.028   0.546  0.00  0.00    -0.328 N 
ATOM      2  C   UNL d   1      -1.218   1.011   0.429  0.00  0.00     0.159 C 
ENDROOT
BRANCH   1   3
ATOM      3  C   UNL d   1       0.960  -0.141   0.279  0.00  0.00     0.181 C 
ATOM      4  S   UNL d   1       2.320  -0.250  -0.715  0.00  0.00    -0.040 SA
BRANCH   3   5
ATOM      5  N   UNL d   1       0.476  -1.350   0.748  0.00  0.00    -0.299 N 
ATOM      6  C   UNL d   1      -0.367  -1.613   1.819  0.00  0.00     0.257 C 
ATOM      7  O   UNL d   1      -0.799  -0.762   2.585  0.00  0.00    -0.267 OA
ATOM      8  H   UNL d   1       0.930  -2.140   0.304  0.00  0.00     0.171 HD
BRANCH   6   9
ATOM      9  C   UNL d   1      -0.774  -3.025   2.051  0.00  0.00     0.032 A 
ATOM     10  C   UNL d   1       0.020  -4.127   1.712  0.00  0.00     0.017 A 
ATOM     11  C   UNL d   1      -0.415  -5.419   2.029  0.00  0.00     0.001 A 
ATOM     12  C   UNL d   1      -1.635  -5.615   2.680  0.00  0.00     0.000 A 
ATOM     13  C   UNL d   1      -2.433  -4.524   3.011  0.00  0.00     0.001 A 
ATOM     14  C   UNL d   1      -2.003  -3.236   2.698  0.00  0.00     0.017 A 
ENDBRANCH   6   9
ENDBRANCH   3   5
ENDBRANCH   1   3
BRANCH   1  15
ATOM     15  C   UNL d   1       0.869   2.306   0.782  0.00  0.00     0.036 A 
ATOM     16  C   UNL d   1       0.213   3.515   0.494  0.00  0.00     0.032 A 
ATOM     17  C   UNL d   1       0.826   4.759   0.714  0.00  0.00     0.039 A 
ATOM     18  C   UNL d   1       2.117   4.820   1.223  0.00  0.00     0.078 A 
ATOM     19  C   UNL d   1       2.748   3.634   1.597  0.00  0.00     0.039 A 
ATOM     20  C   UNL d   1       2.134   2.393   1.375  0.00  0.00     0.032 A 
BRANCH  18  21
ATOM     21  O   UNL d   1       2.829   5.956   1.454  0.00  0.00    -0.255 OA
BRANCH  21  22
ATOM     22  C   UNL d   1       2.662   7.056   0.571  0.00  0.00     0.530 C 
ATOM     23  F   UNL d   1       2.002   6.757  -0.568  0.00  0.00    -0.144 F 
ATOM     24  F   UNL d   1       2.002   8.049   1.208  0.00  0.00    -0.144 F 
ATOM     25  F   UNL d   1       3.885   7.519   0.227  0.00  0.00    -0.144 F 
ENDBRANCH  21  22
ENDBRANCH  18  21
ENDBRANCH   1  15
TORSDOF 6
