REMARK  3 active torsions:
REMARK  status: ('A' for Active; 'I' for Inactive)
REMARK    1  A    between atoms: C_9  and  C_3 
REMARK    2  A    between atoms: C_10  and  C_5 
REMARK    3  A    between atoms: O_16  and  C_13 
ROOT
ATOM      1  N   UNL d   1      -0.449   1.576  -0.784  0.00  0.00    -0.358 N 
ATOM      2  HN  UNL d   1      -0.273   2.132  -1.620  1.00  0.00     0.166 HD
ATOM      3  C   UNL d   1      -1.584   1.702  -0.162  0.00  0.00     0.021 C 
ATOM      4  S   UNL d   1      -1.177  -1.553  -0.390  0.00  0.00    -0.118 SA
ATOM      5  C   UNL d   1      -2.374  -0.580   0.625  0.00  0.00     0.091 C 
ATOM      6  C   UNL d   1      -1.974   0.845   1.030  0.00  0.00     0.078 C 
ATOM      7  C   UNL d   1       0.541   0.687  -0.326  0.00  0.00     0.049 A 
ATOM      8  C   UNL d   1       0.362  -0.694  -0.115  0.00  0.00     0.028 A 
ATOM      9  C   UNL d   1       1.816   1.237  -0.128  0.00  0.00     0.031 A 
ATOM     10  C   UNL d   1       1.458  -1.485   0.270  0.00  0.00     0.021 A 
ATOM     11  C   UNL d   1       2.717  -0.918   0.466  0.00  0.00     0.002 A 
ATOM     12  C   UNL d   1       2.897   0.447   0.271  0.00  0.00     0.002 A 
ENDROOT
BRANCH   3  13
ATOM     13  C   UNL d   1      -2.531   2.759  -0.646  0.00  0.00    -0.013 A 
ATOM     14  C   UNL d   1      -2.546   3.088  -2.008  0.00  0.00     0.016 A 
ATOM     15  C   UNL d   1      -3.365   4.120  -2.485  0.00  0.00     0.037 A 
ATOM     16  C   UNL d   1      -4.163   4.842  -1.599  0.00  0.00     0.068 A 
ATOM     17  C   UNL d   1      -4.167   4.502  -0.245  0.00  0.00     0.037 A 
ATOM     18  C   UNL d   1      -3.346   3.477   0.234  0.00  0.00     0.016 A 
BRANCH  16  19
ATOM     19  O   UNL d   1      -4.999   5.867  -1.945  0.00  0.00    -0.356 OA
ATOM     20  C   UNL d   1      -4.561   6.667  -3.039  0.00  0.00     0.210 C 
ENDBRANCH  16  19
ENDBRANCH   3  13
BRANCH   5  21
ATOM     21  C   UNL d   1      -3.770  -0.612   0.007  0.00  0.00    -0.044 A 
ATOM     22  C   UNL d   1      -3.981  -0.411  -1.369  0.00  0.00     0.008 A 
ATOM     23  C   UNL d   1      -5.268  -0.423  -1.907  0.00  0.00     0.001 A 
ATOM     24  C   UNL d   1      -6.368  -0.622  -1.079  0.00  0.00     0.000 A 
ATOM     25  C   UNL d   1      -6.181  -0.810   0.290  0.00  0.00     0.001 A 
ATOM     26  C   UNL d   1      -4.892  -0.804   0.830  0.00  0.00     0.008 A 
ENDBRANCH   5  21
TORSDOF 3
