REMARK  1 active torsions:
REMARK  status: ('A' for Active; 'I' for Inactive)
REMARK    1  A    between atoms: N_12  and  C_5 
ROOT
ATOM      1  C   UNL d   1       1.231  -0.809  -0.004  0.00  0.00     0.091 A 
ATOM      2  C   UNL d   1       0.747   0.469   0.010  0.00  0.00     0.049 A 
ATOM      3  N   UNL d   1       3.025   1.213   0.007  0.00  0.00    -0.319 N 
ATOM      4  HN  UNL d   1       3.714   1.965   0.006  1.00  0.00     0.170 HD
ATOM      5  C   UNL d   1       1.762   1.516   0.028  0.00  0.00     0.116 A 
ATOM      6  N   UNL d   1       2.552  -1.126  -0.014  0.00  0.00    -0.327 N 
ATOM      7  C   UNL d   1       3.460  -0.093  -0.015  0.00  0.00     0.178 A 
ATOM      8  S   UNL d   1       0.094  -2.036  -0.010  0.00  0.00    -0.075 SA
ATOM      9  C   UNL d   1      -0.697   0.433  -0.017  0.00  0.00    -0.028 A 
ATOM     10  C   UNL d   1      -1.162  -0.880  -0.000  0.00  0.00    -0.008 A 
ATOM     11  S   UNL d   1       5.090  -0.505  -0.037  0.00  0.00    -0.040 SA
ATOM     12  C   UNL d   1      -1.663   1.585  -0.030  0.00  0.00     0.041 C 
ATOM     13  C   UNL d   1      -2.600  -1.299  -0.015  0.00  0.00     0.047 C 
ATOM     14  C   UNL d   1      -3.097   1.153  -0.372  0.00  0.00     0.005 C 
ATOM     15  C   UNL d   1      -3.502  -0.121   0.375  0.00  0.00     0.005 C 
ATOM     16  H   UNL d   1       2.867  -2.085  -0.032  0.00  0.00     0.169 HD
ENDROOT
BRANCH   5  17
ATOM     17  N   UNL d   1       1.288   2.797   0.065  0.00  0.00    -0.380 N 
ATOM     18  C   UNL d   1       2.136   3.963   0.135  0.00  0.00     0.147 C 
ATOM     19  H   UNL d   1       0.329   2.955   0.329  0.00  0.00     0.160 HD
ENDBRANCH   5  17
TORSDOF 1
