REMARK  6 active torsions:
REMARK  status: ('A' for Active; 'I' for Inactive)
REMARK    1  A    between atoms: N_3  and  C_1 
REMARK    2  A    between atoms: S_11  and  C_1 
REMARK    3  A    between atoms: CA_4  and  N_3 
REMARK    4  A    between atoms: C_7  and  CA_4 
REMARK    5  A    between atoms: C_12  and  CA_4 
REMARK    6  A    between atoms: OXT_13  and  C_7 
ROOT
ATOM      1  C   UNL d   1      -0.355  -2.051   1.032  0.00  0.00     0.098 C 
ATOM      2  C   UNL d   1       0.873  -2.634   1.131  0.00  0.00     0.157 C 
ATOM      3  C   UNL d   1       1.794  -2.370   2.191  0.00  0.00     0.113 C 
ATOM      4  C   UNL d   1       1.299  -3.583   0.157  0.00  0.00     0.113 C 
ATOM      5  N   UNL d   1       2.561  -2.166   3.039  0.00  0.00    -0.191 NA
ATOM      6  N   UNL d   1       1.597  -4.350  -0.661  0.00  0.00    -0.191 NA
ENDROOT
BRANCH   1   7
ATOM      7  N   UNL d   1      -1.254  -2.361   0.003  0.00  0.00    -0.365 N 
ATOM      8  H   UNL d   1      -0.896  -2.921  -0.770  0.00  0.00     0.161 HD
BRANCH   7   9
ATOM      9  CA  UNL d   1      -2.604  -1.817  -0.227  0.00  0.00     0.214 C 
BRANCH   9  10
ATOM     10  C   UNL d   1      -2.636  -1.199  -1.649  0.00  0.00     0.168 C 
ATOM     11  O   UNL d   1      -2.343  -0.032  -1.885  0.00  0.00    -0.648 OA
BRANCH  10  12
ATOM     12  OXT UNL d   1      -2.911  -2.071  -2.654  0.00  0.00    -0.775 OA
ATOM     13  HXT UNL d   1      -3.154  -2.972  -2.357  0.00  0.00     0.167 HD
ENDBRANCH  10  12
ENDBRANCH   9  10
BRANCH   9  14
ATOM     14  C   UNL d   1      -3.690  -2.876  -0.026  0.00  0.00    -0.025 A 
ATOM     15  C   UNL d   1      -3.421  -4.182   0.414  0.00  0.00     0.010 A 
ATOM     16  C   UNL d   1      -4.450  -5.119   0.548  0.00  0.00     0.001 A 
ATOM     17  C   UNL d   1      -5.764  -4.766   0.251  0.00  0.00     0.000 A 
ATOM     18  C   UNL d   1      -6.055  -3.470  -0.164  0.00  0.00     0.001 A 
ATOM     19  C   UNL d   1      -5.031  -2.531  -0.291  0.00  0.00     0.010 A 
ENDBRANCH   9  14
ENDBRANCH   7   9
ENDBRANCH   1   7
BRANCH   1  20
ATOM     20  S   UNL d   1      -0.825  -0.903   2.310  0.00  0.00    -0.115 SA
ATOM     21  C   UNL d   1      -0.192   0.639   1.594  0.00  0.00     0.097 C 
ENDBRANCH   1  20
TORSDOF 6
