REMARK  4 active torsions:
REMARK  status: ('A' for Active; 'I' for Inactive)
REMARK    1  A    between atoms: C_4  and  C_2 
REMARK    2  A    between atoms: C_8  and  C_2 
REMARK    3  A    between atoms: C_6  and  C_4 
REMARK    4  A    between atoms: C_11  and  C_6 
ROOT
ATOM      1  C   UNL d   1       2.210  -0.592  -0.698  0.00  0.00     0.000 C 
ATOM      2  C   UNL d   1       2.514  -1.351  -1.780  0.00  0.00    -0.030 C 
ATOM      3  C   UNL d   1       1.254  -1.133   0.303  0.00  0.00     0.189 C 
ATOM      4  C   UNL d   1      -0.114  -0.571   0.232  0.00  0.00     0.021 A 
ATOM      5  O   UNL d   1       1.552  -2.010   1.102  0.00  0.00    -0.287 OA
ATOM      6  C   UNL d   1      -0.356   0.799   0.430  0.00  0.00    -0.044 A 
ATOM      7  C   UNL d   1       2.788   0.760  -0.347  0.00  0.00     0.043 C 
ATOM      8  C   UNL d   1      -1.155  -1.445  -0.092  0.00  0.00     0.016 A 
ATOM      9  C   UNL d   1       1.779   1.909  -0.308  0.00  0.00     0.009 C 
ATOM     10  C   UNL d   1       0.746   1.755   0.805  0.00  0.00     0.040 C 
ATOM     11  C   UNL d   1      -1.663   1.276   0.273  0.00  0.00     0.008 A 
ATOM     12  C   UNL d   1      -2.447  -0.949  -0.263  0.00  0.00     0.001 A 
ATOM     13  C   UNL d   1      -2.700   0.409  -0.083  0.00  0.00     0.001 A 
ENDROOT
BRANCH   2  14
ATOM     14  C   UNL d   1       2.086  -2.787  -2.025  0.00  0.00     0.124 C 
BRANCH  14  15
ATOM     15  C   UNL d   1       0.814  -2.964  -2.858  0.00  0.00     0.163 C 
ATOM     16  O   UNL d   1       0.240  -2.030  -3.417  0.00  0.00    -0.292 OA
BRANCH  15  17
ATOM     17  C   UNL d   1       0.233  -4.346  -2.973  0.00  0.00     0.010 A 
ATOM     18  C   UNL d   1       0.909  -5.486  -2.517  0.00  0.00     0.015 A 
ATOM     19  C   UNL d   1       0.305  -6.747  -2.598  0.00  0.00     0.001 A 
ATOM     20  C   UNL d   1      -0.969  -6.880  -3.140  0.00  0.00     0.000 A 
ATOM     21  C   UNL d   1      -1.642  -5.756  -3.619  0.00  0.00     0.001 A 
ATOM     22  C   UNL d   1      -1.042  -4.497  -3.541  0.00  0.00     0.015 A 
ENDBRANCH  15  17
ENDBRANCH  14  15
ENDBRANCH   2  14
BRANCH   2  23
ATOM     23  C   UNL d   1       3.424  -0.780  -2.792  0.00  0.00    -0.029 A 
ATOM     24  C   UNL d   1       4.811  -0.924  -2.657  0.00  0.00     0.012 A 
ATOM     25  C   UNL d   1       5.672  -0.213  -3.494  0.00  0.00     0.001 A 
ATOM     26  C   UNL d   1       5.153   0.635  -4.472  0.00  0.00     0.000 A 
ATOM     27  C   UNL d   1       3.773   0.757  -4.632  0.00  0.00     0.001 A 
ATOM     28  C   UNL d   1       2.910   0.050  -3.796  0.00  0.00     0.012 A 
ENDBRANCH   2  23
TORSDOF 4
