REMARK  4 active torsions:
REMARK  status: ('A' for Active; 'I' for Inactive)
REMARK    1  A    between atoms: C_2  and  C_1 
REMARK    2  A    between atoms: C_4  and  C_2 
REMARK    3  A    between atoms: S_8  and  C_3 
REMARK    4  A    between atoms: C_9  and  S_8 
ROOT
ATOM      1  C   UNL d   1       1.013   0.037   0.021  0.00  0.00     0.062 C 
ATOM      2  C   UNL d   1       2.332  -0.186  -0.038  0.00  0.00     0.054 C 
ENDROOT
BRANCH   1   3
ATOM      3  C   UNL d   1       0.339   0.124   1.339  0.00  0.00     0.182 C 
ATOM      4  O   UNL d   1       0.850  -0.316   2.362  0.00  0.00    -0.288 OA
BRANCH   3   5
ATOM      5  C   UNL d   1      -1.019   0.735   1.373  0.00  0.00     0.014 A 
ATOM      6  C   UNL d   1      -1.915   0.321   2.364  0.00  0.00     0.017 A 
ATOM      7  C   UNL d   1      -3.190   0.891   2.444  0.00  0.00     0.019 A 
ATOM      8  C   UNL d   1      -3.562   1.883   1.537  0.00  0.00     0.006 A 
ATOM      9  C   UNL d   1      -2.674   2.307   0.549  0.00  0.00     0.019 A 
ATOM     10  I   UNL d   1      -5.444   2.755   1.671  0.00  0.00    -0.045 I 
ATOM     11  C   UNL d   1      -1.400   1.736   0.468  0.00  0.00     0.017 A 
ENDBRANCH   3   5
ENDBRANCH   1   3
BRANCH   2  12
ATOM     12  S   UNL d   1       3.142  -0.306  -1.566  0.00  0.00    -0.102 SA
BRANCH  12  13
ATOM     13  C   UNL d   1       3.926  -1.891  -1.336  0.00  0.00     0.004 A 
ATOM     14  C   UNL d   1       3.165  -3.045  -1.110  0.00  0.00     0.020 A 
ATOM     15  C   UNL d   1       3.792  -4.281  -0.931  0.00  0.00     0.025 A 
ATOM     16  C   UNL d   1       5.181  -4.365  -0.991  0.00  0.00     0.034 A 
ATOM     17  C   UNL d   1       5.947  -3.226  -1.235  0.00  0.00     0.025 A 
ATOM     18 CL   UNL d   1       5.954  -5.884  -0.764  0.00  0.00    -0.084 Cl
ATOM     19  C   UNL d   1       5.319  -1.990  -1.411  0.00  0.00     0.020 A 
ENDBRANCH  12  13
ENDBRANCH   2  12
TORSDOF 4
