REMARK  2 active torsions:
REMARK  status: ('A' for Active; 'I' for Inactive)
REMARK    1  A    between atoms: C_6  and  N_1 
REMARK    2  A    between atoms: C_7  and  C_6 
REMARK       I    between atoms: N_8  and  C_7 
ROOT
ATOM      1  N   UNL d   1       3.866  -1.115   0.059  0.00  0.00    -0.271 N 
ATOM      2  C   UNL d   1       4.342  -1.521   1.270  0.00  0.00     0.262 C 
ATOM      3  C   UNL d   1       4.134  -2.033  -0.919  0.00  0.00     0.262 C 
ATOM      4  C   UNL d   1       4.976  -3.064  -0.301  0.00  0.00     0.048 A 
ATOM      5  C   UNL d   1       5.155  -2.707   1.024  0.00  0.00     0.048 A 
ATOM      6  O   UNL d   1       4.092  -1.076   2.378  0.00  0.00    -0.267 OA
ATOM      7  O   UNL d   1       3.742  -2.069  -2.071  0.00  0.00    -0.267 OA
ATOM      8  C   UNL d   1       5.542  -4.213  -0.824  0.00  0.00     0.018 A 
ATOM      9  C   UNL d   1       5.967  -3.429   1.878  0.00  0.00     0.018 A 
ATOM     10  C   UNL d   1       6.590  -4.567   1.358  0.00  0.00     0.001 A 
ATOM     11  C   UNL d   1       6.359  -4.971   0.026  0.00  0.00     0.001 A 
ENDROOT
BRANCH   1  12
ATOM     12  C   UNL d   1       3.033   0.065  -0.103  0.00  0.00     0.238 C 
BRANCH  12  13
ATOM     13  C   UNL d   1       3.860   1.368  -0.047  0.00  0.00     0.238 C 
ATOM     14  N   UNL d   1       3.145   2.580  -0.064  0.00  0.00    -0.351 N 
ATOM     15  C   UNL d   1       3.897   3.830  -0.208  0.00  0.00     0.126 C 
ATOM     16  C   UNL d   1       1.684   2.637  -0.027  0.00  0.00     0.126 C 
ATOM     17  C   UNL d   1       4.032   4.593   1.108  0.00  0.00     0.020 C 
ATOM     18  C   UNL d   1       2.793   5.394   1.504  0.00  0.00     0.002 C 
ATOM     19  C   UNL d   1       1.512   4.576   1.633  0.00  0.00     0.002 C 
ATOM     20  C   UNL d   1       1.043   3.985   0.305  0.00  0.00     0.020 C 
ATOM     21  O   UNL d   1       5.093   1.340  -0.029  0.00  0.00    -0.272 OA
ENDBRANCH  12  13
ENDBRANCH   1  12
TORSDOF 2
