REMARK  3 active torsions:
REMARK  status: ('A' for Active; 'I' for Inactive)
REMARK    1  A    between atoms: C_3  and  C_1 
REMARK    2  A    between atoms: C_10  and  C_2 
REMARK    3  A    between atoms: C_15  and  C_11 
ROOT
ATOM      1  C   UNL d   1      -2.625   1.554   0.067  0.00  0.00     0.157 A 
ATOM      2  N   UNL d   1      -2.950   2.331  -1.015  0.00  0.00    -0.317 N 
ATOM      3  HN  UNL d   1      -2.454   2.436  -1.900  1.00  0.00     0.169 HD
ATOM      4  N   UNL d   1      -3.486   1.619   1.090  0.00  0.00    -0.241 N 
ATOM      5  HN  UNL d   1      -3.451   1.124   1.982  1.00  0.00     0.196 HD
ATOM      6  C   UNL d   1      -4.065   2.905  -0.619  0.00  0.00     0.182 A 
ATOM      7  O   UNL d   1      -4.444   2.527   0.639  0.00  0.00    -0.217 OA
ENDROOT
BRANCH   1   8
ATOM      8  C   UNL d   1      -1.430   0.717   0.046  0.00  0.00     0.119 A 
ATOM      9  C   UNL d   1      -0.256   0.906  -0.645  0.00  0.00     0.191 A 
ATOM     10  O   UNL d   1       0.558  -0.170  -0.366  0.00  0.00    -0.291 OA
ATOM     11  C   UNL d   1      -0.178  -0.942   0.488  0.00  0.00     0.121 A 
ATOM     12  N   UNL d   1      -1.366  -0.453   0.776  0.00  0.00    -0.335 N 
ATOM     13  C   UNL d   1       0.446  -2.196   0.952  0.00  0.00     0.098 C 
ATOM     14  HN  UNL d   1      -2.075  -0.846   1.394  1.00  0.00     0.168 HD
BRANCH   9  15
ATOM     15  C   UNL d   1       0.278   1.951  -1.532  0.00  0.00     0.442 C 
ATOM     16  F   UNL d   1      -0.525   3.035  -1.660  0.00  0.00    -0.164 F 
ATOM     17  F   UNL d   1       1.471   2.423  -1.077  0.00  0.00    -0.164 F 
ATOM     18  F   UNL d   1       0.503   1.481  -2.787  0.00  0.00    -0.164 F 
ENDBRANCH   9  15
ENDBRANCH   1   8
BRANCH   6  19
ATOM     19  C   UNL d   1      -4.938   3.836  -1.323  0.00  0.00     0.017 A 
ATOM     20  C   UNL d   1      -4.635   4.216  -2.641  0.00  0.00     0.017 A 
ATOM     21  C   UNL d   1      -5.476   5.081  -3.348  0.00  0.00     0.025 A 
ATOM     22  C   UNL d   1      -6.626   5.578  -2.740  0.00  0.00     0.034 A 
ATOM     23  C   UNL d   1      -6.937   5.225  -1.430  0.00  0.00     0.025 A 
ATOM     24 CL   UNL d   1      -7.673   6.627  -3.613  0.00  0.00    -0.084 Cl
ATOM     25  C   UNL d   1      -6.096   4.359  -0.725  0.00  0.00     0.017 A 
ENDBRANCH   6  19
TORSDOF 3
