REMARK  4 active torsions:
REMARK  status: ('A' for Active; 'I' for Inactive)
REMARK    1  A    between atoms: C_7  and  C_1 
REMARK    2  A    between atoms: N_9  and  C_5 
REMARK    3  A    between atoms: O_10  and  C_7 
REMARK    4  A    between atoms: C_12  and  O_10 
ROOT
ATOM      1  C   UNL d   1      -0.941  -1.180   0.043  0.00  0.00     0.105 A 
ATOM      2  N   UNL d   1      -0.431   1.100   0.107  0.00  0.00    -0.339 N 
ATOM      3  HN  UNL d   1      -0.607   2.105   0.113  1.00  0.00     0.168 HD
ATOM      4  C   UNL d   1      -1.416   0.124   0.060  0.00  0.00     0.030 A 
ATOM      5  C   UNL d   1       0.755   0.551   0.144  0.00  0.00     0.143 A 
ATOM      6  S   UNL d   1       0.775  -1.157   0.117  0.00  0.00    -0.046 SA
ATOM      7  C   UNL d   1      -2.831   0.588   0.005  0.00  0.00     0.070 C 
ENDROOT
BRANCH   1   8
ATOM      8  C   UNL d   1      -1.623  -2.449  -0.075  0.00  0.00     0.302 C 
ATOM      9  O   UNL d   1      -1.093  -3.549  -0.173  0.00  0.00    -0.259 OA
BRANCH   8  10
ATOM     10  O   UNL d   1      -2.968  -2.245  -0.156  0.00  0.00    -0.317 OA
BRANCH  10  11
ATOM     11  C   UNL d   1      -3.731  -3.322  -0.715  0.00  0.00     0.174 C 
ATOM     12  C   UNL d   1      -3.737  -3.155  -2.223  0.00  0.00     0.034 C 
ENDBRANCH  10  11
ENDBRANCH   8  10
ENDBRANCH   1   8
BRANCH   5  13
ATOM     13  N   UNL d   1       1.890   1.266   0.176  0.00  0.00    -0.380 N 
ATOM     14  H   UNL d   1       2.740   0.819  -0.143  0.00  0.00     0.158 HD
ATOM     15  H   UNL d   1       1.799   2.238  -0.098  0.00  0.00     0.158 HD
ENDBRANCH   5  13
TORSDOF 4
