REMARK  4 active torsions:
REMARK  status: ('A' for Active; 'I' for Inactive)
REMARK    1  A    between atoms: S_7  and  C_3 
REMARK    2  A    between atoms: C_4  and  S_7 
REMARK    3  A    between atoms: C_21  and  N_5 
REMARK    4  A    between atoms: C_22  and  C_10 
ROOT
ATOM      1  N   UNL d   1      -0.260   0.454  -0.933  0.00  0.00    -0.287 N 
ATOM      2  C   UNL d   1      -0.454  -0.939  -1.002  0.00  0.00     0.135 A 
ATOM      3  C   UNL d   1      -1.131   1.318  -0.178  0.00  0.00     0.093 A 
ATOM      4  C   UNL d   1      -1.537  -1.527  -0.291  0.00  0.00     0.096 A 
ATOM      5  N   UNL d   1       0.451  -1.543  -1.742  0.00  0.00    -0.339 N 
ATOM      6  HN  UNL d   1       0.526  -2.543  -1.930  1.00  0.00     0.167 HD
ATOM      7  C   UNL d   1      -2.193   0.740   0.430  0.00  0.00    -0.016 A 
ATOM      8  C   UNL d   1      -2.379  -0.716   0.367  0.00  0.00    -0.025 A 
ATOM      9  C   UNL d   1       0.877   0.697  -1.728  0.00  0.00     0.068 A 
ATOM     10  C   UNL d   1       1.264  -0.557  -2.203  0.00  0.00     0.061 A 
ATOM     11  C   UNL d   1      -1.705  -2.946  -0.275  0.00  0.00     0.104 C 
ATOM     12  N   UNL d   1      -1.887  -4.090  -0.221  0.00  0.00    -0.191 NA
ATOM     13  C   UNL d   1      -3.281   1.282   1.320  0.00  0.00     0.042 C 
ATOM     14  C   UNL d   1      -3.551  -1.121   1.215  0.00  0.00     0.041 C 
ATOM     15  C   UNL d   1       1.603   1.843  -2.103  0.00  0.00     0.032 A 
ATOM     16  C   UNL d   1       2.370  -0.696  -3.058  0.00  0.00     0.032 A 
ATOM     17  C   UNL d   1      -3.745   0.078   2.128  0.00  0.00     0.009 C 
ATOM     18  C   UNL d   1       2.700   1.692  -2.965  0.00  0.00     0.002 A 
ATOM     19  C   UNL d   1       3.081   0.441  -3.439  0.00  0.00     0.002 A 
ENDROOT
BRANCH   3  20
ATOM     20  S   UNL d   1      -0.661   2.985   0.052  0.00  0.00    -0.033 SA
BRANCH  20  21
ATOM     21  C   UNL d   1      -2.126   3.912   0.057  0.00  0.00     0.174 A 
ATOM     22  N   UNL d   1      -2.851   4.361  -1.038  0.00  0.00    -0.275 N 
ATOM     23  C   UNL d   1      -3.913   5.091  -0.471  0.00  0.00     0.139 A 
ATOM     24  N   UNL d   1      -3.801   5.032   0.847  0.00  0.00    -0.282 N 
ATOM     25  N   UNL d   1      -2.669   4.348   1.169  0.00  0.00    -0.277 N 
ATOM     26  HN  UNL d   1      -4.458   5.436   1.515  1.00  0.00     0.188 HD
ATOM     27  HN  UNL d   1      -2.306   4.200   2.111  1.00  0.00     0.189 HD
BRANCH  22  28
ATOM     28  C   UNL d   1      -2.577   4.147  -2.417  0.00  0.00     0.043 A 
ATOM     29  C   UNL d   1      -3.617   3.855  -3.309  0.00  0.00     0.030 A 
ATOM     30  C   UNL d   1      -3.359   3.769  -4.678  0.00  0.00     0.002 A 
ATOM     31  C   UNL d   1      -2.061   3.927  -5.157  0.00  0.00     0.000 A 
ATOM     32  C   UNL d   1      -1.017   4.178  -4.270  0.00  0.00     0.002 A 
ATOM     33  C   UNL d   1      -1.274   4.302  -2.904  0.00  0.00     0.030 A 
ENDBRANCH  22  28
BRANCH  23  34
ATOM     34  C   UNL d   1      -4.998   5.833  -1.143  0.00  0.00     0.010 C 
ATOM     35  C   UNL d   1      -6.255   5.903  -0.519  0.00  0.00     0.015 C 
ATOM     36  C   UNL d   1      -7.354   6.471  -1.171  0.00  0.00     0.001 C 
ATOM     37  C   UNL d   1      -7.213   6.979  -2.458  0.00  0.00     0.000 C 
ATOM     38  C   UNL d   1      -5.957   6.997  -3.057  0.00  0.00     0.001 C 
ATOM     39  C   UNL d   1      -4.850   6.470  -2.383  0.00  0.00     0.015 C 
ENDBRANCH  23  34
ENDBRANCH  20  21
ENDBRANCH   3  20
TORSDOF 4
