REMARK  3 active torsions:
REMARK  status: ('A' for Active; 'I' for Inactive)
REMARK    1  A    between atoms: N_2  and  C_1 
REMARK    2  A    between atoms: O_12  and  C_3 
REMARK    3  A    between atoms: O_13  and  C_4 
ROOT
ATOM      1  C   UNL d   1      -0.676   1.250  -0.004  0.00  0.00     0.204 A 
ATOM      2  C   UNL d   1      -1.329   0.036  -0.006  0.00  0.00     0.179 A 
ATOM      3  C   UNL d   1       0.701   1.199  -0.001  0.00  0.00     0.179 A 
ATOM      4  N   UNL d   1       1.384   0.041   0.001  0.00  0.00    -0.325 N 
ATOM      5  HN  UNL d   1       2.404   0.026   0.003  1.00  0.00     0.169 HD
ATOM      6  N   UNL d   1      -0.675  -1.139  -0.005  0.00  0.00    -0.325 N 
ATOM      7  HN  UNL d   1      -1.178  -2.027  -0.007  1.00  0.00     0.169 HD
ATOM      8  C   UNL d   1       0.667  -1.094  -0.001  0.00  0.00     0.081 A 
ATOM      9  C   UNL d   1       1.408  -2.394   0.002  0.00  0.00     0.089 C 
ENDROOT
BRANCH   1  10
ATOM     10  N   UNL d   1      -1.391   2.497  -0.004  0.00  0.00    -0.107 N 
ATOM     11  O   UNL d   1      -2.630   2.454  -0.005  0.00  0.00    -0.531 OA
ATOM     12  O   UNL d   1      -0.726   3.544  -0.003  0.00  0.00    -0.531 OA
ENDBRANCH   1  10
BRANCH   2  13
ATOM     13  O   UNL d   1      -2.684  -0.128  -0.009  0.00  0.00    -0.344 OA
ATOM     14  H   UNL d   1      -3.134   0.739  -0.009  0.00  0.00     0.219 HD
ENDBRANCH   2  13
BRANCH   3  15
ATOM     15  O   UNL d   1       1.528   2.284   0.002  0.00  0.00    -0.344 OA
ATOM     16  H   UNL d   1       1.008   3.111   0.001  0.00  0.00     0.219 HD
ENDBRANCH   3  15
TORSDOF 3
