REMARK  4 active torsions:
REMARK  status: ('A' for Active; 'I' for Inactive)
REMARK    1  A    between atoms: C_3  and  C_1 
REMARK    2  A    between atoms: C_7  and  CA_2 
REMARK       I    between atoms: N_4  and  C_3 
REMARK    3  A    between atoms: C_5  and  N_6 
REMARK    4  A    between atoms: OXT_22  and  C_7 
ROOT
ATOM      1  C   UNL d   1      -1.502  -2.413   0.030  0.00  0.00     0.273 C 
ATOM      2  N   UNL d   1      -1.083  -3.735  -0.102  0.00  0.00    -0.344 N 
ATOM      3  N   UNL d   1       0.114  -6.286  -0.548  0.00  0.00    -0.214 N 
ATOM      4  O   UNL d   1      -1.125  -1.679   0.946  0.00  0.00    -0.266 OA
ATOM      5  C   UNL d   1      -0.200  -4.318   0.922  0.00  0.00     0.146 C 
ATOM      6  C   UNL d   1      -1.708  -4.735  -0.988  0.00  0.00     0.146 C 
ATOM      7  C   UNL d   1       0.801  -5.353   0.354  0.00  0.00     0.161 C 
ATOM      8  C   UNL d   1      -0.655  -5.654  -1.623  0.00  0.00     0.161 C 
ENDROOT
BRANCH   1   9
ATOM      9  C   UNL d   1      -2.396  -1.804  -0.989  0.00  0.00     0.134 A 
ATOM     10  CA  UNL d   1      -3.470  -0.985  -0.662  0.00  0.00     0.139 A 
ATOM     11  N   UNL d   1      -4.269  -0.464  -1.649  0.00  0.00    -0.357 N 
ATOM     12  C   UNL d   1      -3.946  -0.763  -2.927  0.00  0.00     0.105 A 
ATOM     13  HN  UNL d   1      -5.073   0.125  -1.428  1.00  0.00     0.165 HD
ATOM     14  C   UNL d   1      -2.854  -1.546  -3.241  0.00  0.00     0.105 A 
ATOM     15  N   UNL d   1      -2.051  -2.072  -2.291  0.00  0.00    -0.358 N 
ATOM     16  HN  UNL d   1      -1.235  -2.636  -2.528  1.00  0.00     0.165 HD
BRANCH  10  17
ATOM     17  C   UNL d   1      -3.951  -0.675   0.721  0.00  0.00     0.196 C 
ATOM     18  O   UNL d   1      -5.146  -0.639   0.981  0.00  0.00    -0.645 OA
BRANCH  17  19
ATOM     19  OXT UNL d   1      -3.029  -0.325   1.644  0.00  0.00    -0.772 OA
ATOM     20  HXT UNL d   1      -2.086  -0.545   1.449  0.00  0.00     0.167 HD
ENDBRANCH  17  19
ENDBRANCH  10  17
ENDBRANCH   1   9
BRANCH   3  21
ATOM     21  C   UNL d   1       0.725  -7.493  -0.824  0.00  0.00     0.679 A 
ATOM     22  N   UNL d   1       0.397  -8.143  -1.956  0.00  0.00    -0.202 N 
ATOM     23  C   UNL d   1       0.897  -9.378  -2.144  0.00  0.00     0.107 A 
ATOM     24  HN  UNL d   1      -0.213  -7.711  -2.651  1.00  0.00     0.183 HD
ATOM     25  C   UNL d   1       1.714 -10.007  -1.243  0.00  0.00     0.035 A 
ATOM     26  C   UNL d   1       2.014  -9.270  -0.128  0.00  0.00     0.107 A 
ATOM     27  N   UNL d   1       1.546  -8.026   0.095  0.00  0.00    -0.202 N 
ATOM     28  HN  UNL d   1       1.807  -7.507   0.933  1.00  0.00     0.183 HD
ENDBRANCH   3  21
TORSDOF 4
