REMARK  4 active torsions:
REMARK  status: ('A' for Active; 'I' for Inactive)
REMARK    1  A    between atoms: C_6  and  C_1 
REMARK    2  A    between atoms: C_22  and  C_5 
REMARK       I    between atoms: C_7  and  N_14 
REMARK       I    between atoms: N_12  and  C_7 
REMARK    3  A    between atoms: C_15  and  N_12 
REMARK    4  A    between atoms: N_14  and  C_22 
ROOT
ATOM      1  C   UNL d   1       4.828   1.491   0.034  0.00  0.00     0.321 C 
ATOM      2  N   UNL d   1       5.014   2.838  -0.150  0.00  0.00    -0.309 N 
ATOM      3  N   UNL d   1       5.977   0.754  -0.174  0.00  0.00    -0.337 N 
ATOM      4  O   UNL d   1       3.779   0.943   0.355  0.00  0.00    -0.247 OA
ATOM      5  H   UNL d   1       5.871   3.107  -0.610  0.00  0.00     0.170 HD
ATOM      6  H   UNL d   1       6.880   1.198  -0.088  0.00  0.00     0.164 HD
ENDROOT
BRANCH   3   7
ATOM      7  C   UNL d   1       5.913  -0.639   0.203  0.00  0.00     0.181 C 
BRANCH   7   8
ATOM      8  C   UNL d   1       7.229  -1.343   0.112  0.00  0.00     0.034 A 
ATOM      9  N   UNL d   1       8.427  -0.668  -0.132  0.00  0.00    -0.351 N 
ATOM     10  C   UNL d   1       9.430  -1.531  -0.177  0.00  0.00     0.091 A 
ATOM     11  HN  UNL d   1       8.516   0.341  -0.256  1.00  0.00     0.166 HD
ATOM     12  S   UNL d   1       8.998  -3.170   0.138  0.00  0.00    -0.081 SA
ATOM     13  C   UNL d   1       7.369  -2.705   0.306  0.00  0.00     0.078 A 
BRANCH  10  14
ATOM     14  C   UNL d   1      10.797  -1.128  -0.420  0.00  0.00     0.038 A 
ATOM     15  S   UNL d   1      11.985  -2.194  -1.070  0.00  0.00    -0.099 SA
ATOM     16  C   UNL d   1      13.207  -0.999  -1.005  0.00  0.00     0.050 A 
ATOM     17  C   UNL d   1      12.731   0.192  -0.512  0.00  0.00     0.008 A 
ATOM     18  C   UNL d   1      11.343   0.121  -0.189  0.00  0.00     0.022 A 
ENDBRANCH  10  14
ENDBRANCH   7   8
ENDBRANCH   3   7
BRANCH   2  19
ATOM     19  C   UNL d   1       4.096   3.869   0.167  0.00  0.00     0.039 A 
ATOM     20  C   UNL d   1       2.874   3.651   0.816  0.00  0.00     0.069 A 
ATOM     21  C   UNL d   1       2.032   4.718   1.153  0.00  0.00     0.104 A 
ATOM     22  O   UNL d   1       0.841   4.356   1.736  0.00  0.00    -0.348 OA
ATOM     23  C   UNL d   1       2.441   6.033   0.908  0.00  0.00     0.102 A 
ATOM     24  C   UNL d   1      -0.249   5.204   1.369  0.00  0.00     0.178 C 
ATOM     25  C   UNL d   1      -0.322   6.415   2.284  0.00  0.00     0.053 C 
ATOM     26  C   UNL d   1       1.055   7.009   2.528  0.00  0.00     0.178 C 
ATOM     27  O   UNL d   1       1.769   7.163   1.298  0.00  0.00    -0.348 OA
ATOM     28  C   UNL d   1       3.631   6.257   0.213  0.00  0.00     0.042 A 
ATOM     29  C   UNL d   1       4.451   5.183  -0.157  0.00  0.00     0.032 A 
ENDBRANCH   2  19
TORSDOF 4
