REMARK  4 active torsions:
REMARK  status: ('A' for Active; 'I' for Inactive)
REMARK    1  A    between atoms: C_10  and  C_1 
REMARK    2  A    between atoms: O_7  and  C_3 
REMARK    3  A    between atoms: C_8  and  O_7 
REMARK    4  A    between atoms: C_11  and  C_8 
ROOT
ATOM      1  C   UNL d   1      -1.440   2.518   0.015  0.00  0.00     0.077 A 
ATOM      2  C   UNL d   1       0.060   2.400   0.067  0.00  0.00     0.262 A 
ATOM      3  C   UNL d   1      -2.200   1.405  -0.034  0.00  0.00     0.108 A 
ATOM      4  N   UNL d   1       0.628   1.137   0.009  0.00  0.00    -0.312 N 
ATOM      5  C   UNL d   1      -1.558   0.070  -0.101  0.00  0.00     0.026 A 
ATOM      6  C   UNL d   1      -0.157  -0.035  -0.040  0.00  0.00     0.057 A 
ATOM      7  O   UNL d   1       0.760   3.412   0.167  0.00  0.00    -0.267 OA
ATOM      8  C   UNL d   1       0.463  -1.299  -0.027  0.00  0.00    -0.030 A 
ATOM      9  C   UNL d   1       2.073   1.066   0.157  0.00  0.00     0.133 C 
ATOM     10  C   UNL d   1      -2.321  -1.106  -0.199  0.00  0.00     0.017 A 
ATOM     11  C   UNL d   1       2.724  -0.233  -0.277  0.00  0.00     0.025 C 
ATOM     12  C   UNL d   1      -1.709  -2.359  -0.197  0.00  0.00     0.002 A 
ATOM     13  C   UNL d   1      -0.329  -2.456  -0.100  0.00  0.00     0.009 A 
ATOM     14  C   UNL d   1       1.944  -1.455   0.163  0.00  0.00     0.042 C 
ENDROOT
BRANCH   3  15
ATOM     15  O   UNL d   1      -3.618   1.423  -0.053  0.00  0.00    -0.273 OA
BRANCH  15  16
ATOM     16  C   UNL d   1      -4.157   1.281   1.197  0.00  0.00     0.298 C 
ATOM     17  O   UNL d   1      -3.568   1.253   2.268  0.00  0.00    -0.259 OA
BRANCH  16  18
ATOM     18  C   UNL d   1      -5.639   1.179   1.138  0.00  0.00     0.040 A 
ATOM     19  C   UNL d   1      -6.382   2.060   1.927  0.00  0.00     0.020 A 
ATOM     20  C   UNL d   1      -7.769   1.911   2.034  0.00  0.00     0.043 A 
ATOM     21  C   UNL d   1      -8.395   0.867   1.364  0.00  0.00     0.116 A 
ATOM     22  C   UNL d   1      -7.672  -0.019   0.578  0.00  0.00     0.043 A 
ATOM     23  F   UNL d   1      -9.720   0.698   1.503  0.00  0.00    -0.206 F 
ATOM     24  C   UNL d   1      -6.283   0.135   0.453  0.00  0.00     0.020 A 
ENDBRANCH  16  18
ENDBRANCH  15  16
ENDBRANCH   3  15
BRANCH   1  25
ATOM     25  C   UNL d   1      -1.957   3.903   0.048  0.00  0.00    -0.018 A 
ATOM     26  C   UNL d   1      -2.240   4.524   1.273  0.00  0.00     0.012 A 
ATOM     27  C   UNL d   1      -2.396   5.912   1.335  0.00  0.00     0.001 A 
ATOM     28  C   UNL d   1      -2.277   6.685   0.180  0.00  0.00     0.000 A 
ATOM     29  C   UNL d   1      -2.034   6.070  -1.047  0.00  0.00     0.001 A 
ATOM     30  C   UNL d   1      -1.881   4.684  -1.115  0.00  0.00     0.012 A 
ENDBRANCH   1  25
TORSDOF 4
