REMARK  4 active torsions:
REMARK  status: ('A' for Active; 'I' for Inactive)
REMARK    1  A    between atoms: N_2  and  S_1 
REMARK    2  A    between atoms: C_3  and  S_1 
REMARK    3  A    between atoms: C_8  and  C_14 
REMARK    4  A    between atoms: O_23  and  C_19 
ROOT
ATOM      1  C   UNL d   1       0.537  -0.575  -1.419  0.00  0.00     0.115 A 
ATOM      2  C   UNL d   1       0.699  -1.943  -1.713  0.00  0.00     0.042 A 
ATOM      3  C   UNL d   1       0.229  -2.486  -2.917  0.00  0.00    -0.006 A 
ATOM      4  C   UNL d   1      -0.079   0.266  -2.346  0.00  0.00     0.091 A 
ATOM      5  C   UNL d   1      -0.365  -1.625  -3.849  0.00  0.00     0.016 A 
ATOM      6  C   UNL d   1      -0.525  -0.265  -3.562  0.00  0.00     0.039 A 
ENDROOT
BRANCH   1   7
ATOM      7  S   UNL d   1       0.992  -0.041   0.206  0.00  0.00     0.285 S 
ATOM      8  O   UNL d   1       0.209   1.105   0.619  0.00  0.00    -0.198 OA
ATOM      9  O   UNL d   1       1.091  -1.222   1.050  0.00  0.00    -0.198 OA
BRANCH   7  10
ATOM     10  N   UNL d   1       2.626   0.536   0.074  0.00  0.00    -0.181 N 
ATOM     11  N   UNL d   1       3.304   0.683  -1.101  0.00  0.00    -0.289 N 
ATOM     12  C   UNL d   1       4.468   1.234  -0.744  0.00  0.00     0.025 A 
ATOM     13  HN  UNL d   1       2.993   0.429  -2.039  1.00  0.00     0.188 HD
ATOM     14  C   UNL d   1       5.482   1.610  -1.765  0.00  0.00     0.070 C 
ATOM     15  C   UNL d   1       4.564   1.403   0.651  0.00  0.00     0.053 A 
ATOM     16  C   UNL d   1       3.366   0.954   1.168  0.00  0.00     0.044 A 
ATOM     17  C   UNL d   1       2.920   0.918   2.585  0.00  0.00     0.071 C 
ENDBRANCH   7  10
ENDBRANCH   1   7
BRANCH   4  18
ATOM     18  O   UNL d   1      -0.420   1.563  -2.099  0.00  0.00    -0.354 OA
ATOM     19  C   UNL d   1       0.670   2.472  -2.248  0.00  0.00     0.210 C 
ENDBRANCH   4  18
BRANCH   3  20
ATOM     20  C   UNL d   1       0.311  -3.913  -3.190  0.00  0.00     0.063 A 
ATOM     21  N   UNL d   1       0.415  -4.397  -4.491  0.00  0.00    -0.292 N 
ATOM     22  N   UNL d   1       0.453  -5.719  -4.524  0.00  0.00    -0.061 NA
ATOM     23  HN  UNL d   1       0.458  -3.804  -5.320  1.00  0.00     0.183 HD
ATOM     24  S   UNL d   1       0.341  -6.415  -3.010  0.00  0.00    -0.010 SA
ATOM     25  C   UNL d   1       0.241  -4.896  -2.215  0.00  0.00     0.096 A 
ENDBRANCH   3  20
TORSDOF 4
