REMARK  4 active torsions:
REMARK  status: ('A' for Active; 'I' for Inactive)
REMARK    1  A    between atoms: C_8  and  C_1 
REMARK    2  A    between atoms: C_12  and  N_2 
REMARK    3  A    between atoms: N_3  and  C_8 
REMARK    4  A    between atoms: C_13  and  C_16 
ROOT
ATOM      1  C   UNL d   1       0.837  -0.835   0.213  0.00  0.00     0.125 A 
ATOM      2  N   UNL d   1       0.896   0.528   0.131  0.00  0.00    -0.274 N 
ATOM      3  C   UNL d   1      -0.430   0.935   0.231  0.00  0.00     0.199 A 
ATOM      4  N   UNL d   1      -0.368  -1.316   0.356  0.00  0.00    -0.285 N 
ATOM      5  HN  UNL d   1      -0.639  -2.294   0.459  1.00  0.00     0.188 HD
ATOM      6  N   UNL d   1      -1.177  -0.232   0.336  0.00  0.00    -0.274 N 
ATOM      7  S   UNL d   1      -1.150   2.429   0.335  0.00  0.00    -0.039 SA
ATOM      8  H   UNL d   1      -2.178  -0.292   0.491  0.00  0.00     0.189 HD
ENDROOT
BRANCH   1   9
ATOM      9  C   UNL d   1       2.035  -1.738   0.172  0.00  0.00     0.225 C 
BRANCH   9  10
ATOM     10  N   UNL d   1       2.017  -2.853  -0.768  0.00  0.00    -0.267 N 
ATOM     11  N   UNL d   1       2.998  -3.769  -0.577  0.00  0.00    -0.019 NA
ATOM     12  N   UNL d   1       3.391  -4.197  -1.766  0.00  0.00    -0.282 N 
ATOM     13  C   UNL d   1       2.576  -3.636  -2.705  0.00  0.00     0.074 A 
ATOM     14  HN  UNL d   1       4.167  -4.835  -1.948  1.00  0.00     0.184 HD
ATOM     15  C   UNL d   1       1.612  -2.845  -2.083  0.00  0.00     0.077 A 
ATOM     16  C   UNL d   1       2.601  -3.737  -4.102  0.00  0.00     0.033 A 
ATOM     17  C   UNL d   1       0.586  -2.215  -2.796  0.00  0.00     0.033 A 
ATOM     18  C   UNL d   1       0.594  -2.371  -4.188  0.00  0.00     0.002 A 
ATOM     19  C   UNL d   1       1.600  -3.092  -4.835  0.00  0.00     0.002 A 
ENDBRANCH   9  10
ENDBRANCH   1   9
BRANCH   2  20
ATOM     20  C   UNL d   1       2.044   1.360  -0.003  0.00  0.00     0.044 A 
ATOM     21  C   UNL d   1       3.253   1.050   0.634  0.00  0.00     0.046 A 
ATOM     22  C   UNL d   1       4.438   1.767   0.378  0.00  0.00     0.050 A 
ATOM     23  C   UNL d   1       4.380   2.894  -0.448  0.00  0.00     0.016 A 
ATOM     24  C   UNL d   1       3.172   3.271  -1.029  0.00  0.00     0.003 A 
ATOM     25  C   UNL d   1       2.022   2.499  -0.822  0.00  0.00     0.030 A 
BRANCH  22  26
ATOM     26  C   UNL d   1       5.761   1.314   0.949  0.00  0.00     0.417 C 
ATOM     27  F   UNL d   1       5.677   0.125   1.610  0.00  0.00    -0.166 F 
ATOM     28  F   UNL d   1       6.705   1.136  -0.015  0.00  0.00    -0.166 F 
ATOM     29  F   UNL d   1       6.285   2.202   1.835  0.00  0.00    -0.166 F 
ENDBRANCH  22  26
ENDBRANCH   2  20
TORSDOF 4
