REMARK  8 active torsions:
REMARK  status: ('A' for Active; 'I' for Inactive)
REMARK    1  A    between atoms: C_6  and  C_1 
REMARK    2  A    between atoms: N_7  and  C_2 
REMARK    3  A    between atoms: C_9  and  C_4 
REMARK    4  A    between atoms: O_18  and  C_6 
REMARK       I    between atoms: C_8  and  N_7 
REMARK    5  A    between atoms: C_10  and  C_8 
REMARK    6  A    between atoms: C_12  and  C_10 
REMARK    7  A    between atoms: C_11  and  C_12 
REMARK    8  A    between atoms: O_20  and  C_11 
ROOT
ATOM      1  C   UNL d   1       0.120   1.190  -0.635  0.00  0.00     0.107 A 
ATOM      2  C   UNL d   1       1.352   0.807  -0.126  0.00  0.00     0.059 A 
ATOM      3  S   UNL d   1      -0.919  -0.173  -0.817  0.00  0.00    -0.081 SA
ATOM      4  C   UNL d   1       0.258  -1.283  -0.274  0.00  0.00     0.018 A 
ATOM      5  C   UNL d   1       1.437  -0.622   0.010  0.00  0.00     0.051 A 
ENDROOT
BRANCH   2   6
ATOM      6  N   UNL d   1       2.450   1.595   0.213  0.00  0.00    -0.322 N 
ATOM      7  C   UNL d   1       2.412   2.913   0.613  0.00  0.00     0.245 C 
ATOM      8  O   UNL d   1       1.415   3.589   0.831  0.00  0.00    -0.268 OA
ATOM      9  H   UNL d   1       3.320   1.091   0.346  0.00  0.00     0.169 HD
BRANCH   7  10
ATOM     10  C   UNL d   1       3.776   3.444   0.870  0.00  0.00     0.081 C 
BRANCH  10  11
ATOM     11  C   UNL d   1       3.950   4.734   1.189  0.00  0.00     0.086 C 
BRANCH  11  12
ATOM     12  C   UNL d   1       5.322   5.205   1.440  0.00  0.00     0.165 C 
ATOM     13  O   UNL d   1       6.285   4.470   1.565  0.00  0.00    -0.647 OA
BRANCH  12  14
ATOM     14  O   UNL d   1       5.398   6.547   1.504  0.00  0.00    -0.773 OA
ATOM     15  H   UNL d   1       4.565   7.023   1.334  0.00  0.00     0.167 HD
ENDBRANCH  12  14
ENDBRANCH  11  12
ENDBRANCH  10  11
ENDBRANCH   7  10
ENDBRANCH   2   6
BRANCH   1  16
ATOM     16  C   UNL d   1      -0.352   2.467  -1.149  0.00  0.00     0.302 C 
ATOM     17  O   UNL d   1       0.327   3.288  -1.758  0.00  0.00    -0.259 OA
BRANCH  16  18
ATOM     18  O   UNL d   1      -1.702   2.584  -0.955  0.00  0.00    -0.322 OA
ATOM     19  C   UNL d   1      -2.318   3.695  -1.603  0.00  0.00     0.213 C 
ENDBRANCH  16  18
ENDBRANCH   1  16
BRANCH   4  20
ATOM     20  C   UNL d   1      -0.049  -2.721  -0.184  0.00  0.00    -0.019 A 
ATOM     21  C   UNL d   1       0.951  -3.678  -0.423  0.00  0.00     0.014 A 
ATOM     22  C   UNL d   1       0.674  -5.047  -0.325  0.00  0.00     0.024 A 
ATOM     23  C   UNL d   1      -0.607  -5.473   0.013  0.00  0.00     0.034 A 
ATOM     24  C   UNL d   1      -1.613  -4.545   0.254  0.00  0.00     0.024 A 
ATOM     25 CL   UNL d   1      -0.947  -7.154   0.135  0.00  0.00    -0.084 Cl
ATOM     26  C   UNL d   1      -1.333  -3.178   0.160  0.00  0.00     0.014 A 
ENDBRANCH   4  20
TORSDOF 8
