REMARK  7 active torsions:
REMARK  status: ('A' for Active; 'I' for Inactive)
REMARK    1  A    between atoms: C_2  and  N_1 
REMARK    2  A    between atoms: C_4  and  O_17 
REMARK    3  A    between atoms: C_10  and  C_4 
REMARK    4  A    between atoms: S_16  and  C_5 
REMARK    5  A    between atoms: C_22  and  S_16 
REMARK    6  A    between atoms: O_17  and  C_23 
REMARK    7  A    between atoms: C_23  and  C_22 
ROOT
ATOM      1  C   UNL d   1       0.781   0.707   2.291  0.00  0.00     0.121 A 
ATOM      2  N   UNL d   1       0.273   5.509   1.794  0.00  0.00    -0.191 NA
ATOM      3  C   UNL d   1      -0.420   0.115   1.873  0.00  0.00     0.033 A 
ATOM      4  C   UNL d   1       0.131   4.358   1.798  0.00  0.00     0.099 C 
ATOM      5  C   UNL d   1       0.982   2.099   2.264  0.00  0.00     0.060 A 
ATOM      6  C   UNL d   1      -0.041   2.930   1.804  0.00  0.00     0.047 A 
ATOM      7  C   UNL d   1      -1.430   0.971   1.407  0.00  0.00     0.022 A 
ATOM      8  C   UNL d   1      -1.243   2.363   1.371  0.00  0.00     0.024 A 
ENDROOT
BRANCH   1   9
ATOM      9  N   UNL d   1       1.880  -0.102   2.783  0.00  0.00    -0.114 N 
ATOM     10  O   UNL d   1       2.366  -0.934   2.006  0.00  0.00    -0.532 OA
ATOM     11  O   UNL d   1       2.299   0.157   3.919  0.00  0.00    -0.532 OA
ENDBRANCH   1   9
BRANCH   3  12
ATOM     12  S   UNL d   1      -0.835  -1.618   2.061  0.00  0.00    -0.125 SA
BRANCH  12  13
ATOM     13  C   UNL d   1      -0.455  -2.247   0.386  0.00  0.00     0.106 C 
BRANCH  13  14
ATOM     14  C   UNL d   1      -0.899  -3.706   0.247  0.00  0.00     0.189 C 
BRANCH  14  15
ATOM     15  O   UNL d   1      -0.462  -4.259  -1.011  0.00  0.00    -0.317 OA
BRANCH  15  16
ATOM     16  C   UNL d   1      -1.245  -3.986  -2.085  0.00  0.00     0.293 C 
ATOM     17  O   UNL d   1      -2.238  -3.275  -2.075  0.00  0.00    -0.259 OA
BRANCH  16  18
ATOM     18  C   UNL d   1      -0.744  -4.690  -3.300  0.00  0.00     0.039 A 
ATOM     19  C   UNL d   1      -1.518  -4.638  -4.467  0.00  0.00     0.018 A 
ATOM     20  C   UNL d   1      -1.105  -5.313  -5.620  0.00  0.00     0.007 A 
ATOM     21  C   UNL d   1       0.089  -6.043  -5.627  0.00  0.00    -0.062 A 
ATOM     22  C   UNL d   1       0.871  -6.079  -4.467  0.00  0.00     0.007 A 
ATOM     23  C   UNL d   1       0.501  -6.796  -6.859  0.00  0.00     0.048 C 
ATOM     24  C   UNL d   1       0.459  -5.408  -3.310  0.00  0.00     0.018 A 
ENDBRANCH  16  18
ENDBRANCH  15  16
ENDBRANCH  14  15
ENDBRANCH  13  14
ENDBRANCH  12  13
ENDBRANCH   3  12
TORSDOF 7
