REMARK  4 active torsions:
REMARK  status: ('A' for Active; 'I' for Inactive)
REMARK    1  A    between atoms: C_10  and  N_1 
REMARK    2  A    between atoms: C_2  and  C_6 
REMARK       I    between atoms: C_6  and  N_11 
REMARK    3  A    between atoms: C_9  and  C_13 
REMARK       I    between atoms: N_12  and  C_9 
REMARK    4  A    between atoms: N_11  and  N_12 
ROOT
ATOM      1  C   UNL d   1      -2.246  -4.332  -5.794  0.00  0.00     0.249 C 
ATOM      2  N   UNL d   1      -2.278  -4.178  -4.422  0.00  0.00    -0.266 N 
ATOM      3  O   UNL d   1      -2.776  -3.508  -6.545  0.00  0.00    -0.271 OA
ATOM      4  H   UNL d   1      -1.912  -4.862  -3.759  0.00  0.00     0.190 HD
ENDROOT
BRANCH   1   5
ATOM      5  C   UNL d   1      -1.559  -5.598  -6.327  0.00  0.00     0.151 C 
ATOM      6  C   UNL d   1      -0.203  -5.824  -5.699  0.00  0.00    -0.006 A 
ATOM      7  C   UNL d   1       0.041  -6.976  -4.949  0.00  0.00     0.083 A 
ATOM      8  C   UNL d   1       0.823  -4.875  -5.845  0.00  0.00     0.011 A 
ATOM      9  C   UNL d   1       1.270  -7.157  -4.311  0.00  0.00     0.038 A 
ATOM     10  O   UNL d   1      -0.875  -7.984  -4.783  0.00  0.00    -0.310 OA
ATOM     11  C   UNL d   1       2.272  -6.196  -4.435  0.00  0.00     0.003 A 
ATOM     12  C   UNL d   1       2.053  -5.060  -5.212  0.00  0.00     0.001 A 
ATOM     13  C   UNL d   1      -2.062  -7.916  -5.470  0.00  0.00     0.083 A 
ATOM     14  C   UNL d   1      -2.463  -6.804  -6.213  0.00  0.00    -0.006 A 
ATOM     15  C   UNL d   1      -2.880  -9.046  -5.385  0.00  0.00     0.038 A 
ATOM     16  C   UNL d   1      -3.706  -6.839  -6.870  0.00  0.00     0.011 A 
ATOM     17  C   UNL d   1      -4.526  -7.965  -6.777  0.00  0.00     0.001 A 
ATOM     18  C   UNL d   1      -4.112  -9.069  -6.039  0.00  0.00     0.003 A 
ENDBRANCH   1   5
BRANCH   2  19
ATOM     19  N   UNL d   1      -2.941  -3.061  -3.895  0.00  0.00    -0.263 N 
ATOM     20  C   UNL d   1      -3.158  -3.011  -2.533  0.00  0.00     0.270 C 
ATOM     21  O   UNL d   1      -2.683  -3.830  -1.752  0.00  0.00    -0.266 OA
ATOM     22  H   UNL d   1      -3.466  -2.508  -4.571  0.00  0.00     0.190 HD
BRANCH  20  23
ATOM     23  C   UNL d   1      -4.060  -1.931  -2.038  0.00  0.00     0.036 A 
ATOM     24  C   UNL d   1      -4.745  -2.148  -0.834  0.00  0.00     0.053 A 
ATOM     25  C   UNL d   1      -5.635  -1.176  -0.359  0.00  0.00     0.103 A 
ATOM     26  C   UNL d   1      -5.835   0.017  -1.067  0.00  0.00     0.036 A 
ATOM     27  C   UNL d   1      -5.128   0.241  -2.248  0.00  0.00     0.003 A 
ATOM     28  C   UNL d   1      -4.240  -0.726  -2.733  0.00  0.00     0.017 A 
BRANCH  25  29
ATOM     29  N   UNL d   1      -6.377  -1.411   0.887  0.00  0.00    -0.116 N 
ATOM     30  O   UNL d   1      -6.140  -2.455   1.510  0.00  0.00    -0.532 OA
ATOM     31  O   UNL d   1      -7.200  -0.554   1.237  0.00  0.00    -0.532 OA
ENDBRANCH  25  29
ENDBRANCH  20  23
ENDBRANCH   2  19
TORSDOF 4
