REMARK  3 active torsions:
REMARK  status: ('A' for Active; 'I' for Inactive)
REMARK    1  A    between atoms: N_4  and  C_1 
REMARK    2  A    between atoms: C_5  and  N_4 
REMARK    3  A    between atoms: C_6  and  C_5 
ROOT
ATOM      1  N   UNL d   1      -1.268   2.197  -0.140  0.00  0.00    -0.275 NA
ATOM      2  H   UNL d   1      -0.681   1.589  -0.708  0.00  0.00     0.129 HD
ENDROOT
BRANCH   1   3
ATOM      3  C   UNL d   1      -2.561   2.058  -0.650  0.00  0.00     0.080 A 
ATOM      4  N   UNL d   1      -2.727   1.089  -1.573  0.00  0.00    -0.357 N 
ATOM      5  C   UNL d   1      -3.971   0.901  -2.074  0.00  0.00     0.089 A 
ATOM      6  HN  UNL d   1      -1.942   0.517  -1.884  1.00  0.00     0.166 HD
ATOM      7  C   UNL d   1      -5.078   1.651  -1.708  0.00  0.00     0.017 A 
ATOM      8  C   UNL d   1      -4.897   2.643  -0.757  0.00  0.00     0.005 A 
ATOM      9  C   UNL d   1      -3.628   2.838  -0.213  0.00  0.00     0.042 A 
ENDBRANCH   1   3
BRANCH   1  10
ATOM     10  C   UNL d   1      -0.779   3.564  -0.075  0.00  0.00     0.132 C 
BRANCH  10  11
ATOM     11  C   UNL d   1       0.670   3.643   0.354  0.00  0.00    -0.045 A 
ATOM     12  C   UNL d   1       1.541   4.523  -0.307  0.00  0.00     0.009 A 
ATOM     13  C   UNL d   1       2.816   4.782   0.201  0.00  0.00     0.007 A 
ATOM     14  C   UNL d   1       3.251   4.163   1.376  0.00  0.00    -0.062 A 
ATOM     15  C   UNL d   1       2.407   3.245   2.011  0.00  0.00     0.007 A 
ATOM     16  C   UNL d   1       4.554   4.566   2.003  0.00  0.00     0.048 C 
ATOM     17  C   UNL d   1       1.129   2.986   1.504  0.00  0.00     0.009 A 
ENDBRANCH  10  11
ENDBRANCH   1  10
TORSDOF 3
