REMARK  4 active torsions:
REMARK  status: ('A' for Active; 'I' for Inactive)
REMARK    1  A    between atoms: C_6  and  C_1 
REMARK       I    between atoms: C_5  and  N_2 
REMARK    2  A    between atoms: N_3  and  C_4 
REMARK    3  A    between atoms: C_10  and  C_5 
REMARK    4  A    between atoms: C_16  and  C_10 
ROOT
ATOM      1  N   UNL d   1      -4.566  -2.338  -3.294  0.00  0.00    -0.349 N 
ATOM      2  N   UNL d   1      -1.929  -3.305  -2.637  0.00  0.00    -0.364 N 
ATOM      3  C   UNL d   1      -5.675  -2.572  -4.085  0.00  0.00     0.220 C 
ATOM      4  C   UNL d   1      -3.391  -1.673  -3.877  0.00  0.00     0.145 C 
ATOM      5  C   UNL d   1      -4.297  -2.882  -1.956  0.00  0.00     0.145 C 
ATOM      6  C   UNL d   1      -3.131  -3.884  -2.009  0.00  0.00     0.144 C 
ATOM      7  C   UNL d   1      -2.163  -2.614  -3.925  0.00  0.00     0.144 C 
ATOM      8  O   UNL d   1      -5.758  -2.115  -5.230  0.00  0.00    -0.273 OA
ENDROOT
BRANCH   2   9
ATOM      9  C   UNL d   1      -0.948  -2.810  -1.782  0.00  0.00     0.103 A 
ATOM     10  C   UNL d   1       0.364  -2.677  -2.234  0.00  0.00     0.064 A 
ATOM     11  C   UNL d   1       1.393  -2.319  -1.348  0.00  0.00     0.052 A 
ATOM     12  C   UNL d   1       1.061  -2.071  -0.018  0.00  0.00     0.033 A 
ATOM     13  C   UNL d   1      -0.259  -2.204   0.356  0.00  0.00     0.090 A 
ATOM     14  N   UNL d   1      -1.252  -2.570  -0.489  0.00  0.00    -0.352 N 
ATOM     15  HN  UNL d   1      -2.211  -2.661  -0.154  1.00  0.00     0.166 HD
BRANCH  11  16
ATOM     16  C   UNL d   1       2.825  -2.247  -1.799  0.00  0.00     0.417 C 
ATOM     17  F   UNL d   1       2.994  -2.488  -3.130  0.00  0.00    -0.166 F 
ATOM     18  F   UNL d   1       3.615  -3.148  -1.155  0.00  0.00    -0.166 F 
ATOM     19  F   UNL d   1       3.384  -1.029  -1.567  0.00  0.00    -0.166 F 
ENDBRANCH  11  16
ENDBRANCH   2   9
BRANCH   3  20
ATOM     20  C   UNL d   1      -6.822  -3.426  -3.550  0.00  0.00     0.111 C 
BRANCH  20  21
ATOM     21  C   UNL d   1      -8.046  -2.656  -2.994  0.00  0.00    -0.043 C 
ATOM     22  C   UNL d   1      -8.664  -1.744  -4.068  0.00  0.00     0.015 C 
ATOM     23  C   UNL d   1      -9.108  -3.691  -2.570  0.00  0.00     0.015 C 
ATOM     24  C   UNL d   1      -7.680  -1.808  -1.766  0.00  0.00     0.015 C 
ENDBRANCH  20  21
ENDBRANCH   3  20
TORSDOF 4
