REMARK  6 active torsions:
REMARK  status: ('A' for Active; 'I' for Inactive)
REMARK    1  A    between atoms: C_11  and  C_3 
REMARK    2  A    between atoms: O_25  and  C_3 
REMARK    3  A    between atoms: O_27  and  C_9 
REMARK    4  A    between atoms: C_20  and  C_11 
REMARK    5  A    between atoms: C_19  and  O_22 
REMARK    6  A    between atoms: O_22  and  C_20 
ROOT
ATOM      1  C   UNL d   1      -3.910   3.606   2.773  0.00  0.00     0.001 C 
ATOM      2  C   UNL d   1      -0.814   1.520   0.115  0.00  0.00     0.004 C 
ATOM      3  C   UNL d   1      -4.768   4.945   2.757  0.00  0.00     0.128 C 
ATOM      4  C   UNL d   1      -1.462   3.287   1.959  0.00  0.00    -0.002 C 
ATOM      5  C   UNL d   1      -2.612   4.239   2.258  0.00  0.00     0.002 C 
ATOM      6  C   UNL d   1      -1.982   2.300   0.837  0.00  0.00     0.035 C 
ATOM      7  C   UNL d   1       0.039   2.690  -0.390  0.00  0.00    -0.064 C 
ATOM      8  C   UNL d   1      -4.341   2.394   1.895  0.00  0.00     0.045 C 
ATOM      9  C   UNL d   1      -3.186   1.486   1.363  0.00  0.00     0.124 C 
ATOM     10  C   UNL d   1      -1.272   0.652  -1.054  0.00  0.00    -0.009 C 
ATOM     11  C   UNL d   1      -0.010   3.123  -1.662  0.00  0.00     0.058 C 
ATOM     12  C   UNL d   1      -3.814   5.914   3.514  0.00  0.00     0.047 C 
ATOM     13  C   UNL d   1      -2.387   5.450   3.167  0.00  0.00     0.009 C 
ATOM     14  C   UNL d   1      -0.251   4.155   1.550  0.00  0.00     0.010 C 
ATOM     15  C   UNL d   1      -1.052   0.934  -2.352  0.00  0.00     0.052 C 
ATOM     16  C   UNL d   1      -0.473   2.232  -2.743  0.00  0.00     0.172 C 
ATOM     17  C   UNL d   1       0.758   3.470   0.666  0.00  0.00     0.036 C 
ATOM     18  O   UNL d   1      -0.310   2.534  -3.918  0.00  0.00    -0.289 OA
ATOM     19  C   UNL d   1      -3.825   3.085   4.243  0.00  0.00     0.019 C 
ATOM     20  C   UNL d   1      -0.029   0.586   1.057  0.00  0.00     0.025 C 
ENDROOT
BRANCH   3  21
ATOM     21  C   UNL d   1      -5.150   5.440   1.325  0.00  0.00     0.185 C 
ATOM     22  O   UNL d   1      -5.761   4.689   0.544  0.00  0.00    -0.292 OA
BRANCH  21  23
ATOM     23  C   UNL d   1      -4.799   6.861   0.871  0.00  0.00     0.260 C 
BRANCH  23  24
ATOM     24  O   UNL d   1      -5.323   7.907   1.694  0.00  0.00    -0.314 OA
BRANCH  24  25
ATOM     25  C   UNL d   1      -6.676   7.977   1.708  0.00  0.00     0.255 C 
ATOM     26  O   UNL d   1      -7.435   7.305   1.007  0.00  0.00    -0.266 OA
ATOM     27  C   UNL d   1      -7.125   9.010   2.685  0.00  0.00     0.126 C 
ENDBRANCH  24  25
ENDBRANCH  23  24
ENDBRANCH  21  23
ENDBRANCH   3  21
BRANCH   3  28
ATOM     28  O   UNL d   1      -5.989   4.816   3.474  0.00  0.00    -0.381 OA
ATOM     29  H   UNL d   1      -6.584   4.272   2.917  0.00  0.00     0.211 HD
ENDBRANCH   3  28
BRANCH   9  30
ATOM     30  O   UNL d   1      -2.797   0.526   2.333  0.00  0.00    -0.395 OA
ATOM     31  H   UNL d   1      -2.394   0.973   3.091  0.00  0.00     0.210 HD
ENDBRANCH   9  30
TORSDOF 6
