REMARK  2 active torsions:
REMARK  status: ('A' for Active; 'I' for Inactive)
REMARK    1  A    between atoms: C_9  and  C_1 
REMARK    2  A    between atoms: C_8  and  C_7 
ROOT
ATOM      1  C   UNL d   1      -0.253   1.288  -0.017  0.00  0.00     0.046 A 
ATOM      2  C   UNL d   1       1.084   1.319   0.027  0.00  0.00     0.049 A 
ATOM      3  N   UNL d   1       1.219  -1.132  -0.018  0.00  0.00    -0.297 N 
ATOM      4  HN  UNL d   1       1.751  -2.001  -0.014  1.00  0.00     0.187 HD
ATOM      5  N   UNL d   1      -0.142  -1.132  -0.055  0.00  0.00    -0.265 N 
ATOM      6  C   UNL d   1      -0.955  -0.024  -0.060  0.00  0.00     0.271 A 
ATOM      7  C   UNL d   1       1.809   0.025   0.011  0.00  0.00     0.059 A 
ATOM      8  O   UNL d   1      -2.177  -0.115  -0.089  0.00  0.00    -0.266 OA
ATOM      9  H   UNL d   1      -0.601  -2.037  -0.084  0.00  0.00     0.190 HD
ENDROOT
BRANCH   7  10
ATOM     10  C   UNL d   1       3.301   0.084   0.062  0.00  0.00    -0.008 A 
ATOM     11  C   UNL d   1       3.996  -0.979   0.660  0.00  0.00     0.017 A 
ATOM     12  C   UNL d   1       5.390  -0.946   0.751  0.00  0.00     0.043 A 
ATOM     13  C   UNL d   1       6.084   0.144   0.241  0.00  0.00     0.116 A 
ATOM     14  C   UNL d   1       5.414   1.196  -0.373  0.00  0.00     0.043 A 
ATOM     15  F   UNL d   1       7.419   0.181   0.336  0.00  0.00    -0.206 F 
ATOM     16  C   UNL d   1       4.021   1.163  -0.472  0.00  0.00     0.017 A 
ENDBRANCH   7  10
BRANCH   1  17
ATOM     17  C   UNL d   1      -0.999   2.552  -0.003  0.00  0.00    -0.020 A 
ATOM     18  C   UNL d   1      -1.291   3.213  -1.203  0.00  0.00     0.012 A 
ATOM     19  C   UNL d   1      -2.012   4.408  -1.189  0.00  0.00     0.001 A 
ATOM     20  C   UNL d   1      -2.437   4.952   0.023  0.00  0.00     0.000 A 
ATOM     21  C   UNL d   1      -2.131   4.310   1.222  0.00  0.00     0.001 A 
ATOM     22  C   UNL d   1      -1.411   3.114   1.211  0.00  0.00     0.012 A 
ENDBRANCH   1  17
TORSDOF 2
