REMARK  10 active torsions:
REMARK  status: ('A' for Active; 'I' for Inactive)
REMARK    1  A    between atoms: S_12  and  C_3 
REMARK    2  A    between atoms: C_9  and  N_8 
REMARK    3  A    between atoms: O_13  and  N_10 
REMARK    4  A    between atoms: C_14  and  S_12 
REMARK    5  A    between atoms: C_15  and  C_14 
REMARK    6  A    between atoms: C_20  and  C_15 
REMARK    7  A    between atoms: C_16  and  C_17 
REMARK    8  A    between atoms: C_17  and  C_18 
REMARK    9  A    between atoms: C_18  and  C_19 
REMARK   10  A    between atoms: C_19  and  C_20 
ROOT
ATOM      1  S   UNL d   1      -1.466  -0.368   0.010  0.00  0.00    -0.026 SA
ATOM      2  C   UNL d   1      -0.591   1.124   0.036  0.00  0.00     0.166 A 
ATOM      3  C   UNL d   1       0.037  -1.188  -0.004  0.00  0.00     0.130 A 
ATOM      4  N   UNL d   1       0.716   0.940   0.027  0.00  0.00    -0.278 N 
ATOM      5  HN  UNL d   1       1.390   1.705   0.037  1.00  0.00     0.189 HD
ATOM      6  N   UNL d   1       1.080  -0.394   0.004  0.00  0.00    -0.286 N 
ATOM      7  HN  UNL d   1       2.046  -0.721  -0.006  1.00  0.00     0.188 HD
ATOM      8  N   UNL d   1      -1.160   2.352   0.064  0.00  0.00    -0.330 N 
ATOM      9  H   UNL d   1      -0.517   3.136   0.081  0.00  0.00     0.168 HD
ENDROOT
BRANCH   3  10
ATOM     10  S   UNL d   1       0.157  -2.935  -0.028  0.00  0.00    -0.103 SA
BRANCH  10  11
ATOM     11  C   UNL d   1       1.962  -3.186  -0.029  0.00  0.00     0.081 C 
BRANCH  11  12
ATOM     12  C   UNL d   1       2.275  -4.685  -0.043  0.00  0.00     0.010 C 
BRANCH  12  13
ATOM     13  C   UNL d   1       3.785  -4.944  -0.049  0.00  0.00     0.001 C 
BRANCH  13  14
ATOM     14  C   UNL d   1       4.089  -6.444  -0.064  0.00  0.00     0.000 C 
BRANCH  14  15
ATOM     15  C   UNL d   1       5.595  -6.704  -0.068  0.00  0.00     0.000 C 
BRANCH  15  16
ATOM     16  C   UNL d   1       5.893  -8.202  -0.084  0.00  0.00    -0.000 C 
BRANCH  16  17
ATOM     17  C   UNL d   1       7.397  -8.468  -0.086  0.00  0.00    -0.005 C 
ATOM     18  C   UNL d   1       7.689  -9.959  -0.103  0.00  0.00     0.005 C 
ENDBRANCH  16  17
ENDBRANCH  15  16
ENDBRANCH  14  15
ENDBRANCH  13  14
ENDBRANCH  12  13
ENDBRANCH  11  12
ENDBRANCH  10  11
ENDBRANCH   3  10
BRANCH   8  19
ATOM     19  C   UNL d   1      -2.473   2.712   0.077  0.00  0.00     0.206 C 
ATOM     20  N   UNL d   1      -2.907   3.930   0.110  0.00  0.00    -0.265 N 
ATOM     21  HN  UNL d   1      -2.327   4.770   0.130  1.00  0.00     0.194 HD
BRANCH  20  22
ATOM     22  O   UNL d   1      -4.309   3.902   0.114  0.00  0.00    -0.289 OA
ATOM     23  H   UNL d   1      -4.544   4.848   0.138  0.00  0.00     0.244 HD
ENDBRANCH  20  22
ENDBRANCH   8  19
TORSDOF 10
