REMARK  3 active torsions:
REMARK  status: ('A' for Active; 'I' for Inactive)
REMARK    1  A    between atoms: N_7  and  N_1 
REMARK    2  A    between atoms: C_10  and  C_2 
REMARK    3  A    between atoms: C_12  and  C_11 
ROOT
ATOM      1  N   UNL d   1       0.920  -0.748  -0.071  0.00  0.00    -0.211 N 
ATOM      2  C   UNL d   1       0.907   0.627  -0.034  0.00  0.00     0.154 A 
ATOM      3  C   UNL d   1      -0.409  -1.126   0.070  0.00  0.00     0.214 A 
ATOM      4  N   UNL d   1      -0.294   1.143   0.037  0.00  0.00    -0.281 N 
ATOM      5  HN  UNL d   1      -0.547   2.130   0.067  1.00  0.00     0.188 HD
ATOM      6  N   UNL d   1      -1.133   0.065   0.063  0.00  0.00    -0.273 N 
ATOM      7  S   UNL d   1      -1.135  -2.607   0.277  0.00  0.00    -0.037 SA
ATOM      8  H   UNL d   1      -2.131   0.166   0.205  0.00  0.00     0.189 HD
ENDROOT
BRANCH   1   9
ATOM      9  N   UNL d   1       2.042  -1.502   0.119  0.00  0.00    -0.300 N 
ATOM     10  C   UNL d   1       2.110  -2.636  -0.500  0.00  0.00     0.119 C 
ATOM     11  HN  UNL d   1       2.797  -1.184   0.726  1.00  0.00     0.186 HD
BRANCH  10  12
ATOM     12  C   UNL d   1       3.285  -3.520  -0.358  0.00  0.00    -0.019 A 
ATOM     13  C   UNL d   1       4.389  -3.132   0.409  0.00  0.00     0.014 A 
ATOM     14  C   UNL d   1       5.503  -3.971   0.497  0.00  0.00     0.024 A 
ATOM     15  C   UNL d   1       5.507  -5.191  -0.178  0.00  0.00     0.034 A 
ATOM     16  C   UNL d   1       4.404  -5.584  -0.938  0.00  0.00     0.024 A 
ATOM     17 CL   UNL d   1       6.882  -6.219  -0.078  0.00  0.00    -0.084 Cl
ATOM     18  C   UNL d   1       3.289  -4.746  -1.031  0.00  0.00     0.014 A 
ENDBRANCH  10  12
ENDBRANCH   1   9
BRANCH   2  19
ATOM     19  C   UNL d   1       2.131   1.460  -0.081  0.00  0.00     0.011 A 
ATOM     20  C   UNL d   1       3.299   1.047  -0.733  0.00  0.00     0.015 A 
ATOM     21  C   UNL d   1       4.412   1.890  -0.791  0.00  0.00     0.001 A 
ATOM     22  C   UNL d   1       4.360   3.157  -0.212  0.00  0.00     0.000 A 
ATOM     23  C   UNL d   1       3.197   3.583   0.427  0.00  0.00     0.001 A 
ATOM     24  C   UNL d   1       2.086   2.740   0.490  0.00  0.00     0.015 A 
ENDBRANCH   2  19
TORSDOF 3
