REMARK  4 active torsions:
REMARK  status: ('A' for Active; 'I' for Inactive)
REMARK    1  A    between atoms: C_2  and  C_1 
REMARK    2  A    between atoms: C_3  and  C_2 
REMARK    3  A    between atoms: C_11  and  C_2 
REMARK    4  A    between atoms: N_12  and  C_11 
ROOT
ATOM      1  C   UNL d   1       0.370   0.373   1.293  0.00  0.00     0.171 C 
ENDROOT
BRANCH   1   2
ATOM      2  C   UNL d   1       1.001   0.073  -0.080  0.00  0.00     0.398 C 
ATOM      3  F   UNL d   1       0.099  -0.081  -1.074  0.00  0.00    -0.170 F 
ATOM      4  F   UNL d   1       1.770  -1.041  -0.065  0.00  0.00    -0.170 F 
ATOM      5  F   UNL d   1       1.811   1.100  -0.448  0.00  0.00    -0.170 F 
ENDBRANCH   1   2
BRANCH   1   6
ATOM      6  C   UNL d   1      -1.143   0.332   1.290  0.00  0.00     0.023 A 
ATOM      7  N   UNL d   1      -1.896   1.440   1.620  0.00  0.00    -0.369 N 
ATOM      8  C   UNL d   1      -3.226   1.135   1.531  0.00  0.00     0.088 A 
ATOM      9  H   UNL d   1      -1.525   2.340   1.895  0.00  0.00     0.165 HD
ATOM     10  C   UNL d   1      -3.340  -0.183   1.160  0.00  0.00     0.019 A 
ATOM     11  C   UNL d   1      -2.028  -0.693   1.011  0.00  0.00     0.027 A 
ENDBRANCH   1   6
BRANCH   1  12
ATOM     12  C   UNL d   1       0.977  -0.561   2.364  0.00  0.00     0.286 C 
BRANCH  12  13
ATOM     13  N   UNL d   1       0.533  -0.265   3.731  0.00  0.00     0.079 N 
ATOM     14  H   UNL d   1       0.874   0.647   4.028  0.00  0.00     0.312 HD
ATOM     15  H   UNL d   1       0.930  -0.948   4.375  0.00  0.00     0.312 HD
ENDBRANCH  12  13
ENDBRANCH   1  12
TORSDOF 4
