REMARK  7 active torsions:
REMARK  status: ('A' for Active; 'I' for Inactive)
REMARK    1  A    between atoms: N_3  and  C_1 
REMARK    2  A    between atoms: C_9  and  C_1 
REMARK    3  A    between atoms: C_2  and  C_10 
REMARK    4  A    between atoms: N_4  and  C_2 
REMARK    5  A    between atoms: C_7  and  N_3 
REMARK    6  A    between atoms: C_8  and  N_4 
REMARK    7  A    between atoms: C_10  and  C_9 
ROOT
ATOM      1  C   UNL d   1       2.299   0.037   0.214  0.00  0.00     0.076 C 
ENDROOT
BRANCH   1   2
ATOM      2  C   UNL d   1       2.266  -1.062   1.269  0.00  0.00     0.078 C 
ATOM      3  S   UNL d   1       2.269  -0.733   2.914  0.00  0.00    -0.065 SA
BRANCH   2   4
ATOM      4  N   UNL d   1       2.278  -2.371   0.868  0.00  0.00    -0.351 N 
ATOM      5  H   UNL d   1       2.600  -3.025   1.574  0.00  0.00     0.166 HD
BRANCH   4   6
ATOM      6  C   UNL d   1       1.783  -2.949  -0.315  0.00  0.00     0.033 A 
ATOM      7  C   UNL d   1       2.347  -4.158  -0.731  0.00  0.00     0.031 A 
ATOM      8  C   UNL d   1       1.831  -4.837  -1.837  0.00  0.00     0.026 A 
ATOM      9  C   UNL d   1       0.718  -4.325  -2.505  0.00  0.00     0.034 A 
ATOM     10  C   UNL d   1       0.143  -3.127  -2.092  0.00  0.00     0.026 A 
ATOM     11 CL   UNL d   1       0.035  -5.200  -3.818  0.00  0.00    -0.084 Cl
ATOM     12  C   UNL d   1       0.683  -2.429  -1.005  0.00  0.00     0.031 A 
ENDBRANCH   4   6
ENDBRANCH   2   4
ENDBRANCH   1   2
BRANCH   1  13
ATOM     13  C   UNL d   1       3.338   1.155   0.411  0.00  0.00     0.076 C 
BRANCH  13  14
ATOM     14  C   UNL d   1       4.831   0.837   0.367  0.00  0.00     0.078 C 
ATOM     15  S   UNL d   1       5.453  -0.689   0.057  0.00  0.00    -0.065 SA
BRANCH  14  16
ATOM     16  N   UNL d   1       5.761   1.806   0.654  0.00  0.00    -0.351 N 
ATOM     17  H   UNL d   1       6.685   1.407   0.809  0.00  0.00     0.166 HD
BRANCH  16  18
ATOM     18  C   UNL d   1       5.702   3.211   0.746  0.00  0.00     0.033 A 
ATOM     19  C   UNL d   1       6.765   3.843   1.407  0.00  0.00     0.031 A 
ATOM     20  C   UNL d   1       6.825   5.236   1.514  0.00  0.00     0.026 A 
ATOM     21  C   UNL d   1       5.826   6.014   0.939  0.00  0.00     0.034 A 
ATOM     22  C   UNL d   1       4.778   5.405   0.258  0.00  0.00     0.026 A 
ATOM     23 CL   UNL d   1       5.903   7.729   1.042  0.00  0.00    -0.084 Cl
ATOM     24  C   UNL d   1       4.717   4.010   0.166  0.00  0.00     0.031 A 
ENDBRANCH  16  18
ENDBRANCH  14  16
ENDBRANCH  13  14
ENDBRANCH   1  13
TORSDOF 7
