REMARK  6 active torsions:
REMARK  status: ('A' for Active; 'I' for Inactive)
REMARK    1  A    between atoms: C_10  and  C_1 
REMARK    2  A    between atoms: C_15  and  N_2 
REMARK    3  A    between atoms: N_3  and  C_10 
REMARK    4  A    between atoms: S_16  and  C_7 
REMARK    5  A    between atoms: C_26  and  S_16 
REMARK    6  A    between atoms: C_19  and  C_26 
ROOT
ATOM      1  C   UNL d   1       0.071  -1.147  -0.120  0.00  0.00     0.124 A 
ATOM      2  N   UNL d   1       1.363  -0.636  -0.072  0.00  0.00    -0.278 N 
ATOM      3  N   UNL d   1      -0.792  -0.166  -0.301  0.00  0.00    -0.285 N 
ATOM      4  HN  UNL d   1      -1.798  -0.271  -0.433  1.00  0.00     0.188 HD
ATOM      5  C   UNL d   1       1.166   0.734  -0.125  0.00  0.00     0.167 A 
ATOM      6  N   UNL d   1      -0.109   1.016  -0.282  0.00  0.00    -0.278 N 
ATOM      7  HN  UNL d   1      -0.514   1.948  -0.373  1.00  0.00     0.189 HD
ENDROOT
BRANCH   1   8
ATOM      8  C   UNL d   1      -0.365  -2.553   0.084  0.00  0.00     0.225 C 
BRANCH   8   9
ATOM      9  N   UNL d   1      -0.173  -3.086   1.437  0.00  0.00    -0.267 N 
ATOM     10  N   UNL d   1      -0.244  -2.251   2.500  0.00  0.00    -0.019 NA
ATOM     11  N   UNL d   1      -1.141  -2.761   3.335  0.00  0.00    -0.282 N 
ATOM     12  C   UNL d   1      -1.509  -3.990   2.858  0.00  0.00     0.074 C 
ATOM     13  HN  UNL d   1      -1.493  -2.315   4.182  1.00  0.00     0.184 HD
ATOM     14  C   UNL d   1      -0.714  -4.320   1.770  0.00  0.00     0.077 C 
ATOM     15  C   UNL d   1      -2.537  -4.861   3.239  0.00  0.00     0.033 C 
ATOM     16  C   UNL d   1      -0.763  -5.552   1.115  0.00  0.00     0.033 C 
ATOM     17  C   UNL d   1      -1.814  -6.396   1.485  0.00  0.00     0.002 C 
ATOM     18  C   UNL d   1      -2.710  -6.040   2.499  0.00  0.00     0.002 C 
ENDBRANCH   8   9
ENDBRANCH   1   8
BRANCH   2  19
ATOM     19  C   UNL d   1       2.581  -1.386   0.016  0.00  0.00     0.043 A 
ATOM     20  C   UNL d   1       2.683  -2.638  -0.608  0.00  0.00     0.032 A 
ATOM     21  C   UNL d   1       3.834  -3.419  -0.469  0.00  0.00     0.026 A 
ATOM     22  C   UNL d   1       4.913  -2.933   0.257  0.00  0.00     0.034 A 
ATOM     23  C   UNL d   1       4.847  -1.673   0.844  0.00  0.00     0.026 A 
ATOM     24 CL   UNL d   1       6.333  -3.887   0.419  0.00  0.00    -0.084 Cl
ATOM     25  C   UNL d   1       3.680  -0.905   0.738  0.00  0.00     0.032 A 
ENDBRANCH   2  19
BRANCH   5  26
ATOM     26  S   UNL d   1       2.384   1.977  -0.185  0.00  0.00    -0.088 SA
BRANCH  26  27
ATOM     27  C   UNL d   1       1.466   3.349   0.568  0.00  0.00     0.108 C 
BRANCH  27  28
ATOM     28  C   UNL d   1       2.347   4.563   0.645  0.00  0.00    -0.026 C 
ATOM     29  C   UNL d   1       2.724   5.155   1.786  0.00  0.00     0.007 C 
ENDBRANCH  27  28
ENDBRANCH  26  27
ENDBRANCH   5  26
TORSDOF 6
