REMARK  3 active torsions:
REMARK  status: ('A' for Active; 'I' for Inactive)
REMARK    1  A    between atoms: S_10  and  C_5 
REMARK    2  A    between atoms: C_14  and  S_10 
REMARK    3  A    between atoms: C_11  and  C_14 
ROOT
ATOM      1  C   UNL d   1      -0.926  -1.146  -0.666  0.00  0.00     0.182 A 
ATOM      2  O   UNL d   1      -1.592   0.062  -0.692  0.00  0.00    -0.267 OA
ATOM      3  N   UNL d   1       0.377  -0.979  -0.536  0.00  0.00    -0.276 N 
ATOM      4  HN  UNL d   1       1.080  -1.715  -0.473  1.00  0.00     0.189 HD
ATOM      5  C   UNL d   1      -0.567   0.966  -0.604  0.00  0.00     0.204 A 
ATOM      6  N   UNL d   1       0.607   0.380  -0.502  0.00  0.00    -0.272 N 
ATOM      7  HN  UNL d   1       1.513   0.842  -0.414  1.00  0.00     0.189 HD
ATOM      8  C   UNL d   1      -1.552  -2.433  -0.792  0.00  0.00     0.057 A 
ATOM      9  S   UNL d   1      -3.249  -2.604  -0.946  0.00  0.00    -0.098 SA
ATOM     10  C   UNL d   1      -0.920  -3.664  -0.824  0.00  0.00     0.024 A 
ATOM     11  C   UNL d   1      -3.138  -4.307  -1.073  0.00  0.00     0.050 A 
ATOM     12  C   UNL d   1      -1.835  -4.747  -0.990  0.00  0.00     0.009 A 
ENDROOT
BRANCH   5  13
ATOM     13  S   UNL d   1      -0.768   2.690  -0.670  0.00  0.00    -0.080 SA
BRANCH  13  14
ATOM     14  C   UNL d   1      -2.469   2.866  -0.074  0.00  0.00     0.123 C 
BRANCH  14  15
ATOM     15  C   UNL d   1      -2.901   4.316  -0.021  0.00  0.00    -0.027 A 
ATOM     16  C   UNL d   1      -3.635   4.934  -1.047  0.00  0.00     0.041 A 
ATOM     17 CL   UNL d   1      -4.085   4.092  -2.487  0.00  0.00    -0.084 Cl
ATOM     18  C   UNL d   1      -4.032   6.272  -0.935  0.00  0.00     0.024 A 
ATOM     19  C   UNL d   1      -3.688   7.018   0.192  0.00  0.00     0.002 A 
ATOM     20  C   UNL d   1      -2.937   6.430   1.204  0.00  0.00     0.001 A 
ATOM     21  C   UNL d   1      -2.545   5.093   1.100  0.00  0.00     0.009 A 
ENDBRANCH  14  15
ENDBRANCH  13  14
ENDBRANCH   5  13
TORSDOF 3
