REMARK  2 active torsions:
REMARK  status: ('A' for Active; 'I' for Inactive)
REMARK    1  A    between atoms: O_8  and  C_3 
REMARK    2  A    between atoms: O_9  and  C_4 
ROOT
ATOM      1  C   UNL d   1      -0.873   1.310  -0.026  0.00  0.00     0.058 A 
ATOM      2  C   UNL d   1      -1.584   0.116   0.166  0.00  0.00     0.042 A 
ATOM      3  C   UNL d   1       0.520   1.298  -0.150  0.00  0.00     0.075 A 
ATOM      4  C   UNL d   1      -0.904  -1.106   0.183  0.00  0.00     0.085 A 
ATOM      5  C   UNL d   1       0.487  -1.120   0.064  0.00  0.00     0.047 A 
ATOM      6  C   UNL d   1       1.210   0.075  -0.109  0.00  0.00    -0.026 A 
ATOM      7  I   UNL d   1      -3.648   0.293   0.499  0.00  0.00    -0.042 I 
ATOM      8  C   UNL d   1       2.712   0.039  -0.199  0.00  0.00     0.051 C 
ENDROOT
BRANCH   3   9
ATOM      9  O   UNL d   1       1.298   2.417  -0.306  0.00  0.00    -0.355 OA
ATOM     10  C   UNL d   1       0.661   3.680  -0.152  0.00  0.00     0.210 C 
ENDBRANCH   3   9
BRANCH   4  11
ATOM     11  O   UNL d   1      -1.498  -2.312   0.439  0.00  0.00    -0.355 OA
ATOM     12  C   UNL d   1      -2.290  -2.787  -0.650  0.00  0.00     0.210 C 
ENDBRANCH   4  11
TORSDOF 2
