REMARK  6 active torsions:
REMARK  status: ('A' for Active; 'I' for Inactive)
REMARK    1  A    between atoms: C_6  and  C_2 
REMARK    2  A    between atoms: O_13  and  C_3 
REMARK    3  A    between atoms: C_9  and  C_7 
REMARK    4  A    between atoms: C_17  and  O_13 
REMARK    5  A    between atoms: C_14  and  C_17 
REMARK    6  A    between atoms: C_23  and  C_14 
ROOT
ATOM      1  C   UNL d   1       0.549   0.040   0.072  0.00  0.00     0.110 A 
ATOM      2  C   UNL d   1      -0.097   1.282   0.039  0.00  0.00     0.075 A 
ATOM      3  C   UNL d   1      -0.252  -1.101   0.101  0.00  0.00     0.165 A 
ATOM      4  N   UNL d   1      -1.605  -1.088   0.025  0.00  0.00    -0.335 N 
ATOM      5  HN  UNL d   1      -2.142  -1.955   0.019  1.00  0.00     0.168 HD
ATOM      6  C   UNL d   1      -2.218   0.115  -0.044  0.00  0.00     0.052 A 
ATOM      7  C   UNL d   1      -1.503   1.305  -0.002  0.00  0.00     0.048 A 
ATOM      8  C   UNL d   1       1.977  -0.091   0.056  0.00  0.00     0.104 C 
ATOM      9  N   UNL d   1       3.132  -0.171   0.004  0.00  0.00    -0.191 NA
ENDROOT
BRANCH   2  10
ATOM     10  C   UNL d   1       0.611   2.611   0.024  0.00  0.00     0.419 C 
ATOM     11  F   UNL d   1       1.964   2.557   0.029  0.00  0.00    -0.166 F 
ATOM     12  F   UNL d   1       0.273   3.341  -1.076  0.00  0.00    -0.166 F 
ATOM     13  F   UNL d   1       0.263   3.379   1.093  0.00  0.00    -0.166 F 
ENDBRANCH   2  10
BRANCH   3  14
ATOM     14  O   UNL d   1       0.375  -2.331   0.156  0.00  0.00    -0.327 OA
BRANCH  14  15
ATOM     15  C   UNL d   1      -0.437  -3.367   0.705  0.00  0.00     0.261 C 
BRANCH  15  16
ATOM     16  C   UNL d   1      -0.741  -3.216   2.200  0.00  0.00     0.183 C 
ATOM     17  O   UNL d   1      -0.355  -2.248   2.856  0.00  0.00    -0.290 OA
BRANCH  16  18
ATOM     18  C   UNL d   1      -1.496  -4.308   2.891  0.00  0.00     0.012 A 
ATOM     19  C   UNL d   1      -1.984  -5.436   2.219  0.00  0.00     0.015 A 
ATOM     20  C   UNL d   1      -2.630  -6.453   2.930  0.00  0.00     0.001 A 
ATOM     21  C   UNL d   1      -2.797  -6.350   4.310  0.00  0.00     0.000 A 
ATOM     22  C   UNL d   1      -2.333  -5.222   4.983  0.00  0.00     0.001 A 
ATOM     23  C   UNL d   1      -1.690  -4.204   4.277  0.00  0.00     0.015 A 
ENDBRANCH  16  18
ENDBRANCH  15  16
ENDBRANCH  14  15
ENDBRANCH   3  14
BRANCH   6  24
ATOM     24  C   UNL d   1      -3.676   0.052  -0.216  0.00  0.00     0.031 A 
ATOM     25  S   UNL d   1      -4.528   1.332  -0.993  0.00  0.00    -0.100 SA
ATOM     26  C   UNL d   1      -6.023   0.522  -0.868  0.00  0.00     0.050 A 
ATOM     27  C   UNL d   1      -5.897  -0.699  -0.249  0.00  0.00     0.008 A 
ATOM     28  C   UNL d   1      -4.547  -0.971   0.123  0.00  0.00     0.021 A 
ENDBRANCH   6  24
TORSDOF 6
