REMARK  4 active torsions:
REMARK  status: ('A' for Active; 'I' for Inactive)
REMARK    1  A    between atoms: C_8  and  N_1 
REMARK       I    between atoms: C_2  and  N_7 
REMARK    2  A    between atoms: C_3  and  C_2 
REMARK    3  A    between atoms: N_7  and  C_21 
REMARK    4  A    between atoms: C_21  and  C_22 
ROOT
ATOM      1  C   UNL d   1      -8.985  -1.156   2.971  0.00  0.00     0.252 C 
ATOM      2  N   UNL d   1      -7.702  -1.040   2.485  0.00  0.00    -0.353 N 
ATOM      3  O   UNL d   1      -9.471  -0.372   3.784  0.00  0.00    -0.268 OA
ATOM      4  H   UNL d   1      -7.269  -1.820   2.005  0.00  0.00     0.163 HD
ENDROOT
BRANCH   2   5
ATOM      5  C   UNL d   1      -6.864   0.065   2.893  0.00  0.00     0.161 C 
BRANCH   5   6
ATOM      6  C   UNL d   1      -5.538   0.055   2.183  0.00  0.00    -0.040 A 
ATOM      7  C   UNL d   1      -5.388   0.705   0.957  0.00  0.00     0.011 A 
ATOM      8  C   UNL d   1      -4.159   0.686   0.285  0.00  0.00     0.030 A 
ATOM      9  C   UNL d   1      -3.038   0.013   0.793  0.00  0.00     0.030 A 
ATOM     10  C   UNL d   1      -3.209  -0.632   2.027  0.00  0.00     0.030 A 
ATOM     11  C   UNL d   1      -4.435  -0.619   2.712  0.00  0.00     0.011 A 
BRANCH   9  12
ATOM     12  N   UNL d   1      -1.859  -0.045   0.082  0.00  0.00    -0.378 N 
ATOM     13  C   UNL d   1      -0.885  -1.136   0.249  0.00  0.00     0.153 C 
ATOM     14  C   UNL d   1      -0.371  -1.595  -1.138  0.00  0.00     0.291 C 
ATOM     15  N   UNL d   1       0.188  -0.483  -1.940  0.00  0.00     0.087 N 
ATOM     16  C   UNL d   1      -0.850   0.562  -2.095  0.00  0.00     0.291 C 
ATOM     17  C   UNL d   1       0.641  -0.961  -3.243  0.00  0.00     0.310 C 
ATOM     18  C   UNL d   1      -1.364   1.080  -0.732  0.00  0.00     0.153 C 
ENDBRANCH   9  12
ENDBRANCH   5   6
ENDBRANCH   2   5
BRANCH   1  19
ATOM     19  C   UNL d   1      -9.794  -2.302   2.474  0.00  0.00     0.034 A 
ATOM     20  C   UNL d   1      -9.652  -2.783   1.166  0.00  0.00     0.056 A 
ATOM     21  C   UNL d   1     -10.497  -3.795   0.707  0.00  0.00     0.103 A 
ATOM     22  O   UNL d   1     -10.345  -4.176  -0.604  0.00  0.00    -0.346 OA
ATOM     23  C   UNL d   1     -11.450  -4.365   1.559  0.00  0.00     0.102 A 
ATOM     24  C   UNL d   1     -11.482  -4.918  -1.065  0.00  0.00     0.202 C 
ATOM     25  C   UNL d   1     -11.870  -5.981  -0.051  0.00  0.00     0.202 C 
ATOM     26  O   UNL d   1     -12.292  -5.378   1.178  0.00  0.00    -0.346 OA
ATOM     27  C   UNL d   1     -11.596  -3.886   2.859  0.00  0.00     0.040 A 
ATOM     28  C   UNL d   1     -10.776  -2.849   3.313  0.00  0.00     0.020 A 
ENDBRANCH   1  19
TORSDOF 4
