REMARK  6 active torsions:
REMARK  status: ('A' for Active; 'I' for Inactive)
REMARK    1  A    between atoms: C_4  and  C_1 
REMARK       I    between atoms: C_2  and  N_8 
REMARK       I    between atoms: N_3  and  C_2 
REMARK    2  A    between atoms: N_8  and  C_21 
REMARK    3  A    between atoms: C_20  and  C_12 
REMARK    4  A    between atoms: S_13  and  C_20 
REMARK    5  A    between atoms: C_23  and  S_13 
REMARK    6  A    between atoms: C_21  and  C_23 
ROOT
ATOM      1  S   UNL d   1      -2.981   1.337   2.467  0.00  0.00    -0.163 SA
ENDROOT
BRANCH   1   2
ATOM      2  C   UNL d   1      -2.416   2.994   1.964  0.00  0.00     0.112 C 
BRANCH   2   3
ATOM      3  C   UNL d   1      -1.416   2.874   0.835  0.00  0.00    -0.048 A 
ATOM      4  C   UNL d   1      -1.849   2.808  -0.501  0.00  0.00     0.024 A 
ATOM      5  C   UNL d   1      -0.935   2.621  -1.551  0.00  0.00     0.048 A 
ATOM      6  C   UNL d   1       0.430   2.502  -1.254  0.00  0.00     0.016 A 
ATOM      7  C   UNL d   1       0.872   2.566   0.070  0.00  0.00     0.001 A 
ATOM      8  C   UNL d   1      -0.046   2.746   1.106  0.00  0.00     0.008 A 
BRANCH   5   9
ATOM      9  C   UNL d   1      -1.399   2.526  -2.985  0.00  0.00     0.417 C 
ATOM     10  F   UNL d   1      -2.747   2.660  -3.135  0.00  0.00    -0.166 F 
ATOM     11  F   UNL d   1      -1.078   1.334  -3.561  0.00  0.00    -0.166 F 
ATOM     12  F   UNL d   1      -0.841   3.483  -3.777  0.00  0.00    -0.166 F 
ENDBRANCH   5   9
ENDBRANCH   2   3
ENDBRANCH   1   2
BRANCH   1  13
ATOM     13  C   UNL d   1      -4.094   1.772   3.855  0.00  0.00     0.094 C 
BRANCH  13  14
ATOM     14  C   UNL d   1      -4.589   0.455   4.471  0.00  0.00     0.134 C 
BRANCH  14  15
ATOM     15  N   UNL d   1      -5.583   0.561   5.532  0.00  0.00    -0.342 N 
ATOM     16  C   UNL d   1      -5.282   1.174   6.720  0.00  0.00     0.318 C 
ATOM     17  N   UNL d   1      -6.232   1.052   7.726  0.00  0.00    -0.333 N 
ATOM     18  O   UNL d   1      -4.234   1.798   6.869  0.00  0.00    -0.247 OA
ATOM     19  C   UNL d   1      -7.593   0.507   7.571  0.00  0.00     0.137 C 
ATOM     20  C   UNL d   1      -6.018   1.860   8.937  0.00  0.00     0.137 C 
ATOM     21  C   UNL d   1      -8.036  -0.372   8.746  0.00  0.00     0.093 C 
ATOM     22  S   UNL d   1      -8.015   0.523  10.329  0.00  0.00    -0.166 SA
ATOM     23  C   UNL d   1      -6.296   1.111  10.239  0.00  0.00     0.093 C 
ATOM     24  H   UNL d   1      -6.124  -0.280   5.638  0.00  0.00     0.164 HD
ENDBRANCH  14  15
ENDBRANCH  13  14
ENDBRANCH   1  13
TORSDOF 6
