REMARK  5 active torsions:
REMARK  status: ('A' for Active; 'I' for Inactive)
REMARK    1  A    between atoms: C_6  and  N_2 
REMARK    2  A    between atoms: C_8  and  C_6 
REMARK    3  A    between atoms: C_7  and  O_13 
REMARK       I    between atoms: N_12  and  C_8 
REMARK    4  A    between atoms: C_18  and  N_12 
REMARK    5  A    between atoms: O_13  and  C_19 
ROOT
ATOM      1  C   UNL d   1       1.803  -3.441  -0.071  0.00  0.00     0.241 C 
ATOM      2  N   UNL d   1       0.465  -3.777  -0.234  0.00  0.00    -0.326 N 
ATOM      3  O   UNL d   1       2.758  -4.210  -0.165  0.00  0.00    -0.271 OA
ATOM      4  H   UNL d   1      -0.194  -3.017  -0.368  0.00  0.00     0.169 HD
ENDROOT
BRANCH   1   5
ATOM      5  C   UNL d   1       2.028  -1.976   0.249  0.00  0.00     0.248 C 
BRANCH   5   6
ATOM      6  N   UNL d   1       2.550  -1.198  -0.871  0.00  0.00    -0.228 N 
ATOM      7  S   UNL d   1       1.685  -1.154  -2.309  0.00  0.00     0.269 S 
ATOM      8  C   UNL d   1       2.536   0.246  -2.894  0.00  0.00     0.095 A 
ATOM      9  O   UNL d   1       2.031  -2.286  -3.126  0.00  0.00    -0.200 OA
ATOM     10  O   UNL d   1       0.319  -0.790  -1.994  0.00  0.00    -0.200 OA
ATOM     11  C   UNL d   1       3.506   0.643  -1.982  0.00  0.00     0.056 A 
ATOM     12  C   UNL d   1       2.312   0.926  -4.079  0.00  0.00     0.026 A 
ATOM     13  C   UNL d   1       4.310   1.743  -2.234  0.00  0.00     0.018 A 
ATOM     14  C   UNL d   1       3.516  -0.177  -0.758  0.00  0.00     0.269 A 
ATOM     15  C   UNL d   1       4.110   2.443  -3.427  0.00  0.00     0.001 A 
ATOM     16  C   UNL d   1       3.116   2.041  -4.339  0.00  0.00     0.002 A 
ATOM     17  O   UNL d   1       4.200   0.047   0.225  0.00  0.00    -0.266 OA
ENDBRANCH   5   6
ENDBRANCH   1   5
BRANCH   2  18
ATOM     18  C   UNL d   1      -0.044  -5.080  -0.434  0.00  0.00     0.034 A 
ATOM     19  C   UNL d   1       0.705  -6.237  -0.210  0.00  0.00     0.032 A 
ATOM     20  C   UNL d   1       0.168  -7.496  -0.487  0.00  0.00     0.039 A 
ATOM     21  C   UNL d   1      -1.112  -7.609  -1.020  0.00  0.00     0.078 A 
ATOM     22  C   UNL d   1      -1.903  -6.471  -1.162  0.00  0.00     0.039 A 
ATOM     23  C   UNL d   1      -1.370  -5.209  -0.867  0.00  0.00     0.032 A 
BRANCH  21  24
ATOM     24  O   UNL d   1      -1.656  -8.828  -1.298  0.00  0.00    -0.255 OA
BRANCH  24  25
ATOM     25  C   UNL d   1      -1.023  -9.485  -2.396  0.00  0.00     0.530 C 
ATOM     26  F   UNL d   1       0.325  -9.426  -2.348  0.00  0.00    -0.144 F 
ATOM     27  F   UNL d   1      -1.375 -10.791  -2.371  0.00  0.00    -0.144 F 
ATOM     28  F   UNL d   1      -1.449  -8.960  -3.565  0.00  0.00    -0.144 F 
ENDBRANCH  24  25
ENDBRANCH  21  24
ENDBRANCH   2  18
TORSDOF 5
