REMARK  6 active torsions:
REMARK  status: ('A' for Active; 'I' for Inactive)
REMARK    1  A    between atoms: C_18  and  N_3 
REMARK    2  A    between atoms: C_16  and  C_4 
REMARK    3  A    between atoms: C_14  and  C_5 
REMARK    4  A    between atoms: N_6  and  C_11 
REMARK       I    between atoms: C_8  and  N_19 
REMARK    5  A    between atoms: C_9  and  C_8 
REMARK    6  A    between atoms: N_19  and  N_12 
ROOT
ATOM      1  N   UNL d   1       0.952  -0.624   0.126  0.00  0.00    -0.292 N 
ATOM      2  HN  UNL d   1       1.773  -1.217   0.246  1.00  0.00     0.187 HD
ATOM      3  N   UNL d   1      -0.341  -1.026  -0.014  0.00  0.00    -0.266 N 
ATOM      4  C   UNL d   1      -0.417   1.188  -0.025  0.00  0.00     0.027 A 
ATOM      5  C   UNL d   1       0.922   0.717   0.071  0.00  0.00     0.072 A 
ATOM      6  C   UNL d   1      -1.185   0.050  -0.128  0.00  0.00     0.132 A 
ENDROOT
BRANCH   4   7
ATOM      7  C   UNL d   1      -0.909   2.540  -0.016  0.00  0.00     0.122 C 
ATOM      8  N   UNL d   1      -2.013   2.817  -0.628  0.00  0.00    -0.308 N 
ATOM      9  HN  UNL d   1      -2.574   2.106  -1.097  1.00  0.00     0.186 HD
BRANCH   8  10
ATOM     10  N   UNL d   1      -2.370   4.133  -0.597  0.00  0.00    -0.266 N 
ATOM     11  C   UNL d   1      -3.502   4.589  -1.260  0.00  0.00     0.276 C 
ATOM     12  O   UNL d   1      -4.228   3.863  -1.936  0.00  0.00    -0.265 OA
ATOM     13  H   UNL d   1      -1.810   4.804  -0.082  0.00  0.00     0.190 HD
BRANCH  11  14
ATOM     14  C   UNL d   1      -3.768   6.016  -1.089  0.00  0.00     0.074 A 
ATOM     15  S   UNL d   1      -2.764   7.031  -0.133  0.00  0.00    -0.097 SA
ATOM     16  C   UNL d   1      -3.736   8.402  -0.440  0.00  0.00     0.050 A 
ATOM     17  C   UNL d   1      -4.801   8.106  -1.259  0.00  0.00     0.009 A 
ATOM     18  C   UNL d   1      -4.819   6.732  -1.634  0.00  0.00     0.025 A 
ENDBRANCH  11  14
ENDBRANCH   8  10
ENDBRANCH   4   7
BRANCH   5  19
ATOM     19  C   UNL d   1       2.155   1.518   0.115  0.00  0.00    -0.007 A 
ATOM     20  C   UNL d   1       3.274   1.079   0.839  0.00  0.00     0.016 A 
ATOM     21  C   UNL d   1       4.420   1.879   0.941  0.00  0.00     0.037 A 
ATOM     22  C   UNL d   1       4.449   3.132   0.315  0.00  0.00     0.102 A 
ATOM     23  C   UNL d   1       3.359   3.567  -0.445  0.00  0.00     0.037 A 
ATOM     24  C   UNL d   1       2.231   2.751  -0.558  0.00  0.00     0.016 A 
BRANCH  22  25
ATOM     25  N   UNL d   1       5.622   4.003   0.458  0.00  0.00    -0.116 N 
ATOM     26  O   UNL d   1       6.586   3.569   1.105  0.00  0.00    -0.532 OA
ATOM     27  O   UNL d   1       5.572   5.125  -0.064  0.00  0.00    -0.532 OA
ENDBRANCH  22  25
ENDBRANCH   5  19
BRANCH   3  28
ATOM     28  C   UNL d   1      -0.699  -2.405  -0.010  0.00  0.00     0.056 A 
ATOM     29  C   UNL d   1       0.289  -3.383   0.178  0.00  0.00     0.031 A 
ATOM     30  C   UNL d   1      -0.056  -4.737   0.189  0.00  0.00     0.002 A 
ATOM     31  C   UNL d   1      -1.383  -5.126   0.009  0.00  0.00     0.000 A 
ATOM     32  C   UNL d   1      -2.369  -4.161  -0.179  0.00  0.00     0.002 A 
ATOM     33  C   UNL d   1      -2.033  -2.805  -0.188  0.00  0.00     0.031 A 
ENDBRANCH   3  28
TORSDOF 6
