REMARK  4 active torsions:
REMARK  status: ('A' for Active; 'I' for Inactive)
REMARK    1  A    between atoms: C_2  and  C_1 
REMARK       I    between atoms: N_5  and  C_2 
REMARK    2  A    between atoms: C_4  and  C_3 
REMARK    3  A    between atoms: C_6  and  N_5 
REMARK    4  A    between atoms: O_18  and  C_11 
ROOT
ATOM      1  C   UNL d   1       0.732   1.263  -0.406  0.00  0.00     0.062 A 
ATOM      2  C   UNL d   1      -0.278   0.682   0.377  0.00  0.00     0.069 A 
ATOM      3  C   UNL d   1       1.343   0.435  -1.355  0.00  0.00     0.108 A 
ATOM      4  N   UNL d   1       0.978  -0.840  -1.635  0.00  0.00    -0.346 N 
ATOM      5  HN  UNL d   1       1.464  -1.394  -2.340  1.00  0.00     0.167 HD
ATOM      6  C   UNL d   1      -0.055  -1.336  -0.939  0.00  0.00     0.142 A 
ATOM      7  C   UNL d   1      -0.688  -0.635   0.070  0.00  0.00     0.073 A 
ENDROOT
BRANCH   1   8
ATOM      8  C   UNL d   1       1.244   2.669  -0.411  0.00  0.00     0.258 C 
ATOM      9  N   UNL d   1       0.388   3.684  -0.007  0.00  0.00    -0.322 N 
ATOM     10  H   UNL d   1      -0.253   3.452   0.737  0.00  0.00     0.169 HD
ATOM     11  O   UNL d   1       2.390   2.853  -0.814  0.00  0.00    -0.267 OA
BRANCH   9  12
ATOM     12  C   UNL d   1       0.834   5.030   0.044  0.00  0.00     0.041 A 
ATOM     13  C   UNL d   1       1.312   5.735  -1.083  0.00  0.00    -0.029 A 
ATOM     14  C   UNL d   1       1.860   7.030  -0.888  0.00  0.00    -0.054 A 
ATOM     15  C   UNL d   1       1.176   5.179  -2.478  0.00  0.00     0.051 C 
ATOM     16  C   UNL d   1       2.477   7.840  -1.996  0.00  0.00     0.049 C 
ATOM     17  C   UNL d   1       1.843   7.606   0.393  0.00  0.00     0.007 A 
ATOM     18  C   UNL d   1       1.284   6.929   1.474  0.00  0.00     0.003 A 
ATOM     19  C   UNL d   1       0.775   5.651   1.298  0.00  0.00     0.030 A 
ENDBRANCH   9  12
ENDBRANCH   1   8
BRANCH   2  20
ATOM     20  C   UNL d   1      -0.960   1.317   1.550  0.00  0.00     0.418 C 
ATOM     21  F   UNL d   1      -0.372   2.454   2.005  0.00  0.00    -0.166 F 
ATOM     22  F   UNL d   1      -2.246   1.660   1.269  0.00  0.00    -0.166 F 
ATOM     23  F   UNL d   1      -1.021   0.491   2.631  0.00  0.00    -0.166 F 
ENDBRANCH   2  20
BRANCH   6  24
ATOM     24  O   UNL d   1      -0.541  -2.594  -1.218  0.00  0.00    -0.341 OA
ATOM     25  C   UNL d   1       0.122  -3.213  -2.318  0.00  0.00     0.211 C 
ENDBRANCH   6  24
TORSDOF 4
