REMARK  6 active torsions:
REMARK  status: ('A' for Active; 'I' for Inactive)
REMARK    1  A    between atoms: C_2  and  C_1 
REMARK    2  A    between atoms: C_10  and  C_2 
REMARK    3  A    between atoms: C_12  and  N_3 
REMARK    4  A    between atoms: C_14  and  C_10 
REMARK    5  A    between atoms: N_15  and  C_11 
REMARK    6  A    between atoms: O_21  and  C_18 
ROOT
ATOM      1  C   UNL d   1      -0.192  -1.448   0.207  0.00  0.00     0.160 A 
ATOM      2  N   UNL d   1       0.239  -0.585  -0.806  0.00  0.00    -0.222 N 
ATOM      3  N   UNL d   1       0.460   0.626  -0.219  0.00  0.00    -0.219 N 
ATOM      4  HN  UNL d   1       0.740   1.486  -0.691  1.00  0.00     0.210 HD
ATOM      5  N   UNL d   1       0.243   0.477   1.073  0.00  0.00    -0.226 N 
ATOM      6  HN  UNL d   1       0.346   1.218   1.766  1.00  0.00     0.210 HD
ATOM      7  N   UNL d   1      -0.137  -0.796   1.357  0.00  0.00    -0.267 N 
ATOM      8  HN  UNL d   1      -0.340  -1.176   2.281  1.00  0.00     0.190 HD
ENDROOT
BRANCH   1   9
ATOM      9  C   UNL d   1      -0.552  -2.806   0.013  0.00  0.00     0.077 C 
ATOM     10  C   UNL d   1       0.417  -3.719   0.238  0.00  0.00     0.104 C 
BRANCH   9  11
ATOM     11  C   UNL d   1      -1.911  -3.167  -0.519  0.00  0.00     0.197 C 
ATOM     12  O   UNL d   1      -2.064  -4.136  -1.263  0.00  0.00    -0.286 OA
BRANCH  11  13
ATOM     13  C   UNL d   1      -3.100  -2.294  -0.285  0.00  0.00     0.015 A 
ATOM     14  C   UNL d   1      -4.125  -2.340  -1.247  0.00  0.00     0.015 A 
ATOM     15  C   UNL d   1      -5.277  -1.565  -1.105  0.00  0.00     0.001 A 
ATOM     16  C   UNL d   1      -5.418  -0.730  -0.002  0.00  0.00     0.000 A 
ATOM     17  C   UNL d   1      -4.416  -0.688   0.969  0.00  0.00     0.001 A 
ATOM     18  C   UNL d   1      -3.270  -1.479   0.839  0.00  0.00     0.015 A 
ENDBRANCH  11  13
ENDBRANCH   9  11
BRANCH  10  19
ATOM     19  N   UNL d   1       0.478  -5.108   0.195  0.00  0.00    -0.398 N 
ATOM     20  C   UNL d   1      -0.663  -5.988   0.439  0.00  0.00     0.148 C 
ATOM     21  C   UNL d   1       1.709  -5.811  -0.171  0.00  0.00     0.148 C 
ENDBRANCH  10  19
ENDBRANCH   1   9
BRANCH   2  22
ATOM     22  C   UNL d   1       0.519  -0.744  -2.197  0.00  0.00     0.060 A 
ATOM     23  C   UNL d   1       0.337  -1.944  -2.892  0.00  0.00     0.034 A 
ATOM     24  C   UNL d   1       0.679  -2.044  -4.251  0.00  0.00     0.039 A 
ATOM     25  C   UNL d   1       1.221  -0.957  -4.932  0.00  0.00     0.068 A 
ATOM     26  C   UNL d   1       1.390   0.246  -4.252  0.00  0.00     0.039 A 
ATOM     27  C   UNL d   1       1.041   0.357  -2.903  0.00  0.00     0.034 A 
BRANCH  25  28
ATOM     28  O   UNL d   1       1.624  -0.942  -6.237  0.00  0.00    -0.356 OA
ATOM     29  C   UNL d   1       1.552  -2.172  -6.946  0.00  0.00     0.210 C 
ENDBRANCH  25  28
ENDBRANCH   2  22
TORSDOF 6
