REMARK  4 active torsions:
REMARK  status: ('A' for Active; 'I' for Inactive)
REMARK       I    between atoms: C_2  and  N_1 
REMARK    1  A    between atoms: C_6  and  C_2 
REMARK    2  A    between atoms: C_5  and  C_3 
REMARK    3  A    between atoms: C_7  and  C_5 
REMARK       I    between atoms: N_9  and  C_7 
REMARK    4  A    between atoms: C_8  and  N_9 
ROOT
ATOM      1  N   UNL d   1      -1.521  -1.266   0.216  0.00  0.00    -0.333 N 
ATOM      2  C   UNL d   1      -2.337  -2.123   0.958  0.00  0.00     0.254 C 
ATOM      3  C   UNL d   1      -0.032  -1.295   0.357  0.00  0.00     0.188 C 
ATOM      4  C   UNL d   1       0.461  -0.073   1.185  0.00  0.00     0.241 C 
ATOM      5  N   UNL d   1      -0.206   1.116   0.989  0.00  0.00    -0.358 N 
ATOM      6  O   UNL d   1      -1.893  -3.027   1.664  0.00  0.00    -0.267 OA
ATOM      7  O   UNL d   1       1.500  -0.058   1.842  0.00  0.00    -0.271 OA
ATOM      8  C   UNL d   1      -1.981   0.015  -0.348  0.00  0.00     0.147 C 
ATOM      9  C   UNL d   1      -1.590   1.171   0.573  0.00  0.00     0.142 C 
ATOM     10  H   UNL d   1       0.167   1.877   1.546  0.00  0.00     0.162 HD
ENDROOT
BRANCH   3  11
ATOM     11  C   UNL d   1       0.678  -2.559   0.846  0.00  0.00     0.138 C 
BRANCH  11  12
ATOM     12  C   UNL d   1       0.669  -3.658  -0.187  0.00  0.00     0.224 C 
ATOM     13  N   UNL d   1      -0.294  -4.619   0.027  0.00  0.00    -0.326 N 
ATOM     14  H   UNL d   1      -1.066  -4.362   0.651  0.00  0.00     0.169 HD
ATOM     15  O   UNL d   1       1.472  -3.650  -1.119  0.00  0.00    -0.273 OA
BRANCH  13  16
ATOM     16  C   UNL d   1      -0.352  -5.909  -0.551  0.00  0.00     0.058 A 
ATOM     17  C   UNL d   1       0.759  -6.491  -1.173  0.00  0.00     0.055 A 
ATOM     18  C   UNL d   1       0.700  -7.811  -1.630  0.00  0.00     0.036 A 
ATOM     19 CL   UNL d   1       2.090  -8.530  -2.348  0.00  0.00    -0.084 Cl
ATOM     20  C   UNL d   1      -0.464  -8.562  -1.489  0.00  0.00     0.026 A 
ATOM     21  C   UNL d   1      -1.585  -7.986  -0.894  0.00  0.00     0.028 A 
ATOM     22  C   UNL d   1      -1.530  -6.670  -0.425  0.00  0.00     0.060 A 
ATOM     23 CL   UNL d   1      -2.959  -6.005   0.286  0.00  0.00    -0.082 Cl
ENDBRANCH  13  16
ENDBRANCH  11  12
ENDBRANCH   3  11
BRANCH   2  24
ATOM     24  C   UNL d   1      -3.822  -2.023   0.911  0.00  0.00     0.032 A 
ATOM     25  C   UNL d   1      -4.520  -1.818  -0.279  0.00  0.00     0.024 A 
ATOM     26  C   UNL d   1      -5.918  -1.671  -0.277  0.00  0.00    -0.055 A 
ATOM     27  C   UNL d   1      -6.612  -1.288  -1.554  0.00  0.00     0.049 C 
ATOM     28  C   UNL d   1      -6.633  -1.878   0.919  0.00  0.00    -0.056 A 
ATOM     29  C   UNL d   1      -5.931  -2.165   2.097  0.00  0.00     0.008 A 
ATOM     30  C   UNL d   1      -8.135  -1.801   0.955  0.00  0.00     0.049 C 
ATOM     31  C   UNL d   1      -4.535  -2.223   2.099  0.00  0.00     0.017 A 
ENDBRANCH   2  24
TORSDOF 4
