REMARK  2 active torsions:
REMARK  status: ('A' for Active; 'I' for Inactive)
REMARK    1  A    between atoms: N_2  and  C_1 
REMARK    2  A    between atoms: C_6  and  N_4 
ROOT
ATOM      1  N   UNL d   1       3.684  -1.452   0.155  0.00  0.00    -0.381 N 
ATOM      2  N   UNL d   1       5.637  -3.293   1.196  0.00  0.00    -0.378 N 
ATOM      3  C   UNL d   1       4.122  -2.604  -0.666  0.00  0.00     0.142 C 
ATOM      4  C   UNL d   1       4.749  -0.988   1.075  0.00  0.00     0.142 C 
ATOM      5  C   UNL d   1       5.216  -2.130   2.001  0.00  0.00     0.143 C 
ATOM      6  C   UNL d   1       4.615  -3.760   0.238  0.00  0.00     0.143 C 
ENDROOT
BRANCH   1   7
ATOM      7  C   UNL d   1       2.470  -0.781  -0.011  0.00  0.00     0.008 C 
ATOM      8  C   UNL d   1       1.849  -0.124   0.988  0.00  0.00     0.037 C 
ATOM      9  C   UNL d   1       0.578   0.581   0.793  0.00  0.00    -0.028 A 
ATOM     10  C   UNL d   1      -0.170   1.011   1.894  0.00  0.00     0.012 A 
ATOM     11  C   UNL d   1       0.129   0.860  -0.507  0.00  0.00    -0.048 A 
ATOM     12  C   UNL d   1      -1.356   1.720   1.702  0.00  0.00     0.001 A 
ATOM     13  C   UNL d   1      -1.794   2.011   0.411  0.00  0.00     0.001 A 
ATOM     14  C   UNL d   1      -1.053   1.587  -0.692  0.00  0.00     0.008 A 
ATOM     15  C   UNL d   1       0.977   0.446  -1.680  0.00  0.00     0.045 C 
ATOM     16  C   UNL d   1       1.813  -0.806  -1.383  0.00  0.00     0.061 C 
ENDBRANCH   1   7
BRANCH   2  17
ATOM     17  C   UNL d   1       6.879  -3.873   1.330  0.00  0.00     0.030 A 
ATOM     18  C   UNL d   1       7.575  -3.848   2.553  0.00  0.00     0.032 A 
ATOM     19  C   UNL d   1       8.847  -4.415   2.694  0.00  0.00     0.044 A 
ATOM     20  C   UNL d   1       9.444  -5.024   1.605  0.00  0.00     0.116 A 
ATOM     21  C   UNL d   1       8.794  -5.077   0.383  0.00  0.00     0.044 A 
ATOM     22  F   UNL d   1      10.662  -5.567   1.732  0.00  0.00    -0.206 F 
ATOM     23  C   UNL d   1       7.523  -4.505   0.253  0.00  0.00     0.032 A 
ENDBRANCH   2  17
TORSDOF 2
