REMARK  4 active torsions:
REMARK  status: ('A' for Active; 'I' for Inactive)
REMARK    1  A    between atoms: C_7  and  C_1 
REMARK    2  A    between atoms: C_11  and  C_6 
REMARK    3  A    between atoms: O_9  and  C_7 
REMARK    4  A    between atoms: C_12  and  C_11 
ROOT
ATOM      1  C   UNL d   1       0.137  -1.342   0.035  0.00  0.00     0.093 A 
ATOM      2  N   UNL d   1      -1.267   0.459   0.095  0.00  0.00    -0.264 N 
ATOM      3  HN  UNL d   1      -2.106   1.038   0.128  1.00  0.00     0.194 HD
ATOM      4  O   UNL d   1       0.037   0.892   0.092  0.00  0.00    -0.241 OA
ATOM      5  C   UNL d   1       0.877  -0.174   0.050  0.00  0.00     0.091 A 
ATOM      6  C   UNL d   1      -1.214  -0.877   0.046  0.00  0.00     0.052 A 
ATOM      7  C   UNL d   1       2.314   0.170  -0.012  0.00  0.00     0.080 C 
ENDROOT
BRANCH   1   8
ATOM      8  C   UNL d   1       0.604  -2.710  -0.030  0.00  0.00     0.180 C 
ATOM      9  O   UNL d   1      -0.057  -3.623  -0.500  0.00  0.00    -0.646 OA
BRANCH   8  10
ATOM     10  O   UNL d   1       1.834  -2.939   0.497  0.00  0.00    -0.773 OA
ATOM     11  H   UNL d   1       2.189  -2.191   1.006  0.00  0.00     0.167 HD
ENDBRANCH   8  10
ENDBRANCH   1   8
BRANCH   6  12
ATOM     12  C   UNL d   1      -2.494  -1.651   0.021  0.00  0.00     0.060 C 
BRANCH  12  13
ATOM     13  C   UNL d   1      -3.106  -1.872   1.408  0.00  0.00     0.002 C 
ATOM     14  C   UNL d   1      -2.295  -2.809   2.291  0.00  0.00     0.005 C 
ENDBRANCH  12  13
ENDBRANCH   6  12
TORSDOF 4
