REMARK  5 active torsions:
REMARK  status: ('A' for Active; 'I' for Inactive)
REMARK    1  A    between atoms: C_6  and  C_1 
REMARK    2  A    between atoms: N_5  and  N_2 
REMARK       I    between atoms: C_4  and  N_5 
REMARK    3  A    between atoms: O_17  and  C_4 
REMARK    4  A    between atoms: C_7  and  C_8 
REMARK    5  A    between atoms: C_19  and  O_17 
ROOT
ATOM      1  N   UNL d   1      -2.208  -5.724  -0.668  0.00  0.00    -0.300 N 
ATOM      2  HN  UNL d   1      -2.468  -6.702  -0.799  1.00  0.00     0.186 HD
ATOM      3  C   UNL d   1      -0.956  -5.410  -0.510  0.00  0.00     0.032 C 
ATOM      4  C   UNL d   1      -0.422  -4.002  -0.326  0.00  0.00     0.070 C 
ENDROOT
BRANCH   3   5
ATOM      5  C   UNL d   1       0.049  -6.534  -0.513  0.00  0.00    -0.013 A 
ATOM      6  C   UNL d   1      -0.394  -7.849  -0.715  0.00  0.00     0.014 A 
ATOM      7  C   UNL d   1       0.508  -8.918  -0.694  0.00  0.00     0.017 A 
ATOM      8  C   UNL d   1       1.874  -8.693  -0.472  0.00  0.00     0.048 A 
ATOM      9  C   UNL d   1       2.317  -7.376  -0.287  0.00  0.00     0.017 A 
ATOM     10  C   UNL d   1       1.415  -6.306  -0.308  0.00  0.00     0.014 A 
BRANCH   8  11
ATOM     11  C   UNL d   1       2.837  -9.854  -0.427  0.00  0.00     0.417 C 
ATOM     12  F   UNL d   1       4.129  -9.478  -0.209  0.00  0.00    -0.166 F 
ATOM     13  F   UNL d   1       2.849 -10.570  -1.585  0.00  0.00    -0.166 F 
ATOM     14  F   UNL d   1       2.538 -10.742   0.561  0.00  0.00    -0.166 F 
ENDBRANCH   8  11
ENDBRANCH   3   5
BRANCH   1  15
ATOM     15  N   UNL d   1      -3.173  -4.773  -0.663  0.00  0.00    -0.245 N 
ATOM     16  C   UNL d   1      -4.457  -5.072  -1.043  0.00  0.00     0.379 C 
ATOM     17  O   UNL d   1      -4.895  -6.172  -1.351  0.00  0.00    -0.237 OA
ATOM     18  H   UNL d   1      -2.969  -3.795  -0.533  0.00  0.00     0.192 HD
BRANCH  16  19
ATOM     19  O   UNL d   1      -5.166  -3.911  -1.098  0.00  0.00    -0.303 OA
BRANCH  19  20
ATOM     20  C   UNL d   1      -6.416  -3.991  -1.796  0.00  0.00     0.176 C 
ATOM     21  C   UNL d   1      -6.157  -3.719  -3.267  0.00  0.00     0.034 C 
ENDBRANCH  19  20
ENDBRANCH  16  19
ENDBRANCH   1  15
TORSDOF 5
