REMARK  4 active torsions:
REMARK  status: ('A' for Active; 'I' for Inactive)
REMARK    1  A    between atoms: C_4  and  C_1 
REMARK    2  A    between atoms: C_2  and  C_3 
REMARK       I    between atoms: N_6  and  C_4 
REMARK       I    between atoms: C_5  and  N_7 
REMARK    3  A    between atoms: C_8  and  C_5 
REMARK    4  A    between atoms: N_7  and  N_6 
ROOT
ATOM      1  C   UNL d   1       1.113   2.621  -0.010  0.00  0.00     0.272 C 
ATOM      2  N   UNL d   1       0.392   3.743   0.330  0.00  0.00    -0.263 N 
ATOM      3  O   UNL d   1       0.574   1.617  -0.467  0.00  0.00    -0.266 OA
ATOM      4  H   UNL d   1       0.781   4.622   0.667  0.00  0.00     0.190 HD
ENDROOT
BRANCH   1   5
ATOM      5  C   UNL d   1       2.580   2.612   0.259  0.00  0.00     0.064 A 
ATOM      6  C   UNL d   1       3.499   3.665   0.128  0.00  0.00     0.066 A 
ATOM      7  C   UNL d   1       4.852   3.418   0.465  0.00  0.00     0.034 A 
ATOM      8  C   UNL d   1       5.241   2.160   0.882  0.00  0.00     0.088 A 
ATOM      9  N   UNL d   1       4.386   1.131   0.986  0.00  0.00    -0.374 N 
ATOM     10  C   UNL d   1       3.088   1.377   0.669  0.00  0.00     0.105 A 
ATOM     11  HN  UNL d   1       4.696   0.207   1.288  1.00  0.00     0.164 HD
BRANCH   6  12
ATOM     12  C   UNL d   1       3.200   5.047  -0.378  0.00  0.00     0.418 C 
ATOM     13  F   UNL d   1       1.951   5.235  -0.867  0.00  0.00    -0.166 F 
ATOM     14  F   UNL d   1       3.359   5.980   0.600  0.00  0.00    -0.166 F 
ATOM     15  F   UNL d   1       4.043   5.418  -1.382  0.00  0.00    -0.166 F 
ENDBRANCH   6  12
ENDBRANCH   1   5
BRANCH   2  16
ATOM     16  N   UNL d   1      -0.990   3.771   0.065  0.00  0.00    -0.263 N 
ATOM     17  C   UNL d   1      -1.717   4.804   0.628  0.00  0.00     0.270 C 
ATOM     18  O   UNL d   1      -1.191   5.627   1.376  0.00  0.00    -0.266 OA
ATOM     19  H   UNL d   1      -1.379   2.969  -0.421  0.00  0.00     0.190 HD
BRANCH  17  20
ATOM     20  C   UNL d   1      -3.166   4.924   0.291  0.00  0.00     0.035 A 
ATOM     21  C   UNL d   1      -3.746   4.296  -0.815  0.00  0.00     0.041 A 
ATOM     22  C   UNL d   1      -5.089   4.544  -1.124  0.00  0.00     0.035 A 
ATOM     23 CL   UNL d   1      -5.796   3.799  -2.506  0.00  0.00    -0.084 Cl
ATOM     24  C   UNL d   1      -5.859   5.404  -0.342  0.00  0.00     0.024 A 
ATOM     25  C   UNL d   1      -5.290   6.023   0.767  0.00  0.00     0.003 A 
ATOM     26  C   UNL d   1      -3.948   5.783   1.080  0.00  0.00     0.017 A 
ENDBRANCH  17  20
ENDBRANCH   2  16
TORSDOF 4
