REMARK  4 active torsions:
REMARK  status: ('A' for Active; 'I' for Inactive)
REMARK    1  A    between atoms: N_2  and  S_1 
REMARK    2  A    between atoms: C_3  and  S_1 
REMARK    3  A    between atoms: C_4  and  N_2 
REMARK    4  A    between atoms: C_15  and  N_2 
ROOT
ATOM      1  N   UNL d   1       0.296  -0.821  -1.338  0.00  0.00    -0.271 N 
ENDROOT
BRANCH   1   2
ATOM      2  S   UNL d   1       1.086  -0.085  -0.029  0.00  0.00     0.265 S 
ATOM      3  O   UNL d   1       2.512  -0.283  -0.200  0.00  0.00    -0.200 OA
ATOM      4  O   UNL d   1       0.419  -0.422   1.212  0.00  0.00    -0.200 OA
BRANCH   2   5
ATOM      5  C   UNL d   1       0.737   1.648  -0.322  0.00  0.00     0.082 A 
ATOM      6  C   UNL d   1       1.784   2.557  -0.498  0.00  0.00     0.062 A 
ATOM      7  C   UNL d   1       1.442   3.874  -0.745  0.00  0.00     0.076 A 
ATOM      8  O   UNL d   1       2.352   4.883  -0.922  0.00  0.00    -0.350 OA
ATOM      9  C   UNL d   1       0.124   4.296  -0.812  0.00  0.00    -0.023 A 
ATOM     10  C   UNL d   1       1.554   5.999  -1.382  0.00  0.00     0.180 C 
ATOM     11  C   UNL d   1       0.086   5.763  -1.020  0.00  0.00     0.068 C 
ATOM     12  C   UNL d   1      -0.920   3.409  -0.621  0.00  0.00     0.011 A 
ATOM     13  C   UNL d   1      -0.608   2.066  -0.372  0.00  0.00     0.026 A 
ENDBRANCH   2   5
ENDBRANCH   1   2
BRANCH   1  14
ATOM     14  C   UNL d   1      -0.370  -2.078  -1.093  0.00  0.00     0.056 A 
ATOM     15  C   UNL d   1       0.270  -3.351  -1.089  0.00  0.00     0.002 A 
ATOM     16  C   UNL d   1      -0.547  -4.505  -0.933  0.00  0.00    -0.024 A 
ATOM     17  C   UNL d   1       1.662  -3.565  -1.238  0.00  0.00     0.014 A 
ATOM     18  C   UNL d   1       0.016  -5.790  -0.977  0.00  0.00     0.012 A 
ATOM     19  C   UNL d   1      -1.930  -4.370  -0.740  0.00  0.00     0.012 A 
ATOM     20  C   UNL d   1       1.385  -5.966  -1.158  0.00  0.00     0.001 A 
ATOM     21  C   UNL d   1       2.209  -4.854  -1.274  0.00  0.00     0.001 A 
ATOM     22  C   UNL d   1      -2.531  -3.117  -0.718  0.00  0.00     0.003 A 
ATOM     23  C   UNL d   1      -1.755  -1.980  -0.903  0.00  0.00     0.031 A 
ENDBRANCH   1  14
BRANCH   1  24
ATOM     24  C   UNL d   1       0.781  -0.530  -2.704  0.00  0.00     0.137 C 
ATOM     25  C   UNL d   1      -0.392  -0.144  -3.593  0.00  0.00     0.028 C 
ENDBRANCH   1  24
TORSDOF 4
