REMARK  4 active torsions:
REMARK  status: ('A' for Active; 'I' for Inactive)
REMARK    1  A    between atoms: C_12  and  C_2 
REMARK       I    between atoms: C_3  and  N_10 
REMARK       I    between atoms: N_6  and  C_3 
REMARK    2  A    between atoms: C_5  and  N_6 
REMARK    3  A    between atoms: N_10  and  C_12 
REMARK    4  A    between atoms: O_19  and  C_11 
ROOT
ATOM      1  C   UNL d   1      -2.718  -3.873   0.219  0.00  0.00     0.321 C 
ATOM      2  N   UNL d   1      -4.014  -3.982   0.623  0.00  0.00    -0.306 N 
ATOM      3  N   UNL d   1      -2.215  -2.613   0.079  0.00  0.00    -0.337 N 
ATOM      4  O   UNL d   1      -2.049  -4.892   0.082  0.00  0.00    -0.247 OA
ATOM      5  H   UNL d   1      -4.203  -4.902   0.989  0.00  0.00     0.171 HD
ATOM      6  H   UNL d   1      -2.784  -1.824   0.343  0.00  0.00     0.164 HD
ENDROOT
BRANCH   3   7
ATOM      7  C   UNL d   1      -0.829  -2.373  -0.220  0.00  0.00     0.181 C 
BRANCH   7   8
ATOM      8  C   UNL d   1      -0.176  -1.532   0.833  0.00  0.00     0.029 A 
ATOM      9  N   UNL d   1       1.149  -1.138   0.735  0.00  0.00    -0.357 N 
ATOM     10  C   UNL d   1       1.523  -0.440   1.866  0.00  0.00     0.007 A 
ATOM     11  C   UNL d   1       2.039  -1.428  -0.374  0.00  0.00     0.156 C 
ATOM     12  C   UNL d   1       0.406  -0.341   2.671  0.00  0.00     0.027 A 
ATOM     13  C   UNL d   1       2.897   0.077   2.122  0.00  0.00     0.068 C 
ATOM     14  C   UNL d   1      -0.651  -1.026   2.033  0.00  0.00     0.029 A 
ENDBRANCH   7   8
ENDBRANCH   3   7
BRANCH   2  15
ATOM     15  C   UNL d   1      -5.010  -3.000   0.710  0.00  0.00     0.071 A 
ATOM     16  C   UNL d   1      -5.225  -2.164  -0.399  0.00  0.00     0.056 A 
ATOM     17  C   UNL d   1      -6.192  -1.161  -0.353  0.00  0.00     0.036 A 
ATOM     18 CL   UNL d   1      -6.454  -0.159  -1.726  0.00  0.00    -0.084 Cl
ATOM     19  C   UNL d   1      -6.944  -0.966   0.798  0.00  0.00     0.026 A 
ATOM     20  C   UNL d   1      -6.747  -1.803   1.897  0.00  0.00     0.041 A 
ATOM     21  C   UNL d   1      -5.811  -2.847   1.855  0.00  0.00     0.095 A 
BRANCH  21  22
ATOM     22  O   UNL d   1      -5.686  -3.497   3.054  0.00  0.00    -0.354 OA
ATOM     23  C   UNL d   1      -5.475  -4.900   3.031  0.00  0.00     0.210 C 
ENDBRANCH  21  22
ENDBRANCH   2  15
TORSDOF 4
