REMARK  4 active torsions:
REMARK  status: ('A' for Active; 'I' for Inactive)
REMARK    1  A    between atoms: C_5  and  C_1 
REMARK    2  A    between atoms: C_8  and  N_2 
REMARK    3  A    between atoms: O_11  and  C_7 
REMARK    4  A    between atoms: C_10  and  C_8 
ROOT
ATOM      1  N   UNL d   1      -3.329  10.292   0.181  0.00  0.00    -0.191 NA
ATOM      2  C   UNL d   1      -2.912   9.210   0.146  0.00  0.00     0.099 C 
ATOM      3  C   UNL d   1      -2.405   7.869   0.101  0.00  0.00     0.044 A 
ATOM      4  C   UNL d   1      -1.442   5.227   0.026  0.00  0.00    -0.041 A 
ATOM      5  C   UNL d   1      -1.593   7.387   1.131  0.00  0.00     0.023 A 
ATOM      6  C   UNL d   1      -2.731   7.034  -0.971  0.00  0.00     0.023 A 
ATOM      7  C   UNL d   1      -2.252   5.722  -1.008  0.00  0.00     0.010 A 
ATOM      8  C   UNL d   1      -1.113   6.074   1.093  0.00  0.00     0.010 A 
ENDROOT
BRANCH   4   9
ATOM      9  C   UNL d   1      -1.003   3.781   0.024  0.00  0.00     0.158 C 
BRANCH   9  10
ATOM     10  N   UNL d   1       0.455   3.622   0.052  0.00  0.00    -0.388 N 
ATOM     11  C   UNL d   1       0.941   2.418   0.044  0.00  0.00     0.014 C 
ATOM     12  C   UNL d   1       0.098   1.152   0.012  0.00  0.00     0.068 C 
ATOM     13  HN  UNL d   1       1.070   4.435   0.077  1.00  0.00     0.159 HD
BRANCH  11  14
ATOM     14  C   UNL d   1       2.441   2.240   0.071  0.00  0.00     0.019 A 
ATOM     15  C   UNL d   1       3.304   3.348   0.091  0.00  0.00     0.077 A 
ATOM     16  C   UNL d   1       4.690   3.178   0.122  0.00  0.00     0.037 A 
ATOM     17  C   UNL d   1       5.238   1.898   0.132  0.00  0.00     0.003 A 
ATOM     18  C   UNL d   1       4.400   0.786   0.109  0.00  0.00     0.001 A 
ATOM     19  C   UNL d   1       3.012   0.956   0.079  0.00  0.00     0.016 A 
BRANCH  15  20
ATOM     20  O   UNL d   1       2.859   4.643   0.082  0.00  0.00    -0.360 OA
ATOM     21  H   UNL d   1       1.874   4.606   0.050  0.00  0.00     0.217 HD
ENDBRANCH  15  20
ENDBRANCH  11  14
ENDBRANCH   9  10
ENDBRANCH   4   9
TORSDOF 4
