REMARK  8 active torsions:
REMARK  status: ('A' for Active; 'I' for Inactive)
REMARK    1  A    between atoms: C_6  and  N_1 
REMARK       I    between atoms: N_2  and  C_4 
REMARK    2  A    between atoms: C_3  and  N_2 
REMARK       I    between atoms: C_4  and  N_9 
REMARK    3  A    between atoms: N_9  and  C_19 
REMARK    4  A    between atoms: O_16  and  C_18 
REMARK    5  A    between atoms: C_20  and  O_16 
REMARK    6  A    between atoms: C_17  and  C_20 
REMARK    7  A    between atoms: C_19  and  C_17 
REMARK    8  A    between atoms: O_23  and  C_17 
ROOT
ATOM      1  C   UNL d   1      -2.799   5.300   3.968  0.00  0.00     0.160 C 
ENDROOT
BRANCH   1   2
ATOM      2  C   UNL d   1      -1.697   4.672   3.100  0.00  0.00     0.209 C 
BRANCH   2   3
ATOM      3  O   UNL d   1      -1.688   5.316   1.819  0.00  0.00    -0.349 OA
BRANCH   3   4
ATOM      4  C   UNL d   1      -0.753   4.870   0.925  0.00  0.00     0.069 A 
ATOM      5  C   UNL d   1      -1.034   5.162  -0.413  0.00  0.00     0.039 A 
ATOM      6  C   UNL d   1      -0.156   4.777  -1.429  0.00  0.00     0.039 A 
ATOM      7  C   UNL d   1       1.027   4.107  -1.095  0.00  0.00     0.103 A 
ATOM      8  C   UNL d   1       1.326   3.823   0.244  0.00  0.00     0.039 A 
ATOM      9  C   UNL d   1       0.432   4.203   1.251  0.00  0.00     0.039 A 
BRANCH   7  10
ATOM     10  N   UNL d   1       1.962   3.705  -2.150  0.00  0.00    -0.116 N 
ATOM     11  O   UNL d   1       3.021   3.156  -1.806  0.00  0.00    -0.532 OA
ATOM     12  O   UNL d   1       1.644   3.938  -3.325  0.00  0.00    -0.532 OA
ENDBRANCH   7  10
ENDBRANCH   3   4
ENDBRANCH   2   3
ENDBRANCH   1   2
BRANCH   1  13
ATOM     13  C   UNL d   1      -3.064   4.508   5.259  0.00  0.00     0.158 C 
BRANCH  13  14
ATOM     14  N   UNL d   1      -1.936   4.517   6.178  0.00  0.00    -0.340 N 
ATOM     15  C   UNL d   1      -0.941   3.599   6.155  0.00  0.00     0.321 C 
ATOM     16  N   UNL d   1       0.088   3.728   7.035  0.00  0.00    -0.303 N 
ATOM     17  O   UNL d   1      -0.888   2.712   5.304  0.00  0.00    -0.247 OA
ATOM     18  H   UNL d   1       0.846   3.092   6.820  0.00  0.00     0.171 HD
ATOM     19  H   UNL d   1      -1.964   5.160   6.958  0.00  0.00     0.164 HD
BRANCH  16  20
ATOM     20  C   UNL d   1       0.272   4.541   8.136  0.00  0.00     0.077 A 
ATOM     21  S   UNL d   1      -0.987   5.435   8.843  0.00  0.00    -0.084 SA
ATOM     22  C   UNL d   1       0.029   6.025  10.083  0.00  0.00     0.052 A 
ATOM     23  C   UNL d   1       1.316   5.556   9.954  0.00  0.00     0.010 A 
ATOM     24  C   UNL d   1       1.453   4.687   8.832  0.00  0.00     0.038 A 
ENDBRANCH  16  20
ENDBRANCH  13  14
ENDBRANCH   1  13
BRANCH   1  25
ATOM     25  O   UNL d   1      -2.452   6.650   4.324  0.00  0.00    -0.392 OA
ATOM     26  H   UNL d   1      -1.603   6.604   4.797  0.00  0.00     0.210 HD
ENDBRANCH   1  25
TORSDOF 8
