REMARK  1 active torsions:
REMARK  status: ('A' for Active; 'I' for Inactive)
REMARK    1  A    between atoms: N_7  and  C_2 
ROOT
ATOM      1  C   UNL d   1      -0.000  -0.472   0.003  0.00  0.00     0.139 C 
ATOM      2  C   UNL d   1       0.204  -1.802  -0.074  0.00  0.00     0.119 C 
ATOM      3  C   UNL d   1       1.062   0.453   0.185  0.00  0.00     0.112 C 
ATOM      4  C   UNL d   1      -1.315   0.043  -0.165  0.00  0.00     0.112 C 
ATOM      5  N   UNL d   1       1.934   1.209   0.323  0.00  0.00    -0.191 NA
ATOM      6  N   UNL d   1      -2.395   0.453  -0.290  0.00  0.00    -0.191 NA
ENDROOT
BRANCH   2   7
ATOM      7  N   UNL d   1       1.334  -2.594   0.110  0.00  0.00    -0.388 N 
ATOM      8  C   UNL d   1       2.450  -2.246   1.006  0.00  0.00     0.122 C 
ATOM      9  C   UNL d   1       2.783  -3.439   1.899  0.00  0.00     0.020 C 
ATOM     10  C   UNL d   1       3.097  -4.679   1.070  0.00  0.00     0.003 C 
ATOM     11  C   UNL d   1       1.951  -4.987   0.111  0.00  0.00     0.020 C 
ATOM     12  C   UNL d   1       1.587  -3.773  -0.739  0.00  0.00     0.122 C 
ENDBRANCH   2   7
TORSDOF 1
