REMARK  2 active torsions:
REMARK  status: ('A' for Active; 'I' for Inactive)
REMARK    1  A    between atoms: S_12  and  C_6 
REMARK    2  A    between atoms: C_10  and  C_7 
ROOT
ATOM      1  C   UNL d   1      -0.706   1.249   0.002  0.00  0.00     0.140 A 
ATOM      2  N   UNL d   1      -0.734  -1.216  -0.009  0.00  0.00    -0.298 N 
ATOM      3  C   UNL d   1      -1.461  -0.027  -0.012  0.00  0.00     0.272 A 
ATOM      4  N   UNL d   1       1.324  -0.078   0.005  0.00  0.00    -0.335 N 
ATOM      5  HN  UNL d   1       2.344  -0.092   0.009  1.00  0.00     0.168 HD
ATOM      6  C   UNL d   1       0.649  -1.180  -0.007  0.00  0.00     0.149 A 
ATOM      7  C   UNL d   1       0.637   1.118   0.014  0.00  0.00     0.071 A 
ATOM      8  C   UNL d   1      -1.411   2.513   0.005  0.00  0.00     0.107 C 
ATOM      9  N   UNL d   1      -1.965   3.540   0.007  0.00  0.00    -0.191 NA
ATOM     10  O   UNL d   1      -2.692   0.001  -0.026  0.00  0.00    -0.266 OA
ATOM     11  C   UNL d   1      -1.493  -2.470  -0.008  0.00  0.00     0.161 C 
ENDROOT
BRANCH   7  12
ATOM     12  C   UNL d   1       1.482   2.329   0.033  0.00  0.00    -0.008 A 
ATOM     13  C   UNL d   1       1.851   2.915   1.251  0.00  0.00     0.015 A 
ATOM     14  C   UNL d   1       2.569   4.114   1.266  0.00  0.00     0.024 A 
ATOM     15  C   UNL d   1       2.927   4.723   0.064  0.00  0.00     0.034 A 
ATOM     16  C   UNL d   1       2.584   4.136  -1.153  0.00  0.00     0.024 A 
ATOM     17 CL   UNL d   1       3.793   6.209   0.082  0.00  0.00    -0.084 Cl
ATOM     18  C   UNL d   1       1.866   2.938  -1.170  0.00  0.00     0.015 A 
ENDBRANCH   7  12
BRANCH   6  19
ATOM     19  S   UNL d   1       1.511  -2.716  -0.026  0.00  0.00    -0.098 SA
ATOM     20  C   UNL d   1       3.238  -2.183  -0.037  0.00  0.00     0.099 C 
ENDBRANCH   6  19
TORSDOF 2
