REMARK  5 active torsions:
REMARK  status: ('A' for Active; 'I' for Inactive)
REMARK    1  A    between atoms: N_6  and  C_1 
REMARK    2  A    between atoms: C_2  and  C_3 
REMARK       I    between atoms: C_9  and  N_7 
REMARK    3  A    between atoms: C_16  and  C_9 
REMARK    4  A    between atoms: O_21  and  C_16 
REMARK    5  A    between atoms: C_23  and  O_21 
ROOT
ATOM      1  N   UNL d   1       0.592   2.264  -0.011  0.00  0.00    -0.363 N 
ATOM      2  N   UNL d   1       2.415   4.428  -0.072  0.00  0.00    -0.347 N 
ATOM      3  C   UNL d   1       3.112   5.585  -0.378  0.00  0.00     0.244 C 
ATOM      4  C   UNL d   1       1.345   2.501  -1.254  0.00  0.00     0.144 C 
ATOM      5  C   UNL d   1       0.237   3.507   0.691  0.00  0.00     0.144 C 
ATOM      6  C   UNL d   1       2.659   3.220  -0.884  0.00  0.00     0.145 C 
ATOM      7  C   UNL d   1       1.551   4.213   1.103  0.00  0.00     0.145 C 
ATOM      8  O   UNL d   1       3.891   5.636  -1.335  0.00  0.00    -0.271 OA
ENDROOT
BRANCH   1   9
ATOM      9  C   UNL d   1      -0.190   1.133   0.081  0.00  0.00     0.125 A 
ATOM     10  N   UNL d   1      -0.569   0.540  -1.086  0.00  0.00    -0.350 N 
ATOM     11  C   UNL d   1      -1.216  -0.649  -1.047  0.00  0.00     0.106 A 
ATOM     12  HN  UNL d   1      -0.368   0.988  -1.981  1.00  0.00     0.166 HD
ATOM     13  C   UNL d   1      -1.531  -1.322   0.117  0.00  0.00     0.065 A 
ATOM     14  C   UNL d   1      -1.169  -0.716   1.319  0.00  0.00     0.045 A 
ATOM     15  C   UNL d   1      -0.486   0.506   1.307  0.00  0.00     0.078 A 
ATOM     16 CL   UNL d   1       0.079   1.081   2.840  0.00  0.00    -0.080 Cl
BRANCH  13  17
ATOM     17  C   UNL d   1      -2.188  -2.664   0.065  0.00  0.00     0.418 C 
ATOM     18  F   UNL d   1      -2.397  -3.215   1.288  0.00  0.00    -0.166 F 
ATOM     19  F   UNL d   1      -3.408  -2.625  -0.536  0.00  0.00    -0.166 F 
ATOM     20  F   UNL d   1      -1.459  -3.573  -0.636  0.00  0.00    -0.166 F 
ENDBRANCH  13  17
ENDBRANCH   1   9
BRANCH   3  21
ATOM     21  C   UNL d   1       2.864   6.845   0.452  0.00  0.00     0.278 C 
BRANCH  21  22
ATOM     22  O   UNL d   1       3.639   6.813   1.641  0.00  0.00    -0.342 OA
BRANCH  22  23
ATOM     23  C   UNL d   1       3.652   7.955   2.396  0.00  0.00     0.069 A 
ATOM     24  C   UNL d   1       4.196   7.806   3.675  0.00  0.00     0.038 A 
ATOM     25  C   UNL d   1       4.242   8.886   4.561  0.00  0.00     0.026 A 
ATOM     26  C   UNL d   1       3.756  10.128   4.160  0.00  0.00     0.034 A 
ATOM     27  C   UNL d   1       3.240  10.297   2.878  0.00  0.00     0.026 A 
ATOM     28 CL   UNL d   1       3.790  11.457   5.250  0.00  0.00    -0.084 Cl
ATOM     29  C   UNL d   1       3.188   9.212   1.996  0.00  0.00     0.038 A 
ENDBRANCH  22  23
ENDBRANCH  21  22
ENDBRANCH   3  21
TORSDOF 5
