REMARK  6 active torsions:
REMARK  status: ('A' for Active; 'I' for Inactive)
REMARK    1  A    between atoms: C_9  and  C_2 
REMARK    2  A    between atoms: N_10  and  N_7 
REMARK    3  A    between atoms: C_12  and  N_10 
REMARK    4  A    between atoms: C_11  and  C_21 
REMARK    5  A    between atoms: O_20  and  C_22 
REMARK    6  A    between atoms: C_21  and  O_20 
ROOT
ATOM      1  N   UNL d   1       6.293  -5.161  -1.079  0.00  0.00    -0.307 N 
ATOM      2  HN  UNL d   1       5.756  -5.361  -1.923  1.00  0.00     0.186 HD
ATOM      3  C   UNL d   1       7.347  -5.870  -0.789  0.00  0.00     0.024 C 
ATOM      4  C   UNL d   1       8.234  -5.695   0.427  0.00  0.00     0.067 C 
ENDROOT
BRANCH   3   5
ATOM      5  C   UNL d   1       7.711  -6.995  -1.765  0.00  0.00     0.229 C 
BRANCH   5   6
ATOM      6  O   UNL d   1       8.933  -7.609  -1.382  0.00  0.00    -0.346 OA
BRANCH   6   7
ATOM      7  C   UNL d   1       9.414  -8.595  -2.194  0.00  0.00     0.069 A 
ATOM      8  C   UNL d   1      10.795  -8.784  -2.128  0.00  0.00     0.037 A 
ATOM      9  C   UNL d   1      11.418  -9.776  -2.891  0.00  0.00     0.016 A 
ATOM     10  C   UNL d   1      10.661 -10.613  -3.721  0.00  0.00    -0.008 A 
ATOM     11  C   UNL d   1       9.273 -10.421  -3.775  0.00  0.00     0.016 A 
ATOM     12  C   UNL d   1       8.651  -9.420  -3.015  0.00  0.00     0.037 A 
BRANCH  10  13
ATOM     13  C   UNL d   1      11.283 -11.654  -4.526  0.00  0.00     0.063 A 
ATOM     14  N   UNL d   1      10.705 -12.089  -5.716  0.00  0.00    -0.292 N 
ATOM     15  N   UNL d   1      11.422 -13.033  -6.303  0.00  0.00    -0.061 NA
ATOM     16  HN  UNL d   1       9.830 -11.722  -6.092  1.00  0.00     0.183 HD
ATOM     17  S   UNL d   1      12.793 -13.438  -5.437  0.00  0.00    -0.010 SA
ATOM     18  C   UNL d   1      12.460 -12.309  -4.191  0.00  0.00     0.096 A 
ENDBRANCH  10  13
ENDBRANCH   6   7
ENDBRANCH   5   6
ENDBRANCH   3   5
BRANCH   1  19
ATOM     19  N   UNL d   1       5.914  -4.160  -0.255  0.00  0.00    -0.301 N 
ATOM     20  H   UNL d   1       6.488  -3.819   0.509  0.00  0.00     0.187 HD
BRANCH  19  21
ATOM     21  C   UNL d   1       4.769  -3.397  -0.549  0.00  0.00     0.051 A 
ATOM     22  C   UNL d   1       3.904  -3.715  -1.604  0.00  0.00     0.054 A 
ATOM     23  C   UNL d   1       2.760  -2.949  -1.842  0.00  0.00     0.037 A 
ATOM     24 CL   UNL d   1       1.708  -3.366  -3.139  0.00  0.00    -0.084 Cl
ATOM     25  C   UNL d   1       2.458  -1.853  -1.040  0.00  0.00     0.048 A 
ATOM     26  C   UNL d   1       3.314  -1.530   0.007  0.00  0.00     0.037 A 
ATOM     27  C   UNL d   1       4.456  -2.293   0.256  0.00  0.00     0.054 A 
ATOM     28 CL   UNL d   1       2.962  -0.175   1.010  0.00  0.00    -0.084 Cl
ENDBRANCH  19  21
ENDBRANCH   1  19
TORSDOF 6
