REMARK  6 active torsions:
REMARK  status: ('A' for Active; 'I' for Inactive)
REMARK    1  A    between atoms: C_4  and  C_1 
REMARK    2  A    between atoms: C_7  and  C_2 
REMARK    3  A    between atoms: O_12  and  C_7 
REMARK    4  A    between atoms: N_9  and  O_12 
REMARK    5  A    between atoms: C_13  and  C_11 
REMARK    6  A    between atoms: N_20  and  C_11 
ROOT
ATOM      1  O   UNL d   1      -2.376  -2.048  -0.135  0.00  0.00    -0.193 OA
ENDROOT
BRANCH   1   2
ATOM      2  N   UNL d   1      -2.007  -3.406  -0.243  0.00  0.00    -0.246 N 
ATOM      3  C   UNL d   1      -2.977  -4.209   0.072  0.00  0.00     0.109 C 
ATOM      4  HN  UNL d   1      -1.082  -3.721  -0.535  1.00  0.00     0.196 HD
BRANCH   3   5
ATOM      5  C   UNL d   1      -2.693  -5.681   0.011  0.00  0.00     0.004 A 
ATOM      6  C   UNL d   1      -3.428  -6.584   0.789  0.00  0.00     0.016 A 
ATOM      7  C   UNL d   1      -3.152  -7.954   0.721  0.00  0.00     0.024 A 
ATOM      8  C   UNL d   1      -2.143  -8.419  -0.123  0.00  0.00     0.034 A 
ATOM      9  C   UNL d   1      -1.400  -7.527  -0.893  0.00  0.00     0.024 A 
ATOM     10 CL   UNL d   1      -1.812 -10.105  -0.209  0.00  0.00    -0.084 Cl
ATOM     11  C   UNL d   1      -1.671  -6.158  -0.823  0.00  0.00     0.016 A 
ENDBRANCH   3   5
BRANCH   3  12
ATOM     12  N   UNL d   1      -4.236  -3.789   0.434  0.00  0.00    -0.286 NA
ATOM     13  H   UNL d   1      -4.416  -2.815   0.201  0.00  0.00     0.125 HD
ATOM     14  H   UNL d   1      -5.001  -4.392   0.151  0.00  0.00     0.125 HD
ENDBRANCH   3  12
ENDBRANCH   1   2
BRANCH   1  15
ATOM     15  C   UNL d   1      -1.339  -1.256  -0.568  0.00  0.00     0.320 C 
ATOM     16  O   UNL d   1      -0.275  -1.677  -1.013  0.00  0.00    -0.257 OA
BRANCH  15  17
ATOM     17  C   UNL d   1      -1.602   0.170  -0.456  0.00  0.00     0.106 A 
ATOM     18  C   UNL d   1      -2.775   0.833  -0.128  0.00  0.00     0.200 A 
ATOM     19  O   UNL d   1      -2.544   2.175  -0.136  0.00  0.00    -0.232 OA
ATOM     20  N   UNL d   1      -1.242   2.428  -0.485  0.00  0.00    -0.264 N 
ATOM     21  C   UNL d   1      -0.674   1.234  -0.685  0.00  0.00     0.048 A 
ATOM     22  HN  UNL d   1      -0.798   3.342  -0.575  1.00  0.00     0.194 HD
ATOM     23  C   UNL d   1       0.753   1.196  -1.096  0.00  0.00     0.071 C 
BRANCH  18  24
ATOM     24  C   UNL d   1      -4.168   0.484   0.209  0.00  0.00     0.442 C 
ATOM     25  F   UNL d   1      -4.477  -0.819  -0.021  0.00  0.00    -0.164 F 
ATOM     26  F   UNL d   1      -4.445   0.719   1.517  0.00  0.00    -0.164 F 
ATOM     27  F   UNL d   1      -5.059   1.209  -0.516  0.00  0.00    -0.164 F 
ENDBRANCH  18  24
ENDBRANCH  15  17
ENDBRANCH   1  15
TORSDOF 6
