REMARK  5 active torsions:
REMARK  status: ('A' for Active; 'I' for Inactive)
REMARK    1  A    between atoms: C_3  and  C_1 
REMARK       I    between atoms: C_2  and  N_4 
REMARK    2  A    between atoms: C_5  and  C_2 
REMARK    3  A    between atoms: N_4  and  N_7 
REMARK    4  A    between atoms: N_7  and  C_6 
REMARK    5  A    between atoms: O_18  and  C_16 
ROOT
ATOM      1  N   UNL d   1      -0.951   2.509  -3.183  0.00  0.00    -0.187 NA
ATOM      2  H   UNL d   1      -0.634   3.486  -3.200  0.00  0.00     0.154 HD
ENDROOT
BRANCH   1   3
ATOM      3  N   UNL d   1      -1.124   1.956  -4.466  0.00  0.00    -0.281 N 
ATOM      4  C   UNL d   1      -1.260   2.856  -5.514  0.00  0.00     0.266 C 
ATOM      5  O   UNL d   1      -1.047   4.061  -5.421  0.00  0.00    -0.266 OA
ATOM      6  H   UNL d   1      -1.697   1.119  -4.492  0.00  0.00     0.184 HD
BRANCH   4   7
ATOM      7  C   UNL d   1      -1.752   2.261  -6.785  0.00  0.00     0.035 A 
ATOM      8  C   UNL d   1      -2.599   3.020  -7.607  0.00  0.00     0.053 A 
ATOM      9  C   UNL d   1      -3.090   2.473  -8.794  0.00  0.00     0.069 A 
ATOM     10  C   UNL d   1      -2.715   1.175  -9.159  0.00  0.00     0.037 A 
ATOM     11  C   UNL d   1      -1.860   0.424  -8.353  0.00  0.00     0.004 A 
ATOM     12  C   UNL d   1      -1.376   0.965  -7.165  0.00  0.00     0.017 A 
BRANCH   9  13
ATOM     13  O   UNL d   1      -3.932   3.086  -9.679  0.00  0.00    -0.356 OA
ATOM     14  C   UNL d   1      -4.378   4.395  -9.346  0.00  0.00     0.210 C 
ENDBRANCH   9  13
ENDBRANCH   4   7
ENDBRANCH   1   3
BRANCH   1  15
ATOM     15  C   UNL d   1      -0.098   1.792  -2.323  0.00  0.00     0.099 A 
ATOM     16  C   UNL d   1      -0.127   0.401  -2.253  0.00  0.00     0.060 A 
ATOM     17  C   UNL d   1       0.669  -0.271  -1.316  0.00  0.00     0.052 A 
ATOM     18  C   UNL d   1       1.463   0.486  -0.456  0.00  0.00     0.033 A 
ATOM     19  C   UNL d   1       1.432   1.862  -0.583  0.00  0.00     0.090 A 
ATOM     20  N   UNL d   1       0.676   2.518  -1.491  0.00  0.00    -0.356 N 
ATOM     21  HN  UNL d   1       0.690   3.536  -1.545  1.00  0.00     0.166 HD
BRANCH  17  22
ATOM     22  C   UNL d   1       0.653  -1.772  -1.221  0.00  0.00     0.417 C 
ATOM     23  F   UNL d   1      -0.117  -2.366  -2.176  0.00  0.00    -0.166 F 
ATOM     24  F   UNL d   1       0.172  -2.213  -0.027  0.00  0.00    -0.166 F 
ATOM     25  F   UNL d   1       1.893  -2.316  -1.352  0.00  0.00    -0.166 F 
ENDBRANCH  17  22
ENDBRANCH   1  15
TORSDOF 5
