REMARK  5 active torsions:
REMARK  status: ('A' for Active; 'I' for Inactive)
REMARK    1  A    between atoms: C_2  and  C_1 
REMARK       I    between atoms: N_3  and  C_1 
REMARK    2  A    between atoms: C_15  and  N_3 
REMARK    3  A    between atoms: O_13  and  C_6 
REMARK    4  A    between atoms: C_8  and  C_9 
REMARK    5  A    between atoms: C_19  and  O_13 
ROOT
ATOM      1  N   UNL d   1      -5.843   2.094   2.768  0.00  0.00    -0.344 N 
ATOM      2  HN  UNL d   1      -6.739   1.607   2.733  1.00  0.00     0.167 HD
ATOM      3  C   UNL d   1      -4.936   1.962   1.781  0.00  0.00     0.148 A 
ATOM      4  C   UNL d   1      -4.342   3.629   3.906  0.00  0.00     0.050 A 
ATOM      5  C   UNL d   1      -5.521   2.896   3.805  0.00  0.00     0.119 A 
ATOM      6  C   UNL d   1      -3.735   2.656   1.768  0.00  0.00     0.059 A 
ATOM      7  C   UNL d   1      -3.435   3.499   2.849  0.00  0.00     0.035 A 
ENDROOT
BRANCH   3   8
ATOM      8  O   UNL d   1      -5.215   1.098   0.731  0.00  0.00    -0.294 OA
BRANCH   8   9
ATOM      9  C   UNL d   1      -6.006   0.002   1.020  0.00  0.00     0.077 A 
ATOM     10  C   UNL d   1      -6.941  -0.402   0.071  0.00  0.00     0.038 A 
ATOM     11  C   UNL d   1      -7.744  -1.530   0.309  0.00  0.00     0.011 A 
ATOM     12  C   UNL d   1      -7.627  -2.284   1.496  0.00  0.00    -0.050 A 
ATOM     13  C   UNL d   1      -6.674  -1.855   2.431  0.00  0.00     0.011 A 
ATOM     14  C   UNL d   1      -5.860  -0.746   2.188  0.00  0.00     0.038 A 
BRANCH  12  15
ATOM     15  C   UNL d   1      -8.495  -3.533   1.734  0.00  0.00    -0.024 C 
ATOM     16  C   UNL d   1      -8.219  -4.224   3.091  0.00  0.00     0.019 C 
ATOM     17  C   UNL d   1      -9.992  -3.162   1.709  0.00  0.00     0.019 C 
ATOM     18  C   UNL d   1      -8.214  -4.576   0.631  0.00  0.00     0.019 C 
ENDBRANCH  12  15
ENDBRANCH   8   9
ENDBRANCH   3   8
BRANCH   4  19
ATOM     19  N   UNL d   1      -4.035   4.493   4.984  0.00  0.00    -0.320 N 
ATOM     20  C   UNL d   1      -4.848   4.712   6.093  0.00  0.00     0.280 C 
ATOM     21  O   UNL d   1      -5.902   4.118   6.310  0.00  0.00    -0.265 OA
ATOM     22  H   UNL d   1      -3.174   5.024   4.951  0.00  0.00     0.169 HD
BRANCH  20  23
ATOM     23  C   UNL d   1      -4.370   5.719   7.018  0.00  0.00     0.142 A 
ATOM     24  O   UNL d   1      -3.189   6.373   6.807  0.00  0.00    -0.317 OA
ATOM     25  C   UNL d   1      -3.043   7.250   7.845  0.00  0.00     0.143 A 
ATOM     26  C   UNL d   1      -4.107   7.171   8.707  0.00  0.00     0.027 A 
ATOM     27  C   UNL d   1      -4.965   6.183   8.178  0.00  0.00     0.045 A 
ENDBRANCH  20  23
ENDBRANCH   4  19
TORSDOF 5
