REMARK  3 active torsions:
REMARK  status: ('A' for Active; 'I' for Inactive)
REMARK    1  A    between atoms: N_2  and  S_1 
REMARK    2  A    between atoms: C_3  and  S_1 
REMARK    3  A    between atoms: C_17  and  C_5 
ROOT
ATOM      1  S   UNL d   1       1.028  -0.126  -0.120  0.00  0.00     0.261 S 
ATOM      2  O   UNL d   1      -0.087  -0.999   0.195  0.00  0.00    -0.200 OA
ATOM      3  O   UNL d   1       2.298  -0.264   0.561  0.00  0.00    -0.200 OA
ENDROOT
BRANCH   1   4
ATOM      4  N   UNL d   1       0.494   1.484   0.057  0.00  0.00    -0.303 N 
ATOM      5  C   UNL d   1       1.570   2.490   0.110  0.00  0.00     0.163 C 
ATOM      6  C   UNL d   1       1.093   3.894  -0.096  0.00  0.00     0.001 C 
ATOM      7  C   UNL d   1      -0.181   4.273  -0.298  0.00  0.00    -0.049 C 
ATOM      8  C   UNL d   1      -1.262   3.225  -0.261  0.00  0.00     0.060 C 
ATOM      9  C   UNL d   1      -0.735   1.852  -0.682  0.00  0.00     0.140 C 
BRANCH   7  10
ATOM     10  C   UNL d   1      -0.544   5.689  -0.555  0.00  0.00    -0.030 A 
ATOM     11  C   UNL d   1       0.328   6.543  -1.254  0.00  0.00     0.012 A 
ATOM     12  C   UNL d   1      -0.016   7.871  -1.527  0.00  0.00     0.001 A 
ATOM     13  C   UNL d   1      -1.248   8.367  -1.116  0.00  0.00     0.000 A 
ATOM     14  C   UNL d   1      -2.132   7.537  -0.433  0.00  0.00     0.001 A 
ATOM     15  C   UNL d   1      -1.783   6.210  -0.154  0.00  0.00     0.012 A 
ENDBRANCH   7  10
ENDBRANCH   1   4
BRANCH   1  16
ATOM     16  C   UNL d   1       1.342  -0.290  -1.871  0.00  0.00     0.082 A 
ATOM     17  C   UNL d   1       0.373  -0.885  -2.686  0.00  0.00     0.065 A 
ATOM     18  C   UNL d   1       0.621  -1.062  -4.048  0.00  0.00     0.103 A 
ATOM     19  O   UNL d   1      -0.352  -1.749  -4.733  0.00  0.00    -0.348 OA
ATOM     20  C   UNL d   1       1.804  -0.569  -4.617  0.00  0.00     0.102 A 
ATOM     21  C   UNL d   1       0.199  -2.658  -5.691  0.00  0.00     0.178 C 
ATOM     22  C   UNL d   1       0.424  -1.963  -7.023  0.00  0.00     0.053 C 
ATOM     23  C   UNL d   1       0.988  -0.565  -6.831  0.00  0.00     0.178 C 
ATOM     24  O   UNL d   1       2.117  -0.584  -5.954  0.00  0.00    -0.348 OA
ATOM     25  C   UNL d   1       2.794  -0.034  -3.786  0.00  0.00     0.041 A 
ATOM     26  C   UNL d   1       2.576   0.088  -2.409  0.00  0.00     0.028 A 
ENDBRANCH   1  16
TORSDOF 3
