REMARK  4 active torsions:
REMARK  status: ('A' for Active; 'I' for Inactive)
REMARK    1  A    between atoms: N_11  and  C_1 
REMARK       I    between atoms: C_3  and  N_12 
REMARK    2  A    between atoms: C_8  and  C_3 
REMARK    3  A    between atoms: C_4  and  C_7 
REMARK       I    between atoms: C_13  and  N_11 
REMARK    4  A    between atoms: N_12  and  C_15 
ROOT
ATOM      1  C   UNL d   1      -1.843  -1.324   0.071  0.00  0.00     0.112 C 
ATOM      2  C   UNL d   1      -2.124   0.146  -0.001  0.00  0.00     0.315 C 
ATOM      3  O   UNL d   1      -1.077   0.994  -0.340  0.00  0.00    -0.273 OA
ATOM      4  C   UNL d   1      -0.581  -1.761  -0.006  0.00  0.00     0.050 C 
ATOM      5  C   UNL d   1       0.521  -0.827  -0.188  0.00  0.00     0.002 A 
ATOM      6  C   UNL d   1       0.241   0.511  -0.410  0.00  0.00     0.090 A 
ATOM      7  C   UNL d   1       1.851  -1.254  -0.172  0.00  0.00     0.043 A 
ATOM      8  C   UNL d   1       2.899  -0.355  -0.391  0.00  0.00     0.035 A 
ATOM      9  O   UNL d   1      -3.264   0.565   0.196  0.00  0.00    -0.257 OA
ATOM     10  C   UNL d   1       1.256   1.423  -0.680  0.00  0.00     0.040 A 
ATOM     11  C   UNL d   1       2.590   0.984  -0.676  0.00  0.00     0.032 A 
ENDROOT
BRANCH   8  12
ATOM     12  N   UNL d   1       4.267  -0.711  -0.300  0.00  0.00    -0.323 N 
ATOM     13  C   UNL d   1       4.763  -1.956   0.057  0.00  0.00     0.257 C 
ATOM     14  O   UNL d   1       4.133  -2.990   0.238  0.00  0.00    -0.267 OA
ATOM     15  H   UNL d   1       4.934   0.029  -0.461  0.00  0.00     0.169 HD
BRANCH  13  16
ATOM     16  C   UNL d   1       6.220  -2.021   0.321  0.00  0.00     0.047 A 
ATOM     17  C   UNL d   1       6.997  -3.095  -0.145  0.00  0.00     0.063 A 
ATOM     18  C   UNL d   1       8.305  -3.242   0.360  0.00  0.00     0.017 A 
ATOM     19  C   UNL d   1       8.836  -2.325   1.267  0.00  0.00     0.001 A 
ATOM     20  C   UNL d   1       8.075  -1.236   1.679  0.00  0.00     0.001 A 
ATOM     21  C   UNL d   1       6.768  -1.086   1.217  0.00  0.00     0.018 A 
BRANCH  17  22
ATOM     22  C   UNL d   1       6.513  -4.106  -1.157  0.00  0.00     0.418 C 
ATOM     23  F   UNL d   1       5.396  -3.771  -1.851  0.00  0.00    -0.166 F 
ATOM     24  F   UNL d   1       7.462  -4.306  -2.125  0.00  0.00    -0.166 F 
ATOM     25  F   UNL d   1       6.298  -5.336  -0.616  0.00  0.00    -0.166 F 
ENDBRANCH  17  22
ENDBRANCH  13  16
ENDBRANCH   8  12
BRANCH   1  26
ATOM     26  N   UNL d   1      -2.961  -2.138   0.181  0.00  0.00    -0.322 N 
ATOM     27  C   UNL d   1      -3.004  -3.503   0.367  0.00  0.00     0.218 C 
ATOM     28  O   UNL d   1      -2.042  -4.226   0.608  0.00  0.00    -0.274 OA
ATOM     29  C   UNL d   1      -4.384  -4.093   0.223  0.00  0.00     0.117 C 
ATOM     30  H   UNL d   1      -3.844  -1.629   0.156  0.00  0.00     0.169 HD
ENDBRANCH   1  26
TORSDOF 4
