REMARK  6 active torsions:
REMARK  status: ('A' for Active; 'I' for Inactive)
REMARK    1  A    between atoms: C_3  and  C_1 
REMARK    2  A    between atoms: C_2  and  S_5 
REMARK    3  A    between atoms: C_4  and  C_3 
REMARK    4  A    between atoms: S_5  and  C_3 
REMARK    5  A    between atoms: C_6  and  C_4 
REMARK    6  A    between atoms: C_13  and  C_6 
ROOT
ATOM      1  C   UNL d   1       2.719   1.636   0.006  0.00  0.00     0.095 C 
ENDROOT
BRANCH   1   2
ATOM      2  C   UNL d   1       1.990   2.947  -0.264  0.00  0.00    -0.037 A 
ATOM      3  C   UNL d   1       2.507   4.227  -0.139  0.00  0.00     0.057 A 
ATOM      4  S   UNL d   1       1.387   5.451  -0.552  0.00  0.00    -0.113 SA
ATOM      5  C   UNL d   1       0.190   4.298  -0.938  0.00  0.00     0.050 A 
ATOM      6  C   UNL d   1       0.633   3.009  -0.740  0.00  0.00     0.016 A 
ENDBRANCH   1   2
BRANCH   1   7
ATOM      7  C   UNL d   1       3.440   1.183  -1.278  0.00  0.00     0.104 C 
BRANCH   7   8
ATOM      8  C   UNL d   1       3.981  -0.233  -1.208  0.00  0.00     0.161 C 
ATOM      9  O   UNL d   1       3.719  -1.016  -0.299  0.00  0.00    -0.292 OA
BRANCH   8  10
ATOM     10  C   UNL d   1       4.862  -0.692  -2.313  0.00  0.00     0.010 A 
ATOM     11  C   UNL d   1       5.942  -1.526  -2.009  0.00  0.00     0.015 A 
ATOM     12  C   UNL d   1       6.774  -1.994  -3.029  0.00  0.00     0.001 A 
ATOM     13  C   UNL d   1       6.519  -1.639  -4.354  0.00  0.00     0.000 A 
ATOM     14  C   UNL d   1       5.438  -0.813  -4.661  0.00  0.00     0.001 A 
ATOM     15  C   UNL d   1       4.611  -0.332  -3.642  0.00  0.00     0.015 A 
ENDBRANCH   8  10
ENDBRANCH   7   8
ENDBRANCH   1   7
BRANCH   1  16
ATOM     16  S   UNL d   1       3.906   1.783   1.401  0.00  0.00    -0.091 SA
BRANCH  16  17
ATOM     17  C   UNL d   1       2.872   2.073   2.768  0.00  0.00     0.132 C 
ATOM     18  S   UNL d   1       1.356   1.491   3.103  0.00  0.00    -0.053 SA
ATOM     19  N   UNL d   1       3.521   2.858   3.668  0.00  0.00    -0.385 N 
ATOM     20  H   UNL d   1       4.480   3.133   3.505  0.00  0.00     0.157 HD
ATOM     21  H   UNL d   1       3.089   3.066   4.559  0.00  0.00     0.157 HD
ENDBRANCH  16  17
ENDBRANCH   1  16
TORSDOF 6
