REMARK  7 active torsions:
REMARK  status: ('A' for Active; 'I' for Inactive)
REMARK    1  A    between atoms: C_2  and  N_1 
REMARK    2  A    between atoms: C_3  and  O_21 
REMARK       I    between atoms: N_6  and  C_3 
REMARK    3  A    between atoms: C_5  and  N_6 
REMARK    4  A    between atoms: S_20  and  C_7 
REMARK    5  A    between atoms: C_25  and  S_20 
REMARK    6  A    between atoms: O_21  and  C_26 
REMARK    7  A    between atoms: C_26  and  C_25 
ROOT
ATOM      1  C   UNL d   1       1.129  -2.479   0.942  0.00  0.00     0.121 A 
ATOM      2  N   UNL d   1       0.562  -2.013   5.740  0.00  0.00    -0.191 NA
ATOM      3  C   UNL d   1       0.016  -1.879   0.333  0.00  0.00     0.033 A 
ATOM      4  C   UNL d   1       0.461  -1.966   4.586  0.00  0.00     0.099 C 
ATOM      5  C   UNL d   1       1.297  -2.505   2.339  0.00  0.00     0.060 A 
ATOM      6  C   UNL d   1       0.333  -1.912   3.156  0.00  0.00     0.047 A 
ATOM      7  C   UNL d   1      -0.928  -1.271   1.174  0.00  0.00     0.022 A 
ATOM      8  C   UNL d   1      -0.771  -1.284   2.569  0.00  0.00     0.024 A 
ENDROOT
BRANCH   1   9
ATOM      9  N   UNL d   1       2.158  -3.115   0.144  0.00  0.00    -0.114 N 
ATOM     10  O   UNL d   1       2.778  -2.403  -0.652  0.00  0.00    -0.532 OA
ATOM     11  O   UNL d   1       2.386  -4.311   0.377  0.00  0.00    -0.532 OA
ENDBRANCH   1   9
BRANCH   3  12
ATOM     12  S   UNL d   1      -0.415  -2.048  -1.396  0.00  0.00    -0.125 SA
BRANCH  12  13
ATOM     13  C   UNL d   1       0.239  -0.491  -2.103  0.00  0.00     0.106 C 
BRANCH  13  14
ATOM     14  C   UNL d   1      -0.185  -0.402  -3.570  0.00  0.00     0.191 C 
BRANCH  14  15
ATOM     15  O   UNL d   1       0.454   0.706  -4.232  0.00  0.00    -0.303 OA
BRANCH  15  16
ATOM     16  C   UNL d   1      -0.212   1.883  -4.221  0.00  0.00     0.365 C 
ATOM     17  N   UNL d   1       0.361   2.896  -4.947  0.00  0.00    -0.303 N 
ATOM     18  H   UNL d   1      -0.167   3.754  -4.845  0.00  0.00     0.171 HD
ATOM     19  O   UNL d   1      -1.250   2.079  -3.598  0.00  0.00    -0.238 OA
BRANCH  17  20
ATOM     20  C   UNL d   1       1.553   2.962  -5.697  0.00  0.00     0.040 A 
ATOM     21  C   UNL d   1       2.370   1.869  -5.995  0.00  0.00     0.053 A 
ATOM     22  C   UNL d   1       3.584   2.057  -6.664  0.00  0.00     0.037 A 
ATOM     23 CL   UNL d   1       4.596   0.701  -6.982  0.00  0.00    -0.084 Cl
ATOM     24  C   UNL d   1       3.992   3.324  -7.065  0.00  0.00     0.048 A 
ATOM     25  C   UNL d   1       3.157   4.406  -6.817  0.00  0.00     0.037 A 
ATOM     26  C   UNL d   1       1.943   4.231  -6.148  0.00  0.00     0.053 A 
ATOM     27 CL   UNL d   1       3.635   5.982  -7.316  0.00  0.00    -0.084 Cl
ENDBRANCH  17  20
ENDBRANCH  15  16
ENDBRANCH  14  15
ENDBRANCH  13  14
ENDBRANCH  12  13
ENDBRANCH   3  12
TORSDOF 7
