REMARK  3 active torsions:
REMARK  status: ('A' for Active; 'I' for Inactive)
REMARK    1  A    between atoms: C_4  and  C_1 
REMARK       I    between atoms: N_8  and  C_4 
REMARK    2  A    between atoms: N_7  and  C_11 
REMARK    3  A    between atoms: C_17  and  N_8 
ROOT
ATOM      1  C   UNL d   1       5.654   1.588   0.701  0.00  0.00     0.274 C 
ATOM      2  N   UNL d   1       4.851   0.761  -0.067  0.00  0.00    -0.322 N 
ATOM      3  O   UNL d   1       6.711   1.260   1.241  0.00  0.00    -0.266 OA
ATOM      4  H   UNL d   1       4.093   1.213  -0.568  0.00  0.00     0.169 HD
ENDROOT
BRANCH   1   5
ATOM      5  C   UNL d   1       5.188   2.992   0.887  0.00  0.00     0.117 A 
ATOM      6  N   UNL d   1       4.015   3.397   0.323  0.00  0.00    -0.349 N 
ATOM      7  C   UNL d   1       3.620   4.663   0.635  0.00  0.00     0.059 A 
ATOM      8  HN  UNL d   1       3.470   2.793  -0.292  1.00  0.00     0.166 HD
ATOM      9  C   UNL d   1       2.444   5.189   0.106  0.00  0.00     0.032 A 
ATOM     10  C   UNL d   1       4.384   5.491   1.506  0.00  0.00     0.059 A 
ATOM     11  C   UNL d   1       2.007   6.480   0.425  0.00  0.00     0.002 A 
ATOM     12  C   UNL d   1       2.744   7.265   1.303  0.00  0.00     0.002 A 
ATOM     13  C   UNL d   1       3.928   6.761   1.835  0.00  0.00     0.032 A 
ATOM     14  N   UNL d   1       5.548   5.078   2.030  0.00  0.00    -0.362 N 
ATOM     15  C   UNL d   1       5.939   3.824   1.704  0.00  0.00     0.123 A 
ATOM     16  HN  UNL d   1       6.107   5.675   2.640  1.00  0.00     0.165 HD
ENDBRANCH   1   5
BRANCH   2  17
ATOM     17  C   UNL d   1       4.971  -0.650  -0.169  0.00  0.00     0.035 A 
ATOM     18  C   UNL d   1       5.790  -1.408   0.667  0.00  0.00     0.031 A 
ATOM     19  C   UNL d   1       5.788  -2.807   0.602  0.00  0.00     0.026 A 
ATOM     20  C   UNL d   1       4.984  -3.506  -0.307  0.00  0.00     0.010 A 
ATOM     21  C   UNL d   1       4.214  -2.738  -1.187  0.00  0.00     0.026 A 
ATOM     22  C   UNL d   1       4.193  -1.329  -1.109  0.00  0.00     0.031 A 
BRANCH  20  23
ATOM     23  N   UNL d   1       4.993  -4.907  -0.269  0.00  0.00    -0.279 NA
ATOM     24  C   UNL d   1       4.602  -5.657  -1.478  0.00  0.00     0.122 C 
ATOM     25  C   UNL d   1       4.897  -7.154  -1.265  0.00  0.00     0.182 C 
ATOM     26  O   UNL d   1       4.205  -7.668  -0.114  0.00  0.00    -0.389 OA
ATOM     27  C   UNL d   1       4.615  -6.955   1.066  0.00  0.00     0.182 C 
ATOM     28  C   UNL d   1       4.328  -5.449   0.944  0.00  0.00     0.122 C 
ENDBRANCH  20  23
ENDBRANCH   2  17
TORSDOF 3
