REMARK  7 active torsions:
REMARK  status: ('A' for Active; 'I' for Inactive)
REMARK    1  A    between atoms: C_8  and  C_1 
REMARK    2  A    between atoms: C_9  and  C_1 
REMARK    3  A    between atoms: C_2  and  C_3 
REMARK    4  A    between atoms: O_12  and  C_8 
REMARK    5  A    between atoms: O_13  and  C_9 
REMARK    6  A    between atoms: C_17  and  O_12 
REMARK    7  A    between atoms: C_16  and  O_13 
ROOT
ATOM      1  C   UNL d   1       1.077  -0.126  -0.016  0.00  0.00     0.117 C 
ATOM      2  C   UNL d   1       0.399   0.249   1.084  0.00  0.00     0.061 C 
ENDROOT
BRANCH   1   3
ATOM      3  C   UNL d   1       0.327  -0.345  -1.282  0.00  0.00     0.299 C 
ATOM      4  O   UNL d   1       0.723  -1.041  -2.201  0.00  0.00    -0.259 OA
BRANCH   3   5
ATOM      5  O   UNL d   1      -0.808   0.405  -1.298  0.00  0.00    -0.318 OA
BRANCH   5   6
ATOM      6  C   UNL d   1      -1.397   0.632  -2.586  0.00  0.00     0.174 C 
ATOM      7  C   UNL d   1      -0.891   1.973  -3.086  0.00  0.00     0.034 C 
ENDBRANCH   5   6
ENDBRANCH   3   5
ENDBRANCH   1   3
BRANCH   1   8
ATOM      8  C   UNL d   1       2.553  -0.253  -0.036  0.00  0.00     0.299 C 
ATOM      9  O   UNL d   1       3.244  -0.626   0.898  0.00  0.00    -0.259 OA
BRANCH   8  10
ATOM     10  O   UNL d   1       3.014   0.219  -1.222  0.00  0.00    -0.318 OA
BRANCH  10  11
ATOM     11  C   UNL d   1       4.407   0.553  -1.278  0.00  0.00     0.174 C 
ATOM     12  C   UNL d   1       4.498   2.061  -1.142  0.00  0.00     0.034 C 
ENDBRANCH  10  11
ENDBRANCH   8  10
ENDBRANCH   1   8
BRANCH   2  13
ATOM     13  C   UNL d   1       1.003   0.588   2.321  0.00  0.00     0.077 A 
ATOM     14  O   UNL d   1       1.302   1.880   2.679  0.00  0.00    -0.315 OA
ATOM     15  C   UNL d   1       1.780   1.873   3.953  0.00  0.00     0.056 A 
ATOM     16  C   UNL d   1       2.156   3.181   4.529  0.00  0.00     0.077 C 
ATOM     17  C   UNL d   1       1.792   0.588   4.454  0.00  0.00    -0.030 A 
ATOM     18  C   UNL d   1       1.319  -0.232   3.395  0.00  0.00     0.046 A 
ATOM     19  C   UNL d   1       2.199   0.154   5.811  0.00  0.00     0.050 C 
ENDBRANCH   2  13
TORSDOF 7
