REMARK  6 active torsions:
REMARK  status: ('A' for Active; 'I' for Inactive)
REMARK    1  A    between atoms: N_2  and  C_1 
REMARK    2  A    between atoms: C_5  and  C_4 
REMARK    3  A    between atoms: O_7  and  C_5 
REMARK    4  A    between atoms: O_8  and  C_5 
REMARK    5  A    between atoms: C_10  and  O_7 
REMARK    6  A    between atoms: C_11  and  O_8 
ROOT
ATOM      1  C   UNL d   1      -0.924  -2.417  -0.106  0.00  0.00     0.337 C 
ENDROOT
BRANCH   1   2
ATOM      2  C   UNL d   1      -0.203  -1.104  -0.056  0.00  0.00     0.111 A 
ATOM      3  O   UNL d   1       0.007  -0.572   1.189  0.00  0.00    -0.288 OA
ATOM      4  C   UNL d   1       0.633   0.618   0.994  0.00  0.00     0.215 A 
ATOM      5  C   UNL d   1       0.851   0.865  -0.340  0.00  0.00     0.065 A 
ATOM      6  C   UNL d   1       0.317  -0.258  -1.022  0.00  0.00     0.042 A 
BRANCH   4   7
ATOM      7  N   UNL d   1       0.944   1.379   2.163  0.00  0.00    -0.090 N 
ATOM      8  O   UNL d   1       1.500   2.470   1.973  0.00  0.00    -0.530 OA
ATOM      9  O   UNL d   1       0.647   0.899   3.264  0.00  0.00    -0.530 OA
ENDBRANCH   4   7
ENDBRANCH   1   2
BRANCH   1  10
ATOM     10  O   UNL d   1      -1.651  -2.468  -1.345  0.00  0.00    -0.283 OA
BRANCH  10  11
ATOM     11  C   UNL d   1      -2.842  -1.817  -1.326  0.00  0.00     0.257 C 
ATOM     12  O   UNL d   1      -3.301  -1.202  -0.375  0.00  0.00    -0.266 OA
ATOM     13  C   UNL d   1      -3.504  -1.886  -2.668  0.00  0.00     0.126 C 
ENDBRANCH  10  11
ENDBRANCH   1  10
BRANCH   1  14
ATOM     14  O   UNL d   1       0.110  -3.411  -0.140  0.00  0.00    -0.283 OA
BRANCH  14  15
ATOM     15  C   UNL d   1       0.103  -4.298   0.883  0.00  0.00     0.257 C 
ATOM     16  O   UNL d   1      -0.722  -4.345   1.784  0.00  0.00    -0.266 OA
ATOM     17  C   UNL d   1       1.246  -5.259   0.762  0.00  0.00     0.126 C 
ENDBRANCH  14  15
ENDBRANCH   1  14
TORSDOF 6
