REMARK  4 active torsions:
REMARK  status: ('A' for Active; 'I' for Inactive)
REMARK    1  A    between atoms: C_9  and  N_1 
REMARK    2  A    between atoms: C_4  and  C_10 
REMARK    3  A    between atoms: C_17  and  C_6 
REMARK    4  A    between atoms: N_13  and  C_17 
ROOT
ATOM      1  N   UNL d   1      -2.316  -2.306  -5.319  0.00  0.00    -0.277 N 
ATOM      2  HN  UNL d   1      -2.111  -3.213  -4.900  1.00  0.00     0.189 HD
ATOM      3  C   UNL d   1      -2.103  -1.123  -4.781  0.00  0.00     0.174 A 
ATOM      4  O   UNL d   1      -2.489  -0.090  -5.596  0.00  0.00    -0.276 OA
ATOM      5  C   UNL d   1      -2.921  -0.769  -6.706  0.00  0.00     0.169 A 
ATOM      6  N   UNL d   1      -2.871  -2.077  -6.559  0.00  0.00    -0.280 N 
ATOM      7  HN  UNL d   1      -3.182  -2.780  -7.229  1.00  0.00     0.189 HD
ENDROOT
BRANCH   3   8
ATOM      8  C   UNL d   1      -1.388  -0.767  -3.568  0.00  0.00     0.017 A 
ATOM      9  C   UNL d   1      -0.265  -1.518  -3.193  0.00  0.00     0.018 A 
ATOM     10  C   UNL d   1       0.479  -1.169  -2.067  0.00  0.00     0.037 A 
ATOM     11  C   UNL d   1       0.080  -0.071  -1.295  0.00  0.00     0.108 A 
ATOM     12  C   UNL d   1      -1.048   0.699  -1.627  0.00  0.00    -0.028 A 
ATOM     13  C   UNL d   1      -1.775   0.329  -2.777  0.00  0.00     0.025 A 
ATOM     14  C   UNL d   1      -1.542   1.867  -0.821  0.00  0.00     0.050 C 
BRANCH  11  15
ATOM     15  N   UNL d   1       0.899   0.248  -0.135  0.00  0.00    -0.115 N 
ATOM     16  O   UNL d   1       0.349   0.214   0.974  0.00  0.00    -0.532 OA
ATOM     17  O   UNL d   1       2.089   0.511  -0.345  0.00  0.00    -0.532 OA
ENDBRANCH  11  15
ENDBRANCH   3   8
BRANCH   5  18
ATOM     18  C   UNL d   1      -3.313   0.025  -7.901  0.00  0.00     0.358 C 
BRANCH  18  19
ATOM     19  N   UNL d   1      -2.252   0.344  -8.871  0.00  0.00     0.100 N 
ATOM     20  C   UNL d   1      -1.562  -0.823  -9.448  0.00  0.00     0.299 C 
ATOM     21  C   UNL d   1      -0.275  -1.257  -8.722  0.00  0.00     0.198 C 
ATOM     22  O   UNL d   1       0.615  -0.151  -8.532  0.00  0.00    -0.388 OA
ATOM     23  C   UNL d   1      -0.022   0.872  -7.762  0.00  0.00     0.198 C 
ATOM     24  C   UNL d   1      -1.297   1.380  -8.454  0.00  0.00     0.299 C 
ENDBRANCH  18  19
ENDBRANCH   5  18
TORSDOF 4
