REMARK  3 active torsions:
REMARK  status: ('A' for Active; 'I' for Inactive)
REMARK    1  A    between atoms: C_9  and  C_4 
REMARK    2  A    between atoms: O_15  and  C_9 
REMARK    3  A    between atoms: C_16  and  O_15 
ROOT
ATOM      1  C   UNL d   1       0.237  -1.177   0.037  0.00  0.00     0.093 A 
ATOM      2  N   UNL d   1       1.423  -0.608   0.036  0.00  0.00    -0.344 N 
ATOM      3  HN  UNL d   1       2.308  -1.116   0.052  1.00  0.00     0.167 HD
ATOM      4  C   UNL d   1       1.309   0.783   0.011  0.00  0.00     0.115 A 
ATOM      5  C   UNL d   1       0.069  -2.611   0.063  0.00  0.00     0.056 A 
ATOM      6  S   UNL d   1      -1.088  -0.074   0.028  0.00  0.00    -0.080 SA
ATOM      7  C   UNL d   1       0.004   1.240   0.014  0.00  0.00     0.087 A 
ATOM      8  C   UNL d   1       0.880  -3.563   0.652  0.00  0.00     0.031 A 
ATOM      9  S   UNL d   1      -1.257  -3.383  -0.730  0.00  0.00    -0.098 SA
ATOM     10  C   UNL d   1       0.414  -4.896   0.487  0.00  0.00     0.028 A 
ATOM     11  C   UNL d   1      -0.748  -4.940  -0.247  0.00  0.00     0.052 A 
ATOM     12 BR   UNL d   1       2.460  -3.251   1.651  0.00  0.00    -0.050 Br
ENDROOT
BRANCH   4  13
ATOM     13  C   UNL d   1       2.466   1.674  -0.083  0.00  0.00     0.310 C 
ATOM     14  O   UNL d   1       2.366   2.891  -0.175  0.00  0.00    -0.258 OA
BRANCH  13  15
ATOM     15  O   UNL d   1       3.644   0.987  -0.153  0.00  0.00    -0.317 OA
BRANCH  15  16
ATOM     16  C   UNL d   1       4.750   1.720  -0.692  0.00  0.00     0.175 C 
ATOM     17  C   UNL d   1       4.718   1.576  -2.203  0.00  0.00     0.034 C 
ENDBRANCH  15  16
ENDBRANCH  13  15
ENDBRANCH   4  13
TORSDOF 3
