REMARK  3 active torsions:
REMARK  status: ('A' for Active; 'I' for Inactive)
REMARK    1  A    between atoms: C_2  and  N_1 
REMARK    2  A    between atoms: S_9  and  C_5 
REMARK    3  A    between atoms: C_12  and  S_9 
ROOT
ATOM      1  C   UNL d   1       0.627  -0.453   1.538  0.00  0.00     0.118 A 
ATOM      2  N   UNL d   1       0.059  -1.816   3.446  0.00  0.00    -0.358 N 
ATOM      3  HN  UNL d   1       0.282  -2.583   4.080  1.00  0.00     0.166 HD
ATOM      4  C   UNL d   1      -1.077  -1.091   3.590  0.00  0.00     0.074 A 
ATOM      5  C   UNL d   1       0.891  -1.483   2.425  0.00  0.00     0.124 A 
ATOM      6  C   UNL d   1      -0.543   0.291   1.696  0.00  0.00     0.040 A 
ATOM      7  C   UNL d   1      -1.410  -0.037   2.742  0.00  0.00     0.040 A 
ENDROOT
BRANCH   4   8
ATOM      8  S   UNL d   1      -2.210  -1.598   4.864  0.00  0.00    -0.073 SA
BRANCH   8   9
ATOM      9  C   UNL d   1      -1.574  -0.734   6.287  0.00  0.00     0.007 A 
ATOM     10  C   UNL d   1      -2.420   0.126   6.997  0.00  0.00     0.019 A 
ATOM     11  C   UNL d   1      -1.968   0.774   8.149  0.00  0.00     0.001 A 
ATOM     12  C   UNL d   1      -0.668   0.561   8.604  0.00  0.00     0.000 A 
ATOM     13  C   UNL d   1       0.180  -0.298   7.907  0.00  0.00     0.001 A 
ATOM     14  C   UNL d   1      -0.272  -0.947   6.755  0.00  0.00     0.019 A 
ENDBRANCH   8   9
ENDBRANCH   4   8
BRANCH   1  15
ATOM     15  N   UNL d   1       1.556  -0.170   0.454  0.00  0.00    -0.114 N 
ATOM     16  O   UNL d   1       2.579  -0.864   0.375  0.00  0.00    -0.532 OA
ATOM     17  O   UNL d   1       1.266   0.747  -0.327  0.00  0.00    -0.532 OA
ENDBRANCH   1  15
TORSDOF 3
