REMARK  5 active torsions:
REMARK  status: ('A' for Active; 'I' for Inactive)
REMARK    1  A    between atoms: O_2  and  S_1 
REMARK    2  A    between atoms: C_3  and  S_1 
REMARK    3  A    between atoms: C_15  and  O_2 
REMARK       I    between atoms: C_6  and  N_7 
REMARK    4  A    between atoms: N_7  and  C_16 
REMARK    5  A    between atoms: C_8  and  C_9 
ROOT
ATOM      1  S   UNL d   1       1.564   1.425   0.892  0.00  0.00     0.303 S 
ATOM      2  O   UNL d   1       2.744   0.831   0.291  0.00  0.00    -0.193 OA
ATOM      3  O   UNL d   1       1.679   2.501   1.860  0.00  0.00    -0.193 OA
ENDROOT
BRANCH   1   4
ATOM      4  O   UNL d   1       0.608   0.251   1.508  0.00  0.00    -0.229 OA
BRANCH   4   5
ATOM      5  C   UNL d   1       1.039  -0.582   2.510  0.00  0.00     0.089 A 
ATOM      6  C   UNL d   1       0.060  -1.125   3.337  0.00  0.00     0.039 A 
ATOM      7  C   UNL d   1       0.407  -2.032   4.351  0.00  0.00     0.011 A 
ATOM      8  C   UNL d   1       1.743  -2.433   4.552  0.00  0.00    -0.050 A 
ATOM      9  C   UNL d   1       2.708  -1.867   3.707  0.00  0.00     0.011 A 
ATOM     10  C   UNL d   1       2.364  -0.959   2.700  0.00  0.00     0.039 A 
BRANCH   8  11
ATOM     11  C   UNL d   1       2.112  -3.452   5.641  0.00  0.00    -0.024 C 
ATOM     12  C   UNL d   1       3.616  -3.813   5.666  0.00  0.00     0.019 C 
ATOM     13  C   UNL d   1       1.754  -2.886   7.030  0.00  0.00     0.019 C 
ATOM     14  C   UNL d   1       1.337  -4.767   5.410  0.00  0.00     0.019 C 
ENDBRANCH   8  11
ENDBRANCH   4   5
ENDBRANCH   1   4
BRANCH   1  15
ATOM     15  C   UNL d   1       0.597   2.070  -0.458  0.00  0.00     0.086 A 
ATOM     16  C   UNL d   1      -0.600   2.740  -0.200  0.00  0.00     0.028 A 
ATOM     17  C   UNL d   1      -1.348   3.239  -1.273  0.00  0.00     0.031 A 
ATOM     18  C   UNL d   1      -0.909   3.072  -2.597  0.00  0.00     0.034 A 
ATOM     19  C   UNL d   1       0.304   2.420  -2.829  0.00  0.00     0.031 A 
ATOM     20  C   UNL d   1       1.058   1.919  -1.766  0.00  0.00     0.028 A 
BRANCH  18  21
ATOM     21  N   UNL d   1      -1.733   3.571  -3.629  0.00  0.00    -0.328 N 
ATOM     22  C   UNL d   1      -1.516   3.465  -4.992  0.00  0.00     0.218 C 
ATOM     23  O   UNL d   1      -0.553   2.944  -5.546  0.00  0.00    -0.274 OA
ATOM     24  C   UNL d   1      -2.624   4.062  -5.822  0.00  0.00     0.117 C 
ATOM     25  H   UNL d   1      -2.585   4.029  -3.333  0.00  0.00     0.169 HD
ENDBRANCH  18  21
ENDBRANCH   1  15
TORSDOF 5
