REMARK  8 active torsions:
REMARK  status: ('A' for Active; 'I' for Inactive)
REMARK    1  A    between atoms: N_2  and  C_1 
REMARK    2  A    between atoms: N_4  and  C_3 
REMARK    3  A    between atoms: C_5  and  C_9 
REMARK       I    between atoms: N_13  and  C_5 
REMARK    4  A    between atoms: C_10  and  C_16 
REMARK    5  A    between atoms: C_12  and  C_19 
REMARK    6  A    between atoms: C_22  and  N_13 
REMARK    7  A    between atoms: O_29  and  C_17 
REMARK    8  A    between atoms: C_32  and  C_24 
ROOT
ATOM      1  C   UNL d   1       1.131  -0.206   0.327  0.00  0.00     0.130 A 
ATOM      2  C   UNL d   1       0.344  -1.361   0.120  0.00  0.00     0.063 A 
ATOM      3  C   UNL d   1       0.580   1.086   0.477  0.00  0.00     0.050 A 
ATOM      4  C   UNL d   1      -1.037  -1.101  -0.035  0.00  0.00     0.033 A 
ATOM      5  C   UNL d   1      -0.800   1.271   0.424  0.00  0.00    -0.034 A 
ATOM      6  C   UNL d   1      -1.598   0.175   0.113  0.00  0.00     0.014 A 
ENDROOT
BRANCH   2   7
ATOM      7  N   UNL d   1       0.842  -2.696   0.089  0.00  0.00    -0.379 N 
ATOM      8  C   UNL d   1       1.601  -3.078   1.303  0.00  0.00     0.123 C 
ATOM      9  C   UNL d   1       1.936  -4.567   1.446  0.00  0.00     0.029 C 
ATOM     10  C   UNL d   1       0.961  -5.584   0.835  0.00  0.00     0.024 C 
ATOM     11  C   UNL d   1       0.543  -5.076  -0.546  0.00  0.00     0.029 C 
ATOM     12  C   UNL d   1      -0.081  -3.698  -0.467  0.00  0.00     0.123 C 
BRANCH  10  13
ATOM     13  C   UNL d   1      -0.207  -6.042   1.706  0.00  0.00    -0.021 A 
ATOM     14  C   UNL d   1      -0.648  -7.384   1.765  0.00  0.00     0.074 A 
ATOM     15  C   UNL d   1      -1.681  -7.755   2.635  0.00  0.00     0.037 A 
ATOM     16  C   UNL d   1      -2.316  -6.822   3.453  0.00  0.00     0.003 A 
ATOM     17  C   UNL d   1      -1.905  -5.498   3.404  0.00  0.00     0.001 A 
ATOM     18  C   UNL d   1      -0.876  -5.117   2.540  0.00  0.00     0.010 A 
BRANCH  14  19
ATOM     19  O   UNL d   1      -0.049  -8.460   1.158  0.00  0.00    -0.355 OA
ATOM     20  C   UNL d   1       0.102  -8.408  -0.255  0.00  0.00     0.210 C 
ENDBRANCH  14  19
ENDBRANCH  10  13
ENDBRANCH   2   7
BRANCH   1  21
ATOM     21  N   UNL d   1       2.580  -0.260   0.360  0.00  0.00    -0.113 N 
ATOM     22  O   UNL d   1       3.170  -0.676  -0.649  0.00  0.00    -0.532 OA
ATOM     23  O   UNL d   1       3.132   0.165   1.387  0.00  0.00    -0.532 OA
ENDBRANCH   1  21
BRANCH   5  24
ATOM     24  C   UNL d   1      -1.363   2.602   0.662  0.00  0.00     0.017 C 
ATOM     25  C   UNL d   1      -2.534   2.825   1.282  0.00  0.00     0.075 C 
BRANCH  25  26
ATOM     26  C   UNL d   1      -2.943   4.233   1.529  0.00  0.00     0.245 C 
ATOM     27  N   UNL d   1      -4.094   4.333   2.287  0.00  0.00    -0.324 N 
ATOM     28  H   UNL d   1      -4.557   3.478   2.568  0.00  0.00     0.169 HD
ATOM     29  O   UNL d   1      -2.263   5.155   1.095  0.00  0.00    -0.268 OA
BRANCH  27  30
ATOM     30  C   UNL d   1      -4.643   5.528   2.804  0.00  0.00     0.035 A 
ATOM     31  C   UNL d   1      -4.110   6.793   2.553  0.00  0.00     0.030 A 
ATOM     32  C   UNL d   1      -4.626   7.927   3.182  0.00  0.00     0.009 A 
ATOM     33  C   UNL d   1      -5.701   7.821   4.067  0.00  0.00    -0.058 A 
ATOM     34  C   UNL d   1      -6.275   6.563   4.281  0.00  0.00     0.009 A 
ATOM     35  C   UNL d   1      -5.755   5.427   3.651  0.00  0.00     0.030 A 
BRANCH  33  36
ATOM     36  C   UNL d   1      -6.179   9.034   4.822  0.00  0.00     0.034 C 
ATOM     37  C   UNL d   1      -5.429   9.197   6.137  0.00  0.00     0.010 C 
ENDBRANCH  33  36
ENDBRANCH  27  30
ENDBRANCH  25  26
ENDBRANCH   5  24
TORSDOF 8
