REMARK  3 active torsions:
REMARK  status: ('A' for Active; 'I' for Inactive)
REMARK    1  A    between atoms: N_6  and  C_4 
REMARK    2  A    between atoms: S_7  and  C_4 
REMARK    3  A    between atoms: C_8  and  N_6 
ROOT
ATOM      1  N   UNL d   1       1.050   0.092  -0.236  0.00  0.00    -0.274 N 
ATOM      2  HN  UNL d   1       0.517  -0.718  -0.554  1.00  0.00     0.180 HD
ATOM      3  C   UNL d   1       0.458   1.284  -0.155  0.00  0.00     0.183 C 
ATOM      4  C   UNL d   1       2.296  -0.043   0.087  0.00  0.00     0.149 C 
ATOM      5  N   UNL d   1      -0.079   2.310  -0.081  0.00  0.00    -0.172 NA
ENDROOT
BRANCH   4   6
ATOM      6  N   UNL d   1       2.977  -1.222  -0.041  0.00  0.00    -0.366 N 
ATOM      7  H   UNL d   1       3.941  -1.208   0.272  0.00  0.00     0.162 HD
BRANCH   6   8
ATOM      8  C   UNL d   1       2.328  -2.521  -0.100  0.00  0.00     0.075 C 
ATOM      9  C   UNL d   1       3.151  -3.460  -0.975  0.00  0.00     0.032 C 
ATOM     10  C   UNL d   1       2.190  -3.076   1.315  0.00  0.00     0.032 C 
ENDBRANCH   6   8
ENDBRANCH   4   6
BRANCH   4  11
ATOM     11  S   UNL d   1       3.327   1.237   0.714  0.00  0.00    -0.098 SA
ATOM     12  C   UNL d   1       2.822   1.179   2.451  0.00  0.00     0.099 C 
ENDBRANCH   4  11
TORSDOF 3
