REMARK  4 active torsions:
REMARK  status: ('A' for Active; 'I' for Inactive)
REMARK    1  A    between atoms: C_8  and  N_1 
REMARK    2  A    between atoms: C_4  and  C_10 
REMARK    3  A    between atoms: C_16  and  C_5 
REMARK    4  A    between atoms: O_17  and  C_16 
ROOT
ATOM      1  N   UNL d   1      -1.554  -2.143   5.715  0.00  0.00    -0.351 N 
ATOM      2  HN  UNL d   1      -0.556  -2.068   5.915  1.00  0.00     0.166 HD
ATOM      3  C   UNL d   1      -2.144  -1.874   4.487  0.00  0.00     0.049 A 
ATOM      4  C   UNL d   1      -2.476  -2.512   6.586  0.00  0.00     0.075 A 
ATOM      5  S   UNL d   1      -4.085  -2.556   5.990  0.00  0.00    -0.084 SA
ATOM      6  C   UNL d   1      -3.518  -2.029   4.463  0.00  0.00     0.082 A 
ENDROOT
BRANCH   3   7
ATOM      7  C   UNL d   1      -1.357  -1.431   3.339  0.00  0.00    -0.009 A 
ATOM      8  C   UNL d   1      -1.784  -1.666   2.021  0.00  0.00     0.016 A 
ATOM      9  C   UNL d   1      -1.033  -1.212   0.931  0.00  0.00     0.037 A 
ATOM     10  C   UNL d   1       0.162  -0.520   1.157  0.00  0.00     0.102 A 
ATOM     11  C   UNL d   1       0.612  -0.288   2.462  0.00  0.00     0.037 A 
ATOM     12  C   UNL d   1      -0.147  -0.748   3.545  0.00  0.00     0.016 A 
BRANCH  10  13
ATOM     13  N   UNL d   1       0.947  -0.035   0.015  0.00  0.00    -0.116 N 
ATOM     14  O   UNL d   1       1.996   0.580   0.254  0.00  0.00    -0.532 OA
ATOM     15  O   UNL d   1       0.512  -0.265  -1.123  0.00  0.00    -0.532 OA
ENDBRANCH  10  13
ENDBRANCH   3   7
BRANCH   4  16
ATOM     16  C   UNL d   1      -2.195  -2.887   8.010  0.00  0.00     0.229 C 
BRANCH  16  17
ATOM     17  O   UNL d   1      -1.009  -2.212   8.429  0.00  0.00    -0.394 OA
ATOM     18  H   UNL d   1      -0.472  -2.093   7.620  0.00  0.00     0.209 HD
ENDBRANCH  16  17
ENDBRANCH   4  16
TORSDOF 4
