REMARK  3 active torsions:
REMARK  status: ('A' for Active; 'I' for Inactive)
REMARK    1  A    between atoms: S_11  and  C_8 
REMARK    2  A    between atoms: C_12  and  S_11 
REMARK    3  A    between atoms: N_19  and  C_15 
ROOT
ATOM      1  C   UNL d   1      -0.437   1.025  -0.064  0.00  0.00     0.146 A 
ATOM      2  C   UNL d   1      -0.892  -0.256  -0.081  0.00  0.00     0.150 A 
ATOM      3  N   UNL d   1      -1.451   1.928  -0.081  0.00  0.00    -0.320 N 
ATOM      4  HN  UNL d   1      -1.379   2.945  -0.061  1.00  0.00     0.169 HD
ATOM      5  N   UNL d   1       0.903   1.323  -0.010  0.00  0.00    -0.287 N 
ATOM      6  N   UNL d   1       1.335  -1.028  -0.003  0.00  0.00    -0.269 N 
ATOM      7  C   UNL d   1       1.837   0.285   0.012  0.00  0.00     0.332 A 
ATOM      8  C   UNL d   1      -2.548   1.201  -0.130  0.00  0.00     0.153 A 
ATOM      9  C   UNL d   1      -0.021  -1.383  -0.026  0.00  0.00     0.282 A 
ATOM     10  N   UNL d   1      -2.260  -0.148  -0.146  0.00  0.00    -0.324 N 
ATOM     11  O   UNL d   1       3.048   0.519   0.043  0.00  0.00    -0.246 OA
ATOM     12  O   UNL d   1      -0.417  -2.544   0.005  0.00  0.00    -0.265 OA
ATOM     13  C   UNL d   1       1.382   2.690   0.007  0.00  0.00     0.163 C 
ATOM     14  C   UNL d   1       2.282  -2.126   0.026  0.00  0.00     0.164 C 
ATOM     15  C   UNL d   1      -3.200  -1.240  -0.212  0.00  0.00     0.159 C 
ENDROOT
BRANCH   8  16
ATOM     16  S   UNL d   1      -4.165   1.833  -0.032  0.00  0.00    -0.052 SA
BRANCH  16  17
ATOM     17  C   UNL d   1      -4.173   2.946  -1.447  0.00  0.00     0.029 A 
ATOM     18  C   UNL d   1      -5.171   2.821  -2.440  0.00  0.00     0.023 A 
ATOM     19  C   UNL d   1      -5.172   3.714  -3.522  0.00  0.00     0.024 A 
ATOM     20  C   UNL d   1      -4.179   4.685  -3.654  0.00  0.00     0.002 A 
ATOM     21  C   UNL d   1      -3.203   4.814  -2.672  0.00  0.00     0.001 A 
ATOM     22  C   UNL d   1      -3.210   3.960  -1.568  0.00  0.00     0.021 A 
BRANCH  18  23
ATOM     23  N   UNL d   1      -6.295   1.988  -2.264  0.00  0.00    -0.302 NA
ATOM     24  H   UNL d   1      -6.137   1.241  -1.595  0.00  0.00     0.124 HD
ATOM     25  H   UNL d   1      -6.733   1.684  -3.126  0.00  0.00     0.124 HD
ENDBRANCH  18  23
ENDBRANCH  16  17
ENDBRANCH   8  16
TORSDOF 3
