REMARK  3 active torsions:
REMARK  status: ('A' for Active; 'I' for Inactive)
REMARK    1  A    between atoms: C_6  and  C_2 
REMARK    2  A    between atoms: O_12  and  C_6 
REMARK    3  A    between atoms: C_15  and  O_12 
ROOT
ATOM      1  S   UNL d   1      -1.733   2.035  -0.095  0.00  0.00    -0.083 SA
ATOM      2  C   UNL d   1      -3.235   1.236  -0.054  0.00  0.00     0.081 A 
ATOM      3  C   UNL d   1      -0.829   0.563  -0.058  0.00  0.00     0.027 A 
ATOM      4  C   UNL d   1      -3.070  -0.133  -0.064  0.00  0.00     0.038 A 
ATOM      5  C   UNL d   1      -1.692  -0.539  -0.055  0.00  0.00    -0.017 A 
ATOM      6  C   UNL d   1       0.591   0.400  -0.034  0.00  0.00    -0.008 A 
ATOM      7  C   UNL d   1      -1.126  -1.835  -0.029  0.00  0.00     0.014 A 
ATOM      8  C   UNL d   1       1.123  -0.910  -0.015  0.00  0.00    -0.025 A 
ATOM      9  C   UNL d   1       0.262  -2.009  -0.013  0.00  0.00     0.013 A 
ATOM     10  C   UNL d   1       1.467   1.509  -0.025  0.00  0.00     0.013 A 
ATOM     11  C   UNL d   1       2.517  -1.075   0.001  0.00  0.00     0.012 A 
ATOM     12  C   UNL d   1       2.847   1.320  -0.007  0.00  0.00     0.001 A 
ATOM     13  C   UNL d   1       3.371   0.031   0.003  0.00  0.00     0.001 A 
ENDROOT
BRANCH   2  14
ATOM     14  C   UNL d   1      -4.442   2.031   0.033  0.00  0.00     0.300 C 
ATOM     15  O   UNL d   1      -4.502   3.256   0.071  0.00  0.00    -0.259 OA
BRANCH  14  16
ATOM     16  O   UNL d   1      -5.523   1.208   0.173  0.00  0.00    -0.317 OA
BRANCH  16  17
ATOM     17  C   UNL d   1      -6.696   1.841   0.701  0.00  0.00     0.174 C 
ATOM     18  C   UNL d   1      -6.629   1.758   2.215  0.00  0.00     0.034 C 
ENDBRANCH  16  17
ENDBRANCH  14  16
ENDBRANCH   2  14
TORSDOF 3
