REMARK  3 active torsions:
REMARK  status: ('A' for Active; 'I' for Inactive)
REMARK    1  A    between atoms: C_3  and  C_1 
REMARK    2  A    between atoms: C_8  and  C_5 
REMARK    3  A    between atoms: O_14  and  N_9 
ROOT
ATOM      1  C   UNL d   1       0.154   1.226  -0.047  0.00  0.00     0.022 A 
ATOM      2  S   UNL d   1      -0.974  -0.071   0.007  0.00  0.00    -0.088 SA
ATOM      3  C   UNL d   1       1.451   0.744  -0.023  0.00  0.00     0.021 A 
ATOM      4  C   UNL d   1       0.257  -1.253   0.018  0.00  0.00     0.023 A 
ATOM      5  C   UNL d   1       1.511  -0.680   0.015  0.00  0.00     0.021 A 
ENDROOT
BRANCH   1   6
ATOM      6  C   UNL d   1      -0.277   2.605  -0.121  0.00  0.00     0.021 A 
ATOM      7  S   UNL d   1       0.709   3.812  -0.852  0.00  0.00    -0.101 SA
ATOM      8  C   UNL d   1      -0.449   5.036  -0.576  0.00  0.00     0.050 A 
ATOM      9  C   UNL d   1      -1.563   4.554   0.069  0.00  0.00     0.008 A 
ATOM     10  C   UNL d   1      -1.465   3.155   0.330  0.00  0.00     0.021 A 
ENDBRANCH   1   6
BRANCH   4  11
ATOM     11  C   UNL d   1      -0.099  -2.650   0.025  0.00  0.00     0.132 C 
ATOM     12  N   UNL d   1       0.819  -3.566   0.011  0.00  0.00    -0.279 N 
ATOM     13  HN  UNL d   1       1.824  -3.395   0.002  1.00  0.00     0.193 HD
BRANCH  12  14
ATOM     14  O   UNL d   1       0.210  -4.828   0.011  0.00  0.00    -0.290 OA
ATOM     15  H   UNL d   1       0.978  -5.430  -0.016  0.00  0.00     0.244 HD
ENDBRANCH  12  14
ENDBRANCH   4  11
TORSDOF 3
