REMARK  1 active torsions:
REMARK  status: ('A' for Active; 'I' for Inactive)
REMARK    1  A    between atoms: C_2  and  N_1 
ROOT
ATOM      1  C   UNL d   1       0.009   2.310  -0.004  0.00  0.00     0.051 A 
ATOM      2  C   UNL d   1      -0.667   3.037   0.996  0.00  0.00    -0.033 A 
ATOM      3  C   UNL d   1       0.695   3.000  -1.017  0.00  0.00     0.032 A 
ATOM      4  C   UNL d   1      -0.679   4.444   0.924  0.00  0.00     0.027 A 
ATOM      5  C   UNL d   1      -0.026   5.111  -0.112  0.00  0.00     0.007 A 
ATOM      6  C   UNL d   1       0.663   4.394  -1.083  0.00  0.00     0.020 A 
ATOM      7  I   UNL d   1      -0.070   7.187  -0.195  0.00  0.00    -0.045 I 
ATOM      8  C   UNL d   1      -1.308   2.403   2.201  0.00  0.00     0.050 C 
ENDROOT
BRANCH   1   9
ATOM      9  N   UNL d   1       0.005   0.902  -0.027  0.00  0.00    -0.245 N 
ATOM     10  C   UNL d   1      -1.120   0.134  -0.088  0.00  0.00     0.255 A 
ATOM     11  C   UNL d   1      -0.679  -1.263  -0.189  0.00  0.00     0.080 A 
ATOM     12  O   UNL d   1      -2.299   0.452  -0.120  0.00  0.00    -0.268 OA
ATOM     13  C   UNL d   1       0.653  -1.272  -0.220  0.00  0.00     0.080 A 
ATOM     14  C   UNL d   1       1.116   0.122  -0.167  0.00  0.00     0.255 A 
ATOM     15  O   UNL d   1       2.293   0.424  -0.211  0.00  0.00    -0.268 OA
ENDBRANCH   1   9
TORSDOF 1
