REMARK  4 active torsions:
REMARK  status: ('A' for Active; 'I' for Inactive)
REMARK    1  A    between atoms: S_8  and  C_1 
REMARK    2  A    between atoms: C_2  and  C_3 
REMARK    3  A    between atoms: C_4  and  C_2 
REMARK    4  A    between atoms: C_5  and  S_8 
ROOT
ATOM      1  C   UNL d   1      -1.972   4.371   0.102  0.00  0.00     0.062 C 
ATOM      2  C   UNL d   1      -1.494   3.206  -0.360  0.00  0.00     0.054 C 
ENDROOT
BRANCH   1   3
ATOM      3  C   UNL d   1      -3.370   4.859  -0.001  0.00  0.00     0.182 C 
ATOM      4  O   UNL d   1      -3.577   6.073  -0.016  0.00  0.00    -0.288 OA
BRANCH   3   5
ATOM      5  C   UNL d   1      -4.517   3.926  -0.074  0.00  0.00     0.015 A 
ATOM      6  C   UNL d   1      -4.532   2.712   0.622  0.00  0.00     0.034 A 
ATOM      7  C   UNL d   1      -5.647   1.882   0.527  0.00  0.00     0.011 A 
ATOM      8 BR   UNL d   1      -5.656   0.226   1.437  0.00  0.00    -0.051 Br
ATOM      9  C   UNL d   1      -6.758   2.260  -0.230  0.00  0.00     0.019 A 
ATOM     10  C   UNL d   1      -6.757   3.486  -0.894  0.00  0.00     0.002 A 
ATOM     11  C   UNL d   1      -5.642   4.320  -0.814  0.00  0.00     0.015 A 
ENDBRANCH   3   5
ENDBRANCH   1   3
BRANCH   2  12
ATOM     12  S   UNL d   1       0.199   2.871  -0.212  0.00  0.00    -0.099 SA
BRANCH  12  13
ATOM     13  C   UNL d   1       0.578   1.919  -1.696  0.00  0.00     0.048 A 
ATOM     14  C   UNL d   1       0.270   2.355  -3.003  0.00  0.00     0.052 A 
ATOM     15 CL   UNL d   1      -0.615   3.804  -3.351  0.00  0.00    -0.083 Cl
ATOM     16  C   UNL d   1       0.711   1.640  -4.128  0.00  0.00     0.025 A 
ATOM     17  C   UNL d   1       1.490   0.497  -3.983  0.00  0.00     0.003 A 
ATOM     18  C   UNL d   1       1.810   0.049  -2.708  0.00  0.00     0.025 A 
ATOM     19  C   UNL d   1       1.358   0.744  -1.576  0.00  0.00     0.052 A 
ATOM     20 CL   UNL d   1       1.833   0.079  -0.044  0.00  0.00    -0.083 Cl
ENDBRANCH  12  13
ENDBRANCH   2  12
TORSDOF 4
