REMARK  8 active torsions:
REMARK  status: ('A' for Active; 'I' for Inactive)
REMARK    1  A    between atoms: C_17  and  C_1 
REMARK    2  A    between atoms: C_2  and  C_18 
REMARK    3  A    between atoms: O_22  and  C_5 
REMARK    4  A    between atoms: O_21  and  C_6 
REMARK    5  A    between atoms: C_31  and  N_9 
REMARK    6  A    between atoms: N_11  and  C_32 
REMARK    7  A    between atoms: C_29  and  C_31 
REMARK    8  A    between atoms: C_32  and  C_30 
ROOT
ATOM      1  C   UNL d   1       4.131   6.358   1.102  0.00  0.00     0.007 C 
ATOM      2  C   UNL d   1       2.771   5.666   0.993  0.00  0.00     0.007 C 
ATOM      3  C   UNL d   1       1.688   7.886   0.485  0.00  0.00     0.007 C 
ATOM      4  C   UNL d   1       3.048   8.574   0.585  0.00  0.00     0.007 C 
ATOM      5  C   UNL d   1       1.822   6.418   0.050  0.00  0.00     0.003 C 
ATOM      6  C   UNL d   1       3.996   7.826   1.534  0.00  0.00     0.003 C 
ENDROOT
BRANCH   5   7
ATOM      7  C   UNL d   1       0.449   5.722  -0.017  0.00  0.00     0.123 C 
BRANCH   7   8
ATOM      8  N   UNL d   1      -0.358   6.413  -1.023  0.00  0.00    -0.398 N 
ATOM      9  C   UNL d   1      -1.574   6.005  -1.141  0.00  0.00     0.097 C 
ATOM     10  HN  UNL d   1       0.019   7.169  -1.595  1.00  0.00     0.158 HD
BRANCH   9  11
ATOM     11  C   UNL d   1      -2.482   6.652  -2.112  0.00  0.00     0.015 A 
ATOM     12  C   UNL d   1      -3.785   6.188  -2.302  0.00  0.00     0.099 A 
ATOM     13  C   UNL d   1      -4.613   6.821  -3.239  0.00  0.00     0.069 A 
ATOM     14 CL   UNL d   1      -6.224   6.258  -3.496  0.00  0.00    -0.081 Cl
ATOM     15  C   UNL d   1      -4.151   7.910  -3.978  0.00  0.00     0.050 A 
ATOM     16  C   UNL d   1      -2.853   8.369  -3.777  0.00  0.00     0.036 A 
ATOM     17  C   UNL d   1      -2.018   7.750  -2.850  0.00  0.00     0.039 A 
ATOM     18 CL   UNL d   1      -2.274   9.712  -4.683  0.00  0.00    -0.084 Cl
BRANCH  12  19
ATOM     19  O   UNL d   1      -4.242   5.119  -1.577  0.00  0.00    -0.358 OA
ATOM     20  H   UNL d   1      -5.165   4.948  -1.849  0.00  0.00     0.217 HD
ENDBRANCH  12  19
ENDBRANCH   9  11
ENDBRANCH   7   8
ENDBRANCH   5   7
BRANCH   6  21
ATOM     21  C   UNL d   1       5.378   8.500   1.598  0.00  0.00     0.123 C 
BRANCH  21  22
ATOM     22  N   UNL d   1       5.215   9.858   2.128  0.00  0.00    -0.398 N 
ATOM     23  C   UNL d   1       6.309  10.540   2.172  0.00  0.00     0.097 C 
ATOM     24  HN  UNL d   1       4.316  10.230   2.436  1.00  0.00     0.158 HD
BRANCH  23  25
ATOM     25  C   UNL d   1       6.316  11.937   2.655  0.00  0.00     0.015 A 
ATOM     26  C   UNL d   1       7.511  12.657   2.726  0.00  0.00     0.099 A 
ATOM     27  C   UNL d   1       7.495  13.977   3.191  0.00  0.00     0.069 A 
ATOM     28 CL   UNL d   1       8.962  14.881   3.292  0.00  0.00    -0.081 Cl
ATOM     29  C   UNL d   1       6.300  14.581   3.578  0.00  0.00     0.050 A 
ATOM     30  C   UNL d   1       5.112  13.857   3.497  0.00  0.00     0.036 A 
ATOM     31  C   UNL d   1       5.112  12.541   3.039  0.00  0.00     0.039 A 
ATOM     32 CL   UNL d   1       3.632  14.598   3.968  0.00  0.00    -0.084 Cl
BRANCH  26  33
ATOM     33  O   UNL d   1       8.686  12.067   2.339  0.00  0.00    -0.358 OA
ATOM     34  H   UNL d   1       9.399  12.726   2.446  0.00  0.00     0.217 HD
ENDBRANCH  26  33
ENDBRANCH  23  25
ENDBRANCH  21  22
ENDBRANCH   6  21
TORSDOF 8
