REMARK  11 active torsions:
REMARK  status: ('A' for Active; 'I' for Inactive)
REMARK    1  A    between atoms: C_3  and  C_1 
REMARK    2  A    between atoms: C_4  and  C_1 
REMARK    3  A    between atoms: N_6  and  C_2 
REMARK    4  A    between atoms: O_14  and  C_3 
REMARK    5  A    between atoms: O_15  and  C_4 
REMARK    6  A    between atoms: C_8  and  N_6 
REMARK    7  A    between atoms: S_12  and  C_11 
REMARK    8  A    between atoms: C_16  and  S_12 
REMARK    9  A    between atoms: C_13  and  C_16 
REMARK   10  A    between atoms: C_19  and  O_14 
REMARK   11  A    between atoms: C_20  and  O_15 
ROOT
ATOM      1  N   UNL d   1       4.096  -1.101  -4.225  0.00  0.00    -0.197 NA
ATOM      2  C   UNL d   1       3.595  -0.063  -4.347  0.00  0.00     0.059 C 
ATOM      3  C   UNL d   1       2.953   1.256  -4.485  0.00  0.00     0.134 C 
ENDROOT
BRANCH   3   4
ATOM      4  C   UNL d   1       3.521   2.219  -3.450  0.00  0.00     0.093 C 
BRANCH   4   5
ATOM      5  S   UNL d   1       2.727   3.869  -3.353  0.00  0.00    -0.127 SA
BRANCH   5   6
ATOM      6  C   UNL d   1       0.951   3.577  -3.299  0.00  0.00     0.027 A 
ATOM      7  C   UNL d   1       0.274   2.597  -2.535  0.00  0.00     0.049 A 
ATOM      8  C   UNL d   1      -1.131   2.528  -2.644  0.00  0.00     0.031 A 
ATOM      9  C   UNL d   1      -1.857   3.417  -3.436  0.00  0.00     0.002 A 
ATOM     10  C   UNL d   1      -1.192   4.400  -4.149  0.00  0.00     0.002 A 
ATOM     11  C   UNL d   1       0.199   4.481  -4.077  0.00  0.00     0.021 A 
BRANCH   7  12
ATOM     12  N   UNL d   1       0.981   1.655  -1.759  0.00  0.00    -0.364 N 
ATOM     13  H   UNL d   1       1.843   2.013  -1.336  0.00  0.00     0.165 HD
BRANCH  12  14
ATOM     14  C   UNL d   1       0.529   0.451  -1.261  0.00  0.00     0.112 C 
ATOM     15  C   UNL d   1       1.144  -0.438  -0.454  0.00  0.00     0.129 C 
BRANCH  15  16
ATOM     16  C   UNL d   1       0.444  -1.678  -0.028  0.00  0.00     0.300 C 
ATOM     17  O   UNL d   1       0.816  -2.406   0.880  0.00  0.00    -0.259 OA
BRANCH  16  18
ATOM     18  O   UNL d   1      -0.662  -1.898  -0.791  0.00  0.00    -0.318 OA
BRANCH  18  19
ATOM     19  C   UNL d   1      -1.306  -3.171  -0.632  0.00  0.00     0.174 C 
ATOM     20  C   UNL d   1      -0.723  -4.126  -1.655  0.00  0.00     0.034 C 
ENDBRANCH  18  19
ENDBRANCH  16  18
ENDBRANCH  15  16
BRANCH  15  21
ATOM     21  C   UNL d   1       2.533  -0.149  -0.043  0.00  0.00     0.300 C 
ATOM     22  O   UNL d   1       3.027   0.972  -0.064  0.00  0.00    -0.259 OA
BRANCH  21  23
ATOM     23  O   UNL d   1       3.199  -1.288   0.258  0.00  0.00    -0.318 OA
BRANCH  23  24
ATOM     24  C   UNL d   1       4.580  -1.136   0.610  0.00  0.00     0.174 C 
ATOM     25  C   UNL d   1       4.714  -0.630   2.034  0.00  0.00     0.034 C 
ENDBRANCH  23  24
ENDBRANCH  21  23
ENDBRANCH  15  21
ENDBRANCH  12  14
ENDBRANCH   7  12
ENDBRANCH   5   6
ENDBRANCH   4   5
ENDBRANCH   3   4
TORSDOF 11
