REMARK  9 active torsions:
REMARK  status: ('A' for Active; 'I' for Inactive)
REMARK       I    between atoms: C_2  and  N_1 
REMARK    1  A    between atoms: C_5  and  N_1 
REMARK    2  A    between atoms: C_7  and  N_1 
REMARK    3  A    between atoms: C_16  and  C_2 
REMARK    4  A    between atoms: C_3  and  C_5 
REMARK    5  A    between atoms: C_6  and  C_17 
REMARK    6  A    between atoms: O_14  and  C_6 
REMARK    7  A    between atoms: C_15  and  C_7 
REMARK    8  A    between atoms: S_13  and  C_16 
REMARK    9  A    between atoms: C_17  and  S_13 
ROOT
ATOM      1  N   UNL d   1       0.941  -0.005  -0.158  0.00  0.00    -0.343 N 
ATOM      2  C   UNL d   1       0.259  -0.278  -1.340  0.00  0.00     0.229 C 
ATOM      3  O   UNL d   1      -0.912   0.089  -1.524  0.00  0.00    -0.273 OA
ENDROOT
BRANCH   1   4
ATOM      4  C   UNL d   1       0.248   0.789   0.855  0.00  0.00     0.172 C 
BRANCH   4   5
ATOM      5  C   UNL d   1      -0.654  -0.024   1.731  0.00  0.00     0.000 A 
ATOM      6  S   UNL d   1      -0.049  -0.738   3.170  0.00  0.00    -0.105 SA
ATOM      7  C   UNL d   1      -1.621  -1.149   3.703  0.00  0.00     0.050 A 
ATOM      8  C   UNL d   1      -2.583  -0.821   2.773  0.00  0.00     0.008 A 
ATOM      9  C   UNL d   1      -2.021  -0.197   1.623  0.00  0.00     0.017 A 
ENDBRANCH   4   5
ENDBRANCH   1   4
BRANCH   1  10
ATOM     10  C   UNL d   1       2.409  -0.029  -0.065  0.00  0.00     0.164 C 
BRANCH  10  11
ATOM     11  C   UNL d   1       3.030   1.142  -0.805  0.00  0.00    -0.040 A 
ATOM     12  C   UNL d   1       2.766   2.466  -0.420  0.00  0.00     0.009 A 
ATOM     13  C   UNL d   1       3.207   3.544  -1.190  0.00  0.00     0.001 A 
ATOM     14  C   UNL d   1       3.950   3.313  -2.341  0.00  0.00     0.000 A 
ATOM     15  C   UNL d   1       4.281   2.011  -2.703  0.00  0.00     0.001 A 
ATOM     16  C   UNL d   1       3.833   0.931  -1.937  0.00  0.00     0.009 A 
ENDBRANCH  10  11
ENDBRANCH   1  10
BRANCH   2  17
ATOM     17  C   UNL d   1       0.937  -1.081  -2.448  0.00  0.00     0.177 C 
BRANCH  17  18
ATOM     18  S   UNL d   1       0.332  -2.801  -2.472  0.00  0.00    -0.149 SA
BRANCH  18  19
ATOM     19  C   UNL d   1      -1.450  -2.560  -2.780  0.00  0.00     0.184 C 
BRANCH  19  20
ATOM     20  C   UNL d   1      -1.727  -1.808  -4.063  0.00  0.00     0.149 C 
ATOM     21  O   UNL d   1      -1.793  -2.333  -5.163  0.00  0.00    -0.649 OA
BRANCH  20  22
ATOM     22  O   UNL d   1      -1.878  -0.471  -3.898  0.00  0.00    -0.776 OA
ATOM     23  H   UNL d   1      -1.751  -0.158  -2.969  0.00  0.00     0.167 HD
ENDBRANCH  20  22
ENDBRANCH  19  20
ENDBRANCH  18  19
ENDBRANCH  17  18
ENDBRANCH   2  17
TORSDOF 9
