REMARK  4 active torsions:
REMARK  status: ('A' for Active; 'I' for Inactive)
REMARK    1  A    between atoms: N_3  and  S_1 
REMARK    2  A    between atoms: C_8  and  S_1 
REMARK    3  A    between atoms: C_2  and  C_9 
REMARK    4  A    between atoms: C_11  and  N_3 
ROOT
ATOM      1  C   UNL d   1       1.528   0.402  -5.502  0.00  0.00     0.015 A 
ATOM      2  C   UNL d   1       0.947  -0.312  -2.860  0.00  0.00     0.042 A 
ATOM      3  C   UNL d   1       0.244  -0.037  -5.157  0.00  0.00     0.018 A 
ATOM      4  C   UNL d   1       2.517   0.486  -4.513  0.00  0.00     0.018 A 
ATOM      5  C   UNL d   1      -0.040  -0.408  -3.839  0.00  0.00     0.031 A 
ATOM      6  C   UNL d   1       2.223   0.141  -3.192  0.00  0.00     0.031 A 
ENDROOT
BRANCH   2   7
ATOM      7  N   UNL d   1       0.662  -0.732  -1.535  0.00  0.00    -0.281 N 
ATOM      8  H   UNL d   1       0.922  -0.111  -0.770  0.00  0.00     0.179 HD
BRANCH   7   9
ATOM      9  S   UNL d   1       0.851  -2.362  -1.133  0.00  0.00     0.263 S 
ATOM     10  O   UNL d   1       0.029  -3.165  -2.010  0.00  0.00    -0.200 OA
ATOM     11  O   UNL d   1       0.711  -2.439   0.305  0.00  0.00    -0.200 OA
BRANCH   9  12
ATOM     12  C   UNL d   1       2.559  -2.695  -1.519  0.00  0.00     0.079 A 
ATOM     13  C   UNL d   1       3.547  -2.449  -0.559  0.00  0.00     0.025 A 
ATOM     14  C   UNL d   1       4.886  -2.691  -0.873  0.00  0.00     0.002 A 
ATOM     15  C   UNL d   1       5.229  -3.181  -2.134  0.00  0.00     0.000 A 
ATOM     16  C   UNL d   1       4.237  -3.447  -3.080  0.00  0.00     0.002 A 
ATOM     17  C   UNL d   1       2.898  -3.215  -2.771  0.00  0.00     0.025 A 
ENDBRANCH   9  12
ENDBRANCH   7   9
ENDBRANCH   2   7
BRANCH   1  18
ATOM     18  C   UNL d   1       1.879   0.764  -6.888  0.00  0.00     0.148 C 
ATOM     19  N   UNL d   1       3.047   1.143  -7.299  0.00  0.00    -0.368 N 
ATOM     20  C   UNL d   1       2.850   1.397  -8.730  0.00  0.00     0.148 C 
ATOM     21  HN  UNL d   1       3.904   1.241  -6.755  1.00  0.00     0.161 HD
ATOM     22  C   UNL d   1       1.439   0.948  -9.036  0.00  0.00     0.197 C 
ATOM     23  O   UNL d   1       0.858   0.669  -7.771  0.00  0.00    -0.334 OA
ENDBRANCH   1  18
TORSDOF 4
