REMARK  2 active torsions:
REMARK  status: ('A' for Active; 'I' for Inactive)
REMARK    1  A    between atoms: S_13  and  C_6 
REMARK    2  A    between atoms: C_8  and  C_7 
ROOT
ATOM      1  C   UNL d   1      -0.702   1.236   0.007  0.00  0.00     0.140 A 
ATOM      2  N   UNL d   1      -0.741  -1.218  -0.012  0.00  0.00    -0.298 N 
ATOM      3  C   UNL d   1      -1.468  -0.033  -0.036  0.00  0.00     0.272 A 
ATOM      4  N   UNL d   1       1.322  -0.086   0.013  0.00  0.00    -0.334 N 
ATOM      5  HN  UNL d   1       2.341  -0.102   0.006  1.00  0.00     0.168 HD
ATOM      6  C   UNL d   1       0.642  -1.183  -0.004  0.00  0.00     0.149 A 
ATOM      7  C   UNL d   1       0.633   1.105   0.040  0.00  0.00     0.077 A 
ATOM      8  C   UNL d   1      -1.396   2.489   0.005  0.00  0.00     0.107 C 
ATOM      9  N   UNL d   1      -1.939   3.518   0.004  0.00  0.00    -0.191 NA
ATOM     10  O   UNL d   1      -2.697   0.002  -0.089  0.00  0.00    -0.266 OA
ATOM     11  C   UNL d   1      -1.490  -2.476  -0.012  0.00  0.00     0.161 C 
ENDROOT
BRANCH   7  12
ATOM     12  C   UNL d   1       1.492   2.238   0.108  0.00  0.00     0.033 A 
ATOM     13  S   UNL d   1       1.949   2.884   1.637  0.00  0.00    -0.100 SA
ATOM     14  C   UNL d   1       2.904   4.101   0.915  0.00  0.00     0.050 A 
ATOM     15  C   UNL d   1       2.892   4.021  -0.459  0.00  0.00     0.008 A 
ATOM     16  C   UNL d   1       2.085   2.943  -0.923  0.00  0.00     0.021 A 
ENDBRANCH   7  12
BRANCH   6  17
ATOM     17  S   UNL d   1       1.504  -2.717  -0.026  0.00  0.00    -0.098 SA
ATOM     18  C   UNL d   1       3.228  -2.179  -0.009  0.00  0.00     0.099 C 
ENDBRANCH   6  17
TORSDOF 2
