REMARK  5 active torsions:
REMARK  status: ('A' for Active; 'I' for Inactive)
REMARK    1  A    between atoms: C_2  and  C_1 
REMARK    2  A    between atoms: C_4  and  C_1 
REMARK    3  A    between atoms: C_3  and  C_2 
REMARK    4  A    between atoms: O_7  and  C_2 
REMARK    5  A    between atoms: N_6  and  C_4 
ROOT
ATOM      1  C   UNL d   1       0.671   1.369   0.520  0.00  0.00     0.090 C 
ATOM      2  C   UNL d   1      -0.860   1.555   0.358  0.00  0.00     0.052 C 
ENDROOT
BRANCH   1   3
ATOM      3  C   UNL d   1       1.127  -0.074  -0.016  0.00  0.00     0.014 C 
ATOM      4  C   UNL d   1       1.075  -0.108  -1.569  0.00  0.00     0.020 C 
ATOM      5  C   UNL d   1       0.145  -1.183   0.454  0.00  0.00     0.020 C 
BRANCH   3   6
ATOM      6  C   UNL d   1       2.594  -0.505   0.378  0.00  0.00     0.283 C 
BRANCH   6   7
ATOM      7  N   UNL d   1       3.043  -0.389   1.787  0.00  0.00     0.080 N 
ATOM      8  C   UNL d   1       2.432  -1.384   2.678  0.00  0.00     0.309 C 
ATOM      9  C   UNL d   1       4.504  -0.586   1.849  0.00  0.00     0.309 C 
ENDBRANCH   6   7
ENDBRANCH   3   6
ENDBRANCH   1   3
BRANCH   1  10
ATOM     10  C   UNL d   1       1.442   2.568  -0.078  0.00  0.00    -0.023 A 
ATOM     11  C   UNL d   1       2.817   2.743   0.177  0.00  0.00     0.017 A 
ATOM     12  C   UNL d   1       3.562   3.791  -0.390  0.00  0.00    -0.061 A 
ATOM     13  C   UNL d   1       5.047   3.865  -0.185  0.00  0.00     0.048 C 
ATOM     14  C   UNL d   1       2.915   4.731  -1.187  0.00  0.00     0.007 A 
ATOM     15  C   UNL d   1       1.548   4.623  -1.414  0.00  0.00     0.001 A 
ATOM     16  C   UNL d   1       0.826   3.549  -0.878  0.00  0.00     0.010 A 
ENDBRANCH   1  10
BRANCH   1  17
ATOM     17  O   UNL d   1       0.851   1.437   1.944  0.00  0.00    -0.385 OA
ATOM     18  H   UNL d   1       1.754   1.092   2.123  0.00  0.00     0.211 HD
ENDBRANCH   1  17
TORSDOF 5
