REMARK  4 active torsions:
REMARK  status: ('A' for Active; 'I' for Inactive)
REMARK    1  A    between atoms: C_10  and  C_3 
REMARK    2  A    between atoms: C_4  and  S_7 
REMARK    3  A    between atoms: S_7  and  C_15 
REMARK    4  A    between atoms: C_15  and  C_16 
ROOT
ATOM      1  C   UNL d   1       0.236  -2.602   0.009  0.00  0.00    -0.001 A 
ATOM      2  C   UNL d   1       0.840  -3.291   1.073  0.00  0.00     0.015 A 
ATOM      3  C   UNL d   1      -0.389  -3.367  -0.980  0.00  0.00     0.015 A 
ATOM      4  C   UNL d   1       0.202  -5.462   0.140  0.00  0.00    -0.049 A 
ATOM      5  C   UNL d   1       0.824  -4.698   1.141  0.00  0.00     0.009 A 
ATOM      6  C   UNL d   1      -0.407  -4.764  -0.911  0.00  0.00     0.009 A 
ENDROOT
BRANCH   4   7
ATOM      7  C   UNL d   1       0.213  -6.984   0.239  0.00  0.00     0.118 C 
BRANCH   7   8
ATOM      8  S   UNL d   1      -0.595  -7.827  -1.176  0.00  0.00    -0.122 SA
BRANCH   8   9
ATOM      9  C   UNL d   1      -0.418  -9.562  -0.764  0.00  0.00     0.044 A 
ATOM     10  C   UNL d   1      -1.390 -10.229   0.008  0.00  0.00     0.052 A 
ATOM     11 CL   UNL d   1      -2.687  -9.396   0.803  0.00  0.00    -0.083 Cl
ATOM     12  C   UNL d   1      -1.366 -11.623   0.147  0.00  0.00     0.025 A 
ATOM     13  C   UNL d   1      -0.377 -12.376  -0.478  0.00  0.00     0.003 A 
ATOM     14  C   UNL d   1       0.606 -11.735  -1.226  0.00  0.00     0.025 A 
ATOM     15  C   UNL d   1       0.588 -10.341  -1.370  0.00  0.00     0.052 A 
ATOM     16 CL   UNL d   1       1.845  -9.651  -2.347  0.00  0.00    -0.083 Cl
ENDBRANCH   8   9
ENDBRANCH   7   8
ENDBRANCH   4   7
BRANCH   1  17
ATOM     17  C   UNL d   1       0.283  -1.131  -0.042  0.00  0.00     0.102 A 
ATOM     18  N   UNL d   1       0.915  -0.346   0.815  0.00  0.00    -0.345 N 
ATOM     19  C   UNL d   1       0.730   0.970   0.422  0.00  0.00     0.188 A 
ATOM     20  HN  UNL d   1       1.448  -0.656   1.627  1.00  0.00     0.167 HD
ATOM     21  N   UNL d   1       0.008   1.261  -0.655  0.00  0.00    -0.321 N 
ATOM     22  S   UNL d   1      -0.506  -0.200  -1.269  0.00  0.00     0.005 SA
ATOM     23  HN  UNL d   1      -0.191   2.189  -1.030  1.00  0.00     0.175 HD
ENDBRANCH   1  17
TORSDOF 4
