REMARK  4 active torsions:
REMARK  status: ('A' for Active; 'I' for Inactive)
REMARK    1  A    between atoms: C_2  and  N_1 
REMARK    2  A    between atoms: C_9  and  C_3 
REMARK    3  A    between atoms: C_6  and  C_5 
REMARK    4  A    between atoms: O_13  and  C_6 
ROOT
ATOM      1  C   UNL d   1       0.175  -0.388  -1.176  0.00  0.00     0.111 A 
ATOM      2  C   UNL d   1       0.724  -1.620  -1.601  0.00  0.00    -0.018 A 
ATOM      3  C   UNL d   1      -0.972   0.185  -1.764  0.00  0.00     0.054 A 
ATOM      4  C   UNL d   1      -1.631  -0.483  -2.793  0.00  0.00     0.040 A 
ATOM      5  C   UNL d   1       0.018  -2.255  -2.655  0.00  0.00     0.011 A 
ATOM      6  C   UNL d   1      -1.123  -1.697  -3.250  0.00  0.00     0.019 A 
ENDROOT
BRANCH   2   7
ATOM      7  C   UNL d   1       1.958  -2.339  -0.994  0.00  0.00    -0.022 C 
ATOM      8  C   UNL d   1       1.466  -3.260   0.141  0.00  0.00     0.019 C 
ATOM      9  C   UNL d   1       2.687  -3.231  -2.041  0.00  0.00     0.019 C 
ATOM     10  C   UNL d   1       3.067  -1.415  -0.442  0.00  0.00     0.019 C 
ENDBRANCH   2   7
BRANCH   1  11
ATOM     11  N   UNL d   1       0.703   0.373  -0.062  0.00  0.00    -0.115 N 
ATOM     12  O   UNL d   1       0.461  -0.058   1.074  0.00  0.00    -0.532 OA
ATOM     13  O   UNL d   1       1.319   1.410  -0.332  0.00  0.00    -0.532 OA
ENDBRANCH   1  11
BRANCH   4  14
ATOM     14  C   UNL d   1      -2.837   0.142  -3.386  0.00  0.00     0.176 C 
ATOM     15  O   UNL d   1      -2.980   1.349  -3.460  0.00  0.00    -0.646 OA
BRANCH  14  16
ATOM     16  O   UNL d   1      -3.772  -0.744  -3.786  0.00  0.00    -0.773 OA
ATOM     17  H   UNL d   1      -3.629  -1.666  -3.505  0.00  0.00     0.167 HD
ENDBRANCH  14  16
ENDBRANCH   4  14
TORSDOF 4
