REMARK  2 active torsions:
REMARK  status: ('A' for Active; 'I' for Inactive)
REMARK    1  A    between atoms: C_7  and  C_4 
REMARK    2  A    between atoms: C_13  and  N_8 
ROOT
ATOM      1  N   UNL d   1       1.442  -0.534  -0.026  0.00  0.00    -0.335 N 
ATOM      2  HN  UNL d   1       2.353  -0.990  -0.072  1.00  0.00     0.168 HD
ATOM      3  C   UNL d   1       0.295  -1.172  -0.009  0.00  0.00     0.149 A 
ATOM      4  C   UNL d   1       1.259   0.835   0.025  0.00  0.00     0.051 A 
ATOM      5  S   UNL d   1      -1.080  -0.143   0.167  0.00  0.00    -0.064 SA
ATOM      6  C   UNL d   1      -0.057   1.234   0.123  0.00  0.00     0.083 A 
ATOM      7  N   UNL d   1       0.129  -2.513  -0.100  0.00  0.00    -0.335 N 
ATOM      8  H   UNL d   1      -0.815  -2.866  -0.007  0.00  0.00     0.168 HD
ENDROOT
BRANCH   7   9
ATOM      9  C   UNL d   1       1.036  -3.436  -0.655  0.00  0.00     0.049 A 
ATOM     10  C   UNL d   1       2.244  -3.102  -1.273  0.00  0.00     0.117 A 
ATOM     11  N   UNL d   1       3.130  -3.993  -1.792  0.00  0.00    -0.373 N 
ATOM     12  C   UNL d   1       2.816  -5.296  -1.669  0.00  0.00     0.088 A 
ATOM     13  HN  UNL d   1       3.989  -3.689  -2.251  1.00  0.00     0.164 HD
ATOM     14  C   UNL d   1       1.665  -5.747  -1.051  0.00  0.00     0.019 A 
ATOM     15  C   UNL d   1       0.774  -4.806  -0.535  0.00  0.00     0.032 A 
ENDBRANCH   7   9
BRANCH   4  16
ATOM     16  C   UNL d   1       2.408   1.729  -0.017  0.00  0.00    -0.008 A 
ATOM     17  C   UNL d   1       2.336   3.002  -0.594  0.00  0.00     0.032 A 
ATOM     18  C   UNL d   1       3.476   3.808  -0.643  0.00  0.00     0.011 A 
ATOM     19 BR   UNL d   1       3.375   5.519  -1.446  0.00  0.00    -0.051 Br
ATOM     20  C   UNL d   1       4.689   3.365  -0.120  0.00  0.00     0.019 A 
ATOM     21  C   UNL d   1       4.769   2.099   0.454  0.00  0.00     0.002 A 
ATOM     22  C   UNL d   1       3.636   1.285   0.501  0.00  0.00     0.014 A 
ENDBRANCH   4  16
TORSDOF 2
