REMARK  3 active torsions:
REMARK  status: ('A' for Active; 'I' for Inactive)
REMARK    1  A    between atoms: C_3  and  C_1 
REMARK    2  A    between atoms: C_7  and  C_2 
REMARK    3  A    between atoms: O_10  and  C_3 
ROOT
ATOM      1  C   UNL d   1      -1.286  -0.379   0.375  0.00  0.00     0.087 A 
ATOM      2  C   UNL d   1      -0.931   0.911  -0.000  0.00  0.00     0.102 A 
ATOM      3  N   UNL d   1       0.794  -0.437  -0.564  0.00  0.00    -0.271 N 
ATOM      4  HN  UNL d   1       1.693  -0.767  -0.915  1.00  0.00     0.194 HD
ATOM      5  O   UNL d   1       0.337   0.858  -0.525  0.00  0.00    -0.241 OA
ATOM      6  C   UNL d   1      -0.187  -1.169  -0.048  0.00  0.00     0.135 A 
ENDROOT
BRANCH   1   7
ATOM      7  C   UNL d   1      -2.463  -0.932   1.006  0.00  0.00     0.180 C 
ATOM      8  O   UNL d   1      -2.869  -2.059   0.771  0.00  0.00    -0.646 OA
BRANCH   7   9
ATOM      9  O   UNL d   1      -3.035  -0.161   1.961  0.00  0.00    -0.773 OA
ATOM     10  H   UNL d   1      -2.511   0.628   2.177  0.00  0.00     0.167 HD
ENDBRANCH   7   9
ENDBRANCH   1   7
BRANCH   2  11
ATOM     11  C   UNL d   1      -1.517   2.311   0.002  0.00  0.00     0.001 C 
ATOM     12  C   UNL d   1      -1.030   3.060   1.255  0.00  0.00     0.021 C 
ATOM     13  C   UNL d   1      -1.031   3.089  -1.248  0.00  0.00     0.021 C 
ATOM     14  C   UNL d   1      -3.053   2.330  -0.048  0.00  0.00     0.021 C 
ENDBRANCH   2  11
TORSDOF 3
