REMARK  1 active torsions:
REMARK  status: ('A' for Active; 'I' for Inactive)
REMARK    1  A    between atoms: C_13  and  C_9 
ROOT
ATOM      1  C   UNL d   1       0.237   0.539  -0.001  0.00  0.00     0.172 A 
ATOM      2  N   UNL d   1       0.453  -0.796   0.013  0.00  0.00    -0.242 N 
ATOM      3  S   UNL d   1      -1.442   0.852  -0.046  0.00  0.00    -0.032 SA
ATOM      4  C   UNL d   1      -1.657  -0.923  -0.068  0.00  0.00     0.110 A 
ATOM      5  N   UNL d   1      -0.580  -1.662  -0.020  0.00  0.00    -0.284 N 
ATOM      6  HN  UNL d   1      -0.532  -2.680  -0.010  1.00  0.00     0.188 HD
ATOM      7  N   UNL d   1       1.327   1.252  -0.009  0.00  0.00    -0.333 N 
ATOM      8  HN  UNL d   1       1.420   2.268  -0.019  1.00  0.00     0.168 HD
ATOM      9  C   UNL d   1       2.333   0.290  -0.002  0.00  0.00     0.062 A 
ATOM     10  C   UNL d   1       1.797  -0.991   0.023  0.00  0.00     0.149 A 
ATOM     11  C   UNL d   1      -3.006  -1.437  -0.156  0.00  0.00     0.040 A 
ATOM     12  S   UNL d   1      -3.256  -3.140  -0.123  0.00  0.00    -0.099 SA
ATOM     13  C   UNL d   1      -4.214  -0.771  -0.284  0.00  0.00     0.022 A 
ATOM     14  C   UNL d   1      -4.946  -2.975  -0.294  0.00  0.00     0.050 A 
ATOM     15  C   UNL d   1      -5.329  -1.656  -0.369  0.00  0.00     0.008 A 
ENDROOT
BRANCH   9  16
ATOM     16  C   UNL d   1       3.751   0.625  -0.035  0.00  0.00    -0.008 A 
ATOM     17  C   UNL d   1       4.146   1.972  -0.052  0.00  0.00     0.017 A 
ATOM     18  C   UNL d   1       5.500   2.319  -0.090  0.00  0.00     0.043 A 
ATOM     19  C   UNL d   1       6.462   1.318  -0.112  0.00  0.00     0.116 A 
ATOM     20  C   UNL d   1       6.097  -0.021  -0.098  0.00  0.00     0.043 A 
ATOM     21  F   UNL d   1       7.759   1.648  -0.147  0.00  0.00    -0.206 F 
ATOM     22  C   UNL d   1       4.745  -0.368  -0.061  0.00  0.00     0.017 A 
ENDBRANCH   9  16
TORSDOF 1
