REMARK  4 active torsions:
REMARK  status: ('A' for Active; 'I' for Inactive)
REMARK    1  A    between atoms: C_7  and  N_1 
REMARK    2  A    between atoms: N_6  and  C_9 
REMARK    3  A    between atoms: N_15  and  C_7 
REMARK    4  A    between atoms: C_18  and  N_15 
ROOT
ATOM      1  N   UNL d   1       1.916   0.033  -0.149  0.00  0.00    -0.267 N 
ATOM      2  C   UNL d   1       1.150   1.161  -0.070  0.00  0.00     0.262 A 
ATOM      3  C   UNL d   1       1.161  -1.103  -0.079  0.00  0.00     0.262 A 
ATOM      4  C   UNL d   1      -0.245   0.714  -0.036  0.00  0.00     0.050 A 
ATOM      5  C   UNL d   1      -0.234  -0.670  -0.037  0.00  0.00     0.048 A 
ATOM      6  C   UNL d   1      -1.422   1.439  -0.010  0.00  0.00     0.054 A 
ATOM      7  C   UNL d   1      -2.618   0.701   0.010  0.00  0.00     0.103 A 
ATOM      8  C   UNL d   1      -1.397  -1.417   0.001  0.00  0.00     0.020 A 
ATOM      9  O   UNL d   1       1.490   2.324  -0.015  0.00  0.00    -0.267 OA
ATOM     10  O   UNL d   1       1.502  -2.268  -0.014  0.00  0.00    -0.267 OA
ATOM     11  C   UNL d   1      -2.609  -0.717   0.021  0.00  0.00     0.037 A 
ENDROOT
BRANCH   1  12
ATOM     12  C   UNL d   1       3.352   0.023  -0.173  0.00  0.00     0.230 C 
BRANCH  12  13
ATOM     13  N   UNL d   1       3.771   0.048  -1.566  0.00  0.00    -0.276 NA
ATOM     14  H   UNL d   1       3.291   0.779  -2.082  0.00  0.00     0.129 HD
BRANCH  13  15
ATOM     15  C   UNL d   1       5.149   0.036  -1.842  0.00  0.00     0.012 A 
ATOM     16  C   UNL d   1       6.082  -0.650  -1.056  0.00  0.00     0.065 A 
ATOM     17  C   UNL d   1       7.423  -0.710  -1.436  0.00  0.00     0.118 A 
ATOM     18  F   UNL d   1       8.294  -1.370  -0.661  0.00  0.00    -0.206 F 
ATOM     19  C   UNL d   1       7.870  -0.113  -2.605  0.00  0.00     0.042 A 
ATOM     20  C   UNL d   1       6.954   0.550  -3.415  0.00  0.00     0.005 A 
ATOM     21  C   UNL d   1       5.605   0.607  -3.041  0.00  0.00     0.024 A 
ENDBRANCH  13  15
ENDBRANCH  12  13
ENDBRANCH   1  12
BRANCH   7  22
ATOM     22  N   UNL d   1      -3.906   1.410   0.006  0.00  0.00    -0.116 N 
ATOM     23  O   UNL d   1      -3.878   2.648  -0.019  0.00  0.00    -0.532 OA
ATOM     24  O   UNL d   1      -4.938   0.727   0.023  0.00  0.00    -0.532 OA
ENDBRANCH   7  22
TORSDOF 4
