REMARK  16 active torsions:
REMARK  status: ('A' for Active; 'I' for Inactive)
REMARK    1  A    between atoms: C_3  and  C_1 
REMARK    2  A    between atoms: C_4  and  C_2 
REMARK    3  A    between atoms: O_5  and  C_3 
REMARK    4  A    between atoms: C_6  and  C_4 
REMARK    5  A    between atoms: C_17  and  C_6 
REMARK    6  A    between atoms: C_7  and  C_8 
REMARK    7  A    between atoms: C_8  and  C_12 
REMARK    8  A    between atoms: C_9  and  C_13 
REMARK    9  A    between atoms: C_11  and  C_9 
REMARK   10  A    between atoms: C_10  and  C_18 
REMARK   11  A    between atoms: C_12  and  C_10 
REMARK   12  A    between atoms: C_14  and  C_11 
REMARK   13  A    between atoms: C_13  and  C_15 
REMARK   14  A    between atoms: C_16  and  C_14 
REMARK   15  A    between atoms: C_15  and  C_17 
REMARK   16  A    between atoms: C_18  and  C_16 
ROOT
ATOM      1  C   UNL d   1       6.525   3.605   3.723  0.00  0.00     0.000 C 
ENDROOT
BRANCH   1   2
ATOM      2  C   UNL d   1       6.234   2.741   2.510  0.00  0.00     0.000 C 
BRANCH   2   3
ATOM      3  C   UNL d   1       4.760   2.378   2.475  0.00  0.00     0.000 C 
BRANCH   3   4
ATOM      4  C   UNL d   1       4.469   1.514   1.260  0.00  0.00     0.001 C 
BRANCH   4   5
ATOM      5  C   UNL d   1       2.995   1.148   1.220  0.00  0.00     0.012 C 
BRANCH   5   6
ATOM      6  C   UNL d   1       2.697   0.284   0.002  0.00  0.00     0.094 C 
BRANCH   6   7
ATOM      7  C   UNL d   1       1.273  -0.060  -0.023  0.00  0.00    -0.104 C 
ATOM      8  C   UNL d   1       0.106  -0.329  -0.003  0.00  0.00    -0.081 C 
BRANCH   8   9
ATOM      9  C   UNL d   1      -1.312  -0.684   0.046  0.00  0.00     0.257 C 
BRANCH   9  10
ATOM     10  O   UNL d   1      -2.116   0.490   0.025  0.00  0.00    -0.389 OA
ATOM     11  H   UNL d   1      -1.867   1.012   0.805  0.00  0.00     0.210 HD
ENDBRANCH   9  10
ENDBRANCH   8   9
ENDBRANCH   6   7
ENDBRANCH   5   6
ENDBRANCH   4   5
ENDBRANCH   3   4
ENDBRANCH   2   3
ENDBRANCH   1   2
BRANCH   1  12
ATOM     12  C   UNL d   1       7.997   3.969   3.755  0.00  0.00     0.000 C 
BRANCH  12  13
ATOM     13  C   UNL d   1       8.289   4.831   4.969  0.00  0.00     0.000 C 
BRANCH  13  14
ATOM     14  C   UNL d   1       9.762   5.193   5.002  0.00  0.00     0.000 C 
BRANCH  14  15
ATOM     15  C   UNL d   1      10.053   6.057   6.215  0.00  0.00     0.000 C 
BRANCH  15  16
ATOM     16  C   UNL d   1      11.527   6.418   6.251  0.00  0.00     0.000 C 
BRANCH  16  17
ATOM     17  C   UNL d   1      11.820   7.281   7.466  0.00  0.00     0.000 C 
BRANCH  17  18
ATOM     18  C   UNL d   1      13.295   7.644   7.504  0.00  0.00    -0.000 C 
BRANCH  18  19
ATOM     19  C   UNL d   1      13.598   8.508   8.720  0.00  0.00    -0.005 C 
ATOM     20  C   UNL d   1      15.069   8.868   8.755  0.00  0.00     0.005 C 
ENDBRANCH  18  19
ENDBRANCH  17  18
ENDBRANCH  16  17
ENDBRANCH  15  16
ENDBRANCH  14  15
ENDBRANCH  13  14
ENDBRANCH  12  13
ENDBRANCH   1  12
TORSDOF 16
