REMARK  3 active torsions:
REMARK  status: ('A' for Active; 'I' for Inactive)
REMARK    1  A    between atoms: N_6  and  C_2 
REMARK    2  A    between atoms: C_10  and  C_3 
REMARK       I    between atoms: C_9  and  N_6 
REMARK    3  A    between atoms: C_11  and  C_9 
ROOT
ATOM      1  S   UNL d   1       0.975  -0.231   0.304  0.00  0.00    -0.037 SA
ATOM      2  C   UNL d   1      -0.053   1.098   0.019  0.00  0.00     0.168 A 
ATOM      3  C   UNL d   1      -0.396  -1.237   0.100  0.00  0.00     0.074 A 
ATOM      4  N   UNL d   1      -1.515  -0.587  -0.140  0.00  0.00    -0.296 N 
ATOM      5  HN  UNL d   1      -2.418  -1.037  -0.288  1.00  0.00     0.187 HD
ATOM      6  N   UNL d   1      -1.315   0.778  -0.168  0.00  0.00    -0.279 N 
ATOM      7  HN  UNL d   1      -2.059   1.459  -0.315  1.00  0.00     0.189 HD
ENDROOT
BRANCH   2   8
ATOM      8  N   UNL d   1       0.362   2.403   0.026  0.00  0.00    -0.301 N 
ATOM      9  C   UNL d   1       1.646   2.888   0.103  0.00  0.00     0.264 C 
ATOM     10  O   UNL d   1       2.660   2.194   0.091  0.00  0.00    -0.267 OA
ATOM     11  H   UNL d   1      -0.394   3.070  -0.066  0.00  0.00     0.171 HD
BRANCH   9  12
ATOM     12  C   UNL d   1       1.728   4.350   0.190  0.00  0.00     0.072 A 
ATOM     13  S   UNL d   1       0.332   5.343   0.325  0.00  0.00    -0.097 SA
ATOM     14  C   UNL d   1       1.264   6.766   0.469  0.00  0.00     0.050 A 
ATOM     15  C   UNL d   1       2.613   6.509   0.380  0.00  0.00     0.009 A 
ATOM     16  C   UNL d   1       2.879   5.119   0.204  0.00  0.00     0.025 A 
ENDBRANCH   9  12
ENDBRANCH   2   8
BRANCH   3  17
ATOM     17  C   UNL d   1      -0.328  -2.762   0.173  0.00  0.00     0.044 A 
ATOM     18  C   UNL d   1      -1.191  -3.556  -0.790  0.00  0.00     0.012 A 
ATOM     19  C   UNL d   1      -1.546  -3.527   0.656  0.00  0.00     0.012 A 
ENDBRANCH   3  17
TORSDOF 3
