REMARK  4 active torsions:
REMARK  status: ('A' for Active; 'I' for Inactive)
REMARK    1  A    between atoms: C_2  and  N_1 
REMARK       I    between atoms: C_3  and  N_1 
REMARK    2  A    between atoms: N_5  and  C_2 
REMARK    3  A    between atoms: C_10  and  C_3 
REMARK    4  A    between atoms: C_4  and  N_5 
ROOT
ATOM      1  C   UNL d   1       0.481  -0.930  -0.589  0.00  0.00     0.179 C 
ATOM      2  S   UNL d   1      -1.168  -0.725  -0.509  0.00  0.00    -0.040 SA
ENDROOT
BRANCH   1   3
ATOM      3  N   UNL d   1       1.449  -0.057  -0.119  0.00  0.00    -0.299 N 
ATOM      4  C   UNL d   1       1.441   1.301   0.192  0.00  0.00     0.257 C 
ATOM      5  O   UNL d   1       0.468   2.034   0.294  0.00  0.00    -0.267 OA
ATOM      6  H   UNL d   1       2.374  -0.436  -0.197  0.00  0.00     0.171 HD
BRANCH   4   7
ATOM      7  C   UNL d   1       2.824   1.860   0.317  0.00  0.00     0.032 A 
ATOM      8  C   UNL d   1       3.100   3.095  -0.277  0.00  0.00     0.017 A 
ATOM      9  C   UNL d   1       4.414   3.567  -0.322  0.00  0.00     0.001 A 
ATOM     10  C   UNL d   1       5.451   2.809   0.227  0.00  0.00     0.000 A 
ATOM     11  C   UNL d   1       5.176   1.592   0.849  0.00  0.00     0.001 A 
ATOM     12  C   UNL d   1       3.864   1.122   0.907  0.00  0.00     0.017 A 
ENDBRANCH   4   7
ENDBRANCH   1   3
BRANCH   1  13
ATOM     13  N   UNL d   1       0.973  -2.139  -1.066  0.00  0.00    -0.330 N 
ATOM     14  H   UNL d   1       0.304  -2.901  -0.981  0.00  0.00     0.168 HD
BRANCH  13  15
ATOM     15  C   UNL d   1       2.317  -2.502  -1.364  0.00  0.00     0.078 C 
ATOM     16  C   UNL d   1       3.241  -1.657  -2.018  0.00  0.00     0.062 C 
ATOM     17 CL   UNL d   1       2.768  -0.214  -2.848  0.00  0.00    -0.082 Cl
ATOM     18  C   UNL d   1       4.597  -1.994  -2.089  0.00  0.00     0.026 C 
ATOM     19  C   UNL d   1       5.042  -3.211  -1.585  0.00  0.00     0.003 C 
ATOM     20  C   UNL d   1       4.123  -4.115  -1.054  0.00  0.00     0.026 C 
ATOM     21  C   UNL d   1       2.770  -3.771  -0.959  0.00  0.00     0.062 C 
ATOM     22 CL   UNL d   1       1.691  -4.922  -0.251  0.00  0.00    -0.082 Cl
ENDBRANCH  13  15
ENDBRANCH   1  13
TORSDOF 4
