REMARK  1 active torsions:
REMARK  status: ('A' for Active; 'I' for Inactive)
REMARK       I    between atoms: N_2  and  C_1 
REMARK    1  A    between atoms: C_5  and  C_1 
ROOT
ATOM      1  N   UNL d   1      -1.901  -1.507   1.256  0.00  0.00    -0.197 NA
ATOM      2  C   UNL d   1      -0.836  -1.045   1.201  0.00  0.00     0.068 C 
ATOM      3  C   UNL d   1       0.478  -0.410   1.171  0.00  0.00     0.226 C 
ENDROOT
BRANCH   3   4
ATOM      4  C   UNL d   1       0.892  -0.052  -0.238  0.00  0.00     0.232 C 
ATOM      5  N   UNL d   1       0.286   1.026  -0.874  0.00  0.00    -0.351 N 
ATOM      6  C   UNL d   1      -0.886   1.766  -0.399  0.00  0.00     0.125 C 
ATOM      7  C   UNL d   1       0.683   1.353  -2.243  0.00  0.00     0.125 C 
ATOM      8  C   UNL d   1      -2.083   1.510  -1.317  0.00  0.00     0.020 C 
ATOM      9  C   UNL d   1      -1.737   1.800  -2.780  0.00  0.00     0.003 C 
ATOM     10  C   UNL d   1      -0.465   1.067  -3.209  0.00  0.00     0.020 C 
ATOM     11  O   UNL d   1       1.799  -0.696  -0.774  0.00  0.00    -0.272 OA
ENDBRANCH   3   4
TORSDOF 1
