REMARK  6 active torsions:
REMARK  status: ('A' for Active; 'I' for Inactive)
REMARK    1  A    between atoms: S_2  and  C_1 
REMARK    2  A    between atoms: N_14  and  S_2 
REMARK    3  A    between atoms: C_20  and  N_4 
REMARK    4  A    between atoms: C_13  and  C_8 
REMARK    5  A    between atoms: C_12  and  C_19 
REMARK    6  A    between atoms: C_19  and  N_14 
ROOT
ATOM      1  S   UNL d   1      -0.938   2.855   0.073  0.00  0.00     0.245 S 
ATOM      2  O   UNL d   1      -0.444   3.451  -1.147  0.00  0.00    -0.206 OA
ATOM      3  O   UNL d   1      -2.345   2.660   0.332  0.00  0.00    -0.206 OA
ENDROOT
BRANCH   1   4
ATOM      4  C   UNL d   1      -0.308   1.261   0.076  0.00  0.00     0.115 C 
ATOM      5  C   UNL d   1      -0.500   0.248   1.006  0.00  0.00     0.055 C 
ATOM      6  N   UNL d   1       0.186  -0.858   0.501  0.00  0.00    -0.260 N 
ATOM      7  C   UNL d   1      -1.231   0.289   2.298  0.00  0.00     0.072 C 
ATOM      8  N   UNL d   1       0.918  -0.515  -0.599  0.00  0.00    -0.303 N 
ATOM      9  C   UNL d   1       0.544   0.729  -0.891  0.00  0.00     0.134 C 
ATOM     10  HN  UNL d   1       1.604  -1.088  -1.091  1.00  0.00     0.186 HD
BRANCH   6  11
ATOM     11  C   UNL d   1       0.229  -2.208   0.967  0.00  0.00     0.056 A 
ATOM     12  C   UNL d   1      -0.786  -2.756   1.761  0.00  0.00     0.031 A 
ATOM     13  C   UNL d   1      -0.702  -4.081   2.203  0.00  0.00     0.002 A 
ATOM     14  C   UNL d   1       0.391  -4.870   1.854  0.00  0.00     0.000 A 
ATOM     15  C   UNL d   1       1.393  -4.344   1.043  0.00  0.00     0.002 A 
ATOM     16  C   UNL d   1       1.308  -3.025   0.590  0.00  0.00     0.031 A 
ENDBRANCH   6  11
ENDBRANCH   1   4
BRANCH   1  17
ATOM     17  N   UNL d   1      -0.293   3.689   1.381  0.00  0.00    -0.210 NA
ATOM     18  H   UNL d   1      -0.417   3.195   2.263  0.00  0.00     0.140 HD
BRANCH  17  19
ATOM     19  C   UNL d   1       1.077   4.183   1.210  0.00  0.00     0.162 C 
BRANCH  19  20
ATOM     20  C   UNL d   1       1.499   4.800   2.509  0.00  0.00     0.030 A 
ATOM     21  N   UNL d   1       1.722   3.974   3.607  0.00  0.00    -0.351 N 
ATOM     22  C   UNL d   1       2.134   4.681   4.644  0.00  0.00     0.091 A 
ATOM     23  HN  UNL d   1       1.587   2.963   3.610  1.00  0.00     0.166 HD
ATOM     24  S   UNL d   1       2.195   6.383   4.371  0.00  0.00    -0.081 SA
ATOM     25  C   UNL d   1       1.689   6.146   2.756  0.00  0.00     0.078 A 
BRANCH  22  26
ATOM     26  C   UNL d   1       2.528   4.088   5.905  0.00  0.00     0.038 A 
ATOM     27  S   UNL d   1       2.403   2.391   6.166  0.00  0.00    -0.099 SA
ATOM     28  C   UNL d   1       3.062   2.504   7.739  0.00  0.00     0.050 A 
ATOM     29  C   UNL d   1       3.365   3.802   8.079  0.00  0.00     0.008 A 
ATOM     30  C   UNL d   1       3.052   4.713   7.027  0.00  0.00     0.022 A 
ENDBRANCH  22  26
ENDBRANCH  19  20
ENDBRANCH  17  19
ENDBRANCH   1  17
TORSDOF 6
