REMARK  5 active torsions:
REMARK  status: ('A' for Active; 'I' for Inactive)
REMARK    1  A    between atoms: C_12  and  N_3 
REMARK    2  A    between atoms: C_11  and  C_4 
REMARK    3  A    between atoms: C_10  and  C_5 
REMARK       I    between atoms: C_7  and  N_13 
REMARK    4  A    between atoms: C_17  and  C_7 
REMARK    5  A    between atoms: N_13  and  N_8 
ROOT
ATOM      1  N   UNL d   1       0.888  -0.600   0.150  0.00  0.00    -0.292 N 
ATOM      2  HN  UNL d   1       1.703  -1.200   0.277  1.00  0.00     0.187 HD
ATOM      3  N   UNL d   1      -0.405  -0.992   0.014  0.00  0.00    -0.266 N 
ATOM      4  C   UNL d   1      -0.463   1.224  -0.016  0.00  0.00     0.027 A 
ATOM      5  C   UNL d   1       0.871   0.740   0.084  0.00  0.00     0.072 A 
ATOM      6  C   UNL d   1      -1.242   0.090  -0.099  0.00  0.00     0.132 A 
ENDROOT
BRANCH   4   7
ATOM      7  C   UNL d   1      -0.939   2.586  -0.031  0.00  0.00     0.122 C 
ATOM      8  N   UNL d   1      -2.042   2.860  -0.643  0.00  0.00    -0.308 N 
ATOM      9  HN  UNL d   1      -2.602   2.136  -1.094  1.00  0.00     0.186 HD
BRANCH   8  10
ATOM     10  N   UNL d   1      -2.417   4.175  -0.654  0.00  0.00    -0.266 N 
ATOM     11  C   UNL d   1      -3.553   4.541  -1.362  0.00  0.00     0.270 C 
ATOM     12  O   UNL d   1      -4.263   3.769  -2.001  0.00  0.00    -0.266 OA
ATOM     13  H   UNL d   1      -1.919   4.836  -0.071  0.00  0.00     0.190 HD
BRANCH  11  14
ATOM     14  C   UNL d   1      -3.935   5.978  -1.303  0.00  0.00     0.036 A 
ATOM     15  C   UNL d   1      -3.007   7.005  -1.121  0.00  0.00     0.034 A 
ATOM     16  C   UNL d   1      -3.482   8.306  -1.096  0.00  0.00     0.088 A 
ATOM     17  N   UNL d   1      -4.783   8.636  -1.236  0.00  0.00    -0.375 N 
ATOM     18  C   UNL d   1      -5.656   7.625  -1.431  0.00  0.00     0.088 A 
ATOM     19  HN  UNL d   1      -5.093   9.607  -1.197  1.00  0.00     0.164 HD
ATOM     20  C   UNL d   1      -5.285   6.295  -1.474  0.00  0.00     0.034 A 
ENDBRANCH  11  14
ENDBRANCH   8  10
ENDBRANCH   4   7
BRANCH   5  21
ATOM     21  C   UNL d   1       2.119   1.514   0.102  0.00  0.00    -0.007 A 
ATOM     22  C   UNL d   1       3.233   1.052   0.814  0.00  0.00     0.014 A 
ATOM     23  C   UNL d   1       4.414   1.802   0.856  0.00  0.00     0.007 A 
ATOM     24  C   UNL d   1       4.500   3.030   0.189  0.00  0.00    -0.062 A 
ATOM     25  C   UNL d   1       3.401   3.481  -0.546  0.00  0.00     0.007 A 
ATOM     26  C   UNL d   1       5.765   3.833   0.248  0.00  0.00     0.048 C 
ATOM     27  C   UNL d   1       2.230   2.722  -0.602  0.00  0.00     0.014 A 
ENDBRANCH   5  21
BRANCH   3  28
ATOM     28  C   UNL d   1      -0.758  -2.372   0.018  0.00  0.00     0.056 A 
ATOM     29  C   UNL d   1       0.239  -3.346   0.187  0.00  0.00     0.031 A 
ATOM     30  C   UNL d   1      -0.095  -4.703   0.196  0.00  0.00     0.002 A 
ATOM     31  C   UNL d   1      -1.421  -5.098   0.034  0.00  0.00     0.000 A 
ATOM     32  C   UNL d   1      -2.417  -4.139  -0.136  0.00  0.00     0.002 A 
ATOM     33  C   UNL d   1      -2.091  -2.779  -0.144  0.00  0.00     0.031 A 
ENDBRANCH   3  28
TORSDOF 5
