REMARK  4 active torsions:
REMARK  status: ('A' for Active; 'I' for Inactive)
REMARK    1  A    between atoms: C_7  and  C_1 
REMARK    2  A    between atoms: C_8  and  C_2 
REMARK    3  A    between atoms: O_12  and  C_7 
REMARK    4  A    between atoms: O_11  and  C_8 
ROOT
ATOM      1  C   UNL d   1       0.401   1.501  -0.051  0.00  0.00     0.102 C 
ATOM      2  C   UNL d   1       1.458   0.396   0.078  0.00  0.00     0.102 C 
ATOM      3  C   UNL d   1      -1.399  -0.380   0.075  0.00  0.00    -0.081 C 
ATOM      4  C   UNL d   1      -0.464  -1.349   0.030  0.00  0.00    -0.081 C 
ATOM      5  C   UNL d   1      -1.072   1.088   0.028  0.00  0.00     0.050 C 
ATOM      6  C   UNL d   1       1.008  -1.057  -0.104  0.00  0.00     0.050 C 
ATOM      7  C   UNL d   1      -2.880  -0.678   0.105  0.00  0.00     0.043 C 
ATOM      8  C   UNL d   1      -0.789  -2.825   0.035  0.00  0.00     0.043 C 
ENDROOT
BRANCH   1   9
ATOM      9  C   UNL d   1       0.630   2.251  -1.346  0.00  0.00     0.145 C 
ATOM     10  O   UNL d   1       0.615   1.726  -2.448  0.00  0.00    -0.650 OA
BRANCH   9  11
ATOM     11  O   UNL d   1       0.834   3.579  -1.185  0.00  0.00    -0.776 OA
ATOM     12  H   UNL d   1       0.864   3.899  -0.263  0.00  0.00     0.167 HD
ENDBRANCH   9  11
ENDBRANCH   1   9
BRANCH   2  13
ATOM     13  C   UNL d   1       2.203   0.621   1.377  0.00  0.00     0.145 C 
ATOM     14  O   UNL d   1       3.210   1.309   1.449  0.00  0.00    -0.650 OA
BRANCH  13  15
ATOM     15  O   UNL d   1       1.602   0.123   2.478  0.00  0.00    -0.776 OA
ATOM     16  H   UNL d   1       0.775  -0.370   2.311  0.00  0.00     0.167 HD
ENDBRANCH  13  15
ENDBRANCH   2  13
TORSDOF 4
