REMARK  5 active torsions:
REMARK  status: ('A' for Active; 'I' for Inactive)
REMARK    1  A    between atoms: C_14  and  C_2 
REMARK    2  A    between atoms: S_12  and  C_7 
REMARK    3  A    between atoms: C_9  and  C_15 
REMARK       I    between atoms: N_10  and  C_9 
REMARK    4  A    between atoms: C_17  and  N_10 
REMARK    5  A    between atoms: C_15  and  S_12 
ROOT
ATOM      1  C   UNL d   1       0.477  -0.237   0.280  0.00  0.00     0.135 A 
ATOM      2  C   UNL d   1      -0.229  -1.333  -0.098  0.00  0.00     0.042 A 
ATOM      3  N   UNL d   1      -1.595   0.956   0.233  0.00  0.00    -0.302 N 
ATOM      4  C   UNL d   1      -0.258   1.027   0.450  0.00  0.00     0.270 A 
ATOM      5  N   UNL d   1      -1.607  -1.318  -0.324  0.00  0.00    -0.338 N 
ATOM      6  HN  UNL d   1      -2.112  -2.159  -0.605  1.00  0.00     0.168 HD
ATOM      7  C   UNL d   1      -2.211  -0.186  -0.160  0.00  0.00     0.147 A 
ATOM      8  C   UNL d   1       1.886  -0.209   0.479  0.00  0.00     0.107 C 
ATOM      9  N   UNL d   1       3.035  -0.231   0.623  0.00  0.00    -0.191 NA
ATOM     10  O   UNL d   1       0.286   2.085   0.743  0.00  0.00    -0.266 OA
ATOM     11  H   UNL d   1      -2.136   1.804   0.316  0.00  0.00     0.171 HD
ENDROOT
BRANCH   2  12
ATOM     12  C   UNL d   1       0.495  -2.659  -0.375  0.00  0.00     0.037 C 
ATOM     13  C   UNL d   1       0.075  -3.831   0.524  0.00  0.00     0.011 C 
ATOM     14  C   UNL d   1       1.016  -5.022   0.294  0.00  0.00     0.001 C 
ATOM     15  C   UNL d   1       1.099  -5.429  -1.179  0.00  0.00     0.000 C 
ATOM     16  C   UNL d   1       1.363  -4.249  -2.112  0.00  0.00     0.001 C 
ATOM     17  C   UNL d   1       0.410  -3.081  -1.850  0.00  0.00     0.011 C 
ENDBRANCH   2  12
BRANCH   7  18
ATOM     18  S   UNL d   1      -3.881   0.149  -0.460  0.00  0.00    -0.084 SA
BRANCH  18  19
ATOM     19  C   UNL d   1      -4.668  -1.474  -0.369  0.00  0.00     0.185 C 
BRANCH  19  20
ATOM     20  C   UNL d   1      -6.187  -1.262  -0.397  0.00  0.00     0.233 C 
ATOM     21  N   UNL d   1      -6.831  -1.234  -1.643  0.00  0.00    -0.322 N 
ATOM     22  C   UNL d   1      -6.137  -1.381  -2.923  0.00  0.00     0.159 C 
ATOM     23  O   UNL d   1      -6.780  -1.142   0.683  0.00  0.00    -0.272 OA
BRANCH  21  24
ATOM     24  C   UNL d   1      -8.250  -1.041  -1.732  0.00  0.00     0.036 A 
ATOM     25  C   UNL d   1      -8.900  -0.062  -0.971  0.00  0.00     0.029 A 
ATOM     26  C   UNL d   1     -10.270   0.174  -1.131  0.00  0.00     0.002 A 
ATOM     27  C   UNL d   1     -11.013  -0.589  -2.030  0.00  0.00     0.000 A 
ATOM     28  C   UNL d   1     -10.385  -1.582  -2.776  0.00  0.00     0.002 A 
ATOM     29  C   UNL d   1      -9.010  -1.794  -2.641  0.00  0.00     0.029 A 
ENDBRANCH  21  24
ENDBRANCH  19  20
ENDBRANCH  18  19
ENDBRANCH   7  18
TORSDOF 5
