REMARK  2 active torsions:
REMARK  status: ('A' for Active; 'I' for Inactive)
REMARK    1  A    between atoms: C_10  and  C_4 
REMARK    2  A    between atoms: O_14  and  C_10 
ROOT
ATOM      1  N   UNL d   1       0.734   0.356   0.001  0.00  0.00    -0.256 N 
ATOM      2  C   UNL d   1       1.292  -0.909   0.001  0.00  0.00     0.159 A 
ATOM      3  C   UNL d   1       1.545   1.470   0.001  0.00  0.00     0.272 A 
ATOM      4  C   UNL d   1       3.003   1.195   0.000  0.00  0.00     0.121 A 
ATOM      5  N   UNL d   1       2.553  -1.175   0.001  0.00  0.00    -0.345 N 
ATOM      6  HN  UNL d   1       2.906  -2.132   0.001  1.00  0.00     0.167 HD
ATOM      7  S   UNL d   1       0.071  -2.166   0.001  0.00  0.00    -0.051 SA
ATOM      8  C   UNL d   1       3.392  -0.090   0.001  0.00  0.00     0.114 A 
ATOM      9  C   UNL d   1      -0.685   0.348   0.000  0.00  0.00     0.062 A 
ATOM     10  C   UNL d   1      -1.213  -0.949   0.000  0.00  0.00     0.035 A 
ATOM     11  O   UNL d   1       1.176   2.646   0.001  0.00  0.00    -0.266 OA
ATOM     12  C   UNL d   1      -1.547   1.439   0.000  0.00  0.00     0.031 A 
ATOM     13  C   UNL d   1      -2.579  -1.188   0.000  0.00  0.00     0.021 A 
ATOM     14  C   UNL d   1      -2.929   1.210   0.000  0.00  0.00     0.002 A 
ATOM     15  C   UNL d   1      -3.442  -0.095   0.000  0.00  0.00     0.002 A 
ENDROOT
BRANCH   4  16
ATOM     16  C   UNL d   1       4.047   2.242  -0.000  0.00  0.00     0.183 C 
ATOM     17  O   UNL d   1       5.244   1.995  -0.002  0.00  0.00    -0.646 OA
BRANCH  16  18
ATOM     18  O   UNL d   1       3.583   3.510   0.001  0.00  0.00    -0.772 OA
ATOM     19  H   UNL d   1       2.600   3.594   0.002  0.00  0.00     0.167 HD
ENDBRANCH  16  18
ENDBRANCH   4  16
TORSDOF 2
