REMARK  7 active torsions:
REMARK  status: ('A' for Active; 'I' for Inactive)
REMARK    1  A    between atoms: N_3  and  S_1 
REMARK    2  A    between atoms: C_10  and  S_1 
REMARK    3  A    between atoms: C_2  and  N_3 
REMARK    4  A    between atoms: S_19  and  C_7 
REMARK    5  A    between atoms: C_15  and  C_27 
REMARK       I    between atoms: N_17  and  C_15 
REMARK    6  A    between atoms: C_21  and  N_17 
REMARK    7  A    between atoms: C_27  and  S_19 
ROOT
ATOM      1  C   UNL d   1       0.862  -0.667  -2.389  0.00  0.00     0.154 A 
ATOM      2  S   UNL d   1       2.510  -0.384  -2.730  0.00  0.00    -0.032 SA
ATOM      3  N   UNL d   1       0.085  -0.750  -3.442  0.00  0.00    -0.282 N 
ATOM      4  HN  UNL d   1      -0.915  -0.952  -3.403  1.00  0.00     0.188 HD
ATOM      5  C   UNL d   1       2.072  -0.373  -4.390  0.00  0.00     0.130 A 
ATOM      6  N   UNL d   1       0.786  -0.532  -4.612  0.00  0.00    -0.286 N 
ATOM      7  HN  UNL d   1       0.358  -0.497  -5.537  1.00  0.00     0.188 HD
ENDROOT
BRANCH   5   8
ATOM      8  S   UNL d   1       3.229  -0.086  -5.668  0.00  0.00    -0.094 SA
BRANCH   8   9
ATOM      9  C   UNL d   1       2.171   0.540  -7.004  0.00  0.00     0.184 C 
BRANCH   9  10
ATOM     10  C   UNL d   1       1.888   2.036  -6.936  0.00  0.00     0.231 C 
ATOM     11  N   UNL d   1       1.749   2.565  -5.666  0.00  0.00    -0.326 N 
ATOM     12  H   UNL d   1       2.081   2.000  -4.899  0.00  0.00     0.169 HD
ATOM     13  O   UNL d   1       1.740   2.666  -7.982  0.00  0.00    -0.272 OA
BRANCH  11  14
ATOM     14  C   UNL d   1       1.241   3.828  -5.309  0.00  0.00     0.037 A 
ATOM     15  C   UNL d   1       0.648   4.700  -6.223  0.00  0.00     0.069 A 
ATOM     16  C   UNL d   1       0.127   5.885  -5.746  0.00  0.00     0.107 A 
ATOM     17  O   UNL d   1      -0.508   6.825  -6.493  0.00  0.00    -0.323 OA
ATOM     18  C   UNL d   1       0.191   6.226  -4.415  0.00  0.00     0.105 A 
ATOM     19  C   UNL d   1      -0.888   7.768  -5.474  0.00  0.00     0.352 A 
ATOM     20  O   UNL d   1      -0.394   7.426  -4.161  0.00  0.00    -0.323 OA
ATOM     21  C   UNL d   1       0.777   5.398  -3.486  0.00  0.00     0.042 A 
ATOM     22  C   UNL d   1       1.300   4.181  -3.940  0.00  0.00     0.032 A 
ENDBRANCH  11  14
ENDBRANCH   9  10
ENDBRANCH   8   9
ENDBRANCH   5   8
BRANCH   1  23
ATOM     23  N   UNL d   1       0.353  -1.017  -1.112  0.00  0.00    -0.159 NA
ATOM     24  H   UNL d   1      -0.557  -1.457  -1.284  0.00  0.00     0.148 HD
BRANCH  23  25
ATOM     25  S   UNL d   1       0.000   0.352  -0.178  0.00  0.00     0.247 S 
ATOM     26  O   UNL d   1      -1.428   0.559  -0.305  0.00  0.00    -0.205 OA
ATOM     27  O   UNL d   1       0.955   1.408  -0.431  0.00  0.00    -0.205 OA
BRANCH  25  28
ATOM     28  C   UNL d   1       0.322  -0.287   1.448  0.00  0.00     0.074 A 
ATOM     29  C   UNL d   1       1.635  -0.616   1.795  0.00  0.00     0.025 A 
ATOM     30  C   UNL d   1       1.893  -1.181   3.045  0.00  0.00     0.008 A 
ATOM     31  C   UNL d   1       0.848  -1.415   3.949  0.00  0.00    -0.062 A 
ATOM     32  C   UNL d   1      -0.460  -1.055   3.598  0.00  0.00     0.008 A 
ATOM     33  C   UNL d   1       1.141  -2.058   5.275  0.00  0.00     0.048 C 
ATOM     34  C   UNL d   1      -0.727  -0.489   2.348  0.00  0.00     0.025 A 
ENDBRANCH  25  28
ENDBRANCH  23  25
ENDBRANCH   1  23
TORSDOF 7
