REMARK  8 active torsions:
REMARK  status: ('A' for Active; 'I' for Inactive)
REMARK    1  A    between atoms: N_3  and  C_1 
REMARK    2  A    between atoms: C_2  and  N_3 
REMARK    3  A    between atoms: C_4  and  C_5 
REMARK    4  A    between atoms: O_13  and  C_4 
REMARK    5  A    between atoms: C_16  and  N_12 
REMARK    6  A    between atoms: C_18  and  O_13 
REMARK    7  A    between atoms: O_15  and  C_17 
REMARK    8  A    between atoms: C_17  and  C_16 
ROOT
ATOM      1  C   UNL d   1       0.705   0.879   2.420  0.00  0.00     0.057 A 
ATOM      2  C   UNL d   1       1.177   0.635   4.798  0.00  0.00     0.041 A 
ATOM      3  C   UNL d   1       0.520   0.208   3.634  0.00  0.00     0.049 A 
ATOM      4  C   UNL d   1       1.484   2.043   2.394  0.00  0.00     0.060 A 
ATOM      5  C   UNL d   1       2.007   1.758   4.745  0.00  0.00     0.019 A 
ATOM      6  C   UNL d   1       2.149   2.467   3.549  0.00  0.00     0.027 A 
ATOM      7 CL   UNL d   1       1.720   2.935   0.935  0.00  0.00    -0.082 Cl
ENDROOT
BRANCH   1   8
ATOM      8  N   UNL d   1       0.085   0.374   1.249  0.00  0.00    -0.332 N 
ATOM      9  H   UNL d   1      -0.035   1.038   0.479  0.00  0.00     0.168 HD
BRANCH   8  10
ATOM     10  C   UNL d   1       0.169  -0.927   0.811  0.00  0.00     0.172 C 
ATOM     11  S   UNL d   1       1.239  -2.114   1.317  0.00  0.00    -0.041 SA
ATOM     12  N   UNL d   1      -0.709  -1.279  -0.174  0.00  0.00    -0.365 N 
ATOM     13  H   UNL d   1      -0.602  -2.238  -0.486  0.00  0.00     0.161 HD
BRANCH  12  14
ATOM     14  C   UNL d   1      -1.943  -0.593  -0.529  0.00  0.00     0.148 C 
BRANCH  14  15
ATOM     15  C   UNL d   1      -1.751   0.462  -1.616  0.00  0.00     0.183 C 
BRANCH  15  16
ATOM     16  O   UNL d   1      -1.013   1.573  -1.109  0.00  0.00    -0.399 OA
ATOM     17  H   UNL d   1      -0.953   2.219  -1.836  0.00  0.00     0.209 HD
ENDBRANCH  15  16
ENDBRANCH  14  15
ENDBRANCH  12  14
ENDBRANCH   8  10
ENDBRANCH   1   8
BRANCH   2  18
ATOM     18  C   UNL d   1       1.068  -0.125   6.072  0.00  0.00     0.293 C 
ATOM     19  O   UNL d   1       1.777   0.085   7.044  0.00  0.00    -0.259 OA
BRANCH  18  20
ATOM     20  O   UNL d   1       0.128  -1.092   5.953  0.00  0.00    -0.318 OA
BRANCH  20  21
ATOM     21  C   UNL d   1       0.142  -2.116   6.956  0.00  0.00     0.174 C 
ATOM     22  C   UNL d   1       1.100  -3.207   6.514  0.00  0.00     0.034 C 
ENDBRANCH  20  21
ENDBRANCH  18  20
ENDBRANCH   2  18
TORSDOF 8
