REMARK  5 active torsions:
REMARK  status: ('A' for Active; 'I' for Inactive)
REMARK       I    between atoms: N_2  and  C_1 
REMARK    1  A    between atoms: C_3  and  C_1 
REMARK    2  A    between atoms: C_4  and  N_2 
REMARK    3  A    between atoms: N_7  and  C_4 
REMARK    4  A    between atoms: C_5  and  C_6 
REMARK    5  A    between atoms: C_13  and  N_7 
ROOT
ATOM      1  C   UNL d   1       0.993   1.676   1.717  0.00  0.00     0.179 C 
ATOM      2  S   UNL d   1       0.319   2.938   2.580  0.00  0.00    -0.040 SA
ENDROOT
BRANCH   1   3
ATOM      3  N   UNL d   1       0.327   0.685   1.015  0.00  0.00    -0.299 N 
ATOM      4  C   UNL d   1      -1.002   0.280   1.147  0.00  0.00     0.264 C 
ATOM      5  O   UNL d   1      -1.662   0.477   2.160  0.00  0.00    -0.267 OA
ATOM      6  H   UNL d   1       0.837   0.363   0.205  0.00  0.00     0.171 HD
BRANCH   4   7
ATOM      7  C   UNL d   1      -1.593  -0.535   0.048  0.00  0.00     0.109 A 
ATOM      8  C   UNL d   1      -0.935  -0.780  -1.158  0.00  0.00     0.135 A 
ATOM      9  F   UNL d   1       0.291  -0.283  -1.384  0.00  0.00    -0.205 F 
ATOM     10  C   UNL d   1      -1.522  -1.552  -2.166  0.00  0.00     0.043 A 
ATOM     11  C   UNL d   1      -2.788  -2.098  -1.978  0.00  0.00     0.006 A 
ATOM     12  C   UNL d   1      -3.462  -1.866  -0.783  0.00  0.00     0.043 A 
ATOM     13  C   UNL d   1      -2.867  -1.091   0.216  0.00  0.00     0.135 A 
ATOM     14  F   UNL d   1      -3.573  -0.914   1.341  0.00  0.00    -0.205 F 
ENDBRANCH   4   7
ENDBRANCH   1   3
BRANCH   1  15
ATOM     15  N   UNL d   1       2.363   1.646   1.601  0.00  0.00    -0.333 N 
ATOM     16  H   UNL d   1       2.814   2.519   1.867  0.00  0.00     0.168 HD
BRANCH  15  17
ATOM     17  C   UNL d   1       3.214   0.520   1.589  0.00  0.00     0.035 A 
ATOM     18  C   UNL d   1       2.785  -0.761   1.951  0.00  0.00     0.045 A 
ATOM     19  C   UNL d   1       3.700  -1.823   2.053  0.00  0.00     0.050 A 
ATOM     20  C   UNL d   1       5.049  -1.591   1.746  0.00  0.00     0.016 A 
ATOM     21  C   UNL d   1       5.479  -0.317   1.379  0.00  0.00     0.003 A 
ATOM     22  C   UNL d   1       4.569   0.738   1.321  0.00  0.00     0.029 A 
BRANCH  19  23
ATOM     23  C   UNL d   1       3.262  -3.181   2.546  0.00  0.00     0.417 C 
ATOM     24  F   UNL d   1       1.932  -3.253   2.833  0.00  0.00    -0.166 F 
ATOM     25  F   UNL d   1       3.498  -4.165   1.635  0.00  0.00    -0.166 F 
ATOM     26  F   UNL d   1       3.912  -3.555   3.681  0.00  0.00    -0.166 F 
ENDBRANCH  19  23
ENDBRANCH  15  17
ENDBRANCH   1  15
TORSDOF 5
