REMARK  4 active torsions:
REMARK  status: ('A' for Active; 'I' for Inactive)
REMARK       I    between atoms: N_2  and  C_1 
REMARK    1  A    between atoms: C_5  and  C_1 
REMARK    2  A    between atoms: C_13  and  N_2 
REMARK    3  A    between atoms: C_12  and  C_13 
REMARK    4  A    between atoms: O_19  and  C_14 
ROOT
ATOM      1  C   UNL d   1       0.914   0.013   0.723  0.00  0.00     0.251 C 
ATOM      2  N   UNL d   1       0.281  -1.123   0.260  0.00  0.00    -0.353 N 
ATOM      3  O   UNL d   1       2.032   0.011   1.221  0.00  0.00    -0.268 OA
ATOM      4  H   UNL d   1      -0.502  -1.029  -0.371  0.00  0.00     0.163 HD
ENDROOT
BRANCH   2   5
ATOM      5  C   UNL d   1       0.922  -2.417   0.318  0.00  0.00     0.161 C 
BRANCH   5   6
ATOM      6  C   UNL d   1      -0.097  -3.527   0.405  0.00  0.00    -0.040 A 
ATOM      7  C   UNL d   1      -0.969  -3.599   1.507  0.00  0.00     0.018 A 
ATOM      8  C   UNL d   1      -1.854  -4.662   1.589  0.00  0.00    -0.022 A 
ATOM      9  C   UNL d   1      -2.892  -4.957   2.602  0.00  0.00     0.068 C 
ATOM     10  C   UNL d   1      -1.895  -5.630   0.600  0.00  0.00     0.075 A 
ATOM     11  C   UNL d   1      -3.208  -6.401   2.208  0.00  0.00     0.180 C 
ATOM     12  O   UNL d   1      -2.826  -6.611   0.828  0.00  0.00    -0.350 OA
ATOM     13  C   UNL d   1      -1.073  -5.580  -0.504  0.00  0.00     0.038 A 
ATOM     14  C   UNL d   1      -0.163  -4.521  -0.597  0.00  0.00     0.011 A 
ENDBRANCH   5   6
ENDBRANCH   2   5
BRANCH   1  15
ATOM     15  C   UNL d   1       0.158   1.288   0.557  0.00  0.00     0.032 A 
ATOM     16  C   UNL d   1      -1.242   1.312   0.518  0.00  0.00     0.020 A 
ATOM     17  C   UNL d   1      -1.925   2.522   0.356  0.00  0.00     0.038 A 
ATOM     18  C   UNL d   1      -1.215   3.717   0.241  0.00  0.00     0.068 A 
ATOM     19  C   UNL d   1       0.179   3.700   0.327  0.00  0.00     0.038 A 
ATOM     20  C   UNL d   1       0.867   2.492   0.481  0.00  0.00     0.020 A 
BRANCH  18  21
ATOM     21  O   UNL d   1      -1.779   4.954   0.095  0.00  0.00    -0.356 OA
ATOM     22  C   UNL d   1      -3.045   4.980  -0.558  0.00  0.00     0.210 C 
ENDBRANCH  18  21
ENDBRANCH   1  15
TORSDOF 4
