REMARK  8 active torsions:
REMARK  status: ('A' for Active; 'I' for Inactive)
REMARK    1  A    between atoms: O_4  and  C_1 
REMARK    2  A    between atoms: C_9  and  O_4 
REMARK       I    between atoms: C_14  and  N_16 
REMARK    3  A    between atoms: C_28  and  C_14 
REMARK    4  A    between atoms: N_16  and  C_21 
REMARK    5  A    between atoms: C_17  and  C_29 
REMARK    6  A    between atoms: O_25  and  C_17 
REMARK    7  A    between atoms: C_30  and  C_28 
REMARK    8  A    between atoms: C_29  and  C_30 
ROOT
ATOM      1  N   UNL d   1       3.227   3.455  -1.158  0.00  0.00    -0.344 N 
ATOM      2  HN  UNL d   1       2.878   3.059  -2.031  1.00  0.00     0.167 HD
ATOM      3  C   UNL d   1       2.487   3.454  -0.028  0.00  0.00     0.149 A 
ATOM      4  C   UNL d   1       4.974   4.617   0.081  0.00  0.00     0.050 A 
ATOM      5  C   UNL d   1       4.459   4.012  -1.067  0.00  0.00     0.119 A 
ATOM      6  C   UNL d   1       2.864   4.108   1.133  0.00  0.00     0.059 A 
ATOM      7  C   UNL d   1       4.122   4.702   1.179  0.00  0.00     0.035 A 
ENDROOT
BRANCH   3   8
ATOM      8  O   UNL d   1       1.234   2.865  -0.012  0.00  0.00    -0.276 OA
BRANCH   8   9
ATOM      9  C   UNL d   1       1.070   1.690  -0.735  0.00  0.00     0.163 A 
ATOM     10  C   UNL d   1      -0.222   1.413  -1.188  0.00  0.00     0.042 A 
ATOM     11  C   UNL d   1      -0.352   0.205  -1.884  0.00  0.00     0.049 A 
ATOM     12  C   UNL d   1      -1.349   2.245  -0.983  0.00  0.00     0.020 A 
ATOM     13  C   UNL d   1      -1.603  -0.145  -2.371  0.00  0.00     0.054 A 
ATOM     14  N   UNL d   1       0.681  -0.621  -2.091  0.00  0.00    -0.351 N 
ATOM     15  C   UNL d   1      -2.716   0.674  -2.172  0.00  0.00     0.036 A 
ATOM     16  C   UNL d   1      -2.596   1.870  -1.475  0.00  0.00     0.025 A 
ATOM     17 CL   UNL d   1      -4.249   0.199  -2.790  0.00  0.00    -0.084 Cl
ATOM     18  C   UNL d   1       1.865  -0.258  -1.574  0.00  0.00     0.182 A 
ATOM     19  HN  UNL d   1       0.574  -1.487  -2.618  1.00  0.00     0.166 HD
ATOM     20  N   UNL d   1       2.111   0.845  -0.866  0.00  0.00    -0.332 N 
ATOM     21  HN  UNL d   1       3.024   1.037  -0.453  1.00  0.00     0.168 HD
ENDBRANCH   8   9
ENDBRANCH   3   8
BRANCH   4  22
ATOM     22  N   UNL d   1       6.308   5.084   0.082  0.00  0.00    -0.326 N 
ATOM     23  C   UNL d   1       7.020   5.474   1.200  0.00  0.00     0.222 C 
ATOM     24  O   UNL d   1       6.622   5.466   2.362  0.00  0.00    -0.273 OA
ATOM     25  H   UNL d   1       6.831   4.965  -0.784  0.00  0.00     0.169 HD
BRANCH  23  26
ATOM     26  C   UNL d   1       8.448   5.890   0.902  0.00  0.00     0.103 C 
BRANCH  26  27
ATOM     27  C   UNL d   1       9.447   4.952   1.587  0.00  0.00     0.019 C 
BRANCH  27  28
ATOM     28  C   UNL d   1       9.399   3.512   1.081  0.00  0.00     0.110 C 
BRANCH  28  29
ATOM     29  C   UNL d   1       9.740   3.444  -0.382  0.00  0.00     0.139 C 
ATOM     30  O   UNL d   1       8.915   3.620  -1.271  0.00  0.00    -0.650 OA
BRANCH  29  31
ATOM     31  O   UNL d   1      11.053   3.259  -0.629  0.00  0.00    -0.776 OA
ATOM     32  H   UNL d   1      11.603   3.164   0.173  0.00  0.00     0.167 HD
ENDBRANCH  29  31
ENDBRANCH  28  29
ENDBRANCH  27  28
ENDBRANCH  26  27
ENDBRANCH  23  26
ENDBRANCH   4  22
TORSDOF 8
