REMARK  1 active torsions:
REMARK  status: ('A' for Active; 'I' for Inactive)
REMARK    1  A    between atoms: C_11  and  C_5 
ROOT
ATOM      1  C   UNL d   1       0.241   0.622   0.033  0.00  0.00     0.067 A 
ATOM      2  C   UNL d   1      -0.451  -0.568   0.045  0.00  0.00     0.091 A 
ATOM      3  C   UNL d   1      -0.621   1.755   0.031  0.00  0.00     0.039 A 
ATOM      4  S   UNL d   1      -2.134  -0.312   0.043  0.00  0.00    -0.071 SA
ATOM      5  C   UNL d   1      -1.961   1.402   0.016  0.00  0.00     0.018 A 
ATOM      6  N   UNL d   1       0.088  -1.817   0.046  0.00  0.00    -0.346 N 
ATOM      7  HN  UNL d   1      -0.477  -2.666   0.064  1.00  0.00     0.167 HD
ATOM      8  C   UNL d   1       1.685   0.565   0.013  0.00  0.00     0.259 A 
ATOM      9  N   UNL d   1       2.185  -0.718   0.004  0.00  0.00    -0.319 N 
ATOM     10  C   UNL d   1       1.381  -1.833   0.022  0.00  0.00     0.184 A 
ATOM     11  O   UNL d   1       2.413   1.552  -0.003  0.00  0.00    -0.267 OA
ATOM     12  H   UNL d   1       3.189  -0.803  -0.018  0.00  0.00     0.169 HD
ENDROOT
BRANCH   5  13
ATOM     13  C   UNL d   1      -3.142   2.282  -0.060  0.00  0.00    -0.019 A 
ATOM     14  C   UNL d   1      -3.063   3.495  -0.765  0.00  0.00     0.013 A 
ATOM     15  C   UNL d   1      -4.168   4.344  -0.867  0.00  0.00     0.001 A 
ATOM     16  C   UNL d   1      -5.373   3.994  -0.264  0.00  0.00     0.000 A 
ATOM     17  C   UNL d   1      -5.470   2.800   0.445  0.00  0.00     0.001 A 
ATOM     18  C   UNL d   1      -4.363   1.952   0.550  0.00  0.00     0.013 A 
ENDBRANCH   5  13
TORSDOF 1
