REMARK  4 active torsions:
REMARK  status: ('A' for Active; 'I' for Inactive)
REMARK    1  A    between atoms: C_4  and  C_1 
REMARK    2  A    between atoms: C_8  and  N_2 
REMARK    3  A    between atoms: O_10  and  C_5 
REMARK    4  A    between atoms: C_9  and  C_8 
ROOT
ATOM      1  N   UNL d   1       0.490   3.623   0.040  0.00  0.00    -0.388 N 
ATOM      2  HN  UNL d   1       1.107   4.435   0.052  1.00  0.00     0.159 HD
ATOM      3  C   UNL d   1       0.973   2.420   0.025  0.00  0.00     0.014 C 
ATOM      4  C   UNL d   1       0.125   1.157  -0.002  0.00  0.00     0.068 C 
ENDROOT
BRANCH   1   5
ATOM      5  C   UNL d   1      -0.972   3.788   0.039  0.00  0.00     0.159 C 
BRANCH   5   6
ATOM      6  C   UNL d   1      -1.419   5.224   0.084  0.00  0.00    -0.025 A 
ATOM      7  C   UNL d   1      -2.627   5.598  -0.501  0.00  0.00     0.096 A 
ATOM      8  N   UNL d   1      -3.138   6.851  -0.472  0.00  0.00    -0.375 N 
ATOM      9  C   UNL d   1      -2.410   7.781   0.181  0.00  0.00     0.087 A 
ATOM     10  HN  UNL d   1      -4.025   7.080  -0.920  1.00  0.00     0.164 HD
ATOM     11  C   UNL d   1      -1.209   7.512   0.817  0.00  0.00     0.018 A 
ATOM     12  C   UNL d   1      -0.715   6.212   0.774  0.00  0.00     0.011 A 
ENDBRANCH   5   6
ENDBRANCH   1   5
BRANCH   3  13
ATOM     13  C   UNL d   1       2.474   2.235   0.045  0.00  0.00     0.019 A 
ATOM     14  C   UNL d   1       3.346   3.334   0.076  0.00  0.00     0.077 A 
ATOM     15  C   UNL d   1       4.731   3.152   0.114  0.00  0.00     0.037 A 
ATOM     16  C   UNL d   1       5.268   1.867   0.115  0.00  0.00     0.003 A 
ATOM     17  C   UNL d   1       4.420   0.763   0.077  0.00  0.00     0.001 A 
ATOM     18  C   UNL d   1       3.033   0.946   0.045  0.00  0.00     0.016 A 
BRANCH  14  19
ATOM     19  O   UNL d   1       2.911   4.634   0.069  0.00  0.00    -0.360 OA
ATOM     20  H   UNL d   1       1.929   4.599   0.009  0.00  0.00     0.217 HD
ENDBRANCH  14  19
ENDBRANCH   3  13
TORSDOF 4
