REMARK  10 active torsions:
REMARK  status: ('A' for Active; 'I' for Inactive)
REMARK    1  A    between atoms: C_8  and  C_1 
REMARK    2  A    between atoms: C_11  and  N_2 
REMARK    3  A    between atoms: S_12  and  C_5 
REMARK    4  A    between atoms: C_14  and  C_8 
REMARK    5  A    between atoms: C_15  and  C_8 
REMARK    6  A    between atoms: O_21  and  C_8 
REMARK    7  A    between atoms: C_9  and  C_10 
REMARK    8  A    between atoms: C_10  and  C_13 
REMARK    9  A    between atoms: O_22  and  C_10 
REMARK   10  A    between atoms: C_13  and  S_12 
ROOT
ATOM      1  C   UNL d   1      -0.128  -1.331  -0.009  0.00  0.00     0.150 A 
ATOM      2  N   UNL d   1       1.185  -0.819   0.021  0.00  0.00    -0.276 N 
ATOM      3  N   UNL d   1      -0.973  -0.307  -0.016  0.00  0.00    -0.283 N 
ATOM      4  HN  UNL d   1      -1.990  -0.385  -0.024  1.00  0.00     0.188 HD
ATOM      5  C   UNL d   1       0.997   0.561   0.002  0.00  0.00     0.167 A 
ATOM      6  N   UNL d   1      -0.277   0.859  -0.010  0.00  0.00    -0.278 N 
ATOM      7  HN  UNL d   1      -0.676   1.798  -0.014  1.00  0.00     0.189 HD
ENDROOT
BRANCH   1   8
ATOM      8  C   UNL d   1      -0.557  -2.802   0.035  0.00  0.00     0.172 C 
BRANCH   8   9
ATOM      9  C   UNL d   1      -1.961  -3.046   0.653  0.00  0.00    -0.012 A 
ATOM     10  C   UNL d   1      -3.104  -2.391   0.157  0.00  0.00     0.011 A 
ATOM     11  C   UNL d   1      -4.379  -2.671   0.659  0.00  0.00     0.001 A 
ATOM     12  C   UNL d   1      -4.544  -3.619   1.664  0.00  0.00     0.000 A 
ATOM     13  C   UNL d   1      -3.436  -4.295   2.161  0.00  0.00     0.001 A 
ATOM     14  C   UNL d   1      -2.163  -4.021   1.656  0.00  0.00     0.011 A 
ENDBRANCH   8   9
BRANCH   8  15
ATOM     15  C   UNL d   1      -0.507  -3.478  -1.349  0.00  0.00    -0.012 A 
ATOM     16  C   UNL d   1      -0.221  -4.853  -1.466  0.00  0.00     0.011 A 
ATOM     17  C   UNL d   1      -0.183  -5.480  -2.714  0.00  0.00     0.001 A 
ATOM     18  C   UNL d   1      -0.438  -4.744  -3.875  0.00  0.00     0.000 A 
ATOM     19  C   UNL d   1      -0.744  -3.394  -3.781  0.00  0.00     0.001 A 
ATOM     20  C   UNL d   1      -0.788  -2.766  -2.534  0.00  0.00     0.011 A 
ENDBRANCH   8  15
BRANCH   8  21
ATOM     21  O   UNL d   1       0.394  -3.437   0.906  0.00  0.00    -0.373 OA
ATOM     22  H   UNL d   1       0.254  -3.048   1.787  0.00  0.00     0.212 HD
ENDBRANCH   8  21
ENDBRANCH   1   8
BRANCH   2  23
ATOM     23  C   UNL d   1       2.436  -1.512   0.107  0.00  0.00     0.043 A 
ATOM     24  C   UNL d   1       2.686  -2.661  -0.653  0.00  0.00     0.033 A 
ATOM     25  C   UNL d   1       3.886  -3.364  -0.506  0.00  0.00     0.044 A 
ATOM     26  C   UNL d   1       4.856  -2.897   0.369  0.00  0.00     0.116 A 
ATOM     27  C   UNL d   1       4.648  -1.738   1.101  0.00  0.00     0.044 A 
ATOM     28  F   UNL d   1       6.004  -3.572   0.508  0.00  0.00    -0.206 F 
ATOM     29  C   UNL d   1       3.437  -1.050   0.981  0.00  0.00     0.033 A 
ENDBRANCH   2  23
BRANCH   5  30
ATOM     30  S   UNL d   1       2.259   1.740  -0.166  0.00  0.00    -0.089 SA
BRANCH  30  31
ATOM     31  C   UNL d   1       1.339   3.278  -0.452  0.00  0.00     0.123 C 
BRANCH  31  32
ATOM     32  C   UNL d   1       0.612   3.927   0.730  0.00  0.00     0.235 C 
BRANCH  32  33
ATOM     33  C   UNL d   1       1.448   4.010   2.012  0.00  0.00     0.413 C 
ATOM     34  F   UNL d   1       2.757   4.223   1.772  0.00  0.00    -0.168 F 
ATOM     35  F   UNL d   1       1.010   5.058   2.761  0.00  0.00    -0.168 F 
ATOM     36  F   UNL d   1       1.329   2.903   2.774  0.00  0.00    -0.168 F 
ENDBRANCH  32  33
BRANCH  32  37
ATOM     37  O   UNL d   1       0.178   5.240   0.283  0.00  0.00    -0.386 OA
ATOM     38  H   UNL d   1       0.168   5.827   1.065  0.00  0.00     0.210 HD
ENDBRANCH  32  37
ENDBRANCH  31  32
ENDBRANCH  30  31
ENDBRANCH   5  30
TORSDOF 10
