REMARK  6 active torsions:
REMARK  status: ('A' for Active; 'I' for Inactive)
REMARK    1  A    between atoms: C_2  and  C_1 
REMARK       I    between atoms: N_4  and  C_1 
REMARK    2  A    between atoms: C_3  and  C_10 
REMARK    3  A    between atoms: C_7  and  N_4 
REMARK    4  A    between atoms: C_9  and  C_7 
REMARK    5  A    between atoms: C_10  and  C_7 
REMARK    6  A    between atoms: O_16  and  C_9 
ROOT
ATOM      1  C   UNL d   1      -1.064  -1.308   0.004  0.00  0.00     0.189 C 
ENDROOT
BRANCH   1   2
ATOM      2  N   UNL d   1       0.399  -1.219   0.144  0.00  0.00    -0.343 N 
ATOM      3  C   UNL d   1       1.029  -0.018   0.379  0.00  0.00     0.255 C 
ATOM      4  O   UNL d   1       0.387   1.023   0.492  0.00  0.00    -0.268 OA
ATOM      5  H   UNL d   1       0.943  -2.067   0.048  0.00  0.00     0.163 HD
BRANCH   3   6
ATOM      6  C   UNL d   1       2.518  -0.009   0.532  0.00  0.00     0.075 A 
ATOM      7  C   UNL d   1       3.248   1.141   0.162  0.00  0.00     0.051 A 
ATOM      8 CL   UNL d   1       2.581   2.463  -0.740  0.00  0.00    -0.083 Cl
ATOM      9  C   UNL d   1       4.617   1.254   0.457  0.00  0.00     0.025 A 
ATOM     10  C   UNL d   1       5.288   0.225   1.105  0.00  0.00     0.003 A 
ATOM     11  C   UNL d   1       4.600  -0.938   1.424  0.00  0.00     0.025 A 
ATOM     12  C   UNL d   1       3.231  -1.064   1.135  0.00  0.00     0.051 A 
ATOM     13 CL   UNL d   1       2.543  -2.587   1.576  0.00  0.00    -0.083 Cl
ENDBRANCH   3   6
ENDBRANCH   1   2
BRANCH   1  14
ATOM     14  C   UNL d   1      -1.530  -1.198  -1.458  0.00  0.00     0.281 C 
ATOM     15  O   UNL d   1      -2.709  -1.262  -1.802  0.00  0.00    -0.263 OA
BRANCH  14  16
ATOM     16  O   UNL d   1      -0.487  -1.022  -2.318  0.00  0.00    -0.325 OA
ATOM     17  C   UNL d   1      -0.864  -0.793  -3.676  0.00  0.00     0.213 C 
ENDBRANCH  14  16
ENDBRANCH   1  14
BRANCH   1  18
ATOM     18  C   UNL d   1      -1.618  -2.607   0.621  0.00  0.00     0.076 C 
BRANCH  18  19
ATOM     19  C   UNL d   1      -1.405  -2.692   2.108  0.00  0.00    -0.028 A 
ATOM     20  C   UNL d   1      -1.874  -1.786   3.041  0.00  0.00     0.096 A 
ATOM     21  N   UNL d   1      -1.433  -2.167   4.278  0.00  0.00    -0.365 N 
ATOM     22  C   UNL d   1      -0.698  -3.324   4.184  0.00  0.00     0.042 A 
ATOM     23  H   UNL d   1      -1.611  -1.669   5.139  0.00  0.00     0.165 HD
ATOM     24  C   UNL d   1      -0.690  -3.699   2.839  0.00  0.00    -0.002 A 
ATOM     25  C   UNL d   1      -0.047  -4.055   5.185  0.00  0.00     0.030 A 
ATOM     26  C   UNL d   1      -0.013  -4.886   2.487  0.00  0.00     0.014 A 
ATOM     27  C   UNL d   1       0.644  -5.630   3.476  0.00  0.00     0.001 A 
ATOM     28  C   UNL d   1       0.632  -5.215   4.804  0.00  0.00     0.002 A 
ENDBRANCH  18  19
ENDBRANCH   1  18
TORSDOF 6
