REMARK  2 active torsions:
REMARK  status: ('A' for Active; 'I' for Inactive)
REMARK    1  A    between atoms: C_9  and  N_2 
REMARK    2  A    between atoms: C_10  and  C_9 
ROOT
ATOM      1  C   UNL d   1       0.307  -0.120   1.095  0.00  0.00     0.150 A 
ATOM      2  N   UNL d   1       0.942   0.451   0.022  0.00  0.00    -0.277 N 
ATOM      3  N   UNL d   1       0.407   0.083  -1.170  0.00  0.00    -0.307 N 
ATOM      4  HN  UNL d   1       0.674   0.397  -2.103  1.00  0.00     0.186 HD
ATOM      5  C   UNL d   1      -0.650  -0.942   0.555  0.00  0.00     0.066 A 
ATOM      6  C   UNL d   1      -0.551  -0.786  -0.833  0.00  0.00     0.129 A 
ATOM      7  C   UNL d   1       0.620   0.111   2.458  0.00  0.00     0.120 C 
ATOM      8  N   UNL d   1       0.909   0.335   3.558  0.00  0.00    -0.190 NA
ATOM      9 BR   UNL d   1      -1.874  -2.061   1.417  0.00  0.00    -0.046 Br
ENDROOT
BRANCH   2  10
ATOM     10  C   UNL d   1       2.073   1.374   0.039  0.00  0.00     0.188 C 
BRANCH  10  11
ATOM     11  C   UNL d   1       3.380   0.626  -0.048  0.00  0.00    -0.037 A 
ATOM     12  C   UNL d   1       3.905   0.263  -1.299  0.00  0.00     0.032 A 
ATOM     13  C   UNL d   1       5.080  -0.484  -1.380  0.00  0.00     0.034 A 
ATOM     14 CL   UNL d   1       5.706  -0.929  -2.920  0.00  0.00    -0.084 Cl
ATOM     15  C   UNL d   1       5.745  -0.880  -0.223  0.00  0.00     0.024 A 
ATOM     16  C   UNL d   1       5.239  -0.517   1.025  0.00  0.00     0.002 A 
ATOM     17  C   UNL d   1       4.064   0.234   1.113  0.00  0.00     0.009 A 
ENDBRANCH  10  11
ENDBRANCH   2  10
TORSDOF 2
