REMARK  2 active torsions:
REMARK  status: ('A' for Active; 'I' for Inactive)
REMARK    1  A    between atoms: C_7  and  C_3 
REMARK    2  A    between atoms: C_18  and  C_12 
ROOT
ATOM      1  C   UNL d   1      -2.700  -4.516   1.074  0.00  0.00    -0.042 A 
ATOM      2  C   UNL d   1      -3.696  -4.663   0.092  0.00  0.00    -0.043 A 
ATOM      3  C   UNL d   1      -1.936  -2.415  -0.011  0.00  0.00    -0.002 A 
ATOM      4  C   UNL d   1      -1.883  -3.367   1.025  0.00  0.00     0.022 A 
ATOM      5  C   UNL d   1      -3.728  -3.727  -0.969  0.00  0.00     0.016 A 
ATOM      6  C   UNL d   1      -2.846  -2.627  -1.058  0.00  0.00    -0.045 A 
ATOM      7  C   UNL d   1      -2.492  -5.526   2.208  0.00  0.00    -0.020 C 
ATOM      8  C   UNL d   1      -4.714  -5.808   0.125  0.00  0.00    -0.020 C 
ATOM      9  C   UNL d   1      -3.266  -6.838   1.954  0.00  0.00     0.015 C 
ATOM     10  C   UNL d   1      -4.681  -6.583   1.466  0.00  0.00     0.015 C 
ATOM     11  C   UNL d   1      -2.947  -4.884   3.536  0.00  0.00     0.020 C 
ATOM     12  C   UNL d   1      -1.001  -5.927   2.343  0.00  0.00     0.020 C 
ATOM     13  C   UNL d   1      -4.427  -6.775  -1.044  0.00  0.00     0.020 C 
ATOM     14  C   UNL d   1      -6.157  -5.269  -0.022  0.00  0.00     0.020 C 
ENDROOT
BRANCH   3  15
ATOM     15  C   UNL d   1      -1.048  -1.251   0.068  0.00  0.00     0.051 A 
ATOM     16  N   UNL d   1      -1.444   0.014  -0.342  0.00  0.00    -0.336 N 
ATOM     17  C   UNL d   1      -0.511   0.892  -0.084  0.00  0.00     0.142 A 
ATOM     18  HN  UNL d   1      -2.339   0.228  -0.782  1.00  0.00     0.168 HD
ATOM     19  S   UNL d   1       0.915   0.268   0.636  0.00  0.00    -0.064 SA
ATOM     20  N   UNL d   1      -0.632   2.199  -0.362  0.00  0.00    -0.380 N 
ATOM     21  C   UNL d   1       0.226  -1.298   0.607  0.00  0.00     0.083 A 
ATOM     22  H   UNL d   1      -1.355   2.443  -1.030  0.00  0.00     0.158 HD
ATOM     23  H   UNL d   1       0.210   2.756  -0.422  0.00  0.00     0.158 HD
ENDBRANCH   3  15
BRANCH   6  24
ATOM     24  C   UNL d   1      -2.906  -1.770  -2.304  0.00  0.00     0.035 C 
ATOM     25  C   UNL d   1      -3.975  -0.688  -2.269  0.00  0.00     0.010 C 
ENDBRANCH   6  24
TORSDOF 2
