REMARK  5 active torsions:
REMARK  status: ('A' for Active; 'I' for Inactive)
REMARK    1  A    between atoms: S_14  and  C_1 
REMARK    2  A    between atoms: C_24  and  N_2 
REMARK    3  A    between atoms: C_19  and  N_4 
REMARK    4  A    between atoms: C_15  and  S_14 
REMARK    5  A    between atoms: C_22  and  C_19 
ROOT
ATOM      1  N   UNL d   1       4.888  -6.036  -0.117  0.00  0.00    -0.158 NA
ATOM      2  C   UNL d   1       3.096  -5.144  -0.946  0.00  0.00     0.119 C 
ATOM      3  C   UNL d   1       3.503  -6.214  -0.155  0.00  0.00     0.131 C 
ATOM      4  N   UNL d   1       5.243  -5.351  -1.237  0.00  0.00    -0.041 NA
ATOM      5  N   UNL d   1       4.187  -4.623  -1.587  0.00  0.00    -0.282 N 
ATOM      6  HN  UNL d   1       4.189  -3.822  -2.219  1.00  0.00     0.184 HD
ATOM      7  C   UNL d   1       1.775  -4.722  -0.745  0.00  0.00     0.109 C 
ATOM      8  N   UNL d   1       2.721  -7.032   0.565  0.00  0.00    -0.340 N 
ATOM      9  HN  UNL d   1       3.064  -7.789   1.157  1.00  0.00     0.167 HD
ATOM     10  N   UNL d   1       0.904  -5.615  -0.186  0.00  0.00    -0.345 N 
ATOM     11  HN  UNL d   1      -0.103  -5.454  -0.212  1.00  0.00     0.167 HD
ATOM     12  C   UNL d   1       1.417  -6.716   0.400  0.00  0.00     0.182 C 
ENDROOT
BRANCH   7  13
ATOM     13  S   UNL d   1       1.647  -3.060  -0.091  0.00  0.00    -0.032 SA
BRANCH  13  14
ATOM     14  C   UNL d   1       0.811  -2.188  -1.308  0.00  0.00     0.174 C 
ATOM     15  N   UNL d   1      -0.498  -1.723  -1.239  0.00  0.00    -0.274 N 
ATOM     16  C   UNL d   1      -0.479  -0.601  -2.072  0.00  0.00     0.146 C 
ATOM     17  C   UNL d   1      -1.399   0.511  -2.123  0.00  0.00     0.050 A 
ATOM     18  N   UNL d   1       0.626  -0.619  -2.793  0.00  0.00    -0.282 N 
ATOM     19  S   UNL d   1      -2.386   1.005  -0.805  0.00  0.00    -0.098 SA
ATOM     20  C   UNL d   1      -1.526   1.401  -3.177  0.00  0.00     0.023 A 
ATOM     21  C   UNL d   1      -3.053   2.309  -1.683  0.00  0.00     0.050 A 
ATOM     22  C   UNL d   1      -2.485   2.424  -2.935  0.00  0.00     0.009 A 
ATOM     23  N   UNL d   1       1.441  -1.603  -2.305  0.00  0.00    -0.277 N 
ATOM     24  HN  UNL d   1       0.837  -0.005  -3.580  1.00  0.00     0.188 HD
ATOM     25  HN  UNL d   1       2.371  -1.840  -2.650  1.00  0.00     0.189 HD
BRANCH  15  26
ATOM     26  C   UNL d   1      -1.635  -2.306  -0.607  0.00  0.00     0.043 A 
ATOM     27  C   UNL d   1      -1.577  -2.889   0.662  0.00  0.00     0.030 A 
ATOM     28  C   UNL d   1      -2.723  -3.458   1.228  0.00  0.00     0.002 A 
ATOM     29  C   UNL d   1      -3.929  -3.458   0.531  0.00  0.00     0.000 A 
ATOM     30  C   UNL d   1      -3.997  -2.887  -0.735  0.00  0.00     0.002 A 
ATOM     31  C   UNL d   1      -2.858  -2.316  -1.305  0.00  0.00     0.030 A 
ENDBRANCH  15  26
ENDBRANCH  13  14
ENDBRANCH   7  13
BRANCH   1  32
ATOM     32  C   UNL d   1       5.594  -5.595   1.096  0.00  0.00     0.159 C 
BRANCH  32  33
ATOM     33  C   UNL d   1       5.957  -6.622   2.133  0.00  0.00    -0.021 A 
ATOM     34  C   UNL d   1       5.372  -6.624   3.413  0.00  0.00     0.041 A 
ATOM     35 CL   UNL d   1       3.994  -5.654   3.798  0.00  0.00    -0.084 Cl
ATOM     36  C   UNL d   1       5.930  -7.381   4.449  0.00  0.00     0.024 A 
ATOM     37  C   UNL d   1       7.060  -8.164   4.220  0.00  0.00     0.002 A 
ATOM     38  C   UNL d   1       7.613  -8.219   2.944  0.00  0.00     0.001 A 
ATOM     39  C   UNL d   1       7.065  -7.459   1.907  0.00  0.00     0.010 A 
ENDBRANCH  32  33
ENDBRANCH   1  32
TORSDOF 5
