REMARK  4 active torsions:
REMARK  status: ('A' for Active; 'I' for Inactive)
REMARK    1  A    between atoms: C_6  and  C_1 
REMARK    2  A    between atoms: C_9  and  N_2 
REMARK       I    between atoms: N_8  and  C_6 
REMARK    3  A    between atoms: C_12  and  N_8 
REMARK    4  A    between atoms: O_27  and  C_24 
ROOT
ATOM      1  C   UNL d   1      -0.513   2.566   0.330  0.00  0.00     0.259 C 
ATOM      2  N   UNL d   1      -1.476   3.031  -0.543  0.00  0.00    -0.323 N 
ATOM      3  O   UNL d   1       0.077   3.260   1.153  0.00  0.00    -0.267 OA
ATOM      4  H   UNL d   1      -1.635   2.499  -1.390  0.00  0.00     0.169 HD
ENDROOT
BRANCH   1   5
ATOM      5  C   UNL d   1      -0.215   1.151   0.180  0.00  0.00     0.073 C 
ATOM      6  C   UNL d   1       1.001   0.529   0.426  0.00  0.00     0.048 C 
ATOM      7  N   UNL d   1       0.821  -0.812   0.109  0.00  0.00    -0.260 N 
ATOM      8  C   UNL d   1       2.261   1.104   0.975  0.00  0.00     0.071 C 
ATOM      9  N   UNL d   1      -0.494  -1.103  -0.065  0.00  0.00    -0.304 N 
ATOM     10  C   UNL d   1      -1.093   0.086  -0.096  0.00  0.00     0.126 C 
ATOM     11  HN  UNL d   1      -0.925  -2.024  -0.151  1.00  0.00     0.186 HD
BRANCH   7  12
ATOM     12  C   UNL d   1       1.802  -1.813  -0.115  0.00  0.00     0.056 A 
ATOM     13  C   UNL d   1       1.500  -3.160   0.127  0.00  0.00     0.034 A 
ATOM     14  C   UNL d   1       2.460  -4.150  -0.118  0.00  0.00     0.039 A 
ATOM     15  C   UNL d   1       3.706  -3.804  -0.644  0.00  0.00     0.068 A 
ATOM     16  C   UNL d   1       3.986  -2.465  -0.920  0.00  0.00     0.039 A 
ATOM     17  C   UNL d   1       3.049  -1.470  -0.647  0.00  0.00     0.034 A 
BRANCH  15  18
ATOM     18  O   UNL d   1       4.713  -4.666  -0.975  0.00  0.00    -0.356 OA
ATOM     19  C   UNL d   1       4.669  -5.955  -0.377  0.00  0.00     0.210 C 
ENDBRANCH  15  18
ENDBRANCH   7  12
ENDBRANCH   1   5
BRANCH   2  20
ATOM     20  C   UNL d   1      -2.292   4.161  -0.327  0.00  0.00     0.037 A 
ATOM     21  C   UNL d   1      -2.428   4.750   0.931  0.00  0.00     0.061 A 
ATOM     22  C   UNL d   1      -3.426   5.677   1.191  0.00  0.00     0.061 A 
ATOM     23  N   UNL d   1      -3.610   6.099   2.457  0.00  0.00    -0.363 N 
ATOM     24  C   UNL d   1      -4.273   6.098   0.139  0.00  0.00     0.059 A 
ATOM     25  C   UNL d   1      -4.667   6.909   2.671  0.00  0.00     0.105 A 
ATOM     26  HN  UNL d   1      -2.983   5.822   3.212  1.00  0.00     0.165 HD
ATOM     27  C   UNL d   1      -5.498   7.312   1.649  0.00  0.00     0.105 A 
ATOM     28  N   UNL d   1      -5.305   6.934   0.365  0.00  0.00    -0.363 N 
ATOM     29  HN  UNL d   1      -5.907   7.263  -0.389  1.00  0.00     0.165 HD
ATOM     30  C   UNL d   1      -4.060   5.592  -1.136  0.00  0.00     0.034 A 
ATOM     31  C   UNL d   1      -3.094   4.609  -1.374  0.00  0.00     0.032 A 
ENDBRANCH   2  20
TORSDOF 4
