REMARK  3 active torsions:
REMARK  status: ('A' for Active; 'I' for Inactive)
REMARK    1  A    between atoms: C_8  and  C_1 
REMARK    2  A    between atoms: N_3  and  C_12 
REMARK    3  A    between atoms: C_14  and  C_8 
ROOT
ATOM      1  C   UNL d   1      -1.616  -2.438   0.057  0.00  0.00     0.049 C 
ENDROOT
BRANCH   1   2
ATOM      2  C   UNL d   1      -1.117  -1.325   0.616  0.00  0.00     0.091 A 
ATOM      3  O   UNL d   1      -1.940  -0.364   1.230  0.00  0.00    -0.274 OA
ATOM      4  C   UNL d   1      -1.133   0.623   1.720  0.00  0.00     0.299 A 
ATOM      5  O   UNL d   1      -1.484   1.618   2.322  0.00  0.00    -0.259 OA
ATOM      6  C   UNL d   1       0.243   0.291   1.395  0.00  0.00     0.055 A 
ATOM      7  C   UNL d   1       0.265  -0.907   0.707  0.00  0.00     0.014 A 
ATOM      8  C   UNL d   1       1.381   1.026   1.695  0.00  0.00     0.054 A 
ATOM      9  C   UNL d   1       1.474  -1.429   0.272  0.00  0.00     0.018 A 
ATOM     10  C   UNL d   1       2.655  -0.716   0.552  0.00  0.00     0.037 A 
ATOM     11  C   UNL d   1       2.602   0.503   1.262  0.00  0.00     0.103 A 
BRANCH  11  12
ATOM     12  N   UNL d   1       3.844   1.237   1.552  0.00  0.00    -0.116 N 
ATOM     13  O   UNL d   1       3.749   2.301   2.180  0.00  0.00    -0.532 OA
ATOM     14  O   UNL d   1       4.908   0.748   1.151  0.00  0.00    -0.532 OA
ENDBRANCH  11  12
ENDBRANCH   1   2
BRANCH   1  15
ATOM     15  C   UNL d   1      -3.061  -2.709   0.032  0.00  0.00    -0.032 A 
ATOM     16  C   UNL d   1      -3.839  -2.275  -1.043  0.00  0.00     0.021 A 
ATOM     17  C   UNL d   1      -5.228  -2.504  -1.069  0.00  0.00    -0.030 A 
ATOM     18  C   UNL d   1      -6.040  -1.985  -2.227  0.00  0.00     0.042 C 
ATOM     19  C   UNL d   1      -5.873  -3.140   0.009  0.00  0.00     0.043 A 
ATOM     20  C   UNL d   1      -7.297  -2.820  -2.414  0.00  0.00     0.024 C 
ATOM     21  C   UNL d   1      -8.070  -2.878  -1.106  0.00  0.00     0.123 C 
ATOM     22  N   UNL d   1      -7.245  -3.370  -0.007  0.00  0.00    -0.380 N 
ATOM     23  C   UNL d   1      -7.939  -3.854   1.186  0.00  0.00     0.123 C 
ATOM     24  C   UNL d   1      -7.151  -3.580   2.457  0.00  0.00     0.024 C 
ATOM     25  C   UNL d   1      -5.748  -4.152   2.312  0.00  0.00     0.042 C 
ATOM     26  C   UNL d   1      -5.083  -3.536   1.108  0.00  0.00    -0.030 A 
ATOM     27  C   UNL d   1      -3.688  -3.347   1.103  0.00  0.00     0.021 A 
ENDBRANCH   1  15
TORSDOF 3
