REMARK  5 active torsions:
REMARK  status: ('A' for Active; 'I' for Inactive)
REMARK    1  A    between atoms: S_18  and  C_1 
REMARK    2  A    between atoms: C_4  and  N_10 
REMARK    3  A    between atoms: C_5  and  C_6 
REMARK       I    between atoms: N_11  and  C_13 
REMARK    4  A    between atoms: C_13  and  C_23 
REMARK    5  A    between atoms: C_23  and  S_18 
ROOT
ATOM      1  N   UNL d   1      -7.021  -5.059  -0.272  0.00  0.00    -0.363 N 
ATOM      2  N   UNL d   1      -6.528  -2.223  -0.051  0.00  0.00    -0.348 N 
ATOM      3  C   UNL d   1      -6.189  -0.907  -0.338  0.00  0.00     0.229 C 
ATOM      4  C   UNL d   1      -7.812  -4.109  -1.070  0.00  0.00     0.144 C 
ATOM      5  C   UNL d   1      -5.713  -4.569   0.201  0.00  0.00     0.144 C 
ATOM      6  C   UNL d   1      -7.854  -2.707  -0.442  0.00  0.00     0.145 C 
ATOM      7  C   UNL d   1      -5.792  -3.156   0.815  0.00  0.00     0.145 C 
ATOM      8  O   UNL d   1      -6.959  -0.166  -0.956  0.00  0.00    -0.273 OA
ENDROOT
BRANCH   3   9
ATOM      9  C   UNL d   1      -4.851  -0.366   0.125  0.00  0.00     0.184 C 
BRANCH   9  10
ATOM     10  S   UNL d   1      -3.513  -0.962  -0.950  0.00  0.00    -0.096 SA
BRANCH  10  11
ATOM     11  C   UNL d   1      -2.135  -0.271  -0.117  0.00  0.00     0.113 A 
ATOM     12  N   UNL d   1      -2.287   0.599   0.853  0.00  0.00    -0.344 N 
ATOM     13  C   UNL d   1      -1.051   0.922   1.388  0.00  0.00     0.050 A 
ATOM     14  HN  UNL d   1      -3.179   0.980   1.166  1.00  0.00     0.167 HD
ATOM     15  C   UNL d   1      -0.823   1.802   2.464  0.00  0.00     0.031 A 
ATOM     16  C   UNL d   1       0.042   0.282   0.798  0.00  0.00     0.034 A 
ATOM     17  C   UNL d   1       0.478   1.998   2.939  0.00  0.00     0.002 A 
ATOM     18  C   UNL d   1       1.550   1.341   2.345  0.00  0.00     0.002 A 
ATOM     19  C   UNL d   1       1.354   0.482   1.258  0.00  0.00     0.021 A 
ATOM     20  S   UNL d   1      -0.525  -0.716  -0.487  0.00  0.00    -0.063 SA
ENDBRANCH  10  11
ENDBRANCH   9  10
ENDBRANCH   3   9
BRANCH   1  21
ATOM     21  C   UNL d   1      -7.627  -6.130   0.369  0.00  0.00     0.125 A 
ATOM     22  N   UNL d   1      -7.283  -6.353   1.662  0.00  0.00    -0.350 N 
ATOM     23  C   UNL d   1      -7.836  -7.401   2.329  0.00  0.00     0.106 A 
ATOM     24  HN  UNL d   1      -6.615  -5.740   2.131  1.00  0.00     0.166 HD
ATOM     25  C   UNL d   1      -8.754  -8.276   1.776  0.00  0.00     0.065 A 
ATOM     26  C   UNL d   1      -9.104  -8.065   0.448  0.00  0.00     0.045 A 
ATOM     27  C   UNL d   1      -8.530  -7.006  -0.269  0.00  0.00     0.078 A 
ATOM     28 CL   UNL d   1      -8.899  -6.957  -1.963  0.00  0.00    -0.080 Cl
BRANCH  25  29
ATOM     29  C   UNL d   1      -9.310  -9.407   2.585  0.00  0.00     0.418 C 
ATOM     30  F   UNL d   1     -10.237 -10.146   1.916  0.00  0.00    -0.166 F 
ATOM     31  F   UNL d   1      -8.350 -10.283   2.984  0.00  0.00    -0.166 F 
ATOM     32  F   UNL d   1      -9.926  -8.982   3.724  0.00  0.00    -0.166 F 
ENDBRANCH  25  29
ENDBRANCH   1  21
TORSDOF 5
