REMARK  1 active torsions:
REMARK  status: ('A' for Active; 'I' for Inactive)
REMARK    1  A    between atoms: C_5  and  C_1 
REMARK       I    between atoms: N_4  and  C_5 
ROOT
ATOM      1  N   UNL d   1       6.179  -3.022  -1.022  0.00  0.00    -0.322 N 
ATOM      2  C   UNL d   1       5.015  -2.174  -1.290  0.00  0.00     0.227 C 
ATOM      3  N   UNL d   1       5.037  -0.992  -0.419  0.00  0.00    -0.322 N 
ATOM      4  C   UNL d   1       3.992  -0.052  -0.574  0.00  0.00     0.264 C 
ATOM      5  C   UNL d   1       6.762  -3.540  -2.153  0.00  0.00     0.256 C 
ATOM      6  C   UNL d   1       5.089  -2.061  -2.802  0.00  0.00    -0.000 A 
ATOM      7  C   UNL d   1       6.070  -2.936  -3.285  0.00  0.00     0.042 A 
ATOM      8  O   UNL d   1       7.681  -4.335  -2.237  0.00  0.00    -0.267 OA
ATOM      9  O   UNL d   1       3.041  -0.298  -1.314  0.00  0.00    -0.267 OA
ATOM     10  C   UNL d   1       6.605  -3.338   0.316  0.00  0.00     0.130 C 
ATOM     11  C   UNL d   1       5.375  -1.312   0.980  0.00  0.00     0.130 C 
ATOM     12  C   UNL d   1       6.689  -2.059   1.118  0.00  0.00     0.040 C 
ATOM     13  C   UNL d   1       4.274  -1.431  -3.733  0.00  0.00     0.012 A 
ATOM     14  C   UNL d   1       6.276  -3.213  -4.630  0.00  0.00     0.018 A 
ATOM     15  C   UNL d   1       4.461  -1.687  -5.102  0.00  0.00     0.001 A 
ATOM     16  C   UNL d   1       5.449  -2.577  -5.548  0.00  0.00     0.001 A 
ENDROOT
BRANCH   4  17
ATOM     17  C   UNL d   1       4.025   1.167   0.236  0.00  0.00     0.096 C 
ATOM     18  S   UNL d   1       2.517   1.801   0.755  0.00  0.00    -0.082 SA
ATOM     19  C   UNL d   1       3.248   3.005   1.731  0.00  0.00     0.017 A 
ATOM     20  C   UNL d   1       2.582   3.930   2.561  0.00  0.00     0.020 A 
ATOM     21  C   UNL d   1       4.639   2.977   1.622  0.00  0.00     0.004 A 
ATOM     22  C   UNL d   1       3.336   4.819   3.328  0.00  0.00     0.001 A 
ATOM     23  C   UNL d   1       4.721   4.800   3.263  0.00  0.00     0.001 A 
ATOM     24  C   UNL d   1       5.375   3.901   2.412  0.00  0.00     0.014 A 
ATOM     25  C   UNL d   1       5.065   1.963   0.682  0.00  0.00     0.068 C 
ATOM     26 CL   UNL d   1       6.722   1.781   0.252  0.00  0.00    -0.082 Cl
ENDBRANCH   4  17
TORSDOF 1
