REMARK  8 active torsions:
REMARK  status: ('A' for Active; 'I' for Inactive)
REMARK    1  A    between atoms: C_12  and  C_1 
REMARK    2  A    between atoms: C_13  and  C_2 
REMARK    3  A    between atoms: N_3  and  C_11 
REMARK    4  A    between atoms: N_4  and  C_10 
REMARK    5  A    between atoms: C_5  and  S_9 
REMARK    6  A    between atoms: S_9  and  C_6 
REMARK    7  A    between atoms: O_24  and  C_12 
REMARK    8  A    between atoms: O_25  and  C_13 
ROOT
ATOM      1  S   UNL d   1       1.037  -2.908  -0.207  0.00  0.00    -0.088 SA
ENDROOT
BRANCH   1   2
ATOM      2  C   UNL d   1       2.769  -3.105   0.197  0.00  0.00     0.022 A 
ATOM      3  C   UNL d   1       3.817  -3.133  -0.746  0.00  0.00     0.057 A 
ATOM      4  C   UNL d   1       5.107  -3.558  -0.367  0.00  0.00     0.055 A 
ATOM      5  C   UNL d   1       5.349  -3.971   0.948  0.00  0.00     0.104 A 
ATOM      6  C   UNL d   1       4.333  -3.900   1.904  0.00  0.00     0.037 A 
ATOM      7  C   UNL d   1       3.056  -3.470   1.527  0.00  0.00     0.022 A 
BRANCH   3   8
ATOM      8  C   UNL d   1       3.679  -2.737  -2.169  0.00  0.00     0.177 C 
ATOM      9  O   UNL d   1       4.521  -2.069  -2.738  0.00  0.00    -0.646 OA
BRANCH   8  10
ATOM     10  O   UNL d   1       2.593  -3.239  -2.789  0.00  0.00    -0.773 OA
ATOM     11  H   UNL d   1       2.002  -3.772  -2.224  0.00  0.00     0.167 HD
ENDBRANCH   8  10
ENDBRANCH   3   8
BRANCH   5  12
ATOM     12  N   UNL d   1       6.654  -4.541   1.312  0.00  0.00    -0.116 N 
ATOM     13  O   UNL d   1       7.502  -4.652   0.415  0.00  0.00    -0.532 OA
ATOM     14  O   UNL d   1       6.815  -4.904   2.484  0.00  0.00    -0.532 OA
ENDBRANCH   5  12
ENDBRANCH   1   2
BRANCH   1  15
ATOM     15  C   UNL d   1       0.754  -1.143  -0.270  0.00  0.00     0.022 A 
ATOM     16  C   UNL d   1       0.314  -0.357   0.818  0.00  0.00     0.057 A 
ATOM     17  C   UNL d   1      -0.085   0.980   0.604  0.00  0.00     0.055 A 
ATOM     18  C   UNL d   1      -0.057   1.528  -0.683  0.00  0.00     0.104 A 
ATOM     19  C   UNL d   1       0.400   0.768  -1.760  0.00  0.00     0.037 A 
ATOM     20  C   UNL d   1       0.796  -0.557  -1.549  0.00  0.00     0.022 A 
BRANCH  16  21
ATOM     21  C   UNL d   1       0.236  -0.819   2.232  0.00  0.00     0.177 C 
ATOM     22  O   UNL d   1       0.431  -0.057   3.165  0.00  0.00    -0.646 OA
BRANCH  21  23
ATOM     23  O   UNL d   1      -0.130  -2.101   2.410  0.00  0.00    -0.773 OA
ATOM     24  H   UNL d   1      -0.305  -2.600   1.589  0.00  0.00     0.167 HD
ENDBRANCH  21  23
ENDBRANCH  16  21
BRANCH  18  25
ATOM     25  N   UNL d   1      -0.549   2.894  -0.914  0.00  0.00    -0.116 N 
ATOM     26  O   UNL d   1      -1.042   3.497   0.048  0.00  0.00    -0.532 OA
ATOM     27  O   UNL d   1      -0.459   3.349  -2.062  0.00  0.00    -0.532 OA
ENDBRANCH  18  25
ENDBRANCH   1  15
TORSDOF 8
