REMARK  2 active torsions:
REMARK  status: ('A' for Active; 'I' for Inactive)
REMARK    1  A    between atoms: C_2  and  N_1 
REMARK    2  A    between atoms: N_4  and  C_3 
ROOT
ATOM      1  C   UNL d   1      -0.671  -2.397  -0.036  0.00  0.00     0.065 A 
ATOM      2  C   UNL d   1      -1.559  -2.823  -1.058  0.00  0.00     0.057 A 
ATOM      3  C   UNL d   1      -0.137  -3.320   0.894  0.00  0.00     0.032 A 
ATOM      4  C   UNL d   1      -1.885  -4.203  -1.051  0.00  0.00     0.031 A 
ATOM      5  C   UNL d   1      -1.372  -5.107  -0.116  0.00  0.00     0.002 A 
ATOM      6  C   UNL d   1      -0.492  -4.663   0.859  0.00  0.00     0.002 A 
ENDROOT
BRANCH   2   7
ATOM      7  N   UNL d   1      -2.059  -2.040  -2.092  0.00  0.00    -0.379 N 
ATOM      8  C   UNL d   1      -1.238  -1.045  -2.793  0.00  0.00     0.123 C 
ATOM      9  C   UNL d   1      -1.251  -1.293  -4.302  0.00  0.00     0.020 C 
ATOM     10  C   UNL d   1      -2.671  -1.424  -4.840  0.00  0.00     0.003 C 
ATOM     11  C   UNL d   1      -3.432  -2.502  -4.073  0.00  0.00     0.020 C 
ATOM     12  C   UNL d   1      -3.434  -2.200  -2.575  0.00  0.00     0.123 C 
ENDBRANCH   2   7
BRANCH   1  13
ATOM     13  N   UNL d   1      -0.305  -1.034   0.161  0.00  0.00    -0.331 N 
ATOM     14  C   UNL d   1      -1.108   0.082   0.013  0.00  0.00     0.097 C 
ATOM     15  C   UNL d   1      -0.342   1.214   0.175  0.00  0.00     0.019 C 
ATOM     16  C   UNL d   1       0.956   0.792   0.528  0.00  0.00     0.019 C 
ATOM     17  C   UNL d   1       0.941  -0.585   0.568  0.00  0.00     0.097 C 
ENDBRANCH   1  13
TORSDOF 2
