REMARK  3 active torsions:
REMARK  status: ('A' for Active; 'I' for Inactive)
REMARK    1  A    between atoms: C_7  and  N_1 
REMARK    2  A    between atoms: C_9  and  C_2 
REMARK    3  A    between atoms: C_12  and  C_7 
ROOT
ATOM      1  N   UNL d   1       0.830  -0.619   0.137  0.00  0.00    -0.303 N 
ATOM      2  C   UNL d   1       0.920   0.749   0.075  0.00  0.00     0.135 A 
ATOM      3  N   UNL d   1      -0.241   1.349   0.033  0.00  0.00    -0.282 N 
ATOM      4  HN  UNL d   1      -0.422   2.351  -0.027  1.00  0.00     0.188 HD
ATOM      5  C   UNL d   1      -0.521  -0.887   0.146  0.00  0.00     0.194 A 
ATOM      6  N   UNL d   1      -1.155   0.342   0.086  0.00  0.00    -0.274 N 
ATOM      7  S   UNL d   1      -1.337  -2.328   0.211  0.00  0.00    -0.039 SA
ATOM      8  H   UNL d   1      -2.153   0.511   0.074  0.00  0.00     0.189 HD
ENDROOT
BRANCH   1   9
ATOM      9  C   UNL d   1       1.884  -1.630   0.104  0.00  0.00     0.171 C 
BRANCH   9  10
ATOM     10  C   UNL d   1       2.453  -1.996   1.461  0.00  0.00    -0.040 A 
ATOM     11  C   UNL d   1       1.881  -1.570   2.672  0.00  0.00     0.009 A 
ATOM     12  C   UNL d   1       2.509  -1.836   3.890  0.00  0.00     0.001 A 
ATOM     13  C   UNL d   1       3.699  -2.557   3.919  0.00  0.00     0.000 A 
ATOM     14  C   UNL d   1       4.255  -3.028   2.733  0.00  0.00     0.001 A 
ATOM     15  C   UNL d   1       3.636  -2.752   1.512  0.00  0.00     0.009 A 
ENDBRANCH   9  10
ENDBRANCH   1   9
BRANCH   2  16
ATOM     16  C   UNL d   1       2.182   1.523   0.031  0.00  0.00     0.012 A 
ATOM     17  C   UNL d   1       2.195   2.698  -0.725  0.00  0.00     0.032 A 
ATOM     18  C   UNL d   1       3.352   3.460  -0.740  0.00  0.00     0.088 A 
ATOM     19  N   UNL d   1       4.472   3.132  -0.066  0.00  0.00    -0.375 N 
ATOM     20  C   UNL d   1       4.426   2.012   0.680  0.00  0.00     0.088 A 
ATOM     21  HN  UNL d   1       5.314   3.705  -0.119  1.00  0.00     0.164 HD
ATOM     22  C   UNL d   1       3.314   1.193   0.770  0.00  0.00     0.032 A 
ENDBRANCH   2  16
TORSDOF 3
