REMARK  8 active torsions:
REMARK  status: ('A' for Active; 'I' for Inactive)
REMARK    1  A    between atoms: C_21  and  N_1 
REMARK    2  A    between atoms: C_2  and  N_13 
REMARK    3  A    between atoms: C_19  and  N_3 
REMARK    4  A    between atoms: C_20  and  C_4 
REMARK    5  A    between atoms: S_17  and  C_7 
REMARK       I    between atoms: N_13  and  C_18 
REMARK    6  A    between atoms: C_25  and  S_17 
REMARK    7  A    between atoms: C_18  and  C_25 
REMARK    8  A    between atoms: C_26  and  C_21 
ROOT
ATOM      1  C   UNL d   1      -7.224  -2.683  -0.629  0.00  0.00     0.152 A 
ATOM      2  N   UNL d   1      -8.018  -3.768  -0.242  0.00  0.00    -0.239 N 
ATOM      3  N   UNL d   1      -9.341  -3.513  -0.428  0.00  0.00    -0.302 N 
ATOM      4  HN  UNL d   1     -10.124  -4.154  -0.300  1.00  0.00     0.186 HD
ATOM      5  C   UNL d   1      -8.112  -1.694  -1.013  0.00  0.00     0.107 A 
ATOM      6  C   UNL d   1      -9.387  -2.238  -0.815  0.00  0.00     0.134 A 
ATOM      7  C   UNL d   1      -7.815  -0.443  -1.642  0.00  0.00     0.105 C 
ATOM      8  N   UNL d   1      -7.604   0.527  -2.231  0.00  0.00    -0.191 NA
ENDROOT
BRANCH   1   9
ATOM      9  N   UNL d   1      -5.826  -2.700  -0.676  0.00  0.00    -0.310 N 
ATOM     10  C   UNL d   1      -5.134  -1.695   0.013  0.00  0.00     0.233 C 
ATOM     11  O   UNL d   1      -5.697  -0.785   0.613  0.00  0.00    -0.272 OA
ATOM     12  H   UNL d   1      -5.373  -3.606  -0.760  0.00  0.00     0.170 HD
BRANCH  10  13
ATOM     13  C   UNL d   1      -3.624  -1.945   0.040  0.00  0.00     0.185 C 
BRANCH  13  14
ATOM     14  S   UNL d   1      -2.740  -0.745   1.061  0.00  0.00    -0.083 SA
BRANCH  14  15
ATOM     15  C   UNL d   1      -1.041  -1.075   0.895  0.00  0.00     0.163 C 
ATOM     16  N   UNL d   1      -0.393  -2.233   1.253  0.00  0.00    -0.307 N 
ATOM     17  C   UNL d   1       0.957  -1.910   1.337  0.00  0.00     0.135 C 
ATOM     18  N   UNL d   1       1.101  -0.678   0.885  0.00  0.00    -0.283 N 
ATOM     19  N   UNL d   1      -0.147  -0.148   0.643  0.00  0.00    -0.278 N 
ATOM     20  HN  UNL d   1       1.990  -0.198   0.740  1.00  0.00     0.188 HD
ATOM     21  HN  UNL d   1      -0.342   0.801   0.322  1.00  0.00     0.189 HD
BRANCH  16  22
ATOM     22  C   UNL d   1      -0.947  -3.571   1.306  0.00  0.00     0.159 C 
BRANCH  22  23
ATOM     23  C   UNL d   1      -1.512  -3.943   2.646  0.00  0.00    -0.017 C 
ATOM     24  C   UNL d   1      -1.585  -5.212   3.074  0.00  0.00     0.008 C 
ENDBRANCH  22  23
ENDBRANCH  16  22
BRANCH  17  25
ATOM     25  C   UNL d   1       2.049  -2.792   1.784  0.00  0.00     0.012 A 
ATOM     26  C   UNL d   1       3.329  -2.671   1.239  0.00  0.00     0.032 A 
ATOM     27  C   UNL d   1       4.307  -3.578   1.626  0.00  0.00     0.088 A 
ATOM     28  N   UNL d   1       4.100  -4.585   2.502  0.00  0.00    -0.375 N 
ATOM     29  C   UNL d   1       2.882  -4.649   3.065  0.00  0.00     0.088 A 
ATOM     30  HN  UNL d   1       4.831  -5.261   2.725  1.00  0.00     0.164 HD
ATOM     31  C   UNL d   1       1.858  -3.767   2.766  0.00  0.00     0.032 A 
ENDBRANCH  17  25
ENDBRANCH  14  15
ENDBRANCH  13  14
ENDBRANCH  10  13
ENDBRANCH   1   9
BRANCH   2  32
ATOM     32  C   UNL d   1      -7.621  -5.005   0.338  0.00  0.00     0.058 A 
ATOM     33  C   UNL d   1      -6.471  -5.102   1.133  0.00  0.00     0.031 A 
ATOM     34  C   UNL d   1      -6.111  -6.329   1.694  0.00  0.00     0.002 A 
ATOM     35  C   UNL d   1      -6.891  -7.460   1.463  0.00  0.00     0.000 A 
ATOM     36  C   UNL d   1      -8.048  -7.365   0.691  0.00  0.00     0.002 A 
ATOM     37  C   UNL d   1      -8.425  -6.138   0.143  0.00  0.00     0.031 A 
ENDBRANCH   2  32
TORSDOF 8
