REMARK  4 active torsions:
REMARK  status: ('A' for Active; 'I' for Inactive)
REMARK    1  A    between atoms: N_2  and  S_1 
REMARK    2  A    between atoms: C_3  and  S_1 
REMARK    3  A    between atoms: C_9  and  N_2 
REMARK    4  A    between atoms: N_4  and  C_8 
ROOT
ATOM      1  C   UNL d   1       1.537   3.412  -4.161  0.00  0.00     0.030 A 
ATOM      2  C   UNL d   1       0.895   1.354  -2.325  0.00  0.00     0.042 A 
ATOM      3  C   UNL d   1       2.483   2.913  -3.250  0.00  0.00     0.031 A 
ATOM      4  C   UNL d   1       0.245   2.868  -4.084  0.00  0.00     0.031 A 
ATOM      5  C   UNL d   1      -0.076   1.845  -3.186  0.00  0.00     0.032 A 
ATOM      6  C   UNL d   1       2.169   1.906  -2.330  0.00  0.00     0.032 A 
ENDROOT
BRANCH   2   7
ATOM      7  N   UNL d   1       0.586   0.274  -1.470  0.00  0.00    -0.281 N 
ATOM      8  H   UNL d   1       0.511   0.414  -0.465  0.00  0.00     0.179 HD
BRANCH   7   9
ATOM      9  S   UNL d   1       0.735  -1.305  -2.011  0.00  0.00     0.263 S 
ATOM     10  O   UNL d   1       0.048  -1.451  -3.276  0.00  0.00    -0.200 OA
ATOM     11  O   UNL d   1       0.402  -2.148  -0.881  0.00  0.00    -0.200 OA
BRANCH   9  12
ATOM     12  C   UNL d   1       2.480  -1.491  -2.311  0.00  0.00     0.081 A 
ATOM     13  C   UNL d   1       3.003  -1.177  -3.571  0.00  0.00     0.049 A 
ATOM     14  C   UNL d   1       4.363  -1.364  -3.805  0.00  0.00     0.035 A 
ATOM     15 CL   UNL d   1       5.029  -0.957  -5.340  0.00  0.00    -0.084 Cl
ATOM     16  C   UNL d   1       5.193  -1.880  -2.810  0.00  0.00     0.024 A 
ATOM     17  C   UNL d   1       4.662  -2.209  -1.560  0.00  0.00     0.003 A 
ATOM     18  C   UNL d   1       3.302  -2.018  -1.310  0.00  0.00     0.025 A 
ENDBRANCH   9  12
ENDBRANCH   7   9
ENDBRANCH   2   7
BRANCH   1  19
ATOM     19  N   UNL d   1       1.882   4.353  -5.112  0.00  0.00    -0.381 N 
ATOM     20  C   UNL d   1       1.183   4.451  -6.395  0.00  0.00     0.123 C 
ATOM     21  C   UNL d   1       2.217   4.492  -7.522  0.00  0.00     0.020 C 
ATOM     22  C   UNL d   1       3.251   5.595  -7.304  0.00  0.00     0.003 C 
ATOM     23  C   UNL d   1       3.883   5.497  -5.916  0.00  0.00     0.020 C 
ATOM     24  C   UNL d   1       2.819   5.441  -4.822  0.00  0.00     0.123 C 
ENDBRANCH   1  19
TORSDOF 4
