REMARK  5 active torsions:
REMARK  status: ('A' for Active; 'I' for Inactive)
REMARK    1  A    between atoms: N_12  and  C_3 
REMARK    2  A    between atoms: C_11  and  C_4 
REMARK       I    between atoms: C_5  and  N_9 
REMARK    3  A    between atoms: C_7  and  C_5 
REMARK    4  A    between atoms: N_9  and  N_12 
REMARK    5  A    between atoms: O_19  and  C_18 
ROOT
ATOM      1  N   UNL d   1       1.439  -0.661  -0.051  0.00  0.00    -0.334 N 
ATOM      2  HN  UNL d   1       2.326  -1.138  -0.212  1.00  0.00     0.168 HD
ATOM      3  C   UNL d   1       0.279  -1.266   0.114  0.00  0.00     0.163 A 
ATOM      4  C   UNL d   1       1.281   0.717   0.025  0.00  0.00     0.051 A 
ATOM      5  S   UNL d   1      -1.073  -0.210   0.260  0.00  0.00    -0.062 SA
ATOM      6  C   UNL d   1      -0.029   1.140   0.131  0.00  0.00     0.083 A 
ENDROOT
BRANCH   3   7
ATOM      7  N   UNL d   1       0.108  -2.607   0.154  0.00  0.00    -0.277 N 
ATOM      8  H   UNL d   1      -0.836  -2.994   0.219  0.00  0.00     0.189 HD
BRANCH   7   9
ATOM      9  N   UNL d   1       1.040  -3.469  -0.425  0.00  0.00    -0.263 N 
ATOM     10  C   UNL d   1       0.715  -4.807  -0.600  0.00  0.00     0.277 C 
ATOM     11  O   UNL d   1      -0.358  -5.257  -0.193  0.00  0.00    -0.265 OA
ATOM     12  H   UNL d   1       1.908  -3.058  -0.756  0.00  0.00     0.190 HD
BRANCH  10  13
ATOM     13  C   UNL d   1       1.712  -5.615  -1.291  0.00  0.00     0.074 A 
ATOM     14  S   UNL d   1       3.101  -4.919  -2.023  0.00  0.00    -0.097 SA
ATOM     15  C   UNL d   1       3.663  -6.436  -2.573  0.00  0.00     0.050 A 
ATOM     16  C   UNL d   1       2.819  -7.461  -2.212  0.00  0.00     0.009 A 
ATOM     17  C   UNL d   1       1.691  -6.986  -1.480  0.00  0.00     0.025 A 
ENDBRANCH  10  13
ENDBRANCH   7   9
ENDBRANCH   3   7
BRANCH   4  18
ATOM     18  C   UNL d   1       2.424   1.622  -0.052  0.00  0.00    -0.006 A 
ATOM     19  C   UNL d   1       3.569   1.226  -0.762  0.00  0.00     0.050 A 
ATOM     20  C   UNL d   1       4.663   2.086  -0.889  0.00  0.00     0.069 A 
ATOM     21  C   UNL d   1       4.623   3.342  -0.280  0.00  0.00     0.037 A 
ATOM     22  C   UNL d   1       3.507   3.737   0.454  0.00  0.00     0.004 A 
ATOM     23  C   UNL d   1       2.411   2.880   0.569  0.00  0.00     0.014 A 
BRANCH  20  24
ATOM     24  O   UNL d   1       5.815   1.821  -1.580  0.00  0.00    -0.356 OA
ATOM     25  C   UNL d   1       5.889   0.560  -2.233  0.00  0.00     0.210 C 
ENDBRANCH  20  24
ENDBRANCH   4  18
TORSDOF 5
