REMARK  7 active torsions:
REMARK  status: ('A' for Active; 'I' for Inactive)
REMARK    1  A    between atoms: C_10  and  C_1 
REMARK    2  A    between atoms: N_8  and  C_2 
REMARK    3  A    between atoms: C_11  and  C_4 
REMARK       I    between atoms: C_6  and  N_8 
REMARK    4  A    between atoms: C_7  and  C_6 
REMARK    5  A    between atoms: S_16  and  C_9 
REMARK    6  A    between atoms: C_23  and  S_16 
REMARK    7  A    between atoms: C_25  and  C_23 
ROOT
ATOM      1  C   UNL d   1       2.395   2.999   0.583  0.00  0.00     0.259 C 
ATOM      2  N   UNL d   1       2.305   1.623   0.450  0.00  0.00    -0.321 N 
ATOM      3  O   UNL d   1       1.466   3.790   0.508  0.00  0.00    -0.267 OA
ATOM      4  H   UNL d   1       3.130   1.088   0.696  0.00  0.00     0.169 HD
ENDROOT
BRANCH   2   5
ATOM      5  C   UNL d   1       1.181   0.837   0.184  0.00  0.00     0.057 C 
ATOM      6  C   UNL d   1      -0.100   1.184  -0.208  0.00  0.00     0.077 C 
ATOM      7  S   UNL d   1      -1.155  -0.176  -0.182  0.00  0.00    -0.088 SA
ATOM      8  C   UNL d   1       0.125  -1.293   0.047  0.00  0.00    -0.007 C 
ATOM      9  C   UNL d   1       1.301  -0.601   0.272  0.00  0.00     0.046 C 
BRANCH   6  10
ATOM     10  C   UNL d   1      -0.703   2.424  -0.674  0.00  0.00     0.164 C 
ATOM     11  O   UNL d   1      -1.808   2.826  -0.303  0.00  0.00    -0.292 OA
ATOM     12  C   UNL d   1      -0.033   3.091  -1.855  0.00  0.00     0.097 C 
ENDBRANCH   6  10
BRANCH   8  13
ATOM     13  C   UNL d   1      -0.134  -2.808   0.022  0.00  0.00    -0.018 C 
ATOM     14  C   UNL d   1      -0.898  -3.210  -1.258  0.00  0.00     0.020 C 
ATOM     15  C   UNL d   1       1.192  -3.601   0.026  0.00  0.00     0.020 C 
ATOM     16  C   UNL d   1      -0.947  -3.239   1.258  0.00  0.00     0.020 C 
ENDBRANCH   8  13
ENDBRANCH   2   5
BRANCH   1  17
ATOM     17  C   UNL d   1       3.796   3.494   0.784  0.00  0.00     0.065 A 
ATOM     18  C   UNL d   1       4.163   4.535   1.648  0.00  0.00     0.085 A 
ATOM     19  N   UNL d   1       5.469   4.894   1.811  0.00  0.00    -0.360 N 
ATOM     20  C   UNL d   1       6.422   4.252   1.108  0.00  0.00     0.089 A 
ATOM     21  HN  UNL d   1       5.721   5.640   2.459  1.00  0.00     0.166 HD
ATOM     22  C   UNL d   1       6.148   3.247   0.207  0.00  0.00     0.018 A 
ATOM     23  C   UNL d   1       4.819   2.873   0.037  0.00  0.00     0.021 A 
BRANCH  18  24
ATOM     24  S   UNL d   1       3.040   5.438   2.709  0.00  0.00    -0.111 SA
BRANCH  24  25
ATOM     25  C   UNL d   1       3.930   7.039   2.845  0.00  0.00     0.080 C 
BRANCH  25  26
ATOM     26  C   UNL d   1       3.245   7.975   3.841  0.00  0.00     0.006 C 
ATOM     27  C   UNL d   1       3.909   9.348   3.858  0.00  0.00     0.006 C 
ENDBRANCH  25  26
ENDBRANCH  24  25
ENDBRANCH  18  24
ENDBRANCH   1  17
TORSDOF 7
