REMARK  3 active torsions:
REMARK  status: ('A' for Active; 'I' for Inactive)
REMARK    1  A    between atoms: C_4  and  N_1 
REMARK    2  A    between atoms: C_3  and  C_2 
REMARK       I    between atoms: N_9  and  C_3 
REMARK    3  A    between atoms: N_13  and  N_9 
ROOT
ATOM      1  N   UNL d   1      -0.281  -1.170   0.009  0.00  0.00    -0.318 N 
ATOM      2  C   UNL d   1       1.045  -0.739   0.099  0.00  0.00     0.108 A 
ATOM      3  C   UNL d   1      -1.084  -0.044  -0.105  0.00  0.00     0.098 A 
ATOM      4  C   UNL d   1       1.022   0.654   0.102  0.00  0.00     0.037 A 
ATOM      5  C   UNL d   1      -0.310   1.085  -0.028  0.00  0.00     0.020 A 
ENDROOT
BRANCH   1   6
ATOM      6  C   UNL d   1      -0.797  -2.505   0.047  0.00  0.00     0.039 A 
ATOM      7  C   UNL d   1      -0.151  -3.509   0.779  0.00  0.00     0.033 A 
ATOM      8  C   UNL d   1      -0.633  -4.821   0.755  0.00  0.00     0.044 A 
ATOM      9  C   UNL d   1      -1.771  -5.121   0.019  0.00  0.00     0.116 A 
ATOM     10  C   UNL d   1      -2.452  -4.130  -0.675  0.00  0.00     0.044 A 
ATOM     11  F   UNL d   1      -2.217  -6.383  -0.023  0.00  0.00    -0.206 F 
ATOM     12  C   UNL d   1      -1.974  -2.817  -0.656  0.00  0.00     0.033 A 
ENDBRANCH   1   6
BRANCH   2  13
ATOM     13  C   UNL d   1       2.228  -1.586   0.075  0.00  0.00     0.282 C 
ATOM     14  O   UNL d   1       2.298  -2.681  -0.481  0.00  0.00    -0.265 OA
ATOM     15  N   UNL d   1       3.323  -1.065   0.765  0.00  0.00    -0.288 N 
ATOM     16  H   UNL d   1       3.283  -0.138   1.172  0.00  0.00     0.183 HD
BRANCH  15  17
ATOM     17  N   UNL d   1       4.539  -1.788   0.809  0.00  0.00    -0.247 NA
ATOM     18  H   UNL d   1       4.388  -2.654   0.271  0.00  0.00     0.143 HD
ATOM     19  H   UNL d   1       4.689  -2.105   1.769  0.00  0.00     0.143 HD
ENDBRANCH  15  17
ENDBRANCH   2  13
TORSDOF 3
