REMARK  3 active torsions:
REMARK  status: ('A' for Active; 'I' for Inactive)
REMARK    1  A    between atoms: S_5  and  C_1 
REMARK    2  A    between atoms: C_7  and  S_5 
REMARK    3  A    between atoms: N_14  and  C_13 
ROOT
ATOM      1  C   UNL d   1       2.106   0.949  -0.076  0.00  0.00     0.120 A 
ATOM      2  S   UNL d   1       1.326   0.707  -1.584  0.00  0.00    -0.045 SA
ATOM      3  N   UNL d   1       1.389   0.720   1.006  0.00  0.00    -0.343 N 
ATOM      4  HN  UNL d   1       1.704   0.853   1.967  1.00  0.00     0.167 HD
ATOM      5  C   UNL d   1      -0.073   0.205  -0.752  0.00  0.00     0.103 A 
ATOM      6  C   UNL d   1       0.139   0.268   0.623  0.00  0.00     0.067 A 
ATOM      7  N   UNL d   1      -1.193  -0.201  -1.386  0.00  0.00    -0.358 N 
ATOM      8  HN  UNL d   1      -1.289  -0.216  -2.401  1.00  0.00     0.166 HD
ATOM      9  C   UNL d   1      -0.920  -0.139   1.452  0.00  0.00     0.034 A 
ATOM     10  C   UNL d   1      -2.175  -0.587  -0.541  0.00  0.00     0.089 A 
ATOM     11  C   UNL d   1      -2.097  -0.579   0.845  0.00  0.00     0.019 A 
ENDROOT
BRANCH   1  12
ATOM     12  S   UNL d   1       3.789   1.401   0.062  0.00  0.00    -0.045 SA
BRANCH  12  13
ATOM     13  C   UNL d   1       3.570   3.174   0.061  0.00  0.00     0.097 A 
ATOM     14  N   UNL d   1       4.092   3.800  -1.026  0.00  0.00    -0.359 N 
ATOM     15  C   UNL d   1       4.052   5.148  -1.044  0.00  0.00     0.089 A 
ATOM     16  HN  UNL d   1       4.497   3.272  -1.799  1.00  0.00     0.166 HD
ATOM     17  C   UNL d   1       3.523   5.912  -0.022  0.00  0.00     0.019 A 
ATOM     18  C   UNL d   1       2.983   5.255   1.081  0.00  0.00     0.027 A 
ATOM     19  C   UNL d   1       2.951   3.858   1.128  0.00  0.00     0.040 A 
BRANCH  19  20
ATOM     20  N   UNL d   1       2.531   3.233   2.320  0.00  0.00    -0.300 NA
ATOM     21  H   UNL d   1       2.257   2.256   2.178  0.00  0.00     0.124 HD
ATOM     22  H   UNL d   1       1.817   3.747   2.824  0.00  0.00     0.124 HD
ENDBRANCH  19  20
ENDBRANCH  12  13
ENDBRANCH   1  12
TORSDOF 3
