REMARK  4 active torsions:
REMARK  status: ('A' for Active; 'I' for Inactive)
REMARK    1  A    between atoms: N_2  and  C_1 
REMARK    2  A    between atoms: N_3  and  C_1 
REMARK    3  A    between atoms: C_5  and  N_2 
REMARK    4  A    between atoms: C_6  and  N_3 
ROOT
ATOM      1  C   UNL d   1       0.980   0.002   0.010  0.00  0.00     0.176 C 
ATOM      2  S   UNL d   1       2.602  -0.228  -0.321  0.00  0.00    -0.041 SA
ENDROOT
BRANCH   1   3
ATOM      3  N   UNL d   1       0.445   0.799   0.996  0.00  0.00    -0.333 N 
ATOM      4  H   UNL d   1      -0.335   0.371   1.480  0.00  0.00     0.168 HD
BRANCH   3   5
ATOM      5  C   UNL d   1       0.933   2.001   1.533  0.00  0.00     0.034 A 
ATOM      6  C   UNL d   1       1.657   2.917   0.769  0.00  0.00     0.030 A 
ATOM      7  C   UNL d   1       2.015   4.154   1.307  0.00  0.00     0.009 A 
ATOM      8  C   UNL d   1       1.670   4.486   2.622  0.00  0.00    -0.062 A 
ATOM      9  C   UNL d   1       0.952   3.563   3.388  0.00  0.00     0.009 A 
ATOM     10  C   UNL d   1       2.045   5.828   3.176  0.00  0.00     0.048 C 
ATOM     11  C   UNL d   1       0.569   2.336   2.840  0.00  0.00     0.030 A 
ENDBRANCH   3   5
ENDBRANCH   1   3
BRANCH   1  12
ATOM     12  N   UNL d   1       0.061  -0.796  -0.636  0.00  0.00    -0.333 N 
ATOM     13  H   UNL d   1       0.447  -1.625  -1.072  0.00  0.00     0.168 HD
BRANCH  12  14
ATOM     14  C   UNL d   1      -1.248  -0.444  -1.030  0.00  0.00     0.034 A 
ATOM     15  C   UNL d   1      -1.674   0.886  -1.122  0.00  0.00     0.030 A 
ATOM     16  C   UNL d   1      -2.950   1.187  -1.602  0.00  0.00     0.009 A 
ATOM     17  C   UNL d   1      -3.826   0.164  -1.979  0.00  0.00    -0.062 A 
ATOM     18  C   UNL d   1      -3.398  -1.163  -1.885  0.00  0.00     0.009 A 
ATOM     19  C   UNL d   1      -5.187   0.506  -2.509  0.00  0.00     0.048 C 
ATOM     20  C   UNL d   1      -2.110  -1.464  -1.429  0.00  0.00     0.030 A 
ENDBRANCH  12  14
ENDBRANCH   1  12
TORSDOF 4
