REMARK  1 active torsions:
REMARK  status: ('A' for Active; 'I' for Inactive)
REMARK    1  A    between atoms: S_11  and  C_5 
ROOT
ATOM      1  N   UNL d   1       0.859  -0.532   0.003  0.00  0.00    -0.268 N 
ATOM      2  C   UNL d   1       1.515   0.671  -0.014  0.00  0.00     0.173 A 
ATOM      3  N   UNL d   1       2.807   0.523  -0.016  0.00  0.00    -0.277 N 
ATOM      4  HN  UNL d   1       3.510   1.262  -0.029  1.00  0.00     0.189 HD
ATOM      5  C   UNL d   1       1.863  -1.463   0.014  0.00  0.00     0.165 A 
ATOM      6  S   UNL d   1       0.470   2.045  -0.024  0.00  0.00    -0.050 SA
ATOM      7  N   UNL d   1       3.032  -0.842   0.004  0.00  0.00    -0.278 N 
ATOM      8  HN  UNL d   1       3.947  -1.294   0.010  1.00  0.00     0.189 HD
ATOM      9  C   UNL d   1      -0.538  -0.443   0.007  0.00  0.00     0.061 A 
ATOM     10  C   UNL d   1      -0.921   0.916  -0.008  0.00  0.00     0.035 A 
ATOM     11  C   UNL d   1      -1.483  -1.451   0.024  0.00  0.00     0.031 A 
ATOM     12  C   UNL d   1      -2.259   1.278  -0.009  0.00  0.00     0.021 A 
ATOM     13  C   UNL d   1      -2.834  -1.084   0.017  0.00  0.00     0.002 A 
ATOM     14  C   UNL d   1      -3.219   0.267   0.001  0.00  0.00     0.002 A 
ENDROOT
BRANCH   5  15
ATOM     15  S   UNL d   1       1.723  -3.183   0.062  0.00  0.00    -0.105 SA
ATOM     16  H   UNL d   1       0.431  -3.360  -0.187  0.00  0.00     0.110 HD
ENDBRANCH   5  15
TORSDOF 1
