REMARK  8 active torsions:
REMARK  status: ('A' for Active; 'I' for Inactive)
REMARK    1  A    between atoms: C_2  and  S_1 
REMARK    2  A    between atoms: N_3  and  S_1 
REMARK    3  A    between atoms: C_12  and  N_3 
REMARK    4  A    between atoms: C_15  and  N_3 
REMARK       I    between atoms: C_6  and  N_11 
REMARK    5  A    between atoms: C_13  and  C_6 
REMARK    6  A    between atoms: C_16  and  C_7 
REMARK    7  A    between atoms: N_11  and  C_16 
REMARK    8  A    between atoms: C_20  and  C_12 
ROOT
ATOM      1  C   UNL d   1       0.538   0.161   1.918  0.00  0.00     0.120 A 
ATOM      2  S   UNL d   1       0.507   1.634   2.791  0.00  0.00    -0.080 SA
ATOM      3  C   UNL d   1      -0.092  -0.845   2.630  0.00  0.00     0.034 A 
ATOM      4  C   UNL d   1      -0.324   0.935   4.120  0.00  0.00     0.002 A 
ATOM      5  C   UNL d   1      -0.579  -0.404   3.896  0.00  0.00     0.018 A 
ENDROOT
BRANCH   1   6
ATOM      6  S   UNL d   1       1.444   0.114   0.356  0.00  0.00     0.268 S 
ATOM      7  O   UNL d   1       1.253  -1.253  -0.071  0.00  0.00    -0.200 OA
ATOM      8  O   UNL d   1       2.764   0.587   0.714  0.00  0.00    -0.200 OA
BRANCH   6   9
ATOM      9  N   UNL d   1       0.721   1.188  -0.784  0.00  0.00    -0.298 N 
BRANCH   9  10
ATOM     10  C   UNL d   1       1.208   2.601  -0.682  0.00  0.00     0.174 C 
BRANCH  10  11
ATOM     11  C   UNL d   1       2.629   2.929  -1.113  0.00  0.00    -0.040 A 
ATOM     12  C   UNL d   1       3.118   2.675  -2.403  0.00  0.00     0.009 A 
ATOM     13  C   UNL d   1       4.389   3.105  -2.795  0.00  0.00     0.001 A 
ATOM     14  C   UNL d   1       5.203   3.791  -1.901  0.00  0.00     0.000 A 
ATOM     15  C   UNL d   1       4.753   4.027  -0.606  0.00  0.00     0.001 A 
ATOM     16  C   UNL d   1       3.479   3.603  -0.217  0.00  0.00     0.009 A 
ENDBRANCH  10  11
ENDBRANCH   9  10
BRANCH   9  17
ATOM     17  C   UNL d   1       0.413   0.674  -2.174  0.00  0.00     0.088 C 
ATOM     18  C   UNL d   1      -0.594  -0.485  -2.171  0.00  0.00     0.032 C 
ATOM     19  C   UNL d   1      -0.224   1.749  -3.080  0.00  0.00     0.032 C 
ENDBRANCH   9  17
ENDBRANCH   6   9
ENDBRANCH   1   6
BRANCH   4  20
ATOM     20  C   UNL d   1      -0.704   1.764   5.313  0.00  0.00     0.169 C 
BRANCH  20  21
ATOM     21  N   UNL d   1      -0.058   1.224   6.492  0.00  0.00    -0.352 N 
ATOM     22  C   UNL d   1      -0.585   1.459   7.744  0.00  0.00     0.251 C 
ATOM     23  O   UNL d   1      -1.608   2.112   7.933  0.00  0.00    -0.268 OA
ATOM     24  H   UNL d   1       0.916   0.963   6.414  0.00  0.00     0.163 HD
BRANCH  22  25
ATOM     25  C   UNL d   1       0.155   0.887   8.904  0.00  0.00     0.032 A 
ATOM     26  C   UNL d   1       0.023   1.504  10.157  0.00  0.00     0.018 A 
ATOM     27  C   UNL d   1       0.657   0.963  11.280  0.00  0.00     0.025 A 
ATOM     28  C   UNL d   1       1.413  -0.199  11.155  0.00  0.00     0.034 A 
ATOM     29  C   UNL d   1       1.548  -0.824   9.913  0.00  0.00     0.025 A 
ATOM     30 CL   UNL d   1       2.172  -0.882  12.539  0.00  0.00    -0.084 Cl
ATOM     31  C   UNL d   1       0.918  -0.282   8.787  0.00  0.00     0.018 A 
ENDBRANCH  22  25
ENDBRANCH  20  21
ENDBRANCH   4  20
TORSDOF 8
