REMARK  7 active torsions:
REMARK  status: ('A' for Active; 'I' for Inactive)
REMARK    1  A    between atoms: C_6  and  C_1 
REMARK    2  A    between atoms: C_2  and  C_6 
REMARK    3  A    between atoms: C_3  and  C_6 
REMARK    4  A    between atoms: N_27  and  C_4 
REMARK    5  A    between atoms: N_26  and  C_5 
REMARK    6  A    between atoms: C_24  and  N_15 
REMARK    7  A    between atoms: C_25  and  C_16 
ROOT
ATOM      1  C   UNL d   1      -0.888   2.502  -0.205  0.00  0.00     0.106 C 
ENDROOT
BRANCH   1   2
ATOM      2  C   UNL d   1      -0.302   3.185  -1.442  0.00  0.00     0.061 C 
ATOM      3  C   UNL d   1       0.674   4.123  -1.432  0.00  0.00     0.092 C 
ATOM      4  N   UNL d   1       1.188   4.562  -2.622  0.00  0.00    -0.323 N 
ATOM      5  C   UNL d   1       0.841   4.081  -3.845  0.00  0.00     0.179 C 
ATOM      6  H   UNL d   1       1.911   5.270  -2.611  0.00  0.00     0.169 HD
ATOM      7  N   UNL d   1      -0.152   3.160  -3.870  0.00  0.00    -0.300 N 
ATOM      8  S   UNL d   1       1.597   4.596  -5.231  0.00  0.00    -0.040 SA
ATOM      9  C   UNL d   1      -0.847   2.759  -2.765  0.00  0.00     0.258 C 
ATOM     10  H   UNL d   1      -0.494   2.832  -4.763  0.00  0.00     0.171 HD
ATOM     11  O   UNL d   1      -1.849   2.062  -2.883  0.00  0.00    -0.267 OA
BRANCH   3  12
ATOM     12  N   UNL d   1       1.230   4.671  -0.299  0.00  0.00    -0.288 NA
ATOM     13  H   UNL d   1       1.226   4.067   0.517  0.00  0.00     0.125 HD
ATOM     14  H   UNL d   1       2.173   5.018  -0.460  0.00  0.00     0.125 HD
ENDBRANCH   3  12
ENDBRANCH   1   2
BRANCH   1  15
ATOM     15  C   UNL d   1      -2.392   2.675  -0.012  0.00  0.00     0.067 C 
ATOM     16  C   UNL d   1      -2.984   3.882   0.168  0.00  0.00     0.113 C 
ATOM     17  N   UNL d   1      -4.314   3.943   0.480  0.00  0.00    -0.319 N 
ATOM     18  C   UNL d   1      -5.108   2.867   0.714  0.00  0.00     0.180 C 
ATOM     19  H   UNL d   1      -4.749   4.852   0.573  0.00  0.00     0.169 HD
ATOM     20  N   UNL d   1      -4.535   1.652   0.548  0.00  0.00    -0.299 N 
ATOM     21  S   UNL d   1      -6.694   3.038   1.184  0.00  0.00    -0.040 SA
ATOM     22  C   UNL d   1      -3.276   1.465   0.052  0.00  0.00     0.258 C 
ATOM     23  H   UNL d   1      -5.113   0.827   0.617  0.00  0.00     0.171 HD
ATOM     24  O   UNL d   1      -2.942   0.343  -0.306  0.00  0.00    -0.267 OA
BRANCH  16  25
ATOM     25  N   UNL d   1      -2.346   5.095   0.082  0.00  0.00    -0.385 N 
ATOM     26  H   UNL d   1      -1.331   5.104   0.112  0.00  0.00     0.157 HD
ATOM     27  H   UNL d   1      -2.765   5.835   0.635  0.00  0.00     0.157 HD
ENDBRANCH  16  25
ENDBRANCH   1  15
BRANCH   1  28
ATOM     28  C   UNL d   1      -0.312   1.104  -0.022  0.00  0.00     0.002 A 
ATOM     29  C   UNL d   1      -0.057   0.349   1.173  0.00  0.00     0.067 A 
ATOM     30  N   UNL d   1       0.359  -0.899   0.882  0.00  0.00    -0.293 N 
ATOM     31  N   UNL d   1       0.360  -0.976  -0.473  0.00  0.00    -0.267 N 
ATOM     32  HN  UNL d   1       0.619  -1.633   1.542  1.00  0.00     0.187 HD
ATOM     33  C   UNL d   1       0.047   0.234  -1.032  0.00  0.00     0.127 A 
BRANCH  29  34
ATOM     34  C   UNL d   1      -0.225   0.774   2.570  0.00  0.00    -0.007 A 
ATOM     35  C   UNL d   1       0.172   2.052   2.990  0.00  0.00     0.014 A 
ATOM     36  C   UNL d   1      -0.068   2.491   4.293  0.00  0.00     0.001 A 
ATOM     37  C   UNL d   1      -0.659   1.634   5.215  0.00  0.00     0.000 A 
ATOM     38  C   UNL d   1      -1.002   0.339   4.835  0.00  0.00     0.001 A 
ATOM     39  C   UNL d   1      -0.792  -0.088   3.517  0.00  0.00     0.014 A 
ENDBRANCH  29  34
BRANCH  31  40
ATOM     40  C   UNL d   1       0.682  -2.172  -1.185  0.00  0.00     0.056 A 
ATOM     41  C   UNL d   1       0.764  -2.171  -2.587  0.00  0.00     0.031 A 
ATOM     42  C   UNL d   1       1.081  -3.339  -3.288  0.00  0.00     0.002 A 
ATOM     43  C   UNL d   1       1.298  -4.524  -2.586  0.00  0.00     0.000 A 
ATOM     44  C   UNL d   1       1.206  -4.536  -1.196  0.00  0.00     0.002 A 
ATOM     45  C   UNL d   1       0.903  -3.367  -0.492  0.00  0.00     0.031 A 
ENDBRANCH  31  40
ENDBRANCH   1  28
TORSDOF 7
