REMARK  2 active torsions:
REMARK  status: ('A' for Active; 'I' for Inactive)
REMARK    1  A    between atoms: N_14  and  C_7 
REMARK    2  A    between atoms: C_15  and  N_14 
ROOT
ATOM      1  C   UNL d   1      -0.701   1.197  -0.026  0.00  0.00     0.087 A 
ATOM      2  C   UNL d   1      -1.436   0.004  -0.046  0.00  0.00     0.089 A 
ATOM      3  N   UNL d   1      -1.373   2.356  -0.001  0.00  0.00    -0.283 N 
ATOM      4  HN  UNL d   1      -0.861   3.238   0.002  1.00  0.00     0.187 HD
ATOM      5  N   UNL d   1      -2.796   0.025  -0.058  0.00  0.00    -0.187 N 
ATOM      6  HN  UNL d   1      -3.333  -0.840  -0.111  1.00  0.00     0.184 HD
ATOM      7  C   UNL d   1      -3.412   1.212   0.001  0.00  0.00     0.697 A 
ATOM      8  C   UNL d   1      -0.739  -1.219  -0.041  0.00  0.00     0.005 A 
ATOM      9  C   UNL d   1       0.701   1.193  -0.022  0.00  0.00     0.005 A 
ATOM     10  C   UNL d   1       0.682  -1.256  -0.024  0.00  0.00    -0.012 A 
ATOM     11  C   UNL d   1       1.416  -0.027  -0.020  0.00  0.00    -0.012 A 
ATOM     12  N   UNL d   1      -2.730   2.367   0.021  0.00  0.00    -0.131 N 
ATOM     13  HN  UNL d   1      -3.231   3.255   0.053  1.00  0.00     0.205 HD
ATOM     14  C   UNL d   1      -1.451  -2.442  -0.038  0.00  0.00     0.014 A 
ATOM     15  C   UNL d   1       1.416   2.415  -0.016  0.00  0.00     0.014 A 
ATOM     16  C   UNL d   1       2.835   0.056  -0.007  0.00  0.00     0.013 A 
ATOM     17  C   UNL d   1       1.303  -2.532  -0.009  0.00  0.00     0.013 A 
ATOM     18  C   UNL d   1       0.574  -3.722  -0.004  0.00  0.00     0.001 A 
ATOM     19  C   UNL d   1      -0.808  -3.678  -0.018  0.00  0.00     0.001 A 
ATOM     20  C   UNL d   1       2.806   2.460  -0.005  0.00  0.00     0.001 A 
ATOM     21  C   UNL d   1       3.518   1.275   0.001  0.00  0.00     0.001 A 
ENDROOT
BRANCH   7  22
ATOM     22  N   UNL d   1      -4.806   1.218   0.017  0.00  0.00    -0.190 N 
ATOM     23  H   UNL d   1      -5.191   0.301  -0.149  0.00  0.00     0.184 HD
BRANCH  22  24
ATOM     24  C   UNL d   1      -5.675   2.216   0.479  0.00  0.00     0.049 A 
ATOM     25  C   UNL d   1      -6.951   2.339  -0.085  0.00  0.00     0.032 A 
ATOM     26  C   UNL d   1      -7.802   3.386   0.287  0.00  0.00     0.026 A 
ATOM     27  C   UNL d   1      -7.386   4.317   1.236  0.00  0.00     0.034 A 
ATOM     28  C   UNL d   1      -6.128   4.209   1.816  0.00  0.00     0.026 A 
ATOM     29 CL   UNL d   1      -8.423   5.614   1.685  0.00  0.00    -0.084 Cl
ATOM     30  C   UNL d   1      -5.277   3.171   1.428  0.00  0.00     0.032 A 
ENDBRANCH  22  24
ENDBRANCH   7  22
TORSDOF 2
