REMARK  12 active torsions:
REMARK  status: ('A' for Active; 'I' for Inactive)
REMARK    1  A    between atoms: C_1  and  O_7 
REMARK    2  A    between atoms: C_2  and  O_8 
REMARK    3  A    between atoms: C_3  and  O_9 
REMARK    4  A    between atoms: C_5  and  O_10 
REMARK    5  A    between atoms: C_12  and  O_7 
REMARK    6  A    between atoms: C_13  and  O_8 
REMARK    7  A    between atoms: C_14  and  O_9 
REMARK    8  A    between atoms: C_15  and  O_10 
REMARK    9  A    between atoms: C_16  and  C_12 
REMARK   10  A    between atoms: C_17  and  C_13 
REMARK   11  A    between atoms: C_18  and  C_14 
REMARK   12  A    between atoms: C_19  and  C_15 
ROOT
ATOM      1  C   UNL d   1       0.667   1.219  -0.238  0.00  0.00     0.209 C 
ATOM      2  C   UNL d   1       1.425  -0.065   0.201  0.00  0.00     0.191 C 
ATOM      3  C   UNL d   1       0.611  -1.307  -0.250  0.00  0.00     0.209 C 
ATOM      4  C   UNL d   1      -0.804  -1.179   0.278  0.00  0.00     0.072 C 
ATOM      5  C   UNL d   1      -0.769   1.180   0.372  0.00  0.00     0.297 C 
ATOM      6  O   UNL d   1      -1.484  -0.009  -0.029  0.00  0.00    -0.320 OA
ATOM      7  C   UNL d   1      -1.417  -2.118   1.009  0.00  0.00     0.049 C 
ENDROOT
BRANCH   1   8
ATOM      8  O   UNL d   1       0.689   1.349  -1.680  0.00  0.00    -0.374 OA
BRANCH   8   9
ATOM      9  C   UNL d   1       0.079   2.550  -2.158  0.00  0.00     0.207 C 
BRANCH   9  10
ATOM     10  C   UNL d   1       0.175   2.694  -3.658  0.00  0.00    -0.035 A 
ATOM     11  C   UNL d   1      -0.859   3.345  -4.355  0.00  0.00     0.009 A 
ATOM     12  C   UNL d   1      -0.786   3.526  -5.737  0.00  0.00     0.001 A 
ATOM     13  C   UNL d   1       0.323   3.067  -6.440  0.00  0.00     0.000 A 
ATOM     14  C   UNL d   1       1.361   2.432  -5.760  0.00  0.00     0.001 A 
ATOM     15  C   UNL d   1       1.292   2.253  -4.375  0.00  0.00     0.009 A 
ENDBRANCH   9  10
ENDBRANCH   8   9
ENDBRANCH   1   8
BRANCH   2  16
ATOM     16  O   UNL d   1       1.672  -0.011   1.627  0.00  0.00    -0.376 OA
BRANCH  16  17
ATOM     17  C   UNL d   1       2.370  -1.136   2.160  0.00  0.00     0.207 C 
BRANCH  17  18
ATOM     18  C   UNL d   1       2.561  -1.039   3.656  0.00  0.00    -0.035 A 
ATOM     19  C   UNL d   1       2.617  -2.219   4.421  0.00  0.00     0.009 A 
ATOM     20  C   UNL d   1       2.838  -2.170   5.798  0.00  0.00     0.001 A 
ATOM     21  C   UNL d   1       3.014  -0.941   6.429  0.00  0.00     0.000 A 
ATOM     22  C   UNL d   1       2.964   0.235   5.683  0.00  0.00     0.001 A 
ATOM     23  C   UNL d   1       2.744   0.186   4.304  0.00  0.00     0.009 A 
ENDBRANCH  17  18
ENDBRANCH  16  17
ENDBRANCH   2  16
BRANCH   5  24
ATOM     24  O   UNL d   1      -0.800   1.314   1.796  0.00  0.00    -0.354 OA
BRANCH  24  25
ATOM     25  C   UNL d   1      -0.334   2.574   2.268  0.00  0.00     0.209 C 
BRANCH  25  26
ATOM     26  C   UNL d   1      -0.342   2.631   3.776  0.00  0.00    -0.035 A 
ATOM     27  C   UNL d   1      -0.847   1.581   4.552  0.00  0.00     0.009 A 
ATOM     28  C   UNL d   1      -0.796   1.641   5.942  0.00  0.00     0.001 A 
ATOM     29  C   UNL d   1      -0.243   2.752   6.574  0.00  0.00     0.000 A 
ATOM     30  C   UNL d   1       0.257   3.806   5.814  0.00  0.00     0.001 A 
ATOM     31  C   UNL d   1       0.206   3.750   4.420  0.00  0.00     0.009 A 
ENDBRANCH  25  26
ENDBRANCH  24  25
ENDBRANCH   5  24
BRANCH   3  32
ATOM     32  O   UNL d   1       0.533  -1.458  -1.673  0.00  0.00    -0.372 OA
BRANCH  32  33
ATOM     33  C   UNL d   1       1.793  -1.717  -2.289  0.00  0.00     0.207 C 
BRANCH  33  34
ATOM     34  C   UNL d   1       1.646  -1.897  -3.777  0.00  0.00    -0.035 A 
ATOM     35  C   UNL d   1       0.639  -1.236  -4.492  0.00  0.00     0.009 A 
ATOM     36  C   UNL d   1       0.568  -1.340  -5.880  0.00  0.00     0.001 A 
ATOM     37  C   UNL d   1       1.507  -2.103  -6.571  0.00  0.00     0.000 A 
ATOM     38  C   UNL d   1       2.521  -2.757  -5.873  0.00  0.00     0.001 A 
ATOM     39  C   UNL d   1       2.595  -2.650  -4.484  0.00  0.00     0.009 A 
ENDBRANCH  33  34
ENDBRANCH  32  33
ENDBRANCH   3  32
TORSDOF 12
