REMARK  5 active torsions:
REMARK  status: ('A' for Active; 'I' for Inactive)
REMARK    1  A    between atoms: C_4  and  C_1 
REMARK    2  A    between atoms: O_12  and  C_2 
REMARK    3  A    between atoms: O_11  and  C_4 
REMARK    4  A    between atoms: C_9  and  O_12 
REMARK    5  A    between atoms: C_16  and  O_11 
ROOT
ATOM      1  C   UNL d   1      -0.530   2.521  -0.089  0.00  0.00     0.322 C 
ATOM      2  O   UNL d   1       0.193   3.508  -0.123  0.00  0.00    -0.257 OA
ENDROOT
BRANCH   1   3
ATOM      3  C   UNL d   1      -0.038   1.163  -0.065  0.00  0.00     0.153 A 
ATOM      4  O   UNL d   1      -0.791   0.121  -0.541  0.00  0.00    -0.281 OA
ATOM      5  C   UNL d   1      -0.025  -1.005  -0.441  0.00  0.00     0.191 A 
ATOM      6  C   UNL d   1       1.170  -0.713   0.183  0.00  0.00     0.067 A 
ATOM      7  C   UNL d   1       1.182   0.685   0.380  0.00  0.00     0.048 A 
BRANCH   5   8
ATOM      8  O   UNL d   1      -0.590  -2.097  -0.952  0.00  0.00    -0.288 OA
BRANCH   8   9
ATOM      9  C   UNL d   1       0.177  -3.163  -1.366  0.00  0.00     0.081 A 
ATOM     10  C   UNL d   1      -0.345  -4.440  -1.156  0.00  0.00     0.061 A 
ATOM     11  C   UNL d   1       0.368  -5.559  -1.591  0.00  0.00     0.038 A 
ATOM     12 CL   UNL d   1      -0.277  -7.134  -1.336  0.00  0.00    -0.084 Cl
ATOM     13  C   UNL d   1       1.595  -5.417  -2.236  0.00  0.00     0.048 A 
ATOM     14  C   UNL d   1       2.099  -4.139  -2.459  0.00  0.00     0.038 A 
ATOM     15  C   UNL d   1       1.391  -3.012  -2.044  0.00  0.00     0.061 A 
ATOM     16 CL   UNL d   1       3.609  -3.946  -3.260  0.00  0.00    -0.084 Cl
ENDBRANCH   8   9
ENDBRANCH   5   8
ENDBRANCH   1   3
BRANCH   1  17
ATOM     17  O   UNL d   1      -1.922   2.536   0.033  0.00  0.00    -0.273 OA
BRANCH  17  18
ATOM     18  C   UNL d   1      -2.623   3.663   0.528  0.00  0.00     0.080 A 
ATOM     19  C   UNL d   1      -4.010   3.638   0.372  0.00  0.00     0.051 A 
ATOM     20  C   UNL d   1      -4.808   4.626   0.984  0.00  0.00    -0.007 A 
ATOM     21  C   UNL d   1      -6.206   4.618   0.899  0.00  0.00     0.016 A 
ATOM     22  C   UNL d   1      -4.210   5.653   1.744  0.00  0.00     0.042 A 
ATOM     23  C   UNL d   1      -6.948   5.579   1.579  0.00  0.00     0.025 A 
ATOM     24  C   UNL d   1      -6.274   6.535   2.326  0.00  0.00     0.005 A 
ATOM     25  N   UNL d   1      -4.924   6.587   2.394  0.00  0.00    -0.359 N 
ATOM     26  C   UNL d   1      -7.035   7.555   3.119  0.00  0.00     0.068 C 
ATOM     27  HN  UNL d   1      -4.457   7.320   2.928  1.00  0.00     0.166 HD
ATOM     28  C   UNL d   1      -2.828   5.675   1.845  0.00  0.00     0.033 A 
ATOM     29  C   UNL d   1      -2.029   4.687   1.260  0.00  0.00     0.039 A 
ENDBRANCH  17  18
ENDBRANCH   1  17
TORSDOF 5
