REMARK  8 active torsions:
REMARK  status: ('A' for Active; 'I' for Inactive)
REMARK    1  A    between atoms: N_7  and  C_1 
REMARK    2  A    between atoms: C_11  and  C_2 
REMARK    3  A    between atoms: C_16  and  C_5 
REMARK    4  A    between atoms: C_6  and  S_12 
REMARK       I    between atoms: C_13  and  N_7 
REMARK    5  A    between atoms: O_20  and  C_11 
REMARK    6  A    between atoms: S_12  and  C_19 
REMARK    7  A    between atoms: C_19  and  C_13 
REMARK    8  A    between atoms: C_24  and  O_20 
ROOT
ATOM      1  C   UNL d   1       0.416   1.323   0.202  0.00  0.00     0.093 A 
ATOM      2  C   UNL d   1       1.659   0.743   0.022  0.00  0.00     0.074 A 
ATOM      3  S   UNL d   1      -0.850   0.179   0.166  0.00  0.00    -0.071 SA
ATOM      4  C   UNL d   1       1.521  -0.689  -0.074  0.00  0.00     0.040 A 
ATOM      5  C   UNL d   1       0.220  -1.146   0.007  0.00  0.00     0.018 A 
ENDROOT
BRANCH   1   6
ATOM      6  N   UNL d   1       0.066   2.661   0.289  0.00  0.00    -0.320 N 
ATOM      7  C   UNL d   1      -0.925   3.118   1.151  0.00  0.00     0.232 C 
ATOM      8  O   UNL d   1      -1.406   2.453   2.072  0.00  0.00    -0.272 OA
ATOM      9  H   UNL d   1       0.745   3.345  -0.023  0.00  0.00     0.169 HD
BRANCH   7  10
ATOM     10  C   UNL d   1      -1.256   4.598   1.042  0.00  0.00     0.185 C 
BRANCH  10  11
ATOM     11  S   UNL d   1      -1.106   5.272  -0.634  0.00  0.00    -0.084 SA
BRANCH  11  12
ATOM     12  C   UNL d   1      -2.514   4.615  -1.401  0.00  0.00     0.146 A 
ATOM     13  N   UNL d   1      -2.787   4.784  -2.732  0.00  0.00    -0.341 N 
ATOM     14  C   UNL d   1      -3.998   4.188  -2.980  0.00  0.00     0.109 A 
ATOM     15  C   UNL d   1      -1.996   5.454  -3.735  0.00  0.00     0.158 C 
ATOM     16  C   UNL d   1      -4.386   3.654  -1.774  0.00  0.00     0.107 A 
ATOM     17  N   UNL d   1      -3.458   3.929  -0.800  0.00  0.00    -0.345 N 
ATOM     18  HN  UNL d   1      -3.495   3.657   0.182  1.00  0.00     0.167 HD
ENDBRANCH  11  12
ENDBRANCH  10  11
ENDBRANCH   7  10
ENDBRANCH   1   6
BRANCH   2  19
ATOM     19  C   UNL d   1       2.963   1.409   0.041  0.00  0.00     0.296 C 
ATOM     20  O   UNL d   1       4.010   0.804  -0.187  0.00  0.00    -0.259 OA
BRANCH  19  21
ATOM     21  O   UNL d   1       2.911   2.715   0.428  0.00  0.00    -0.318 OA
BRANCH  21  22
ATOM     22  C   UNL d   1       4.141   3.235   0.962  0.00  0.00     0.174 C 
ATOM     23  C   UNL d   1       4.895   4.063  -0.060  0.00  0.00     0.034 C 
ENDBRANCH  21  22
ENDBRANCH  19  21
ENDBRANCH   2  19
BRANCH   5  24
ATOM     24  C   UNL d   1      -0.273  -2.536  -0.046  0.00  0.00    -0.019 A 
ATOM     25  C   UNL d   1       0.471  -3.511  -0.732  0.00  0.00     0.013 A 
ATOM     26  C   UNL d   1       0.047  -4.841  -0.784  0.00  0.00     0.001 A 
ATOM     27  C   UNL d   1      -1.133  -5.222  -0.153  0.00  0.00     0.000 A 
ATOM     28  C   UNL d   1      -1.887  -4.273   0.532  0.00  0.00     0.001 A 
ATOM     29  C   UNL d   1      -1.459  -2.942   0.588  0.00  0.00     0.013 A 
ENDBRANCH   5  24
TORSDOF 8
