REMARK  7 active torsions:
REMARK  status: ('A' for Active; 'I' for Inactive)
REMARK    1  A    between atoms: C_3  and  S_1 
REMARK    2  A    between atoms: N_9  and  S_1 
REMARK    3  A    between atoms: S_2  and  N_4 
REMARK    4  A    between atoms: C_10  and  S_2 
REMARK    5  A    between atoms: N_4  and  C_13 
REMARK    6  A    between atoms: C_17  and  C_10 
REMARK    7  A    between atoms: C_13  and  C_14 
ROOT
ATOM      1  C   UNL d   1      -0.307  -2.251   5.502  0.00  0.00     0.142 C 
ENDROOT
BRANCH   1   2
ATOM      2  N   UNL d   1      -0.486  -3.727   5.584  0.00  0.00    -0.215 NA
ATOM      3  H   UNL d   1      -1.242  -4.007   4.956  0.00  0.00     0.140 HD
BRANCH   2   4
ATOM      4  S   UNL d   1      -0.869  -4.225   7.176  0.00  0.00     0.213 S 
ATOM      5  O   UNL d   1       0.181  -3.722   8.035  0.00  0.00    -0.211 OA
ATOM      6  O   UNL d   1      -2.252  -3.841   7.352  0.00  0.00    -0.211 OA
BRANCH   4   7
ATOM      7  C   UNL d   1      -0.742  -6.013   7.037  0.00  0.00     0.195 C 
BRANCH   7   8
ATOM      8  C   UNL d   1      -1.117  -6.651   8.352  0.00  0.00    -0.043 A 
ATOM      9  C   UNL d   1      -2.459  -6.920   8.662  0.00  0.00     0.008 A 
ATOM     10  C   UNL d   1      -2.802  -7.541   9.866  0.00  0.00     0.001 A 
ATOM     11  C   UNL d   1      -1.808  -7.897  10.775  0.00  0.00     0.000 A 
ATOM     12  C   UNL d   1      -0.474  -7.619  10.488  0.00  0.00     0.001 A 
ATOM     13  C   UNL d   1      -0.129  -6.997   9.286  0.00  0.00     0.008 A 
ENDBRANCH   7   8
ENDBRANCH   4   7
ENDBRANCH   2   4
ENDBRANCH   1   2
BRANCH   1  14
ATOM     14  C   UNL d   1      -0.015  -1.746   4.102  0.00  0.00    -0.044 A 
ATOM     15  C   UNL d   1      -0.472  -0.470   3.721  0.00  0.00     0.010 A 
ATOM     16  C   UNL d   1      -0.170   0.057   2.462  0.00  0.00     0.025 A 
ATOM     17  C   UNL d   1       0.599  -0.697   1.574  0.00  0.00     0.074 A 
ATOM     18  C   UNL d   1       1.079  -1.956   1.941  0.00  0.00     0.025 A 
ATOM     19  C   UNL d   1       0.779  -2.473   3.204  0.00  0.00     0.010 A 
BRANCH  17  20
ATOM     20  S   UNL d   1       0.954  -0.056  -0.036  0.00  0.00     0.239 S 
ATOM     21  O   UNL d   1       1.611  -1.074  -0.825  0.00  0.00    -0.206 OA
ATOM     22  O   UNL d   1       1.469   1.283   0.098  0.00  0.00    -0.206 OA
BRANCH  20  23
ATOM     23  N   UNL d   1      -0.582   0.089  -0.701  0.00  0.00    -0.225 NA
ATOM     24  H   UNL d   1      -0.749  -0.666  -1.367  0.00  0.00     0.136 HD
ATOM     25  H   UNL d   1      -0.686   1.021  -1.109  0.00  0.00     0.136 HD
ENDBRANCH  20  23
ENDBRANCH  17  20
ENDBRANCH   1  14
TORSDOF 7
