REMARK  1 active torsions:
REMARK  status: ('A' for Active; 'I' for Inactive)
REMARK    1  A    between atoms: O_11  and  C_7 
ROOT
ATOM      1  N   UNL d   1      -0.105  -1.086   0.001  0.00  0.00    -0.277 N 
ATOM      2  C   UNL d   1      -0.667  -2.371   0.001  0.00  0.00     0.255 A 
ATOM      3  C   UNL d   1      -0.906   0.039  -0.000  0.00  0.00     0.067 A 
ATOM      4  C   UNL d   1      -2.158  -2.391  -0.001  0.00  0.00     0.112 A 
ATOM      5  C   UNL d   1       1.228  -0.696   0.002  0.00  0.00     0.054 A 
ATOM      6  C   UNL d   1      -0.104   1.165   0.000  0.00  0.00     0.005 A 
ATOM      7  C   UNL d   1      -2.915  -1.280  -0.002  0.00  0.00     0.083 A 
ATOM      8  C   UNL d   1      -2.304   0.056  -0.002  0.00  0.00     0.025 A 
ATOM      9  C   UNL d   1       1.248   0.706   0.001  0.00  0.00     0.004 A 
ATOM     10  O   UNL d   1       0.027  -3.377   0.003  0.00  0.00    -0.268 OA
ATOM     11  C   UNL d   1      -0.734   2.423  -0.000  0.00  0.00     0.014 A 
ATOM     12  C   UNL d   1       2.414  -1.450   0.002  0.00  0.00     0.031 A 
ATOM     13  C   UNL d   1      -2.910   1.316  -0.002  0.00  0.00     0.016 A 
ATOM     14  C   UNL d   1       2.495   1.368   0.001  0.00  0.00     0.014 A 
ATOM     15  C   UNL d   1      -2.136   2.482  -0.002  0.00  0.00     0.002 A 
ATOM     16  C   UNL d   1       3.634  -0.768   0.001  0.00  0.00     0.002 A 
ATOM     17  C   UNL d   1       3.677   0.622   0.001  0.00  0.00     0.001 A 
ENDROOT
BRANCH   7  18
ATOM     18  O   UNL d   1      -4.289  -1.395  -0.005  0.00  0.00    -0.360 OA
ATOM     19  H   UNL d   1      -4.691  -0.513  -0.011  0.00  0.00     0.217 HD
ENDBRANCH   7  18
TORSDOF 1
