REMARK  6 active torsions:
REMARK  status: ('A' for Active; 'I' for Inactive)
REMARK    1  A    between atoms: N_6  and  C_1 
REMARK       I    between atoms: C_8  and  N_6 
REMARK    2  A    between atoms: C_11  and  C_7 
REMARK       I    between atoms: N_9  and  C_8 
REMARK    3  A    between atoms: C_12  and  N_9 
REMARK    4  A    between atoms: O_13  and  C_14 
REMARK    5  A    between atoms: C_16  and  O_13 
REMARK    6  A    between atoms: C_21  and  C_16 
ROOT
ATOM      1  N   UNL d   1      -1.962  -4.067   0.168  0.00  0.00    -0.293 N 
ATOM      2  C   UNL d   1      -1.780  -2.736  -0.309  0.00  0.00     0.326 C 
ATOM      3  N   UNL d   1      -2.893  -1.956  -0.449  0.00  0.00    -0.309 N 
ATOM      4  O   UNL d   1      -0.621  -2.463  -0.547  0.00  0.00    -0.247 OA
ATOM      5  H   UNL d   1      -1.085  -4.574   0.106  0.00  0.00     0.172 HD
ATOM      6  H   UNL d   1      -3.788  -2.369  -0.267  0.00  0.00     0.170 HD
ENDROOT
BRANCH   1   7
ATOM      7  C   UNL d   1      -3.057  -4.748   0.672  0.00  0.00     0.127 C 
ATOM      8  C   UNL d   1      -4.282  -4.293   1.116  0.00  0.00     0.082 C 
ATOM      9  C   UNL d   1      -5.073  -5.461   1.329  0.00  0.00     0.062 C 
ATOM     10  N   UNL d   1      -4.323  -6.561   1.188  0.00  0.00    -0.296 N 
ATOM     11  N   UNL d   1      -3.109  -6.112   0.860  0.00  0.00    -0.281 N 
ATOM     12  HN  UNL d   1      -4.616  -7.531   1.305  1.00  0.00     0.187 HD
ATOM     13  C   UNL d   1      -2.062  -7.080   0.636  0.00  0.00     0.179 C 
BRANCH   9  14
ATOM     14  C   UNL d   1      -6.507  -5.567   1.588  0.00  0.00    -0.008 A 
ATOM     15  C   UNL d   1      -7.208  -6.681   1.097  0.00  0.00     0.014 A 
ATOM     16  C   UNL d   1      -8.584  -6.803   1.284  0.00  0.00     0.001 A 
ATOM     17  C   UNL d   1      -9.276  -5.812   1.974  0.00  0.00     0.000 A 
ATOM     18  C   UNL d   1      -8.594  -4.703   2.473  0.00  0.00     0.001 A 
ATOM     19  C   UNL d   1      -7.213  -4.574   2.279  0.00  0.00     0.014 A 
ENDBRANCH   9  14
ENDBRANCH   1   7
BRANCH   3  20
ATOM     20  C   UNL d   1      -2.885  -0.556  -0.642  0.00  0.00     0.036 C 
ATOM     21  C   UNL d   1      -1.762   0.172  -1.043  0.00  0.00     0.032 C 
ATOM     22  C   UNL d   1      -1.756   1.570  -0.955  0.00  0.00     0.039 C 
ATOM     23  C   UNL d   1      -2.863   2.243  -0.447  0.00  0.00     0.069 C 
ATOM     24  C   UNL d   1      -4.043   1.535  -0.221  0.00  0.00     0.039 C 
ATOM     25  C   UNL d   1      -4.056   0.140  -0.321  0.00  0.00     0.032 C 
BRANCH  23  26
ATOM     26  O   UNL d   1      -2.695   3.575  -0.165  0.00  0.00    -0.347 OA
BRANCH  26  27
ATOM     27  C   UNL d   1      -3.426   4.007   0.993  0.00  0.00     0.214 C 
BRANCH  27  28
ATOM     28  C   UNL d   1      -2.755   5.136   1.744  0.00  0.00    -0.034 A 
ATOM     29  C   UNL d   1      -3.547   6.011   2.508  0.00  0.00     0.009 A 
ATOM     30  C   UNL d   1      -2.962   6.998   3.303  0.00  0.00     0.001 A 
ATOM     31  C   UNL d   1      -1.576   7.119   3.353  0.00  0.00     0.000 A 
ATOM     32  C   UNL d   1      -0.777   6.252   2.609  0.00  0.00     0.001 A 
ATOM     33  C   UNL d   1      -1.361   5.262   1.814  0.00  0.00     0.009 A 
ENDBRANCH  27  28
ENDBRANCH  26  27
ENDBRANCH  23  26
ENDBRANCH   3  20
TORSDOF 6
