REMARK  4 active torsions:
REMARK  status: ('A' for Active; 'I' for Inactive)
REMARK    1  A    between atoms: C_4  and  N_1 
REMARK    2  A    between atoms: S_12  and  C_4 
REMARK    3  A    between atoms: C_6  and  C_13 
REMARK    4  A    between atoms: C_13  and  N_7 
ROOT
ATOM      1  N   UNL d   1       1.081   0.165   0.139  0.00  0.00    -0.274 N 
ATOM      2  HN  UNL d   1       0.595  -0.369   0.860  1.00  0.00     0.180 HD
ATOM      3  C   UNL d   1       0.430   1.115  -0.534  0.00  0.00     0.183 C 
ATOM      4  N   UNL d   1      -0.163   1.931  -1.109  0.00  0.00    -0.172 NA
ENDROOT
BRANCH   1   5
ATOM      5  C   UNL d   1       2.326  -0.083  -0.117  0.00  0.00     0.149 C 
ATOM      6  N   UNL d   1       3.054  -0.989   0.596  0.00  0.00    -0.364 N 
ATOM      7  H   UNL d   1       4.005  -1.164   0.290  0.00  0.00     0.162 HD
BRANCH   6   8
ATOM      8  C   UNL d   1       2.441  -2.054   1.362  0.00  0.00     0.186 C 
BRANCH   8   9
ATOM      9  C   UNL d   1       3.414  -2.918   2.087  0.00  0.00     0.070 A 
ATOM     10  O   UNL d   1       4.370  -3.531   1.329  0.00  0.00    -0.325 OA
ATOM     11  C   UNL d   1       5.127  -4.277   2.176  0.00  0.00     0.142 A 
ATOM     12  C   UNL d   1       4.675  -4.147   3.468  0.00  0.00     0.027 A 
ATOM     13  C   UNL d   1       3.567  -3.267   3.413  0.00  0.00     0.036 A 
ENDBRANCH   8   9
ENDBRANCH   6   8
BRANCH   5  14
ATOM     14  S   UNL d   1       3.281   0.699  -1.369  0.00  0.00    -0.098 SA
ATOM     15  C   UNL d   1       2.807  -0.322  -2.787  0.00  0.00     0.099 C 
ENDBRANCH   5  14
ENDBRANCH   1   5
TORSDOF 4
