REMARK  1 active torsions:
REMARK  status: ('A' for Active; 'I' for Inactive)
REMARK       I    between atoms: C_4  and  N_5 
REMARK    1  A    between atoms: N_5  and  C_8 
ROOT
ATOM      1  C   UNL d   1      -0.401   0.351   0.002  0.00  0.00     0.085 A 
ATOM      2  N   UNL d   1      -2.988   0.480   0.005  0.00  0.00    -0.191 NA
ATOM      3  C   UNL d   1      -1.829   0.409   0.004  0.00  0.00     0.102 C 
ATOM      4  C   UNL d   1       0.253  -0.876  -0.006  0.00  0.00     0.137 A 
ATOM      5  C   UNL d   1       0.350   1.534   0.010  0.00  0.00     0.055 A 
ATOM      6  C   UNL d   1       1.748   1.493   0.010  0.00  0.00     0.036 A 
ATOM      7  C   UNL d   1       1.642  -0.938  -0.006  0.00  0.00     0.046 A 
ATOM      8  C   UNL d   1       2.388   0.244   0.002  0.00  0.00     0.032 A 
ATOM      9  F   UNL d   1      -0.444  -2.022  -0.013  0.00  0.00    -0.204 F 
ENDROOT
BRANCH   6  10
ATOM     10  N   UNL d   1       2.566   2.644   0.020  0.00  0.00    -0.327 N 
ATOM     11  C   UNL d   1       2.147   3.963   0.030  0.00  0.00     0.218 C 
ATOM     12  O   UNL d   1       0.986   4.359   0.031  0.00  0.00    -0.274 OA
ATOM     13  C   UNL d   1       3.281   4.957   0.042  0.00  0.00     0.117 C 
ATOM     14  H   UNL d   1       3.565   2.481   0.020  0.00  0.00     0.169 HD
ENDBRANCH   6  10
TORSDOF 1
