REMARK  2 active torsions:
REMARK  status: ('A' for Active; 'I' for Inactive)
REMARK    1  A    between atoms: C_7  and  C_2 
REMARK    2  A    between atoms: C_8  and  N_3 
REMARK       I    between atoms: N_13  and  C_7 
ROOT
ATOM      1  C   UNL d   1       0.987  -0.814  -0.094  0.00  0.00     0.138 A 
ATOM      2  C   UNL d   1      -0.337  -1.218  -0.013  0.00  0.00     0.093 A 
ATOM      3  N   UNL d   1       0.993   0.578   0.055  0.00  0.00    -0.240 N 
ATOM      4  N   UNL d   1      -0.254   1.046   0.342  0.00  0.00    -0.302 N 
ATOM      5  HN  UNL d   1      -0.523   1.998   0.590  1.00  0.00     0.186 HD
ATOM      6  C   UNL d   1      -1.042  -0.021   0.224  0.00  0.00     0.128 A 
ATOM      7  N   UNL d   1       2.103  -1.586  -0.220  0.00  0.00    -0.383 N 
ATOM      8  H   UNL d   1       1.969  -2.601  -0.154  0.00  0.00     0.157 HD
ATOM      9  H   UNL d   1       2.971  -1.297   0.227  0.00  0.00     0.157 HD
ENDROOT
BRANCH   3  10
ATOM     10  C   UNL d   1       2.084   1.490  -0.043  0.00  0.00     0.058 A 
ATOM     11  C   UNL d   1       3.217   1.188  -0.813  0.00  0.00     0.034 A 
ATOM     12  C   UNL d   1       4.278   2.094  -0.880  0.00  0.00     0.044 A 
ATOM     13  C   UNL d   1       4.206   3.292  -0.179  0.00  0.00     0.116 A 
ATOM     14  C   UNL d   1       3.083   3.615   0.574  0.00  0.00     0.044 A 
ATOM     15  F   UNL d   1       5.231   4.152  -0.237  0.00  0.00    -0.206 F 
ATOM     16  C   UNL d   1       2.011   2.721   0.630  0.00  0.00     0.034 A 
ENDBRANCH   3  10
BRANCH   2  17
ATOM     17  C   UNL d   1      -0.812  -2.586  -0.095  0.00  0.00     0.254 C 
ATOM     18  O   UNL d   1      -0.070  -3.556  -0.226  0.00  0.00    -0.268 OA
ATOM     19  N   UNL d   1      -2.160  -2.773   0.007  0.00  0.00    -0.366 N 
ATOM     20  H   UNL d   1      -2.832  -2.034   0.145  0.00  0.00     0.159 HD
ATOM     21  H   UNL d   1      -2.490  -3.727  -0.018  0.00  0.00     0.159 HD
ENDBRANCH   2  17
TORSDOF 2
