REMARK  1 active torsions:
REMARK  status: ('A' for Active; 'I' for Inactive)
REMARK    1  A    between atoms: C_12  and  C_4 
ROOT
ATOM      1  C   UNL d   1       1.343   0.822  -0.021  0.00  0.00     0.006 A 
ATOM      2  C   UNL d   1       0.736  -0.376  -0.026  0.00  0.00     0.057 A 
ATOM      3  C   UNL d   1       3.566  -0.233  -0.007  0.00  0.00     0.124 A 
ATOM      4  C   UNL d   1       2.819   0.899  -0.013  0.00  0.00     0.011 A 
ATOM      5  N   UNL d   1       1.496  -1.518  -0.024  0.00  0.00    -0.321 N 
ATOM      6  C   UNL d   1       2.867  -1.547  -0.012  0.00  0.00     0.267 A 
ATOM      7  C   UNL d   1      -0.736  -0.428  -0.020  0.00  0.00     0.025 A 
ATOM      8  C   UNL d   1       0.550   2.106  -0.013  0.00  0.00     0.217 A 
ATOM      9  C   UNL d   1       4.995  -0.250   0.004  0.00  0.00     0.106 C 
ATOM     10  O   UNL d   1      -0.874   2.009  -0.110  0.00  0.00    -0.346 OA
ATOM     11  N   UNL d   1       6.156  -0.218   0.014  0.00  0.00    -0.191 NA
ATOM     12  C   UNL d   1      -1.451   0.775  -0.054  0.00  0.00     0.081 A 
ATOM     13  O   UNL d   1       3.471  -2.615  -0.004  0.00  0.00    -0.266 OA
ATOM     14  C   UNL d   1      -1.472  -1.626   0.017  0.00  0.00     0.016 A 
ATOM     15  C   UNL d   1      -2.852   0.783  -0.050  0.00  0.00     0.038 A 
ATOM     16  C   UNL d   1      -2.873  -1.616   0.023  0.00  0.00     0.001 A 
ATOM     17  C   UNL d   1      -3.564  -0.411  -0.009  0.00  0.00     0.003 A 
ATOM     18  H   UNL d   1       1.063  -2.431  -0.028  0.00  0.00     0.169 HD
ENDROOT
BRANCH   4  19
ATOM     19  C   UNL d   1       3.536   2.196  -0.006  0.00  0.00    -0.023 A 
ATOM     20  C   UNL d   1       3.917   2.794  -1.217  0.00  0.00     0.015 A 
ATOM     21  C   UNL d   1       4.651   3.981  -1.207  0.00  0.00     0.043 A 
ATOM     22  C   UNL d   1       4.992   4.566   0.007  0.00  0.00     0.116 A 
ATOM     23  C   UNL d   1       4.603   3.995   1.214  0.00  0.00     0.043 A 
ATOM     24  F   UNL d   1       5.709   5.697   0.015  0.00  0.00    -0.206 F 
ATOM     25  C   UNL d   1       3.870   2.808   1.210  0.00  0.00     0.015 A 
ENDBRANCH   4  19
TORSDOF 1
