REMARK  5 active torsions:
REMARK  status: ('A' for Active; 'I' for Inactive)
REMARK    1  A    between atoms: C_9  and  N_1 
REMARK    2  A    between atoms: C_10  and  C_2 
REMARK    3  A    between atoms: S_14  and  C_5 
REMARK    4  A    between atoms: C_8  and  C_12 
REMARK    5  A    between atoms: C_11  and  C_9 
ROOT
ATOM      1  N   UNL d   1      -0.185  -1.236  -0.086  0.00  0.00    -0.305 N 
ATOM      2  C   UNL d   1       1.020  -0.552  -0.172  0.00  0.00     0.135 A 
ATOM      3  N   UNL d   1       0.753   0.743  -0.137  0.00  0.00    -0.283 N 
ATOM      4  HN  UNL d   1       1.446   1.491  -0.168  1.00  0.00     0.188 HD
ATOM      5  C   UNL d   1      -1.155  -0.267  -0.022  0.00  0.00     0.160 A 
ATOM      6  N   UNL d   1      -0.603   0.919  -0.053  0.00  0.00    -0.278 N 
ATOM      7  HN  UNL d   1      -1.093   1.813  -0.021  1.00  0.00     0.189 HD
ENDROOT
BRANCH   2   8
ATOM      8  C   UNL d   1       2.379  -1.107  -0.198  0.00  0.00     0.009 A 
ATOM      9  C   UNL d   1       2.720  -2.281  -0.879  0.00  0.00     0.016 A 
ATOM     10  C   UNL d   1       4.020  -2.797  -0.820  0.00  0.00     0.017 A 
ATOM     11  C   UNL d   1       5.025  -2.129  -0.105  0.00  0.00     0.048 A 
ATOM     12  C   UNL d   1       4.708  -0.919   0.521  0.00  0.00     0.017 A 
ATOM     13  C   UNL d   1       3.402  -0.417   0.474  0.00  0.00     0.016 A 
BRANCH  11  14
ATOM     14  C   UNL d   1       6.408  -2.725  -0.020  0.00  0.00     0.417 C 
ATOM     15  F   UNL d   1       7.292  -1.959   0.680  0.00  0.00    -0.166 F 
ATOM     16  F   UNL d   1       6.410  -3.944   0.588  0.00  0.00    -0.166 F 
ATOM     17  F   UNL d   1       6.971  -2.919  -1.245  0.00  0.00    -0.166 F 
ENDBRANCH  11  14
ENDBRANCH   2   8
BRANCH   1  18
ATOM     18  C   UNL d   1      -0.373  -2.664   0.065  0.00  0.00     0.198 C 
BRANCH  18  19
ATOM     19  C   UNL d   1      -0.627  -3.337  -1.238  0.00  0.00     0.070 A 
ATOM     20  O   UNL d   1      -0.275  -4.656  -1.291  0.00  0.00    -0.325 OA
ATOM     21  C   UNL d   1      -0.565  -5.102  -2.540  0.00  0.00     0.142 A 
ATOM     22  C   UNL d   1      -1.102  -4.090  -3.298  0.00  0.00     0.027 A 
ATOM     23  C   UNL d   1      -1.144  -2.949  -2.459  0.00  0.00     0.036 A 
ENDBRANCH  18  19
ENDBRANCH   1  18
BRANCH   5  24
ATOM     24  S   UNL d   1      -2.860  -0.537   0.101  0.00  0.00    -0.105 SA
ATOM     25  H   UNL d   1      -2.931  -1.844  -0.179  0.00  0.00     0.110 HD
ENDBRANCH   5  24
TORSDOF 5
