REMARK  5 active torsions:
REMARK  status: ('A' for Active; 'I' for Inactive)
REMARK    1  A    between atoms: N_6  and  C_1 
REMARK    2  A    between atoms: C_2  and  C_3 
REMARK       I    between atoms: C_9  and  N_7 
REMARK    3  A    between atoms: C_16  and  C_9 
REMARK    4  A    between atoms: O_21  and  C_16 
REMARK    5  A    between atoms: C_23  and  O_21 
ROOT
ATOM      1  N   UNL d   1       0.735   2.203   0.116  0.00  0.00    -0.363 N 
ATOM      2  N   UNL d   1       2.333   4.556  -0.157  0.00  0.00    -0.347 N 
ATOM      3  C   UNL d   1       3.148   5.663  -0.355  0.00  0.00     0.244 C 
ATOM      4  C   UNL d   1       1.408   2.452  -1.173  0.00  0.00     0.144 C 
ATOM      5  C   UNL d   1       0.271   3.458   0.737  0.00  0.00     0.144 C 
ATOM      6  C   UNL d   1       2.646   3.335  -0.921  0.00  0.00     0.145 C 
ATOM      7  C   UNL d   1       1.505   4.336   1.044  0.00  0.00     0.145 C 
ATOM      8  O   UNL d   1       4.021   5.677  -1.230  0.00  0.00    -0.271 OA
ENDROOT
BRANCH   1   9
ATOM      9  C   UNL d   1      -0.137   1.115   0.144  0.00  0.00     0.125 A 
ATOM     10  N   UNL d   1      -0.583   0.622  -1.039  0.00  0.00    -0.350 N 
ATOM     11  C   UNL d   1      -1.308  -0.525  -1.045  0.00  0.00     0.106 A 
ATOM     12  HN  UNL d   1      -0.376   1.107  -1.912  1.00  0.00     0.166 HD
ATOM     13  C   UNL d   1      -1.637  -1.240   0.092  0.00  0.00     0.065 A 
ATOM     14  C   UNL d   1      -1.210  -0.722   1.314  0.00  0.00     0.045 A 
ATOM     15  C   UNL d   1      -0.451   0.452   1.347  0.00  0.00     0.078 A 
ATOM     16 CL   UNL d   1       0.166   0.936   2.891  0.00  0.00    -0.080 Cl
BRANCH  13  17
ATOM     17  C   UNL d   1      -2.380  -2.534  -0.018  0.00  0.00     0.418 C 
ATOM     18  F   UNL d   1      -2.617  -3.126   1.184  0.00  0.00    -0.166 F 
ATOM     19  F   UNL d   1      -3.595  -2.391  -0.611  0.00  0.00    -0.166 F 
ATOM     20  F   UNL d   1      -1.706  -3.456  -0.760  0.00  0.00    -0.166 F 
ENDBRANCH  13  17
ENDBRANCH   1   9
BRANCH   3  21
ATOM     21  C   UNL d   1       2.903   6.914   0.488  0.00  0.00     0.278 C 
BRANCH  21  22
ATOM     22  O   UNL d   1       3.540   6.796   1.753  0.00  0.00    -0.342 OA
BRANCH  22  23
ATOM     23  C   UNL d   1       3.614   7.947   2.494  0.00  0.00     0.069 A 
ATOM     24  C   UNL d   1       2.816   9.079   2.314  0.00  0.00     0.037 A 
ATOM     25  C   UNL d   1       2.969  10.189   3.150  0.00  0.00     0.003 A 
ATOM     26  C   UNL d   1       3.917  10.174   4.170  0.00  0.00     0.000 A 
ATOM     27  C   UNL d   1       4.715   9.048   4.356  0.00  0.00     0.003 A 
ATOM     28  C   UNL d   1       4.560   7.937   3.522  0.00  0.00     0.037 A 
ENDBRANCH  22  23
ENDBRANCH  21  22
ENDBRANCH   3  21
TORSDOF 5
