REMARK  4 active torsions:
REMARK  status: ('A' for Active; 'I' for Inactive)
REMARK    1  A    between atoms: C_12  and  N_1 
REMARK    2  A    between atoms: C_7  and  C_2 
REMARK    3  A    between atoms: S_4  and  C_3 
REMARK    4  A    between atoms: C_9  and  C_13 
ROOT
ATOM      1  C   UNL d   1      -2.164   2.776   0.512  0.00  0.00     0.139 C 
ATOM      2  C   UNL d   1      -0.932   2.679  -0.022  0.00  0.00     0.048 C 
ATOM      3  C   UNL d   1      -2.676   3.911   1.178  0.00  0.00     0.111 C 
ATOM      4  N   UNL d   1      -3.107   4.869   1.679  0.00  0.00    -0.191 NA
ENDROOT
BRANCH   1   5
ATOM      5  S   UNL d   1      -3.225   1.395   0.454  0.00  0.00     0.181 S 
ATOM      6  O   UNL d   1      -2.457   0.189   0.206  0.00  0.00    -0.222 OA
ATOM      7  O   UNL d   1      -4.144   1.437   1.579  0.00  0.00    -0.222 OA
ATOM      8  C   UNL d   1      -4.190   1.694  -1.002  0.00  0.00     0.168 C 
ENDBRANCH   1   5
BRANCH   2   9
ATOM      9  C   UNL d   1       0.112   3.669  -0.034  0.00  0.00    -0.009 A 
ATOM     10  C   UNL d   1       1.475   3.392  -0.049  0.00  0.00     0.023 A 
ATOM     11  N   UNL d   1       2.180   4.613  -0.003  0.00  0.00    -0.319 N 
ATOM     12  C   UNL d   1       2.138   2.049   0.022  0.00  0.00     0.069 C 
ATOM     13  C   UNL d   1       1.230   5.637  -0.012  0.00  0.00     0.014 A 
ATOM     14  C   UNL d   1      -0.028   5.068  -0.019  0.00  0.00     0.038 A 
ATOM     15  C   UNL d   1       1.495   7.106  -0.088  0.00  0.00     0.068 C 
BRANCH  11  16
ATOM     16  C   UNL d   1       3.607   4.781   0.064  0.00  0.00     0.039 A 
ATOM     17  C   UNL d   1       4.165   5.807   0.840  0.00  0.00     0.031 A 
ATOM     18  C   UNL d   1       5.552   6.001   0.886  0.00  0.00     0.018 A 
ATOM     19  C   UNL d   1       6.416   5.145   0.193  0.00  0.00     0.048 A 
ATOM     20  C   UNL d   1       5.861   4.102  -0.559  0.00  0.00     0.018 A 
ATOM     21  C   UNL d   1       4.472   3.935  -0.639  0.00  0.00     0.031 A 
BRANCH  19  22
ATOM     22  C   UNL d   1       7.914   5.325   0.246  0.00  0.00     0.417 C 
ATOM     23  F   UNL d   1       8.308   6.425   0.945  0.00  0.00    -0.166 F 
ATOM     24  F   UNL d   1       8.544   4.267   0.827  0.00  0.00    -0.166 F 
ATOM     25  F   UNL d   1       8.467   5.454  -0.993  0.00  0.00    -0.166 F 
ENDBRANCH  19  22
ENDBRANCH  11  16
ENDBRANCH   2   9
TORSDOF 4
