REMARK  6 active torsions:
REMARK  status: ('A' for Active; 'I' for Inactive)
REMARK    1  A    between atoms: C_11  and  C_3 
REMARK    2  A    between atoms: C_13  and  C_7 
REMARK    3  A    between atoms: O_19  and  C_11 
REMARK    4  A    between atoms: C_16  and  C_12 
REMARK    5  A    between atoms: O_29  and  C_21 
REMARK    6  A    between atoms: O_30  and  C_22 
ROOT
ATOM      1  N   UNL d   1      -0.122   1.419   0.008  0.00  0.00    -0.279 N 
ATOM      2  C   UNL d   1      -0.386   0.102   0.181  0.00  0.00     0.155 A 
ATOM      3  C   UNL d   1      -2.526   1.756   0.338  0.00  0.00     0.067 A 
ATOM      4  C   UNL d   1       1.166   1.736  -0.358  0.00  0.00     0.267 C 
ATOM      5  N   UNL d   1      -1.531  -0.413   0.454  0.00  0.00    -0.339 N 
ATOM      6  HN  UNL d   1      -1.628  -1.417   0.606  1.00  0.00     0.168 HD
ATOM      7  C   UNL d   1      -1.186   2.410   0.052  0.00  0.00     0.169 A 
ATOM      8  C   UNL d   1       2.034   0.523  -0.234  0.00  0.00     0.077 C 
ATOM      9  C   UNL d   1      -2.627   0.421   0.538  0.00  0.00     0.022 A 
ATOM     10  S   UNL d   1       1.040  -0.874  -0.019  0.00  0.00    -0.048 SA
ATOM     11  C   UNL d   1       3.373   0.473  -0.184  0.00  0.00     0.036 C 
ATOM     12  O   UNL d   1       1.541   2.816  -0.786  0.00  0.00    -0.266 OA
ATOM     13  C   UNL d   1      -3.880  -0.376   0.817  0.00  0.00     0.069 C 
ENDROOT
BRANCH  11  14
ATOM     14  C   UNL d   1       4.228   1.657  -0.114  0.00  0.00    -0.035 A 
ATOM     15  C   UNL d   1       4.585   2.156   1.144  0.00  0.00     0.014 A 
ATOM     16  C   UNL d   1       5.341   3.326   1.256  0.00  0.00     0.037 A 
ATOM     17  C   UNL d   1       5.746   4.008   0.109  0.00  0.00     0.068 A 
ATOM     18  C   UNL d   1       5.408   3.495  -1.147  0.00  0.00     0.037 A 
ATOM     19  C   UNL d   1       4.653   2.323  -1.263  0.00  0.00     0.014 A 
BRANCH  17  20
ATOM     20  O   UNL d   1       6.461   5.174   0.081  0.00  0.00    -0.356 OA
ATOM     21  C   UNL d   1       6.758   5.771   1.337  0.00  0.00     0.210 C 
ENDBRANCH  17  20
ENDBRANCH  11  14
BRANCH   7  22
ATOM     22  C   UNL d   1      -0.840   3.504   1.067  0.00  0.00    -0.030 A 
ATOM     23  C   UNL d   1      -0.730   3.234   2.441  0.00  0.00     0.012 A 
ATOM     24  C   UNL d   1      -0.388   4.250   3.341  0.00  0.00     0.037 A 
ATOM     25  C   UNL d   1      -0.151   5.546   2.881  0.00  0.00     0.068 A 
ATOM     26  C   UNL d   1      -0.231   5.816   1.517  0.00  0.00     0.037 A 
ATOM     27  C   UNL d   1      -0.582   4.809   0.618  0.00  0.00     0.012 A 
BRANCH  25  28
ATOM     28  O   UNL d   1       0.208   6.608   3.665  0.00  0.00    -0.356 OA
ATOM     29  C   UNL d   1      -0.292   6.578   4.996  0.00  0.00     0.210 C 
ENDBRANCH  25  28
ENDBRANCH   7  22
BRANCH   3  30
ATOM     30  C   UNL d   1      -3.653   2.728   0.271  0.00  0.00     0.293 C 
ATOM     31  O   UNL d   1      -3.613   3.731  -0.422  0.00  0.00    -0.259 OA
BRANCH  30  32
ATOM     32  O   UNL d   1      -4.672   2.391   1.093  0.00  0.00    -0.323 OA
ATOM     33  C   UNL d   1      -5.810   3.256   1.039  0.00  0.00     0.213 C 
ENDBRANCH  30  32
ENDBRANCH   3  30
TORSDOF 6
