REMARK  3 active torsions:
REMARK  status: ('A' for Active; 'I' for Inactive)
REMARK    1  A    between atoms: C_2  and  C_1 
REMARK    2  A    between atoms: C_6  and  C_2 
REMARK    3  A    between atoms: C_5  and  C_9 
REMARK       I    between atoms: N_11  and  C_5 
ROOT
ATOM      1  C   UNL d   1      -3.891   1.065   0.152  0.00  0.00     0.030 A 
ATOM      2  C   UNL d   1      -5.105   1.135  -0.558  0.00  0.00     0.046 A 
ATOM      3  C   UNL d   1      -3.864   0.439   1.409  0.00  0.00     0.016 A 
ATOM      4  C   UNL d   1      -6.237   0.468  -0.059  0.00  0.00     0.018 A 
ATOM      5  C   UNL d   1      -6.192  -0.174   1.177  0.00  0.00     0.001 A 
ATOM      6  C   UNL d   1      -5.012  -0.177   1.917  0.00  0.00     0.001 A 
ENDROOT
BRANCH   1   7
ATOM      7  C   UNL d   1      -2.628   1.622  -0.406  0.00  0.00     0.194 C 
ATOM      8  O   UNL d   1      -2.675   2.729  -0.934  0.00  0.00    -0.287 OA
BRANCH   7   9
ATOM      9  C   UNL d   1      -1.307   0.886  -0.267  0.00  0.00     0.028 C 
ATOM     10  C   UNL d   1      -0.137   1.634   0.043  0.00  0.00    -0.041 C 
ATOM     11  C   UNL d   1       1.128   0.987   0.042  0.00  0.00    -0.049 C 
ATOM     12  C   UNL d   1      -0.211   3.116   0.331  0.00  0.00     0.050 C 
ATOM     13  C   UNL d   1       2.415   1.781   0.142  0.00  0.00     0.049 C 
ATOM     14  C   UNL d   1       1.202  -0.428  -0.034  0.00  0.00    -0.049 C 
ATOM     15  C   UNL d   1       0.020  -1.183  -0.217  0.00  0.00    -0.049 C 
ATOM     16  C   UNL d   1       2.560  -1.097   0.042  0.00  0.00     0.049 C 
ATOM     17  C   UNL d   1      -1.211  -0.515  -0.471  0.00  0.00    -0.041 C 
ATOM     18  C   UNL d   1       0.083  -2.695  -0.192  0.00  0.00     0.049 C 
ATOM     19  C   UNL d   1      -2.376  -1.332  -0.985  0.00  0.00     0.050 C 
ENDBRANCH   7   9
ENDBRANCH   1   7
BRANCH   2  20
ATOM     20  C   UNL d   1      -5.190   1.725  -1.912  0.00  0.00     0.254 C 
ATOM     21  N   UNL d   1      -6.075   2.771  -2.165  0.00  0.00    -0.344 N 
ATOM     22  C   UNL d   1      -7.125   3.291  -1.282  0.00  0.00     0.152 C 
ATOM     23  C   UNL d   1      -6.193   3.286  -3.530  0.00  0.00     0.152 C 
ATOM     24  C   UNL d   1      -8.499   2.956  -1.888  0.00  0.00     0.187 C 
ATOM     25  O   UNL d   1      -8.620   3.478  -3.224  0.00  0.00    -0.388 OA
ATOM     26  C   UNL d   1      -7.584   2.958  -4.083  0.00  0.00     0.187 C 
ATOM     27  O   UNL d   1      -4.505   1.195  -2.788  0.00  0.00    -0.267 OA
ENDBRANCH   2  20
TORSDOF 3
