REMARK  5 active torsions:
REMARK  status: ('A' for Active; 'I' for Inactive)
REMARK    1  A    between atoms: C_3  and  C_1 
REMARK       I    between atoms: C_2  and  N_5 
REMARK    2  A    between atoms: O_14  and  C_2 
REMARK    3  A    between atoms: N_8  and  C_4 
REMARK    4  A    between atoms: N_5  and  N_8 
REMARK    5  A    between atoms: C_17  and  O_14 
ROOT
ATOM      1  C   UNL d   1       0.374   0.427  -1.457  0.00  0.00     0.052 A 
ATOM      2  C   UNL d   1       0.032   2.134  -3.137  0.00  0.00     0.099 A 
ATOM      3  N   UNL d   1      -0.213   1.198  -4.076  0.00  0.00    -0.356 N 
ATOM      4  HN  UNL d   1      -0.417   1.465  -5.039  1.00  0.00     0.166 HD
ATOM      5  C   UNL d   1       0.334   1.779  -1.825  0.00  0.00     0.060 A 
ATOM      6  C   UNL d   1      -0.183  -0.103  -3.711  0.00  0.00     0.090 A 
ATOM      7  C   UNL d   1       0.095  -0.534  -2.429  0.00  0.00     0.033 A 
ENDROOT
BRANCH   2   8
ATOM      8  N   UNL d   1      -0.164   3.467  -3.534  0.00  0.00    -0.186 NA
ATOM      9  H   UNL d   1      -0.132   3.510  -4.558  0.00  0.00     0.154 HD
BRANCH   8  10
ATOM     10  N   UNL d   1       0.587   4.442  -2.875  0.00  0.00    -0.261 N 
ATOM     11  C   UNL d   1       1.083   5.486  -3.618  0.00  0.00     0.375 C 
ATOM     12  O   UNL d   1       1.208   5.496  -4.831  0.00  0.00    -0.237 OA
ATOM     13  H   UNL d   1       0.323   4.666  -1.924  0.00  0.00     0.186 HD
BRANCH  11  14
ATOM     14  O   UNL d   1       1.437   6.492  -2.773  0.00  0.00    -0.303 OA
BRANCH  14  15
ATOM     15  C   UNL d   1       2.301   7.489  -3.331  0.00  0.00     0.176 C 
ATOM     16  C   UNL d   1       3.728   7.017  -3.125  0.00  0.00     0.034 C 
ENDBRANCH  14  15
ENDBRANCH  11  14
ENDBRANCH   8  10
ENDBRANCH   2   8
BRANCH   1  17
ATOM     17  C   UNL d   1       0.680   0.014  -0.044  0.00  0.00     0.417 C 
ATOM     18  F   UNL d   1       0.966   1.061   0.779  0.00  0.00    -0.166 F 
ATOM     19  F   UNL d   1       1.750  -0.825   0.034  0.00  0.00    -0.166 F 
ATOM     20  F   UNL d   1      -0.357  -0.647   0.540  0.00  0.00    -0.166 F 
ENDBRANCH   1  17
TORSDOF 5
