REMARK  4 active torsions:
REMARK  status: ('A' for Active; 'I' for Inactive)
REMARK    1  A    between atoms: C_10  and  N_1 
REMARK    2  A    between atoms: N_11  and  N_7 
REMARK    3  A    between atoms: C_12  and  N_11 
REMARK    4  A    between atoms: O_19  and  C_13 
ROOT
ATOM      1  N   UNL d   1       0.539  -1.393   0.109  0.00  0.00    -0.218 N 
ATOM      2  C   UNL d   1       1.128  -0.137   0.230  0.00  0.00     0.296 A 
ATOM      3  C   UNL d   1      -0.060   0.782   0.116  0.00  0.00     0.137 A 
ATOM      4  N   UNL d   1      -0.854  -1.371  -0.031  0.00  0.00    -0.293 N 
ATOM      5  HN  UNL d   1      -1.460  -2.185  -0.130  1.00  0.00     0.187 HD
ATOM      6  C   UNL d   1      -1.236  -0.127  -0.012  0.00  0.00     0.056 A 
ATOM      7  N   UNL d   1       0.031   2.077   0.108  0.00  0.00    -0.310 N 
ATOM      8  HN  UNL d   1       0.932   2.547   0.198  1.00  0.00     0.181 HD
ATOM      9  O   UNL d   1       2.269   0.237   0.396  0.00  0.00    -0.264 OA
ATOM     10  C   UNL d   1      -2.651   0.315  -0.054  0.00  0.00     0.072 C 
ENDROOT
BRANCH   7  11
ATOM     11  N   UNL d   1      -1.123   2.781  -0.025  0.00  0.00    -0.205 NA
ATOM     12  H   UNL d   1      -1.712   2.836   0.810  0.00  0.00     0.153 HD
BRANCH  11  13
ATOM     13  C   UNL d   1      -1.043   4.075  -0.605  0.00  0.00     0.027 A 
ATOM     14  C   UNL d   1       0.111   4.561  -1.230  0.00  0.00     0.028 A 
ATOM     15  C   UNL d   1       0.114   5.804  -1.881  0.00  0.00     0.038 A 
ATOM     16  C   UNL d   1      -1.050   6.567  -1.941  0.00  0.00     0.068 A 
ATOM     17  C   UNL d   1      -2.210   6.082  -1.336  0.00  0.00     0.038 A 
ATOM     18  C   UNL d   1      -2.209   4.847  -0.680  0.00  0.00     0.028 A 
BRANCH  16  19
ATOM     19  O   UNL d   1      -1.193   7.780  -2.555  0.00  0.00    -0.356 OA
ATOM     20  C   UNL d   1      -0.054   8.296  -3.233  0.00  0.00     0.210 C 
ENDBRANCH  16  19
ENDBRANCH  11  13
ENDBRANCH   7  11
BRANCH   1  21
ATOM     21  C   UNL d   1       1.167  -2.659   0.225  0.00  0.00     0.060 A 
ATOM     22  C   UNL d   1       2.513  -2.787   0.587  0.00  0.00     0.031 A 
ATOM     23  C   UNL d   1       3.092  -4.050   0.759  0.00  0.00     0.002 A 
ATOM     24  C   UNL d   1       2.339  -5.202   0.552  0.00  0.00     0.000 A 
ATOM     25  C   UNL d   1       1.007  -5.095   0.166  0.00  0.00     0.002 A 
ATOM     26  C   UNL d   1       0.427  -3.834   0.006  0.00  0.00     0.031 A 
ENDBRANCH   1  21
TORSDOF 4
