REMARK  4 active torsions:
REMARK  status: ('A' for Active; 'I' for Inactive)
REMARK    1  A    between atoms: C_9  and  C_17 
REMARK       I    between atoms: N_12  and  C_9 
REMARK    2  A    between atoms: O_15  and  C_11 
REMARK    3  A    between atoms: C_16  and  N_12 
REMARK    4  A    between atoms: C_17  and  O_15 
ROOT
ATOM      1  C   UNL d   1      -0.017  -0.954  -0.075  0.00  0.00     0.049 A 
ATOM      2  C   UNL d   1      -1.350  -1.603   0.059  0.00  0.00     0.165 C 
ATOM      3  C   UNL d   1      -0.000   0.448  -0.164  0.00  0.00     0.086 A 
ATOM      4  O   UNL d   1      -1.122   1.245  -0.144  0.00  0.00    -0.340 OA
ATOM      5  C   UNL d   1       1.200  -1.663  -0.123  0.00  0.00    -0.043 A 
ATOM      6  C   UNL d   1      -2.357   0.586  -0.468  0.00  0.00     0.067 C 
ATOM      7  C   UNL d   1      -2.507  -0.692   0.344  0.00  0.00     0.121 C 
ATOM      8  C   UNL d   1       1.208   1.143  -0.285  0.00  0.00     0.074 A 
ATOM      9  C   UNL d   1       2.403  -0.935  -0.273  0.00  0.00     0.044 A 
ATOM     10  C   UNL d   1       2.419   0.458  -0.360  0.00  0.00     0.072 A 
ATOM     11  O   UNL d   1      -1.524  -2.812  -0.035  0.00  0.00    -0.292 OA
ATOM     12  C   UNL d   1       1.361  -3.157  -0.036  0.00  0.00     0.049 C 
ATOM     13  C   UNL d   1      -2.444   0.355  -1.986  0.00  0.00     0.046 C 
ATOM     14  C   UNL d   1      -3.485   1.549  -0.066  0.00  0.00     0.046 C 
ENDROOT
BRANCH  10  15
ATOM     15  O   UNL d   1       3.538   1.232  -0.538  0.00  0.00    -0.342 OA
BRANCH  15  16
ATOM     16  C   UNL d   1       4.781   0.542  -0.571  0.00  0.00     0.278 C 
BRANCH  16  17
ATOM     17  C   UNL d   1       5.964   1.511  -0.590  0.00  0.00     0.246 C 
ATOM     18  N   UNL d   1       6.344   1.907  -1.865  0.00  0.00    -0.325 N 
ATOM     19  H   UNL d   1       5.691   1.721  -2.614  0.00  0.00     0.169 HD
ATOM     20  O   UNL d   1       6.497   1.854   0.464  0.00  0.00    -0.271 OA
BRANCH  18  21
ATOM     21  C   UNL d   1       7.459   2.717  -2.183  0.00  0.00     0.034 A 
ATOM     22  C   UNL d   1       8.490   2.994  -1.280  0.00  0.00     0.031 A 
ATOM     23  C   UNL d   1       9.530   3.865  -1.625  0.00  0.00     0.021 A 
ATOM     24  C   UNL d   1       9.546   4.459  -2.880  0.00  0.00     0.011 A 
ATOM     25  C   UNL d   1       8.557   4.151  -3.812  0.00  0.00     0.021 A 
ATOM     26 BR   UNL d   1      10.900   5.704  -3.313  0.00  0.00    -0.051 Br
ATOM     27  C   UNL d   1       7.524   3.271  -3.467  0.00  0.00     0.031 A 
ENDBRANCH  18  21
ENDBRANCH  16  17
ENDBRANCH  15  16
ENDBRANCH  10  15
TORSDOF 4
