REMARK  3 active torsions:
REMARK  status: ('A' for Active; 'I' for Inactive)
REMARK       I    between atoms: C_6  and  N_1 
REMARK    1  A    between atoms: C_8  and  C_2 
REMARK    2  A    between atoms: C_3  and  C_7 
REMARK    3  A    between atoms: O_13  and  C_7 
ROOT
ATOM      1  N   UNL d   1      -1.363   1.204   0.205  0.00  0.00    -0.319 N 
ATOM      2  C   UNL d   1      -1.820  -0.173   0.021  0.00  0.00     0.184 C 
ATOM      3  C   UNL d   1      -0.029   1.431  -0.428  0.00  0.00     0.204 C 
ATOM      4  S   UNL d   1      -0.308  -1.193   0.064  0.00  0.00    -0.127 SA
ATOM      5  C   UNL d   1       0.849   0.228   0.035  0.00  0.00     0.034 C 
ATOM      6  C   UNL d   1      -2.196   2.216   0.612  0.00  0.00     0.217 C 
ATOM      7  O   UNL d   1      -1.777   3.376   0.693  0.00  0.00    -0.274 OA
ATOM      8  C   UNL d   1       1.377   0.393   1.469  0.00  0.00     0.029 C 
ATOM      9  C   UNL d   1       1.986  -0.128  -0.926  0.00  0.00     0.029 C 
ATOM     10  C   UNL d   1      -3.608   1.931   1.061  0.00  0.00     0.117 C 
ENDROOT
BRANCH   2  11
ATOM     11  C   UNL d   1      -2.603  -0.439  -1.265  0.00  0.00    -0.025 A 
ATOM     12  C   UNL d   1      -2.861   0.543  -2.237  0.00  0.00     0.010 A 
ATOM     13  C   UNL d   1      -3.533   0.228  -3.424  0.00  0.00     0.007 A 
ATOM     14  C   UNL d   1      -3.970  -1.076  -3.674  0.00  0.00    -0.062 A 
ATOM     15  C   UNL d   1      -3.749  -2.055  -2.705  0.00  0.00     0.007 A 
ATOM     16  C   UNL d   1      -4.648  -1.407  -4.970  0.00  0.00     0.048 C 
ATOM     17  C   UNL d   1      -3.086  -1.739  -1.515  0.00  0.00     0.010 A 
ENDBRANCH   2  11
BRANCH   3  18
ATOM     18  C   UNL d   1       0.845   2.706  -0.309  0.00  0.00     0.165 C 
ATOM     19  O   UNL d   1       1.774   2.927  -1.079  0.00  0.00    -0.648 OA
BRANCH  18  20
ATOM     20  O   UNL d   1       0.644   3.500   0.755  0.00  0.00    -0.775 OA
ATOM     21  H   UNL d   1      -0.281   3.436   1.092  0.00  0.00     0.167 HD
ENDBRANCH  18  20
ENDBRANCH   3  18
TORSDOF 3
