REMARK  1 active torsions:
REMARK  status: ('A' for Active; 'I' for Inactive)
REMARK       I    between atoms: N_2  and  C_1 
REMARK       I    between atoms: N_3  and  C_1 
REMARK    1  A    between atoms: C_5  and  N_3 
ROOT
ATOM      1  C   UNL d   1       0.867   0.125  -0.119  0.00  0.00     0.319 C 
ATOM      2  N   UNL d   1       0.410   0.733   1.040  0.00  0.00    -0.330 N 
ATOM      3  N   UNL d   1       0.101  -0.919  -0.579  0.00  0.00    -0.335 N 
ATOM      4  O   UNL d   1       1.879   0.510  -0.694  0.00  0.00    -0.247 OA
ATOM      5  O   UNL d   1      -0.320   2.121   3.436  0.00  0.00    -0.388 OA
ATOM      6  C   UNL d   1      -0.921   0.565   1.636  0.00  0.00     0.153 C 
ATOM      7  C   UNL d   1       1.073   1.982   1.432  0.00  0.00     0.153 C 
ATOM      8  C   UNL d   1       1.027   2.194   2.945  0.00  0.00     0.187 C 
ATOM      9  C   UNL d   1      -0.887   0.837   3.145  0.00  0.00     0.187 C 
ATOM     10  H   UNL d   1      -0.319  -1.456   0.159  0.00  0.00     0.165 HD
ENDROOT
BRANCH   3  11
ATOM     11  C   UNL d   1       0.448  -1.712  -1.776  0.00  0.00     0.023 C 
ATOM     12  C   UNL d   1       1.686  -2.583  -1.504  0.00  0.00     0.037 C 
ATOM     13  C   UNL d   1      -0.745  -2.638  -2.089  0.00  0.00     0.037 C 
ATOM     14  C   UNL d   1       0.681  -0.831  -3.017  0.00  0.00     0.037 C 
ENDBRANCH   3  11
TORSDOF 1
