REMARK  4 active torsions:
REMARK  status: ('A' for Active; 'I' for Inactive)
REMARK    1  A    between atoms: C_6  and  N_2 
REMARK    2  A    between atoms: C_7  and  N_3 
REMARK    3  A    between atoms: C_8  and  C_6 
REMARK    4  A    between atoms: C_9  and  C_7 
ROOT
ATOM      1  C   UNL d   1       2.372   0.073  -0.155  0.00  0.00     0.330 A 
ATOM      2  N   UNL d   1       1.609  -1.105  -0.130  0.00  0.00    -0.293 N 
ATOM      3  N   UNL d   1       1.464   1.145  -0.173  0.00  0.00    -0.293 N 
ATOM      4  C   UNL d   1       0.158   0.630  -0.169  0.00  0.00     0.066 A 
ATOM      5  C   UNL d   1       0.250  -0.764  -0.126  0.00  0.00     0.066 A 
ATOM      6  O   UNL d   1       3.594   0.147  -0.144  0.00  0.00    -0.246 OA
ATOM      7  C   UNL d   1      -1.062   1.274  -0.193  0.00  0.00     0.032 A 
ATOM      8  C   UNL d   1      -0.869  -1.567  -0.062  0.00  0.00     0.032 A 
ATOM      9  C   UNL d   1      -2.114  -0.931  -0.065  0.00  0.00     0.002 A 
ATOM     10  C   UNL d   1      -2.209   0.474  -0.142  0.00  0.00     0.002 A 
ENDROOT
BRANCH   2  11
ATOM     11  C   UNL d   1       2.152  -2.431   0.026  0.00  0.00     0.174 C 
BRANCH  11  12
ATOM     12  C   UNL d   1       2.452  -3.166  -1.265  0.00  0.00    -0.018 A 
ATOM     13  C   UNL d   1       2.338  -4.566  -1.358  0.00  0.00     0.043 A 
ATOM     14  C   UNL d   1       2.771  -5.253  -2.498  0.00  0.00     0.048 A 
ATOM     15 CL   UNL d   1       1.689  -5.523  -0.071  0.00  0.00    -0.084 Cl
ATOM     16  C   UNL d   1       3.325  -4.549  -3.561  0.00  0.00     0.035 A 
ATOM     17  C   UNL d   1       3.429  -3.164  -3.507  0.00  0.00     0.024 A 
ATOM     18 CL   UNL d   1       3.909  -5.398  -4.938  0.00  0.00    -0.084 Cl
ATOM     19  C   UNL d   1       3.000  -2.480  -2.367  0.00  0.00     0.012 A 
ENDBRANCH  11  12
ENDBRANCH   2  11
BRANCH   3  20
ATOM     20  C   UNL d   1       1.841   2.533  -0.094  0.00  0.00     0.174 C 
BRANCH  20  21
ATOM     21  C   UNL d   1       1.965   3.058   1.326  0.00  0.00    -0.018 A 
ATOM     22  C   UNL d   1       1.257   4.178   1.793  0.00  0.00     0.043 A 
ATOM     23  C   UNL d   1       1.507   4.707   3.066  0.00  0.00     0.048 A 
ATOM     24 CL   UNL d   1       0.065   4.984   0.836  0.00  0.00    -0.084 Cl
ATOM     25  C   UNL d   1       2.461   4.118   3.890  0.00  0.00     0.035 A 
ATOM     26  C   UNL d   1       3.146   2.986   3.470  0.00  0.00     0.024 A 
ATOM     27 CL   UNL d   1       2.815   4.810   5.425  0.00  0.00    -0.084 Cl
ATOM     28  C   UNL d   1       2.900   2.463   2.198  0.00  0.00     0.012 A 
ENDBRANCH  20  21
ENDBRANCH   3  20
TORSDOF 4
