REMARK  1 active torsions:
REMARK  status: ('A' for Active; 'I' for Inactive)
REMARK    1  A    between atoms: C_6  and  N_1 
ROOT
ATOM      1  N   UNL d   1       2.265  -0.809  -0.159  0.00  0.00    -0.254 N 
ATOM      2  C   UNL d   1       2.337   0.583  -0.284  0.00  0.00     0.186 A 
ATOM      3  C   UNL d   1       1.057  -1.522  -0.047  0.00  0.00     0.267 A 
ATOM      4  C   UNL d   1      -0.186  -0.736  -0.078  0.00  0.00     0.059 A 
ATOM      5  N   UNL d   1       1.141   1.262  -0.282  0.00  0.00    -0.332 N 
ATOM      6  C   UNL d   1      -0.105   0.646  -0.180  0.00  0.00     0.050 A 
ATOM      7  S   UNL d   1       3.722   1.528  -0.396  0.00  0.00    -0.040 SA
ATOM      8  O   UNL d   1       0.965  -2.745   0.062  0.00  0.00    -0.267 OA
ATOM      9  C   UNL d   1      -1.434  -1.368  -0.002  0.00  0.00     0.019 A 
ATOM     10  C   UNL d   1      -1.269   1.415  -0.182  0.00  0.00     0.030 A 
ATOM     11  C   UNL d   1      -2.598  -0.603  -0.013  0.00  0.00     0.001 A 
ATOM     12  C   UNL d   1      -2.516   0.787  -0.097  0.00  0.00     0.002 A 
ATOM     13  H   UNL d   1       1.197   2.272  -0.357  0.00  0.00     0.168 HD
ENDROOT
BRANCH   1  14
ATOM     14  C   UNL d   1       3.444  -1.609  -0.131  0.00  0.00     0.048 A 
ATOM     15  C   UNL d   1       4.109  -1.923  -1.322  0.00  0.00     0.069 A 
ATOM     16  C   UNL d   1       5.164  -2.836  -1.301  0.00  0.00     0.104 A 
ATOM     17  O   UNL d   1       5.731  -3.144  -2.512  0.00  0.00    -0.346 OA
ATOM     18  C   UNL d   1       5.562  -3.423  -0.095  0.00  0.00     0.102 A 
ATOM     19  C   UNL d   1       6.933  -3.908  -2.365  0.00  0.00     0.202 C 
ATOM     20  C   UNL d   1       6.791  -4.968  -1.286  0.00  0.00     0.202 C 
ATOM     21  O   UNL d   1       6.559  -4.361  -0.011  0.00  0.00    -0.346 OA
ATOM     22  C   UNL d   1       4.928  -3.081   1.096  0.00  0.00     0.042 A 
ATOM     23  C   UNL d   1       3.854  -2.189   1.078  0.00  0.00     0.033 A 
ENDBRANCH   1  14
TORSDOF 1
