REMARK  0 active torsions:
REMARK  status: ('A' for Active; 'I' for Inactive)
ROOT
ATOM      1  S   UNL d   1       0.912  -2.378  -0.102  0.00  0.00     0.180 S 
ATOM      2  C   UNL d   1      -1.361  -0.825   0.017  0.00  0.00     0.019 A 
ATOM      3  C   UNL d   1      -0.669   0.333   0.049  0.00  0.00     0.023 A 
ATOM      4  C   UNL d   1       0.829   0.381   0.025  0.00  0.00     0.004 A 
ATOM      5  C   UNL d   1       1.618  -0.773  -0.014  0.00  0.00     0.071 A 
ATOM      6  C   UNL d   1      -0.830  -2.227  -0.052  0.00  0.00     0.189 A 
ATOM      7  C   UNL d   1      -2.870  -0.870   0.067  0.00  0.00     0.158 C 
ATOM      8  S   UNL d   1      -1.469   1.888   0.182  0.00  0.00    -0.128 SA
ATOM      9  O   UNL d   1       1.277  -2.891  -1.411  0.00  0.00    -0.222 OA
ATOM     10  O   UNL d   1       1.334  -3.059   1.108  0.00  0.00    -0.222 OA
ATOM     11  C   UNL d   1       3.028  -0.736  -0.005  0.00  0.00     0.026 A 
ATOM     12  C   UNL d   1       1.552   1.599   0.049  0.00  0.00     0.038 A 
ATOM     13  O   UNL d   1      -3.451  -1.943  -0.103  0.00  0.00    -0.293 OA
ATOM     14  C   UNL d   1       2.953   1.647   0.051  0.00  0.00     0.035 A 
ATOM     15  C   UNL d   1      -3.662   0.366   0.386  0.00  0.00     0.094 C 
ATOM     16  C   UNL d   1      -3.130   1.530  -0.402  0.00  0.00     0.087 C 
ATOM     17  C   UNL d   1       3.697   0.479   0.031  0.00  0.00     0.025 A 
ATOM     18 CL   UNL d   1       3.757   3.168   0.077  0.00  0.00    -0.084 Cl
ENDROOT
TORSDOF 0
