REMARK  2 active torsions:
REMARK  status: ('A' for Active; 'I' for Inactive)
REMARK       I    between atoms: C_2  and  N_3 
REMARK    1  A    between atoms: C_9  and  C_2 
REMARK    2  A    between atoms: C_5  and  N_3 
ROOT
ATOM      1  N   UNL d   1       1.347   0.851   0.740  0.00  0.00     0.089 N 
ATOM      2  C   UNL d   1       0.258   1.369  -0.090  0.00  0.00     0.224 C 
ATOM      3  C   UNL d   1      -1.867  -0.113   0.149  0.00  0.00     0.087 C 
ATOM      4  C   UNL d   1      -1.151   1.190   0.512  0.00  0.00     0.061 C 
ATOM      5  C   UNL d   1       1.316  -0.593   0.963  0.00  0.00     0.277 C 
ATOM      6  C   UNL d   1       0.418  -1.358  -0.026  0.00  0.00     0.016 C 
ATOM      7  C   UNL d   1       0.395   0.735  -1.490  0.00  0.00     0.036 C 
ATOM      8  C   UNL d   1      -1.053  -1.378   0.443  0.00  0.00     0.031 C 
ATOM      9  C   UNL d   1       0.589  -0.788  -1.441  0.00  0.00     0.008 C 
ATOM     10  C   UNL d   1       1.599   1.601   1.962  0.00  0.00     0.310 C 
ENDROOT
BRANCH   3  11
ATOM     11  N   UNL d   1      -3.172  -0.152   0.810  0.00  0.00    -0.352 N 
ATOM     12  C   UNL d   1      -4.247  -0.819   0.255  0.00  0.00     0.252 C 
ATOM     13  O   UNL d   1      -4.171  -1.465  -0.785  0.00  0.00    -0.268 OA
ATOM     14  H   UNL d   1      -3.236   0.161   1.769  0.00  0.00     0.163 HD
BRANCH  12  15
ATOM     15  C   UNL d   1      -5.548  -0.730   0.975  0.00  0.00     0.032 A 
ATOM     16  C   UNL d   1      -5.883   0.368   1.780  0.00  0.00     0.017 A 
ATOM     17  C   UNL d   1      -7.146   0.437   2.378  0.00  0.00     0.001 A 
ATOM     18  C   UNL d   1      -8.075  -0.583   2.175  0.00  0.00     0.000 A 
ATOM     19  C   UNL d   1      -7.749  -1.675   1.373  0.00  0.00     0.001 A 
ATOM     20  C   UNL d   1      -6.491  -1.746   0.772  0.00  0.00     0.017 A 
ENDBRANCH  12  15
ENDBRANCH   3  11
TORSDOF 2
