REMARK  6 active torsions:
REMARK  status: ('A' for Active; 'I' for Inactive)
REMARK    1  A    between atoms: N_6  and  C_1 
REMARK    2  A    between atoms: C_8  and  C_2 
REMARK    3  A    between atoms: C_11  and  C_5 
REMARK       I    between atoms: C_7  and  N_6 
REMARK    4  A    between atoms: C_9  and  C_7 
REMARK    5  A    between atoms: O_17  and  C_8 
REMARK    6  A    between atoms: C_20  and  O_17 
ROOT
ATOM      1  C   UNL d   1       0.217   1.357  -0.091  0.00  0.00     0.094 A 
ATOM      2  C   UNL d   1       1.468   0.842   0.217  0.00  0.00     0.074 A 
ATOM      3  S   UNL d   1      -0.966   0.158  -0.211  0.00  0.00    -0.071 SA
ATOM      4  C   UNL d   1       1.405  -0.604   0.284  0.00  0.00     0.040 A 
ATOM      5  C   UNL d   1       0.139  -1.123   0.058  0.00  0.00     0.018 A 
ENDROOT
BRANCH   1   6
ATOM      6  N   UNL d   1      -0.115   2.690  -0.263  0.00  0.00    -0.315 N 
ATOM      7  C   UNL d   1      -1.298   3.224  -0.741  0.00  0.00     0.280 C 
ATOM      8  O   UNL d   1      -2.302   2.603  -1.071  0.00  0.00    -0.265 OA
ATOM      9  H   UNL d   1       0.636   3.360  -0.117  0.00  0.00     0.170 HD
BRANCH   7  10
ATOM     10  C   UNL d   1      -1.222   4.668  -0.877  0.00  0.00     0.142 A 
ATOM     11  O   UNL d   1      -0.156   5.348  -0.341  0.00  0.00    -0.317 OA
ATOM     12  C   UNL d   1      -0.341   6.664  -0.624  0.00  0.00     0.143 A 
ATOM     13  C   UNL d   1      -1.494   6.845  -1.350  0.00  0.00     0.027 A 
ATOM     14  C   UNL d   1      -2.069   5.562  -1.503  0.00  0.00     0.045 A 
ENDBRANCH   7  10
ENDBRANCH   1   6
BRANCH   2  15
ATOM     15  C   UNL d   1       2.680   1.635   0.453  0.00  0.00     0.296 C 
ATOM     16  O   UNL d   1       3.745   1.155   0.814  0.00  0.00    -0.259 OA
BRANCH  15  17
ATOM     17  O   UNL d   1       2.469   2.972   0.256  0.00  0.00    -0.318 OA
BRANCH  17  18
ATOM     18  C   UNL d   1       3.488   3.887   0.683  0.00  0.00     0.174 C 
ATOM     19  C   UNL d   1       4.416   4.248  -0.460  0.00  0.00     0.034 C 
ENDBRANCH  17  18
ENDBRANCH  15  17
ENDBRANCH   2  15
BRANCH   5  20
ATOM     20  C   UNL d   1      -0.335  -2.524   0.062  0.00  0.00    -0.019 A 
ATOM     21  C   UNL d   1      -1.495  -2.918  -0.632  0.00  0.00     0.013 A 
ATOM     22  C   UNL d   1      -1.959  -4.237  -0.591  0.00  0.00     0.001 A 
ATOM     23  C   UNL d   1      -1.263  -5.194   0.136  0.00  0.00     0.000 A 
ATOM     24  C   UNL d   1      -0.103  -4.834   0.818  0.00  0.00     0.001 A 
ATOM     25  C   UNL d   1       0.357  -3.512   0.782  0.00  0.00     0.013 A 
ENDBRANCH   5  20
TORSDOF 6
