REMARK  5 active torsions:
REMARK  status: ('A' for Active; 'I' for Inactive)
REMARK    1  A    between atoms: C_17  and  C_5 
REMARK    2  A    between atoms: S_12  and  C_7 
REMARK    3  A    between atoms: C_10  and  S_12 
REMARK    4  A    between atoms: O_21  and  C_17 
REMARK    5  A    between atoms: C_26  and  O_21 
ROOT
ATOM      1  C   UNL d   1       1.399  -0.926   0.042  0.00  0.00     0.161 A 
ATOM      2  N   UNL d   1       0.737   0.284  -0.017  0.00  0.00    -0.221 N 
ATOM      3  N   UNL d   1       0.732  -2.118   0.051  0.00  0.00    -0.333 N 
ATOM      4  HN  UNL d   1       1.236  -3.005   0.043  1.00  0.00     0.168 HD
ATOM      5  C   UNL d   1       2.731  -0.545   0.077  0.00  0.00     0.167 A 
ATOM      6  N   UNL d   1       1.587   1.323  -0.088  0.00  0.00    -0.013 NA
ATOM      7  C   UNL d   1      -0.572  -2.080   0.069  0.00  0.00     0.091 A 
ATOM      8  N   UNL d   1       2.815   0.831  -0.025  0.00  0.00    -0.275 N 
ATOM      9  HN  UNL d   1       3.677   1.375  -0.048  1.00  0.00     0.184 HD
ATOM     10  C   UNL d   1      -1.373  -0.810   0.095  0.00  0.00     0.026 A 
ATOM     11  C   UNL d   1      -0.655   0.394   0.018  0.00  0.00     0.069 A 
ATOM     12  C   UNL d   1      -2.768  -0.741   0.175  0.00  0.00     0.017 A 
ATOM     13  C   UNL d   1      -1.290   1.639  -0.003  0.00  0.00     0.032 A 
ATOM     14  C   UNL d   1      -3.414   0.501   0.169  0.00  0.00     0.001 A 
ATOM     15  C   UNL d   1      -2.679   1.686   0.073  0.00  0.00     0.002 A 
ENDROOT
BRANCH   7  16
ATOM     16  S   UNL d   1      -1.389  -3.620  -0.143  0.00  0.00    -0.035 SA
BRANCH  16  17
ATOM     17  C   UNL d   1      -1.946  -3.920   1.457  0.00  0.00     0.151 A 
ATOM     18  N   UNL d   1      -2.103  -3.079   2.450  0.00  0.00    -0.335 N 
ATOM     19  C   UNL d   1      -2.688  -3.826   3.451  0.00  0.00     0.061 A 
ATOM     20  HN  UNL d   1      -1.849  -2.092   2.477  1.00  0.00     0.168 HD
ATOM     21  C   UNL d   1      -3.090  -3.450   4.741  0.00  0.00     0.032 A 
ATOM     22  C   UNL d   1      -2.894  -5.140   3.039  0.00  0.00     0.061 A 
ATOM     23  C   UNL d   1      -3.696  -4.409   5.565  0.00  0.00     0.002 A 
ATOM     24  C   UNL d   1      -3.898  -5.717   5.115  0.00  0.00     0.002 A 
ATOM     25  C   UNL d   1      -3.498  -6.115   3.836  0.00  0.00     0.032 A 
ATOM     26  N   UNL d   1      -2.391  -5.172   1.765  0.00  0.00    -0.335 N 
ATOM     27  H   UNL d   1      -2.373  -5.966   1.142  0.00  0.00     0.168 HD
ENDBRANCH  16  17
ENDBRANCH   7  16
BRANCH   5  28
ATOM     28  C   UNL d   1       3.905  -1.384   0.237  0.00  0.00     0.315 C 
ATOM     29  O   UNL d   1       3.878  -2.598   0.407  0.00  0.00    -0.257 OA
BRANCH  28  30
ATOM     30  O   UNL d   1       5.052  -0.640   0.244  0.00  0.00    -0.317 OA
BRANCH  30  31
ATOM     31  C   UNL d   1       6.241  -1.306   0.686  0.00  0.00     0.175 C 
ATOM     32  C   UNL d   1       6.346  -1.166   2.194  0.00  0.00     0.034 C 
ENDBRANCH  30  31
ENDBRANCH  28  30
ENDBRANCH   5  28
TORSDOF 5
