REMARK  7 active torsions:
REMARK  status: ('A' for Active; 'I' for Inactive)
REMARK    1  A    between atoms: C_2  and  C_1 
REMARK       I    between atoms: N_3  and  C_1 
REMARK    2  A    between atoms: C_6  and  N_3 
REMARK    3  A    between atoms: C_4  and  C_5 
REMARK    4  A    between atoms: S_16  and  C_7 
REMARK    5  A    between atoms: C_20  and  S_16 
REMARK    6  A    between atoms: N_17  and  C_24 
REMARK    7  A    between atoms: C_24  and  C_20 
ROOT
ATOM      1  C   UNL d   1       0.374  -0.905  -0.706  0.00  0.00     0.080 A 
ATOM      2  C   UNL d   1       0.821  -2.238  -0.572  0.00  0.00     0.067 A 
ATOM      3  C   UNL d   1      -0.563  -0.621  -1.717  0.00  0.00     0.086 A 
ATOM      4  N   UNL d   1      -1.032  -1.575  -2.565  0.00  0.00    -0.360 N 
ATOM      5  HN  UNL d   1      -1.694  -1.335  -3.302  1.00  0.00     0.166 HD
ATOM      6  C   UNL d   1      -0.608  -2.839  -2.414  0.00  0.00     0.089 A 
ATOM      7  C   UNL d   1       0.313  -3.206  -1.459  0.00  0.00     0.034 A 
ENDROOT
BRANCH   1   8
ATOM      8  C   UNL d   1       0.715   0.140   0.293  0.00  0.00     0.259 C 
ATOM      9  N   UNL d   1       2.053   0.413   0.480  0.00  0.00    -0.322 N 
ATOM     10  H   UNL d   1       2.680   0.139  -0.262  0.00  0.00     0.169 HD
ATOM     11  O   UNL d   1      -0.226   0.670   0.874  0.00  0.00    -0.267 OA
BRANCH   9  12
ATOM     12  C   UNL d   1       2.669   1.073   1.587  0.00  0.00     0.046 A 
ATOM     13  C   UNL d   1       2.134   1.078   2.908  0.00  0.00    -0.035 A 
ATOM     14  C   UNL d   1       2.862   1.694   3.949  0.00  0.00     0.009 A 
ATOM     15  C   UNL d   1       0.839   0.448   3.348  0.00  0.00     0.050 C 
ATOM     16  C   UNL d   1       4.112   2.252   3.733  0.00  0.00     0.001 A 
ATOM     17  C   UNL d   1       4.646   2.237   2.455  0.00  0.00     0.009 A 
ATOM     18  C   UNL d   1       3.939   1.671   1.375  0.00  0.00    -0.035 A 
ATOM     19  C   UNL d   1       4.603   1.815   0.032  0.00  0.00     0.050 C 
ENDBRANCH   9  12
ENDBRANCH   1   8
BRANCH   2  20
ATOM     20  C   UNL d   1       1.796  -2.758   0.454  0.00  0.00     0.418 C 
ATOM     21  F   UNL d   1       2.150  -1.922   1.451  0.00  0.00    -0.166 F 
ATOM     22  F   UNL d   1       1.327  -3.878   1.073  0.00  0.00    -0.166 F 
ATOM     23  F   UNL d   1       2.963  -3.138  -0.145  0.00  0.00    -0.166 F 
ENDBRANCH   2  20
BRANCH   3  24
ATOM     24  S   UNL d   1      -1.161   1.030  -2.081  0.00  0.00    -0.110 SA
BRANCH  24  25
ATOM     25  C   UNL d   1      -2.743   0.671  -2.949  0.00  0.00     0.111 C 
BRANCH  25  26
ATOM     26  C   UNL d   1      -3.819   0.094  -2.011  0.00  0.00     0.282 C 
BRANCH  26  27
ATOM     27  N   UNL d   1      -5.139  -0.082  -2.664  0.00  0.00     0.080 N 
ATOM     28  C   UNL d   1      -5.107  -1.134  -3.683  0.00  0.00     0.309 C 
ATOM     29  C   UNL d   1      -6.154  -0.405  -1.655  0.00  0.00     0.309 C 
ENDBRANCH  26  27
ENDBRANCH  25  26
ENDBRANCH  24  25
ENDBRANCH   3  24
TORSDOF 7
