REMARK  3 active torsions:
REMARK  status: ('A' for Active; 'I' for Inactive)
REMARK    1  A    between atoms: C_4  and  N_1 
REMARK    2  A    between atoms: N_5  and  C_4 
REMARK    3  A    between atoms: C_13  and  C_9 
ROOT
ATOM      1  N   UNL d   1       3.716   1.349   0.045  0.00  0.00    -0.388 N 
ATOM      2  C   UNL d   1       3.370   1.865   1.367  0.00  0.00     0.110 C 
ATOM      3  C   UNL d   1       2.833   3.316   1.159  0.00  0.00     0.176 C 
ATOM      4  O   UNL d   1       3.837   4.140   0.530  0.00  0.00    -0.378 OA
ATOM      5  C   UNL d   1       4.619   2.163  -0.747  0.00  0.00     0.145 C 
ATOM      6  C   UNL d   1       4.132   3.628  -0.784  0.00  0.00     0.188 C 
ATOM      7  C   UNL d   1       4.595   1.784   2.289  0.00  0.00     0.035 C 
ENDROOT
BRANCH   1   8
ATOM      8  C   UNL d   1       3.327   0.025  -0.363  0.00  0.00     0.256 C 
BRANCH   8   9
ATOM      9  N   UNL d   1       1.885  -0.024  -0.432  0.00  0.00    -0.263 N 
ATOM     10  C   UNL d   1       1.097  -0.864   0.305  0.00  0.00     0.263 C 
ATOM     11  C   UNL d   1      -0.293  -0.526  -0.031  0.00  0.00     0.048 A 
ATOM     12  O   UNL d   1       1.414  -1.729   1.095  0.00  0.00    -0.267 OA
ATOM     13  C   UNL d   1      -1.490  -1.027   0.444  0.00  0.00     0.018 A 
ATOM     14  C   UNL d   1      -0.254   0.490  -0.963  0.00  0.00     0.048 A 
ATOM     15  C   UNL d   1      -2.666  -0.426  -0.021  0.00  0.00     0.001 A 
ATOM     16  C   UNL d   1      -2.618   0.660  -0.921  0.00  0.00     0.001 A 
ATOM     17  C   UNL d   1      -1.396   1.124  -1.412  0.00  0.00     0.018 A 
ATOM     18  C   UNL d   1       1.143   0.716  -1.313  0.00  0.00     0.263 C 
ATOM     19  O   UNL d   1       1.501   1.395  -2.252  0.00  0.00    -0.267 OA
ENDBRANCH   8   9
ENDBRANCH   1   8
BRANCH   3  20
ATOM     20  C   UNL d   1       2.302   3.955   2.426  0.00  0.00    -0.028 A 
ATOM     21  C   UNL d   1       3.123   4.702   3.280  0.00  0.00     0.010 A 
ATOM     22  C   UNL d   1       2.614   5.238   4.464  0.00  0.00     0.001 A 
ATOM     23  C   UNL d   1       1.275   5.050   4.800  0.00  0.00     0.000 A 
ATOM     24  C   UNL d   1       0.440   4.326   3.951  0.00  0.00     0.001 A 
ATOM     25  C   UNL d   1       0.952   3.775   2.776  0.00  0.00     0.010 A 
ENDBRANCH   3  20
TORSDOF 3
