REMARK  2 active torsions:
REMARK  status: ('A' for Active; 'I' for Inactive)
REMARK    1  A    between atoms: S_8  and  C_1 
REMARK    2  A    between atoms: C_13  and  S_8 
ROOT
ATOM      1  C   UNL d   1       1.573   1.363   0.008  0.00  0.00     0.088 A 
ATOM      2  C   UNL d   1       0.222   0.984   0.021  0.00  0.00     0.032 A 
ATOM      3  C   UNL d   1      -0.009  -0.383   0.014  0.00  0.00     0.087 A 
ATOM      4  N   UNL d   1       2.540   0.421  -0.010  0.00  0.00    -0.346 N 
ATOM      5  HN  UNL d   1       3.526   0.681  -0.019  1.00  0.00     0.167 HD
ATOM      6  N   UNL d   1       0.923  -1.351  -0.004  0.00  0.00    -0.346 N 
ATOM      7  HN  UNL d   1       0.703  -2.347  -0.009  1.00  0.00     0.167 HD
ATOM      8  S   UNL d   1      -1.668  -0.775   0.031  0.00  0.00    -0.083 SA
ATOM      9  C   UNL d   1       2.166  -0.867  -0.015  0.00  0.00     0.182 A 
ATOM     10  C   UNL d   1      -2.121   0.872   0.048  0.00  0.00     0.053 A 
ATOM     11  C   UNL d   1      -1.024   1.705   0.040  0.00  0.00     0.024 A 
ENDROOT
BRANCH   1  12
ATOM     12  S   UNL d   1       1.984   3.088   0.019  0.00  0.00    -0.072 SA
BRANCH  12  13
ATOM     13  C   UNL d   1       3.763   3.074  -0.044  0.00  0.00     0.007 A 
ATOM     14  C   UNL d   1       4.423   3.131  -1.277  0.00  0.00     0.020 A 
ATOM     15  C   UNL d   1       5.820   3.135  -1.328  0.00  0.00     0.025 A 
ATOM     16  C   UNL d   1       6.556   3.088  -0.145  0.00  0.00     0.034 A 
ATOM     17  C   UNL d   1       5.908   3.048   1.088  0.00  0.00     0.025 A 
ATOM     18 CL   UNL d   1       8.275   3.082  -0.208  0.00  0.00    -0.084 Cl
ATOM     19  C   UNL d   1       4.511   3.045   1.138  0.00  0.00     0.020 A 
ENDBRANCH  12  13
ENDBRANCH   1  12
TORSDOF 2
