REMARK  1 active torsions:
REMARK  status: ('A' for Active; 'I' for Inactive)
REMARK    1  A    between atoms: O_10  and  C_4 
ROOT
ATOM      1  C   UNL d   1      -0.046  -0.709  -0.015  0.00  0.00     0.122 A 
ATOM      2  C   UNL d   1      -0.022   0.696   0.016  0.00  0.00     0.137 A 
ATOM      3  C   UNL d   1       1.159  -1.415  -0.057  0.00  0.00     0.047 A 
ATOM      4  C   UNL d   1       1.202   1.390   0.056  0.00  0.00     0.104 A 
ATOM      5  O   UNL d   1      -1.175   1.453   0.021  0.00  0.00    -0.344 OA
ATOM      6  O   UNL d   1      -1.218  -1.428  -0.017  0.00  0.00    -0.345 OA
ATOM      7  C   UNL d   1       2.375  -0.731  -0.034  0.00  0.00     0.025 A 
ATOM      8  C   UNL d   1       2.397   0.665   0.029  0.00  0.00     0.041 A 
ATOM      9 BR   UNL d   1       1.201  -3.312  -0.130  0.00  0.00    -0.048 Br
ATOM     10  C   UNL d   1      -2.319   0.691  -0.367  0.00  0.00     0.202 C 
ATOM     11  C   UNL d   1      -2.339  -0.631   0.373  0.00  0.00     0.202 C 
ENDROOT
BRANCH   4  12
ATOM     12  O   UNL d   1       1.123   2.759   0.109  0.00  0.00    -0.353 OA
ATOM     13  C   UNL d   1       2.344   3.485   0.160  0.00  0.00     0.210 C 
ENDBRANCH   4  12
TORSDOF 1
