REMARK  3 active torsions:
REMARK  status: ('A' for Active; 'I' for Inactive)
REMARK    1  A    between atoms: C_12  and  N_3 
REMARK    2  A    between atoms: C_13  and  N_4 
REMARK    3  A    between atoms: C_10  and  C_7 
ROOT
ATOM      1  C   UNL d   1       0.040  -0.164  -0.355  0.00  0.00     0.242 C 
ATOM      2  S   UNL d   1      -0.604  -0.482   1.354  0.00  0.00    -0.040 SA
ATOM      3  N   UNL d   1       1.175  -1.006  -0.665  0.00  0.00    -0.270 N 
ATOM      4  N   UNL d   1      -1.154  -0.277  -1.221  0.00  0.00    -0.242 N 
ATOM      5  N   UNL d   1      -2.375  -0.174  -0.565  0.00  0.00    -0.285 N 
ATOM      6  HN  UNL d   1      -3.283  -0.070  -1.018  1.00  0.00     0.188 HD
ATOM      7  C   UNL d   1      -2.178  -0.230   0.707  0.00  0.00     0.135 C 
ATOM      8  S   UNL d   1       0.693   1.545  -0.282  0.00  0.00    -0.092 SA
ATOM      9  C   UNL d   1       2.401  -0.494  -0.222  0.00  0.00     0.237 C 
ATOM     10  C   UNL d   1       2.325   0.960   0.181  0.00  0.00     0.182 C 
ATOM     11  O   UNL d   1       3.458  -1.115  -0.126  0.00  0.00    -0.272 OA
ENDROOT
BRANCH   3  12
ATOM     12  C   UNL d   1       1.109  -2.299  -1.266  0.00  0.00     0.041 A 
ATOM     13  C   UNL d   1       0.055  -3.190  -1.058  0.00  0.00     0.030 A 
ATOM     14  C   UNL d   1       0.063  -4.460  -1.657  0.00  0.00     0.002 A 
ATOM     15  C   UNL d   1       1.103  -4.839  -2.503  0.00  0.00     0.000 A 
ATOM     16  C   UNL d   1       2.147  -3.955  -2.744  0.00  0.00     0.002 A 
ATOM     17  C   UNL d   1       2.152  -2.704  -2.124  0.00  0.00     0.030 A 
ENDBRANCH   3  12
BRANCH   4  18
ATOM     18  C   UNL d   1      -1.206  -0.280  -2.615  0.00  0.00     0.055 A 
ATOM     19  C   UNL d   1      -2.273  -0.941  -3.260  0.00  0.00     0.031 A 
ATOM     20  C   UNL d   1      -2.381  -1.002  -4.652  0.00  0.00     0.002 A 
ATOM     21  C   UNL d   1      -1.434  -0.366  -5.443  0.00  0.00     0.000 A 
ATOM     22  C   UNL d   1      -0.386   0.319  -4.839  0.00  0.00     0.002 A 
ATOM     23  C   UNL d   1      -0.266   0.347  -3.441  0.00  0.00     0.031 A 
ENDBRANCH   4  18
BRANCH   7  24
ATOM     24  C   UNL d   1      -3.188  -0.039   1.785  0.00  0.00     0.180 C 
ATOM     25  O   UNL d   1      -3.231  -0.792   2.751  0.00  0.00    -0.291 OA
ATOM     26  C   UNL d   1      -4.152   1.106   1.609  0.00  0.00     0.099 C 
ENDBRANCH   7  24
TORSDOF 3
