REMARK  0 active torsions:
REMARK  status: ('A' for Active; 'I' for Inactive)
REMARK       I    between atoms: C_10  and  N_1 
ROOT
ATOM      1  N   UNL d   1      -1.304  -1.802   0.002  0.00  0.00    -0.265 N 
ATOM      2  C   UNL d   1      -0.102  -1.101   0.001  0.00  0.00     0.143 A 
ATOM      3  C   UNL d   1      -0.371   0.261   0.001  0.00  0.00     0.090 A 
ATOM      4  C   UNL d   1      -1.771   0.435   0.001  0.00  0.00     0.025 A 
ATOM      5  C   UNL d   1      -2.345  -0.844   0.002  0.00  0.00     0.057 A 
ATOM      6  N   UNL d   1       1.146  -1.614   0.000  0.00  0.00    -0.338 N 
ATOM      7  HN  UNL d   1       1.330  -2.617  -0.000  1.00  0.00     0.167 HD
ATOM      8  N   UNL d   1       0.619   1.193   0.001  0.00  0.00    -0.351 N 
ATOM      9  HN  UNL d   1       0.428   2.195   0.001  1.00  0.00     0.166 HD
ATOM     10  C   UNL d   1      -1.504  -3.205   0.005  0.00  0.00     0.226 C 
ATOM     11  C   UNL d   1       2.122  -0.698  -0.000  0.00  0.00     0.060 A 
ATOM     12  C   UNL d   1       1.865   0.694   0.001  0.00  0.00     0.059 A 
ATOM     13  C   UNL d   1      -3.751  -0.997   0.002  0.00  0.00     0.034 A 
ATOM     14  C   UNL d   1      -2.605   1.573   0.000  0.00  0.00     0.058 A 
ATOM     15  O   UNL d   1      -2.653  -3.647   0.006  0.00  0.00    -0.273 OA
ATOM     16  C   UNL d   1      -3.986   1.405   0.000  0.00  0.00     0.117 A 
ATOM     17  C   UNL d   1      -4.557   0.144   0.001  0.00  0.00     0.044 A 
ATOM     18  F   UNL d   1      -4.780   2.485  -0.001  0.00  0.00    -0.206 F 
ATOM     19  C   UNL d   1      -0.335  -4.142   0.005  0.00  0.00     0.118 C 
ATOM     20  C   UNL d   1       2.947   1.568   0.001  0.00  0.00     0.032 A 
ATOM     21  C   UNL d   1       3.434  -1.149  -0.001  0.00  0.00     0.032 A 
ATOM     22  C   UNL d   1       4.265   1.103   0.000  0.00  0.00     0.002 A 
ATOM     23  C   UNL d   1       4.510  -0.262  -0.001  0.00  0.00     0.002 A 
ENDROOT
TORSDOF 0
