REMARK  6 active torsions:
REMARK  status: ('A' for Active; 'I' for Inactive)
REMARK    1  A    between atoms: N_6  and  C_1 
REMARK    2  A    between atoms: C_8  and  C_2 
REMARK    3  A    between atoms: C_11  and  C_5 
REMARK       I    between atoms: C_7  and  N_6 
REMARK    4  A    between atoms: C_9  and  C_7 
REMARK    5  A    between atoms: O_17  and  C_8 
REMARK    6  A    between atoms: C_20  and  O_17 
ROOT
ATOM      1  C   UNL d   1       0.440   1.125   0.179  0.00  0.00     0.094 C 
ATOM      2  C   UNL d   1       1.610   0.396   0.469  0.00  0.00     0.074 C 
ATOM      3  S   UNL d   1      -0.887   0.029  -0.011  0.00  0.00    -0.071 SA
ATOM      4  C   UNL d   1       1.370  -1.011   0.208  0.00  0.00     0.040 C 
ATOM      5  C   UNL d   1       0.056  -1.363   0.060  0.00  0.00     0.018 C 
ENDROOT
BRANCH   1   6
ATOM      6  N   UNL d   1       0.140   2.505   0.060  0.00  0.00    -0.316 N 
ATOM      7  C   UNL d   1      -1.109   3.048  -0.370  0.00  0.00     0.263 C 
ATOM      8  O   UNL d   1      -2.130   2.394  -0.559  0.00  0.00    -0.267 OA
ATOM      9  H   UNL d   1       0.897   3.162   0.206  0.00  0.00     0.169 HD
BRANCH   7  10
ATOM     10  C   UNL d   1      -1.172   4.495  -0.628  0.00  0.00     0.072 A 
ATOM     11  S   UNL d   1       0.188   5.528  -0.570  0.00  0.00    -0.097 SA
ATOM     12  C   UNL d   1      -0.721   6.886  -1.090  0.00  0.00     0.050 A 
ATOM     13  C   UNL d   1      -2.048   6.580  -1.271  0.00  0.00     0.009 A 
ATOM     14  C   UNL d   1      -2.312   5.205  -1.000  0.00  0.00     0.025 A 
ENDBRANCH   7  10
ENDBRANCH   1   6
BRANCH   2  15
ATOM     15  C   UNL d   1       2.979   0.741   0.904  0.00  0.00     0.296 C 
ATOM     16  O   UNL d   1       3.546   1.818   0.706  0.00  0.00    -0.259 OA
BRANCH  15  17
ATOM     17  O   UNL d   1       3.554  -0.343   1.534  0.00  0.00    -0.318 OA
BRANCH  17  18
ATOM     18  C   UNL d   1       4.921  -0.796   1.340  0.00  0.00     0.174 C 
ATOM     19  C   UNL d   1       5.602  -1.081   2.676  0.00  0.00     0.034 C 
ENDBRANCH  17  18
ENDBRANCH  15  17
ENDBRANCH   2  15
BRANCH   5  20
ATOM     20  C   UNL d   1      -0.500  -2.719   0.037  0.00  0.00    -0.019 A 
ATOM     21  C   UNL d   1      -1.679  -3.044  -0.642  0.00  0.00     0.013 A 
ATOM     22  C   UNL d   1      -2.173  -4.351  -0.613  0.00  0.00     0.001 A 
ATOM     23  C   UNL d   1      -1.495  -5.345   0.085  0.00  0.00     0.000 A 
ATOM     24  C   UNL d   1      -0.319  -5.041   0.761  0.00  0.00     0.001 A 
ATOM     25  C   UNL d   1       0.172  -3.738   0.737  0.00  0.00     0.013 A 
ENDBRANCH   5  20
TORSDOF 6
