REMARK  3 active torsions:
REMARK  status: ('A' for Active; 'I' for Inactive)
REMARK    1  A    between atoms: C_13  and  C_8 
REMARK    2  A    between atoms: O_16  and  C_9 
REMARK    3  A    between atoms: C_21  and  O_16 
ROOT
ATOM      1  C   UNL d   1      -0.353  -1.074   0.114  0.00  0.00     0.184 A 
ATOM      2  C   UNL d   1      -0.818  -2.424  -0.039  0.00  0.00     0.090 A 
ATOM      3  O   UNL d   1      -1.168   0.033   0.182  0.00  0.00    -0.272 OA
ATOM      4  N   UNL d   1       0.926  -0.729   0.092  0.00  0.00    -0.277 N 
ATOM      5  HN  UNL d   1       1.722  -1.365   0.048  1.00  0.00     0.189 HD
ATOM      6  N   UNL d   1       0.985   0.646   0.140  0.00  0.00    -0.277 N 
ATOM      7  HN  UNL d   1       1.825   1.224   0.155  1.00  0.00     0.189 HD
ATOM      8  C   UNL d   1      -0.263   1.062   0.162  0.00  0.00     0.174 A 
ATOM      9  C   UNL d   1      -1.951  -3.052   0.458  0.00  0.00     0.090 A 
ATOM     10  S   UNL d   1       0.112  -3.503  -1.015  0.00  0.00    -0.095 SA
ATOM     11  C   UNL d   1      -2.048  -4.408  -0.002  0.00  0.00     0.045 A 
ATOM     12  C   UNL d   1      -1.002  -4.770  -0.815  0.00  0.00     0.053 A 
ENDROOT
BRANCH   9  13
ATOM     13  O   UNL d   1      -2.825  -2.404   1.286  0.00  0.00    -0.350 OA
BRANCH  13  14
ATOM     14  C   UNL d   1      -3.905  -3.231   1.743  0.00  0.00     0.171 C 
ATOM     15  C   UNL d   1      -4.812  -2.457   2.683  0.00  0.00     0.034 C 
ENDBRANCH  13  14
ENDBRANCH   9  13
BRANCH   8  16
ATOM     16  C   UNL d   1      -0.789   2.421   0.139  0.00  0.00     0.017 A 
ATOM     17  C   UNL d   1       0.032   3.505   0.494  0.00  0.00     0.017 A 
ATOM     18  C   UNL d   1      -0.458   4.816   0.463  0.00  0.00     0.025 A 
ATOM     19  C   UNL d   1      -1.770   5.054   0.062  0.00  0.00     0.034 A 
ATOM     20  C   UNL d   1      -2.593   3.995  -0.312  0.00  0.00     0.025 A 
ATOM     21 CL   UNL d   1      -2.375   6.662   0.023  0.00  0.00    -0.084 Cl
ATOM     22  C   UNL d   1      -2.105   2.686  -0.271  0.00  0.00     0.017 A 
ENDBRANCH   8  16
TORSDOF 3
