REMARK  8 active torsions:
REMARK  status: ('A' for Active; 'I' for Inactive)
REMARK    1  A    between atoms: C_3  and  O_20 
REMARK    2  A    between atoms: C_21  and  C_7 
REMARK    3  A    between atoms: C_16  and  O_18 
REMARK    4  A    between atoms: O_18  and  C_17 
REMARK    5  A    between atoms: C_27  and  C_21 
REMARK    6  A    between atoms: C_25  and  C_27 
REMARK    7  A    between atoms: C_29  and  C_25 
REMARK    8  A    between atoms: C_30  and  C_29 
ROOT
ATOM      1  C   UNL d   1      15.520   1.517  -2.138  0.00  0.00    -0.036 C 
ATOM      2  C   UNL d   1      11.763   3.375  -0.667  0.00  0.00    -0.009 C 
ATOM      3  C   UNL d   1      10.868   2.570   0.370  0.00  0.00     0.068 C 
ATOM      4  C   UNL d   1      14.754   1.071  -0.855  0.00  0.00    -0.002 C 
ATOM      5  C   UNL d   1      12.597   2.389  -1.604  0.00  0.00     0.001 C 
ATOM      6  C   UNL d   1      13.221   1.127  -0.940  0.00  0.00    -0.005 C 
ATOM      7  C   UNL d   1      16.122   0.172  -2.652  0.00  0.00    -0.002 C 
ATOM      8  C   UNL d   1      14.589   2.139  -3.196  0.00  0.00     0.010 C 
ATOM      9  C   UNL d   1       9.370   2.617   0.066  0.00  0.00     0.071 C 
ATOM     10  C   UNL d   1      13.579   3.099  -2.572  0.00  0.00     0.007 C 
ATOM     11  C   UNL d   1      15.231  -0.373  -0.552  0.00  0.00     0.006 C 
ATOM     12  C   UNL d   1      10.886   4.269  -1.621  0.00  0.00     0.015 C 
ATOM     13  C   UNL d   1      16.497  -0.562  -1.365  0.00  0.00     0.006 C 
ATOM     14  C   UNL d   1      12.659   0.789   0.439  0.00  0.00     0.008 C 
ATOM     15  C   UNL d   1      11.186   1.073   0.504  0.00  0.00     0.039 C 
ATOM     16  C   UNL d   1       8.828   4.025  -0.048  0.00  0.00     0.134 C 
ATOM     17  C   UNL d   1       9.532   4.803  -1.149  0.00  0.00     0.033 C 
ATOM     18  C   UNL d   1      16.557   2.569  -1.679  0.00  0.00     0.016 C 
ATOM     19  C   UNL d   1      12.745   4.338   0.062  0.00  0.00     0.019 C 
ENDROOT
BRANCH   7  20
ATOM     20  C   UNL d   1      17.164   0.109  -3.792  0.00  0.00    -0.014 C 
ATOM     21  C   UNL d   1      18.491   0.820  -3.525  0.00  0.00     0.010 C 
BRANCH  20  22
ATOM     22  C   UNL d   1      17.490  -1.365  -4.188  0.00  0.00     0.005 C 
BRANCH  22  23
ATOM     23  C   UNL d   1      16.292  -2.300  -4.429  0.00  0.00     0.001 C 
BRANCH  23  24
ATOM     24  C   UNL d   1      15.367  -1.811  -5.545  0.00  0.00     0.004 C 
BRANCH  24  25
ATOM     25  C   UNL d   1      14.123  -2.694  -5.754  0.00  0.00    -0.023 C 
ATOM     26  C   UNL d   1      13.200  -2.707  -4.532  0.00  0.00     0.009 C 
ATOM     27  C   UNL d   1      13.350  -2.187  -6.975  0.00  0.00     0.009 C 
ENDBRANCH  24  25
ENDBRANCH  23  24
ENDBRANCH  22  23
ENDBRANCH  20  22
ENDBRANCH   7  20
BRANCH   3  28
ATOM     28  O   UNL d   1      11.012   3.135   1.687  0.00  0.00    -0.389 OA
ATOM     29  H   UNL d   1      11.902   2.940   2.013  0.00  0.00     0.210 HD
ENDBRANCH   3  28
BRANCH  16  30
ATOM     30  O   UNL d   1       7.429   3.870  -0.380  0.00  0.00    -0.316 OA
BRANCH  30  31
ATOM     31  C   UNL d   1       6.629   4.950  -0.213  0.00  0.00     0.255 C 
ATOM     32  O   UNL d   1       6.980   6.037   0.232  0.00  0.00    -0.266 OA
ATOM     33  C   UNL d   1       5.261   4.662  -0.737  0.00  0.00     0.126 C 
ENDBRANCH  30  31
ENDBRANCH  16  30
TORSDOF 8
