REMARK  2 active torsions:
REMARK  status: ('A' for Active; 'I' for Inactive)
REMARK    1  A    between atoms: C_4  and  C_1 
REMARK    2  A    between atoms: O_17  and  C_15 
ROOT
ATOM      1  C   UNL d   1      -1.508   2.213  -0.012  0.00  0.00     0.001 A 
ATOM      2  C   UNL d   1      -1.295   3.146  -1.040  0.00  0.00     0.026 A 
ATOM      3  C   UNL d   1      -1.959   4.387  -1.058  0.00  0.00    -0.025 A 
ATOM      4  C   UNL d   1      -2.853   4.708  -0.016  0.00  0.00    -0.023 A 
ATOM      5  C   UNL d   1      -3.523   5.942  -0.040  0.00  0.00     0.049 A 
ATOM      6  C   UNL d   1      -2.394   2.554   1.018  0.00  0.00     0.015 A 
ATOM      7  C   UNL d   1      -3.057   3.785   1.018  0.00  0.00     0.013 A 
ATOM      8  C   UNL d   1      -1.760   5.313  -2.094  0.00  0.00     0.015 A 
ATOM      9  C   UNL d   1      -3.323   6.856  -1.079  0.00  0.00     0.069 A 
ATOM     10  C   UNL d   1      -2.438   6.537  -2.106  0.00  0.00     0.037 A 
ENDROOT
BRANCH   1  11
ATOM     11  C   UNL d   1      -0.834   0.918  -0.036  0.00  0.00     0.110 A 
ATOM     12  O   UNL d   1      -1.102   0.069   1.001  0.00  0.00    -0.238 OA
ATOM     13  N   UNL d   1      -0.409  -1.119   0.828  0.00  0.00    -0.272 N 
ATOM     14  C   UNL d   1       0.267  -0.966  -0.311  0.00  0.00     0.117 A 
ATOM     15  HN  UNL d   1      -0.415  -1.934   1.441  1.00  0.00     0.194 HD
ATOM     16  C   UNL d   1       0.043   0.293  -0.894  0.00  0.00     0.059 A 
ENDBRANCH   1  11
BRANCH   9  17
ATOM     17  O   UNL d   1      -4.048   8.011  -0.971  0.00  0.00    -0.356 OA
ATOM     18  C   UNL d   1      -3.885   8.972  -2.006  0.00  0.00     0.210 C 
ENDBRANCH   9  17
TORSDOF 2
