REMARK  10 active torsions:
REMARK  status: ('A' for Active; 'I' for Inactive)
REMARK    1  A    between atoms: C_7  and  C_1 
REMARK    2  A    between atoms: N_21  and  C_1 
REMARK    3  A    between atoms: C_2  and  C_8 
REMARK    4  A    between atoms: N_22  and  C_2 
REMARK    5  A    between atoms: O_13  and  N_3 
REMARK    6  A    between atoms: O_12  and  N_5 
REMARK    7  A    between atoms: C_9  and  O_13 
REMARK    8  A    between atoms: C_14  and  C_9 
REMARK    9  A    between atoms: C_10  and  O_12 
REMARK   10  A    between atoms: C_15  and  C_10 
ROOT
ATOM      1  C   UNL d   1      -1.087   3.615   0.068  0.00  0.00     0.005 A 
ATOM      2  C   UNL d   1       1.008   4.880   0.145  0.00  0.00     0.005 A 
ATOM      3  C   UNL d   1       0.322   3.653   0.050  0.00  0.00     0.029 A 
ATOM      4  C   UNL d   1      -1.808   4.811   0.173  0.00  0.00     0.021 A 
ATOM      5  C   UNL d   1       0.261   6.064   0.261  0.00  0.00     0.021 A 
ATOM      6  C   UNL d   1      -1.143   6.040   0.269  0.00  0.00    -0.060 A 
ATOM      7  C   UNL d   1      -1.933   7.312   0.369  0.00  0.00     0.048 C 
ENDROOT
BRANCH   1   8
ATOM      8  C   UNL d   1      -1.845   2.312  -0.028  0.00  0.00     0.109 C 
ATOM      9  N   UNL d   1      -3.052   2.337  -0.518  0.00  0.00    -0.246 N 
ATOM     10  HN  UNL d   1      -3.508   3.187  -0.849  1.00  0.00     0.196 HD
BRANCH   9  11
ATOM     11  O   UNL d   1      -3.664   1.058  -0.544  0.00  0.00    -0.198 OA
BRANCH  11  12
ATOM     12  C   UNL d   1      -4.882   1.133  -1.187  0.00  0.00     0.288 C 
ATOM     13  O   UNL d   1      -5.362   2.144  -1.696  0.00  0.00    -0.262 OA
BRANCH  12  14
ATOM     14  C   UNL d   1      -5.637  -0.212  -1.179  0.00  0.00     0.039 C 
ATOM     15  C   UNL d   1      -4.817  -1.378  -0.613  0.00  0.00     0.025 C 
ATOM     16  C   UNL d   1      -6.909  -0.036  -0.333  0.00  0.00     0.025 C 
ATOM     17  C   UNL d   1      -6.044  -0.556  -2.623  0.00  0.00     0.025 C 
ENDBRANCH  12  14
ENDBRANCH  11  12
ENDBRANCH   9  11
BRANCH   8  18
ATOM     18  N   UNL d   1      -1.237   1.163   0.427  0.00  0.00    -0.286 NA
ATOM     19  H   UNL d   1      -1.905   0.408   0.548  0.00  0.00     0.125 HD
ATOM     20  H   UNL d   1      -0.651   1.282   1.246  0.00  0.00     0.125 HD
ENDBRANCH   8  18
ENDBRANCH   1   8
BRANCH   2  21
ATOM     21  C   UNL d   1       2.523   4.976   0.100  0.00  0.00     0.109 C 
ATOM     22  N   UNL d   1       3.068   6.159   0.186  0.00  0.00    -0.246 N 
ATOM     23  HN  UNL d   1       2.532   7.019   0.299  1.00  0.00     0.196 HD
BRANCH  22  24
ATOM     24  O   UNL d   1       4.484   6.126   0.107  0.00  0.00    -0.198 OA
BRANCH  24  25
ATOM     25  C   UNL d   1       4.994   7.399   0.249  0.00  0.00     0.288 C 
ATOM     26  O   UNL d   1       4.338   8.414   0.480  0.00  0.00    -0.262 OA
BRANCH  25  27
ATOM     27  C   UNL d   1       6.527   7.442   0.068  0.00  0.00     0.039 C 
ATOM     28  C   UNL d   1       7.171   6.054  -0.052  0.00  0.00     0.025 C 
ATOM     29  C   UNL d   1       6.835   8.250  -1.202  0.00  0.00     0.025 C 
ATOM     30  C   UNL d   1       7.147   8.162   1.278  0.00  0.00     0.025 C 
ENDBRANCH  25  27
ENDBRANCH  24  25
ENDBRANCH  22  24
BRANCH  21  31
ATOM     31  N   UNL d   1       3.276   3.831  -0.028  0.00  0.00    -0.286 NA
ATOM     32  H   UNL d   1       2.928   2.999   0.434  0.00  0.00     0.125 HD
ATOM     33  H   UNL d   1       4.256   3.993   0.160  0.00  0.00     0.125 HD
ENDBRANCH  21  31
ENDBRANCH   2  21
TORSDOF 10
