REMARK  5 active torsions:
REMARK  status: ('A' for Active; 'I' for Inactive)
REMARK    1  A    between atoms: C_10  and  N_1 
REMARK    2  A    between atoms: C_7  and  C_3 
REMARK    3  A    between atoms: N_9  and  C_19 
REMARK    4  A    between atoms: C_14  and  C_10 
REMARK    5  A    between atoms: C_19  and  C_14 
ROOT
ATOM      1  N   UNL d   1       2.089  -0.327   0.246  0.00  0.00    -0.327 N 
ATOM      2  C   UNL d   1       1.179   0.718   0.068  0.00  0.00     0.257 C 
ATOM      3  C   UNL d   1       1.675  -1.696  -0.048  0.00  0.00     0.199 C 
ATOM      4  N   UNL d   1       0.327  -1.939   0.441  0.00  0.00    -0.266 NA
ATOM      5  C   UNL d   1      -0.251   0.363  -0.060  0.00  0.00     0.053 A 
ATOM      6  C   UNL d   1      -0.622  -0.969   0.121  0.00  0.00     0.026 A 
ATOM      7  O   UNL d   1       1.488   1.908   0.062  0.00  0.00    -0.267 OA
ATOM      8  C   UNL d   1      -1.216   1.359  -0.262  0.00  0.00     0.019 A 
ATOM      9  C   UNL d   1      -1.986  -1.283   0.158  0.00  0.00     0.024 A 
ATOM     10  C   UNL d   1      -2.570   1.026  -0.257  0.00  0.00     0.001 A 
ATOM     11  C   UNL d   1      -2.954  -0.296  -0.042  0.00  0.00     0.002 A 
ATOM     12  H   UNL d   1       0.014  -2.883   0.239  0.00  0.00     0.130 HD
ENDROOT
BRANCH   1  13
ATOM     13  C   UNL d   1       3.491   0.037   0.511  0.00  0.00     0.130 C 
BRANCH  13  14
ATOM     14  C   UNL d   1       4.584  -0.524  -0.404  0.00  0.00     0.050 C 
BRANCH  14  15
ATOM     15  C   UNL d   1       4.417  -0.249  -1.900  0.00  0.00     0.274 C 
BRANCH  15  16
ATOM     16  N   UNL d   1       4.547   1.161  -2.286  0.00  0.00     0.092 N 
ATOM     17  C   UNL d   1       5.901   1.716  -2.073  0.00  0.00     0.298 C 
ATOM     18  C   UNL d   1       6.952   1.169  -3.052  0.00  0.00     0.198 C 
ATOM     19  O   UNL d   1       6.569   1.411  -4.411  0.00  0.00    -0.388 OA
ATOM     20  C   UNL d   1       5.282   0.848  -4.691  0.00  0.00     0.198 C 
ATOM     21  C   UNL d   1       4.205   1.357  -3.714  0.00  0.00     0.298 C 
ENDBRANCH  15  16
ENDBRANCH  14  15
ENDBRANCH  13  14
ENDBRANCH   1  13
BRANCH   3  22
ATOM     22  C   UNL d   1       2.540  -2.802   0.535  0.00  0.00    -0.021 A 
ATOM     23  C   UNL d   1       2.686  -2.946   1.924  0.00  0.00     0.011 A 
ATOM     24  C   UNL d   1       3.493  -3.954   2.455  0.00  0.00     0.007 A 
ATOM     25  C   UNL d   1       4.170  -4.841   1.611  0.00  0.00    -0.062 A 
ATOM     26  C   UNL d   1       4.009  -4.718   0.226  0.00  0.00     0.007 A 
ATOM     27  C   UNL d   1       5.043  -5.909   2.197  0.00  0.00     0.048 C 
ATOM     28  C   UNL d   1       3.192  -3.720  -0.308  0.00  0.00     0.011 A 
ENDBRANCH   3  22
TORSDOF 5
