REMARK  4 active torsions:
REMARK  status: ('A' for Active; 'I' for Inactive)
REMARK    1  A    between atoms: C_8  and  N_1 
REMARK    2  A    between atoms: C_7  and  C_2 
REMARK    3  A    between atoms: N_10  and  C_9 
REMARK    4  A    between atoms: O_16  and  C_13 
ROOT
ATOM      1  N   UNL d   1      -0.151  -1.347  -0.074  0.00  0.00    -0.225 N 
ATOM      2  C   UNL d   1       1.058  -0.684   0.128  0.00  0.00     0.139 C 
ATOM      3  N   UNL d   1      -0.511   0.757  -0.210  0.00  0.00    -0.007 NA
ATOM      4  N   UNL d   1      -1.085  -0.420  -0.406  0.00  0.00     0.001 NA
ATOM      5  N   UNL d   1       0.808   0.614   0.128  0.00  0.00    -0.270 N 
ATOM      6  HN  UNL d   1       1.468   1.362   0.338  1.00  0.00     0.185 HD
ENDROOT
BRANCH   1   7
ATOM      7  C   UNL d   1      -0.487  -2.722   0.020  0.00  0.00     0.056 A 
ATOM      8  C   UNL d   1       0.213  -3.580   0.877  0.00  0.00     0.034 A 
ATOM      9  C   UNL d   1      -0.088  -4.946   0.907  0.00  0.00     0.039 A 
ATOM     10  C   UNL d   1      -1.079  -5.466   0.075  0.00  0.00     0.068 A 
ATOM     11  C   UNL d   1      -1.813  -4.598  -0.738  0.00  0.00     0.039 A 
ATOM     12  C   UNL d   1      -1.539  -3.227  -0.754  0.00  0.00     0.034 A 
BRANCH  10  13
ATOM     13  O   UNL d   1      -1.424  -6.784  -0.034  0.00  0.00    -0.356 OA
ATOM     14  C   UNL d   1      -0.668  -7.712   0.735  0.00  0.00     0.210 C 
ENDBRANCH  10  13
ENDBRANCH   1   7
BRANCH   2  15
ATOM     15  C   UNL d   1       2.297  -1.376   0.148  0.00  0.00     0.068 C 
ATOM     16  C   UNL d   1       3.379  -0.861   0.744  0.00  0.00     0.088 C 
BRANCH  16  17
ATOM     17  N   UNL d   1       4.664  -1.384   0.838  0.00  0.00    -0.398 N 
ATOM     18  C   UNL d   1       5.130  -2.585   0.145  0.00  0.00     0.148 C 
ATOM     19  C   UNL d   1       5.715  -0.700   1.596  0.00  0.00     0.148 C 
ENDBRANCH  16  17
ENDBRANCH   2  15
TORSDOF 4
