REMARK  5 active torsions:
REMARK  status: ('A' for Active; 'I' for Inactive)
REMARK       I    between atoms: N_2  and  C_1 
REMARK    1  A    between atoms: C_4  and  C_1 
REMARK    2  A    between atoms: C_5  and  N_2 
REMARK    3  A    between atoms: O_7  and  C_3 
REMARK    4  A    between atoms: C_19  and  O_7 
REMARK    5  A    between atoms: C_11  and  C_12 
ROOT
ATOM      1  C   UNL d   1       0.513  -3.608   0.332  0.00  0.00     0.169 A 
ATOM      2  C   UNL d   1       1.027  -2.390   0.799  0.00  0.00     0.067 A 
ATOM      3  N   UNL d   1       1.096  -4.808   0.601  0.00  0.00    -0.345 N 
ATOM      4  HN  UNL d   1       0.690  -5.682   0.269  1.00  0.00     0.167 HD
ATOM      5  C   UNL d   1       2.230  -2.414   1.507  0.00  0.00     0.029 A 
ATOM      6  C   UNL d   1       2.235  -4.792   1.325  0.00  0.00     0.090 A 
ATOM      7  C   UNL d   1       2.841  -3.634   1.784  0.00  0.00     0.019 A 
ENDROOT
BRANCH   2   8
ATOM      8  N   UNL d   1       0.423  -1.131   0.557  0.00  0.00    -0.221 NA
ATOM      9  C   UNL d   1      -0.577  -0.697   1.426  0.00  0.00     0.235 C 
ATOM     10  O   UNL d   1      -1.107  -1.377   2.295  0.00  0.00    -0.274 OA
ATOM     11  H   UNL d   1       1.075  -0.385   0.347  0.00  0.00     0.137 HD
BRANCH   9  12
ATOM     12  C   UNL d   1      -0.908   0.757   1.320  0.00  0.00     0.027 A 
ATOM     13  C   UNL d   1      -1.192   1.490   2.481  0.00  0.00     0.023 A 
ATOM     14  C   UNL d   1      -1.492   2.864   2.413  0.00  0.00    -0.055 A 
ATOM     15  C   UNL d   1      -1.780   3.625   3.677  0.00  0.00     0.049 C 
ATOM     16  C   UNL d   1      -1.522   3.501   1.153  0.00  0.00    -0.056 A 
ATOM     17  C   UNL d   1      -1.245   2.754  -0.003  0.00  0.00     0.008 A 
ATOM     18  C   UNL d   1      -1.861   4.962   1.019  0.00  0.00     0.049 C 
ATOM     19  C   UNL d   1      -0.939   1.393   0.077  0.00  0.00     0.017 A 
ENDBRANCH   9  12
ENDBRANCH   2   8
BRANCH   1  20
ATOM     20  O   UNL d   1      -0.604  -3.587  -0.495  0.00  0.00    -0.292 OA
BRANCH  20  21
ATOM     21  C   UNL d   1      -0.702  -4.539  -1.489  0.00  0.00     0.077 A 
ATOM     22  C   UNL d   1      -1.978  -5.006  -1.789  0.00  0.00     0.038 A 
ATOM     23  C   UNL d   1      -2.175  -5.922  -2.832  0.00  0.00     0.011 A 
ATOM     24  C   UNL d   1      -1.107  -6.393  -3.620  0.00  0.00    -0.050 A 
ATOM     25  C   UNL d   1       0.173  -5.908  -3.304  0.00  0.00     0.011 A 
ATOM     26  C   UNL d   1       0.371  -4.984  -2.266  0.00  0.00     0.038 A 
BRANCH  24  27
ATOM     27  C   UNL d   1      -1.366  -7.365  -4.787  0.00  0.00    -0.024 C 
ATOM     28  C   UNL d   1      -0.090  -7.780  -5.557  0.00  0.00     0.019 C 
ATOM     29  C   UNL d   1      -2.022  -8.663  -4.272  0.00  0.00     0.019 C 
ATOM     30  C   UNL d   1      -2.311  -6.694  -5.809  0.00  0.00     0.019 C 
ENDBRANCH  24  27
ENDBRANCH  20  21
ENDBRANCH   1  20
TORSDOF 5
