REMARK  8 active torsions:
REMARK  status: ('A' for Active; 'I' for Inactive)
REMARK    1  A    between atoms: C_2  and  C_1 
REMARK    2  A    between atoms: C_3  and  O_6 
REMARK    3  A    between atoms: C_19  and  C_3 
REMARK    4  A    between atoms: C_4  and  C_5 
REMARK    5  A    between atoms: C_7  and  C_4 
REMARK    6  A    between atoms: O_6  and  C_7 
REMARK    7  A    between atoms: C_18  and  C_20 
REMARK    8  A    between atoms: C_20  and  C_19 
ROOT
ATOM      1  C   UNL d   1      -1.128   0.945  -5.168  0.00  0.00     0.183 C 
ATOM      2  O   UNL d   1      -0.226   0.648  -4.384  0.00  0.00    -0.290 OA
ENDROOT
BRANCH   1   3
ATOM      3  C   UNL d   1      -2.223  -0.041  -5.431  0.00  0.00     0.012 A 
ATOM      4  C   UNL d   1      -3.285   0.215  -6.305  0.00  0.00     0.016 A 
ATOM      5  C   UNL d   1      -4.304  -0.729  -6.475  0.00  0.00     0.017 A 
ATOM      6  C   UNL d   1      -4.275  -1.952  -5.789  0.00  0.00     0.048 A 
ATOM      7  C   UNL d   1      -3.197  -2.217  -4.934  0.00  0.00     0.017 A 
ATOM      8  C   UNL d   1      -2.183  -1.270  -4.757  0.00  0.00     0.016 A 
BRANCH   6   9
ATOM      9  C   UNL d   1      -5.397  -2.945  -5.977  0.00  0.00     0.417 C 
ATOM     10  F   UNL d   1      -5.237  -4.094  -5.264  0.00  0.00    -0.166 F 
ATOM     11  F   UNL d   1      -5.535  -3.327  -7.277  0.00  0.00    -0.166 F 
ATOM     12  F   UNL d   1      -6.606  -2.438  -5.607  0.00  0.00    -0.166 F 
ENDBRANCH   6   9
ENDBRANCH   1   3
BRANCH   1  13
ATOM     13  C   UNL d   1      -1.138   2.281  -5.905  0.00  0.00     0.262 C 
BRANCH  13  14
ATOM     14  O   UNL d   1      -0.396   3.288  -5.210  0.00  0.00    -0.314 OA
BRANCH  14  15
ATOM     15  C   UNL d   1      -1.083   3.893  -4.202  0.00  0.00     0.259 C 
ATOM     16  O   UNL d   1      -2.212   3.581  -3.844  0.00  0.00    -0.265 OA
BRANCH  15  17
ATOM     17  C   UNL d   1      -0.253   4.967  -3.534  0.00  0.00     0.118 C 
BRANCH  17  18
ATOM     18  C   UNL d   1       0.802   5.583  -4.451  0.00  0.00     0.087 C 
BRANCH  18  19
ATOM     19  C   UNL d   1       0.192   6.279  -5.655  0.00  0.00     0.123 C 
ATOM     20  O   UNL d   1      -1.024   6.399  -5.801  0.00  0.00    -0.298 OA
ATOM     21  C   UNL d   1       1.156   6.827  -6.672  0.00  0.00     0.091 C 
ENDBRANCH  18  19
ENDBRANCH  17  18
ENDBRANCH  15  17
ENDBRANCH  14  15
ENDBRANCH  13  14
ENDBRANCH   1  13
TORSDOF 8
