REMARK  3 active torsions:
REMARK  status: ('A' for Active; 'I' for Inactive)
REMARK    1  A    between atoms: C_6  and  N_1 
REMARK    2  A    between atoms: C_11  and  C_4 
REMARK    3  A    between atoms: C_9  and  C_10 
ROOT
ATOM      1  N   UNL d   1       0.046   0.798  -0.036  0.00  0.00    -0.252 N 
ATOM      2  C   UNL d   1      -0.934   0.055   0.593  0.00  0.00     0.240 C 
ATOM      3  C   UNL d   1       1.008  -0.013  -0.603  0.00  0.00     0.232 C 
ATOM      4  C   UNL d   1      -0.685  -1.410   0.315  0.00  0.00     0.120 C 
ATOM      5  C   UNL d   1       0.703  -1.445  -0.291  0.00  0.00     0.122 C 
ATOM      6  O   UNL d   1      -1.896   0.446   1.242  0.00  0.00    -0.272 OA
ATOM      7  O   UNL d   1       2.027   0.298  -1.205  0.00  0.00    -0.273 OA
ENDROOT
BRANCH   1   8
ATOM      8  C   UNL d   1       0.078   2.224  -0.084  0.00  0.00     0.045 A 
ATOM      9  C   UNL d   1      -0.607   3.018   0.843  0.00  0.00     0.031 A 
ATOM     10  C   UNL d   1      -0.555   4.421   0.784  0.00  0.00     0.010 A 
ATOM     11  C   UNL d   1       0.165   5.091  -0.218  0.00  0.00    -0.051 A 
ATOM     12  C   UNL d   1       0.843   4.293  -1.146  0.00  0.00     0.010 A 
ATOM     13  C   UNL d   1       0.802   2.893  -1.076  0.00  0.00     0.031 A 
BRANCH  11  14
ATOM     14  C   UNL d   1       0.176   6.627  -0.290  0.00  0.00    -0.024 C 
ATOM     15  C   UNL d   1       0.982   7.176  -1.490  0.00  0.00     0.019 C 
ATOM     16  C   UNL d   1      -1.270   7.149  -0.432  0.00  0.00     0.019 C 
ATOM     17  C   UNL d   1       0.802   7.219   0.989  0.00  0.00     0.019 C 
ENDBRANCH  11  14
ENDBRANCH   1   8
BRANCH   4  18
ATOM     18  C   UNL d   1      -1.730  -2.038  -0.586  0.00  0.00    -0.045 A 
ATOM     19  C   UNL d   1      -1.974  -1.565  -1.886  0.00  0.00     0.008 A 
ATOM     20  C   UNL d   1      -2.906  -2.199  -2.711  0.00  0.00     0.001 A 
ATOM     21  C   UNL d   1      -3.610  -3.307  -2.246  0.00  0.00     0.000 A 
ATOM     22  C   UNL d   1      -3.389  -3.779  -0.955  0.00  0.00     0.001 A 
ATOM     23  C   UNL d   1      -2.457  -3.149  -0.129  0.00  0.00     0.008 A 
ENDBRANCH   4  18
TORSDOF 3
