REMARK  2 active torsions:
REMARK  status: ('A' for Active; 'I' for Inactive)
REMARK    1  A    between atoms: C_2  and  C_1 
REMARK       I    between atoms: N_3  and  C_2 
REMARK    2  A    between atoms: C_4  and  N_6 
ROOT
ATOM      1  C   UNL d   1      -1.351   2.781   0.049  0.00  0.00     0.256 C 
ATOM      2  N   UNL d   1      -2.498   3.571   0.083  0.00  0.00    -0.345 N 
ATOM      3  N   UNL d   1      -5.094   4.614  -0.392  0.00  0.00    -0.214 N 
ATOM      4  O   UNL d   1      -0.577   2.788  -0.908  0.00  0.00    -0.267 OA
ATOM      5  C   UNL d   1      -3.458   3.715   1.192  0.00  0.00     0.146 C 
ATOM      6  C   UNL d   1      -2.713   4.538  -1.004  0.00  0.00     0.146 C 
ATOM      7  C   UNL d   1      -4.165   4.518  -1.522  0.00  0.00     0.161 C 
ATOM      8  C   UNL d   1      -4.910   3.627   0.672  0.00  0.00     0.161 C 
ENDROOT
BRANCH   1   9
ATOM      9  C   UNL d   1      -1.051   1.846   1.165  0.00  0.00     0.068 A 
ATOM     10  C   UNL d   1       0.225   1.819   1.746  0.00  0.00     0.117 A 
ATOM     11  C   UNL d   1       0.505   0.889   2.757  0.00  0.00     0.103 A 
ATOM     12  O   UNL d   1       1.176   2.717   1.321  0.00  0.00    -0.345 OA
ATOM     13  O   UNL d   1       1.724   0.777   3.376  0.00  0.00    -0.346 OA
ATOM     14  C   UNL d   1      -0.471  -0.019   3.168  0.00  0.00     0.040 A 
ATOM     15  C   UNL d   1       2.627   1.832   3.024  0.00  0.00     0.202 C 
ATOM     16  C   UNL d   1       2.491   2.210   1.560  0.00  0.00     0.202 C 
ATOM     17  C   UNL d   1      -1.724  -0.022   2.563  0.00  0.00     0.004 A 
ATOM     18  C   UNL d   1      -2.007   0.892   1.543  0.00  0.00     0.020 A 
ENDBRANCH   1   9
BRANCH   3  19
ATOM     19  C   UNL d   1      -6.328   5.192  -0.579  0.00  0.00     0.679 A 
ATOM     20  N   UNL d   1      -6.536   5.936  -1.679  0.00  0.00    -0.202 N 
ATOM     21  C   UNL d   1      -7.702   6.601  -1.780  0.00  0.00     0.107 A 
ATOM     22  HN  UNL d   1      -5.832   5.994  -2.414  1.00  0.00     0.183 HD
ATOM     23  C   UNL d   1      -8.685   6.553  -0.828  0.00  0.00     0.035 A 
ATOM     24  C   UNL d   1      -8.405   5.753   0.247  0.00  0.00     0.107 A 
ATOM     25  N   UNL d   1      -7.253   5.072   0.389  0.00  0.00    -0.202 N 
ATOM     26  HN  UNL d   1      -7.086   4.483   1.206  1.00  0.00     0.183 HD
ENDBRANCH   3  19
TORSDOF 2
