REMARK  8 active torsions:
REMARK  status: ('A' for Active; 'I' for Inactive)
REMARK    1  A    between atoms: S_12  and  C_3 
REMARK    2  A    between atoms: S_13  and  C_10 
REMARK    3  A    between atoms: C_16  and  S_12 
REMARK    4  A    between atoms: C_17  and  S_13 
REMARK    5  A    between atoms: C_14  and  C_16 
REMARK    6  A    between atoms: C_21  and  C_14 
REMARK    7  A    between atoms: C_15  and  C_17 
REMARK    8  A    between atoms: C_20  and  C_15 
ROOT
ATOM      1  C   UNL d   1       0.989  -0.740  -0.022  0.00  0.00     0.090 A 
ATOM      2  C   UNL d   1       0.488   0.560  -0.051  0.00  0.00     0.039 A 
ATOM      3  C   UNL d   1       1.457   1.571  -0.040  0.00  0.00     0.085 A 
ATOM      4  N   UNL d   1       2.283  -1.092   0.008  0.00  0.00    -0.330 N 
ATOM      5  HN  UNL d   1       2.602  -2.060   0.046  1.00  0.00     0.168 HD
ATOM      6  N   UNL d   1       2.768   1.262  -0.025  0.00  0.00    -0.331 N 
ATOM      7  HN  UNL d   1       3.479   1.993  -0.019  1.00  0.00     0.168 HD
ATOM      8  S   UNL d   1      -0.242  -1.944  -0.003  0.00  0.00    -0.075 SA
ATOM      9  C   UNL d   1      -0.934   0.513  -0.064  0.00  0.00    -0.029 A 
ATOM     10  C   UNL d   1       3.112  -0.040  -0.018  0.00  0.00     0.146 A 
ATOM     11  C   UNL d   1      -1.423  -0.765  -0.042  0.00  0.00    -0.008 A 
ATOM     12  C   UNL d   1      -2.046   1.501  -0.107  0.00  0.00     0.041 C 
ATOM     13  C   UNL d   1      -2.902  -0.848  -0.060  0.00  0.00     0.047 C 
ATOM     14  C   UNL d   1      -3.282   0.628   0.265  0.00  0.00     0.010 C 
ENDROOT
BRANCH   3  15
ATOM     15  S   UNL d   1       0.932   3.244   0.159  0.00  0.00    -0.103 SA
BRANCH  15  16
ATOM     16  C   UNL d   1       2.041   4.148  -0.975  0.00  0.00     0.164 C 
BRANCH  16  17
ATOM     17  C   UNL d   1       1.498   5.562  -1.194  0.00  0.00     0.169 C 
ATOM     18  O   UNL d   1       0.355   5.906  -0.889  0.00  0.00    -0.291 OA
BRANCH  17  19
ATOM     19  C   UNL d   1       2.370   6.587  -1.851  0.00  0.00     0.010 A 
ATOM     20  C   UNL d   1       3.655   6.302  -2.323  0.00  0.00     0.015 A 
ATOM     21  C   UNL d   1       4.415   7.306  -2.934  0.00  0.00     0.001 A 
ATOM     22  C   UNL d   1       3.898   8.595  -3.079  0.00  0.00     0.000 A 
ATOM     23  C   UNL d   1       2.621   8.887  -2.615  0.00  0.00     0.001 A 
ATOM     24  C   UNL d   1       1.861   7.888  -2.004  0.00  0.00     0.015 A 
ENDBRANCH  17  19
ENDBRANCH  16  17
ENDBRANCH  15  16
ENDBRANCH   3  15
BRANCH  10  25
ATOM     25  S   UNL d   1       4.858  -0.392   0.085  0.00  0.00    -0.086 SA
BRANCH  25  26
ATOM     26  C   UNL d   1       4.899  -2.018  -0.745  0.00  0.00     0.166 C 
BRANCH  26  27
ATOM     27  C   UNL d   1       4.453  -1.943  -2.198  0.00  0.00     0.169 C 
ATOM     28  O   UNL d   1       4.124  -0.894  -2.753  0.00  0.00    -0.291 OA
BRANCH  27  29
ATOM     29  C   UNL d   1       4.434  -3.201  -3.009  0.00  0.00     0.010 A 
ATOM     30  C   UNL d   1       4.916  -4.428  -2.529  0.00  0.00     0.015 A 
ATOM     31  C   UNL d   1       4.900  -5.556  -3.358  0.00  0.00     0.001 A 
ATOM     32  C   UNL d   1       4.405  -5.472  -4.658  0.00  0.00     0.000 A 
ATOM     33  C   UNL d   1       3.916  -4.259  -5.137  0.00  0.00     0.001 A 
ATOM     34  C   UNL d   1       3.932  -3.131  -4.316  0.00  0.00     0.015 A 
ENDBRANCH  27  29
ENDBRANCH  26  27
ENDBRANCH  25  26
ENDBRANCH  10  25
TORSDOF 8
