REMARK  4 active torsions:
REMARK  status: ('A' for Active; 'I' for Inactive)
REMARK    1  A    between atoms: S_6  and  C_1 
REMARK    2  A    between atoms: C_10  and  C_1 
REMARK    3  A    between atoms: C_9  and  C_3 
REMARK    4  A    between atoms: C_13  and  S_6 
ROOT
ATOM      1  C   UNL d   1       0.009   3.508  -1.187  0.00  0.00     0.124 C 
ATOM      2  N   UNL d   1      -2.555   3.242  -1.402  0.00  0.00    -0.191 NA
ATOM      3  N   UNL d   1       1.067   5.752  -1.916  0.00  0.00    -0.191 NA
ATOM      4  C   UNL d   1      -1.408   3.378  -1.317  0.00  0.00     0.110 C 
ATOM      5  C   UNL d   1       0.592   4.745  -1.581  0.00  0.00     0.110 C 
ATOM      6  C   UNL d   1       0.791   2.511  -0.717  0.00  0.00     0.035 C 
ENDROOT
BRANCH   6   7
ATOM      7  C   UNL d   1       0.328   1.177  -0.350  0.00  0.00     0.022 C 
ATOM      8  C   UNL d   1       1.016   0.138   0.176  0.00  0.00     0.015 C 
BRANCH   8   9
ATOM      9  S   UNL d   1       2.732   0.226   0.475  0.00  0.00    -0.090 SA
BRANCH   9  10
ATOM     10  C   UNL d   1       2.943  -0.261   2.184  0.00  0.00     0.005 A 
ATOM     11  C   UNL d   1       4.112  -0.965   2.524  0.00  0.00     0.020 A 
ATOM     12  C   UNL d   1       4.451  -1.200   3.862  0.00  0.00     0.025 A 
ATOM     13  C   UNL d   1       3.619  -0.731   4.873  0.00  0.00     0.034 A 
ATOM     14  C   UNL d   1       2.435  -0.070   4.554  0.00  0.00     0.025 A 
ATOM     15 CL   UNL d   1       4.077  -0.930   6.520  0.00  0.00    -0.084 Cl
ATOM     16  C   UNL d   1       2.096   0.163   3.214  0.00  0.00     0.020 A 
ENDBRANCH   9  10
ENDBRANCH   8   9
BRANCH   8  17
ATOM     17  C   UNL d   1       0.324  -1.183   0.330  0.00  0.00    -0.019 A 
ATOM     18  C   UNL d   1       0.993  -2.404   0.121  0.00  0.00     0.014 A 
ATOM     19  C   UNL d   1       0.329  -3.632   0.243  0.00  0.00     0.024 A 
ATOM     20  C   UNL d   1      -1.026  -3.663   0.551  0.00  0.00     0.034 A 
ATOM     21  C   UNL d   1      -1.722  -2.476   0.741  0.00  0.00     0.024 A 
ATOM     22 CL   UNL d   1      -1.841  -5.169   0.701  0.00  0.00    -0.084 Cl
ATOM     23  C   UNL d   1      -1.049  -1.252   0.649  0.00  0.00     0.014 A 
ENDBRANCH   8  17
ENDBRANCH   6   7
TORSDOF 4
