REMARK  3 active torsions:
REMARK  status: ('A' for Active; 'I' for Inactive)
REMARK    1  A    between atoms: C_2  and  C_1 
REMARK       I    between atoms: N_3  and  C_1 
REMARK    2  A    between atoms: C_4  and  C_9 
REMARK    3  A    between atoms: O_15  and  C_10 
ROOT
ATOM      1  C   UNL d   1       1.233  -0.137  -0.181  0.00  0.00     0.255 C 
ATOM      2  N   UNL d   1       0.164   0.303  -0.997  0.00  0.00    -0.348 N 
ATOM      3  O   UNL d   1       1.172  -0.155   1.046  0.00  0.00    -0.267 OA
ATOM      4  C   UNL d   1      -0.962   0.904  -0.284  0.00  0.00     0.127 C 
ATOM      5  C   UNL d   1       0.348   0.636  -2.406  0.00  0.00     0.127 C 
ATOM      6  C   UNL d   1      -1.951   1.683  -2.570  0.00  0.00     0.024 C 
ATOM      7  C   UNL d   1      -2.201   1.234  -1.120  0.00  0.00     0.029 C 
ATOM      8  C   UNL d   1      -0.938   0.724  -3.201  0.00  0.00     0.029 C 
ENDROOT
BRANCH   1   9
ATOM      9  C   UNL d   1       2.496  -0.579  -0.819  0.00  0.00     0.053 A 
ATOM     10  C   UNL d   1       2.958  -1.893  -0.687  0.00  0.00     0.049 A 
ATOM     11 CL   UNL d   1       2.143  -3.084   0.263  0.00  0.00    -0.083 Cl
ATOM     12  C   UNL d   1       4.115  -2.292  -1.367  0.00  0.00     0.025 A 
ATOM     13  C   UNL d   1       4.806  -1.390  -2.178  0.00  0.00     0.002 A 
ATOM     14  C   UNL d   1       4.378  -0.068  -2.270  0.00  0.00     0.001 A 
ATOM     15  C   UNL d   1       3.249   0.346  -1.564  0.00  0.00     0.019 A 
ENDBRANCH   1   9
BRANCH   6  16
ATOM     16  C   UNL d   1      -1.603   3.154  -2.800  0.00  0.00    -0.021 A 
ATOM     17  C   UNL d   1      -2.082   3.855  -3.925  0.00  0.00     0.074 A 
ATOM     18  C   UNL d   1      -1.790   5.213  -4.119  0.00  0.00     0.037 A 
ATOM     19  C   UNL d   1      -1.002   5.902  -3.204  0.00  0.00     0.003 A 
ATOM     20  C   UNL d   1      -0.513   5.231  -2.085  0.00  0.00     0.001 A 
ATOM     21  C   UNL d   1      -0.806   3.876  -1.898  0.00  0.00     0.010 A 
BRANCH  17  22
ATOM     22  O   UNL d   1      -2.986   3.316  -4.812  0.00  0.00    -0.355 OA
ATOM     23  C   UNL d   1      -2.392   2.413  -5.740  0.00  0.00     0.210 C 
ENDBRANCH  17  22
ENDBRANCH   6  16
TORSDOF 3
