REMARK  5 active torsions:
REMARK  status: ('A' for Active; 'I' for Inactive)
REMARK    1  A    between atoms: N_3  and  C_1 
REMARK    2  A    between atoms: N_5  and  C_1 
REMARK       I    between atoms: C_2  and  N_4 
REMARK    3  A    between atoms: O_7  and  C_2 
REMARK    4  A    between atoms: C_6  and  N_5 
REMARK    5  A    between atoms: C_14  and  O_7 
ROOT
ATOM      1  C   UNL d   1      -2.954  -3.823  -1.670  0.00  0.00     0.363 C 
ATOM      2  N   UNL d   1       0.092  -1.117  -0.499  0.00  0.00    -0.356 N 
ATOM      3  N   UNL d   1      -2.357  -2.792  -0.962  0.00  0.00    -0.326 N 
ATOM      4  O   UNL d   1      -3.140  -4.940  -1.209  0.00  0.00    -0.238 OA
ATOM      5  C   UNL d   1      -0.811  -0.913  -1.648  0.00  0.00     0.145 C 
ATOM      6  C   UNL d   1      -2.249  -1.413  -1.451  0.00  0.00     0.148 C 
ATOM      7  C   UNL d   1      -0.491  -3.224   0.680  0.00  0.00     0.040 C 
ATOM      8  C   UNL d   1       0.471  -2.515  -0.266  0.00  0.00     0.127 C 
ATOM      9  C   UNL d   1      -1.982  -3.012   0.431  0.00  0.00     0.129 C 
ENDROOT
BRANCH   2  10
ATOM     10  C   UNL d   1       0.914  -0.035  -0.125  0.00  0.00     0.174 C 
ATOM     11  S   UNL d   1       2.589  -0.083  -0.066  0.00  0.00    -0.041 SA
BRANCH  10  12
ATOM     12  N   UNL d   1       0.142   1.048   0.282  0.00  0.00    -0.333 N 
ATOM     13  H   UNL d   1      -0.654   0.782   0.846  0.00  0.00     0.168 HD
BRANCH  12  14
ATOM     14  C   UNL d   1       0.447   2.428   0.227  0.00  0.00     0.040 A 
ATOM     15  C   UNL d   1      -0.099   3.308   1.181  0.00  0.00    -0.035 A 
ATOM     16  C   UNL d   1      -0.005   4.696   0.965  0.00  0.00     0.015 A 
ATOM     17  C   UNL d   1      -0.759   2.820   2.441  0.00  0.00     0.050 C 
ATOM     18  C   UNL d   1       0.650   5.212  -0.160  0.00  0.00    -0.061 A 
ATOM     19  C   UNL d   1       1.257   4.327  -1.052  0.00  0.00     0.009 A 
ATOM     20  C   UNL d   1       0.627   6.685  -0.438  0.00  0.00     0.048 C 
ATOM     21  C   UNL d   1       1.156   2.948  -0.860  0.00  0.00     0.030 A 
ENDBRANCH  12  14
ENDBRANCH  10  12
ENDBRANCH   2  10
BRANCH   1  22
ATOM     22  O   UNL d   1      -3.347  -3.447  -2.921  0.00  0.00    -0.294 OA
BRANCH  22  23
ATOM     23  C   UNL d   1      -4.178  -4.314  -3.741  0.00  0.00     0.061 C 
ATOM     24  C   UNL d   1      -5.519  -4.604  -3.052  0.00  0.00     0.046 C 
ATOM     25  C   UNL d   1      -4.447  -3.507  -5.022  0.00  0.00     0.046 C 
ATOM     26  C   UNL d   1      -3.452  -5.607  -4.129  0.00  0.00     0.046 C 
ENDBRANCH  22  23
ENDBRANCH   1  22
TORSDOF 5
