REMARK  5 active torsions:
REMARK  status: ('A' for Active; 'I' for Inactive)
REMARK    1  A    between atoms: C_11  and  N_6 
REMARK    2  A    between atoms: N_16  and  C_10 
REMARK    3  A    between atoms: C_12  and  C_11 
REMARK    4  A    between atoms: C_24  and  N_16 
REMARK    5  A    between atoms: C_26  and  C_24 
ROOT
ATOM      1  C   UNL d   1      -0.203  -1.009   0.037  0.00  0.00     0.160 A 
ATOM      2  C   UNL d   1      -0.544   0.296   0.218  0.00  0.00     0.165 A 
ATOM      3  N   UNL d   1      -1.289  -1.802  -0.123  0.00  0.00    -0.174 N 
ATOM      4  HN  UNL d   1      -1.302  -2.812  -0.264  1.00  0.00     0.186 HD
ATOM      5  N   UNL d   1       1.105  -1.430  -0.001  0.00  0.00    -0.287 N 
ATOM      6  N   UNL d   1      -1.920   0.289   0.284  0.00  0.00    -0.170 N 
ATOM      7  N   UNL d   1       1.747   0.863   0.172  0.00  0.00    -0.269 N 
ATOM      8  C   UNL d   1       2.129  -0.485   0.055  0.00  0.00     0.332 A 
ATOM      9  C   UNL d   1       0.427   1.335   0.297  0.00  0.00     0.282 A 
ATOM     10  C   UNL d   1      -2.321  -0.994  -0.058  0.00  0.00     0.683 C 
ATOM     11  O   UNL d   1       3.313  -0.828   0.001  0.00  0.00    -0.246 OA
ATOM     12  O   UNL d   1       0.142   2.519   0.432  0.00  0.00    -0.265 OA
ATOM     13  C   UNL d   1       1.450  -2.833  -0.108  0.00  0.00     0.163 C 
ATOM     14  C   UNL d   1       2.788   1.871   0.130  0.00  0.00     0.164 C 
ENDROOT
BRANCH   6  15
ATOM     15  C   UNL d   1      -2.799   1.423   0.523  0.00  0.00     0.187 C 
BRANCH  15  16
ATOM     16  C   UNL d   1      -3.241   1.741   1.953  0.00  0.00    -0.028 C 
ATOM     17  C   UNL d   1      -2.821   1.119   3.173  0.00  0.00    -0.018 C 
ATOM     18  C   UNL d   1      -3.086   1.796   4.397  0.00  0.00    -0.025 C 
ATOM     19  C   UNL d   1      -2.153  -0.123   3.300  0.00  0.00     0.013 C 
ATOM     20  C   UNL d   1      -2.500   1.361   5.598  0.00  0.00     0.012 C 
ATOM     21  C   UNL d   1      -3.920   2.919   4.425  0.00  0.00     0.012 C 
ATOM     22  C   UNL d   1      -1.717   0.214   5.643  0.00  0.00     0.001 C 
ATOM     23  C   UNL d   1      -1.597  -0.563   4.505  0.00  0.00     0.001 C 
ATOM     24  C   UNL d   1      -4.438   3.446   3.253  0.00  0.00     0.002 C 
ATOM     25  C   UNL d   1      -4.069   2.889   2.034  0.00  0.00     0.010 C 
ENDBRANCH  15  16
ENDBRANCH   6  15
BRANCH  10  26
ATOM     26  N   UNL d   1      -3.614  -1.325  -0.259  0.00  0.00    -0.226 N 
ATOM     27  H   UNL d   1      -4.374  -0.742   0.070  0.00  0.00     0.177 HD
BRANCH  26  28
ATOM     28  C   UNL d   1      -3.957  -2.728  -0.443  0.00  0.00     0.137 C 
BRANCH  28  29
ATOM     29  C   UNL d   1      -4.150  -3.433   0.899  0.00  0.00     0.016 C 
ATOM     30  C   UNL d   1      -5.352  -2.905   1.669  0.00  0.00     0.006 C 
ENDBRANCH  28  29
ENDBRANCH  26  28
ENDBRANCH  10  26
TORSDOF 5
