REMARK  4 active torsions:
REMARK  status: ('A' for Active; 'I' for Inactive)
REMARK       I    between atoms: C_2  and  N_1 
REMARK    1  A    between atoms: O_15  and  C_2 
REMARK       I    between atoms: C_3  and  N_4 
REMARK    2  A    between atoms: C_5  and  C_3 
REMARK    3  A    between atoms: N_4  and  C_10 
REMARK    4  A    between atoms: C_19  and  O_15 
ROOT
ATOM      1  N   UNL d   1       1.285  -0.166   0.621  0.00  0.00    -0.328 N 
ATOM      2  C   UNL d   1       2.592  -0.198   1.088  0.00  0.00     0.362 C 
ATOM      3  C   UNL d   1       0.713   1.137   0.305  0.00  0.00     0.130 C 
ATOM      4  C   UNL d   1       0.673  -1.316  -0.035  0.00  0.00     0.130 C 
ATOM      5  O   UNL d   1       3.245   0.801   1.367  0.00  0.00    -0.238 OA
ATOM      6  C   UNL d   1      -1.482   0.028  -0.273  0.00  0.00     0.087 C 
ATOM      7  C   UNL d   1      -0.791   1.146   0.518  0.00  0.00     0.045 C 
ATOM      8  C   UNL d   1      -0.849  -1.321   0.092  0.00  0.00     0.045 C 
ENDROOT
BRANCH   6   9
ATOM      9  N   UNL d   1      -1.476   0.245  -1.722  0.00  0.00    -0.352 N 
ATOM     10  C   UNL d   1      -2.167   1.309  -2.279  0.00  0.00     0.252 C 
ATOM     11  O   UNL d   1      -2.687   2.200  -1.618  0.00  0.00    -0.268 OA
ATOM     12  H   UNL d   1      -1.364  -0.569  -2.311  0.00  0.00     0.163 HD
BRANCH  10  13
ATOM     13  C   UNL d   1      -2.334   1.298  -3.759  0.00  0.00     0.032 A 
ATOM     14  C   UNL d   1      -3.446   1.960  -4.293  0.00  0.00     0.017 A 
ATOM     15  C   UNL d   1      -3.674   1.962  -5.670  0.00  0.00     0.007 A 
ATOM     16  C   UNL d   1      -2.781   1.319  -6.534  0.00  0.00    -0.062 A 
ATOM     17  C   UNL d   1      -1.661   0.667  -6.000  0.00  0.00     0.007 A 
ATOM     18  C   UNL d   1      -3.059   1.290  -8.008  0.00  0.00     0.048 C 
ATOM     19  C   UNL d   1      -1.431   0.663  -4.619  0.00  0.00     0.017 A 
ENDBRANCH  10  13
ENDBRANCH   6   9
BRANCH   2  20
ATOM     20  O   UNL d   1       3.074  -1.466   1.189  0.00  0.00    -0.304 OA
BRANCH  20  21
ATOM     21  C   UNL d   1       4.455  -1.584   1.560  0.00  0.00     0.176 C 
ATOM     22  C   UNL d   1       5.298  -1.604   0.299  0.00  0.00     0.034 C 
ENDBRANCH  20  21
ENDBRANCH   2  20
TORSDOF 4
