REMARK  4 active torsions:
REMARK  status: ('A' for Active; 'I' for Inactive)
REMARK       I    between atoms: C_2  and  N_1 
REMARK    1  A    between atoms: C_3  and  N_1 
REMARK    2  A    between atoms: C_7  and  C_2 
REMARK    3  A    between atoms: O_4  and  C_7 
REMARK    4  A    between atoms: C_5  and  O_4 
ROOT
ATOM      1  N   UNL d   1       1.177   0.035   0.362  0.00  0.00    -0.324 N 
ATOM      2  C   UNL d   1       0.423   0.629  -0.645  0.00  0.00     0.251 C 
ATOM      3  O   UNL d   1      -0.333   0.042  -1.420  0.00  0.00    -0.270 OA
ATOM      4  H   UNL d   1       1.469   0.682   1.080  0.00  0.00     0.169 HD
ENDROOT
BRANCH   2   5
ATOM      5  C   UNL d   1       0.577   2.164  -0.704  0.00  0.00     0.217 C 
ATOM      6  C   UNL d   1       1.013   2.548  -2.117  0.00  0.00     0.050 C 
BRANCH   5   7
ATOM      7  O   UNL d   1       1.565   2.637   0.207  0.00  0.00    -0.335 OA
BRANCH   7   8
ATOM      8  C   UNL d   1       1.242   3.263   1.379  0.00  0.00     0.091 A 
ATOM      9  C   UNL d   1       0.052   3.253   2.124  0.00  0.00     0.069 A 
ATOM     10  C   UNL d   1      -0.034   3.982   3.320  0.00  0.00     0.050 A 
ATOM     11 CL   UNL d   1      -1.341   2.298   1.759  0.00  0.00    -0.081 Cl
ATOM     12  C   UNL d   1       1.069   4.676   3.805  0.00  0.00     0.035 A 
ATOM     13  C   UNL d   1       2.269   4.653   3.109  0.00  0.00     0.026 A 
ATOM     14 CL   UNL d   1       0.956   5.538   5.288  0.00  0.00    -0.084 Cl
ATOM     15  C   UNL d   1       2.348   3.955   1.902  0.00  0.00     0.040 A 
ENDBRANCH   7   8
ENDBRANCH   5   7
ENDBRANCH   2   5
BRANCH   1  16
ATOM     16  C   UNL d   1       1.086  -1.332   0.712  0.00  0.00     0.046 C 
ATOM     17  C   UNL d   1       1.186  -2.348  -0.265  0.00  0.00    -0.035 C 
ATOM     18  C   UNL d   1       0.920  -3.680   0.097  0.00  0.00     0.009 C 
ATOM     19  C   UNL d   1       1.635  -2.098  -1.681  0.00  0.00     0.050 C 
ATOM     20  C   UNL d   1       0.641  -4.016   1.415  0.00  0.00     0.001 C 
ATOM     21  C   UNL d   1       0.667  -3.032   2.395  0.00  0.00     0.009 C 
ATOM     22  C   UNL d   1       0.910  -1.684   2.066  0.00  0.00    -0.035 C 
ATOM     23  C   UNL d   1       0.912  -0.714   3.219  0.00  0.00     0.050 C 
ENDBRANCH   1  16
TORSDOF 4
