REMARK  5 active torsions:
REMARK  status: ('A' for Active; 'I' for Inactive)
REMARK    1  A    between atoms: C_2  and  S_1 
REMARK    2  A    between atoms: N_7  and  S_1 
REMARK    3  A    between atoms: C_10  and  C_3 
REMARK    4  A    between atoms: C_8  and  N_7 
REMARK    5  A    between atoms: O_16  and  C_10 
ROOT
ATOM      1  S   UNL d   1       0.696   0.119   0.166  0.00  0.00     0.281 S 
ATOM      2  O   UNL d   1      -0.099   0.751   1.197  0.00  0.00    -0.198 OA
ATOM      3  O   UNL d   1       2.142   0.186   0.199  0.00  0.00    -0.198 OA
ENDROOT
BRANCH   1   4
ATOM      4  C   UNL d   1       0.239   0.953  -1.346  0.00  0.00     0.191 A 
ATOM      5  C   UNL d   1      -0.682   1.968  -1.565  0.00  0.00     0.071 A 
ATOM      6  C   UNL d   1      -0.618   2.346  -2.933  0.00  0.00     0.072 A 
ATOM      7  C   UNL d   1       0.345   1.523  -3.489  0.00  0.00     0.067 A 
ATOM      8  O   UNL d   1       0.855   0.680  -2.549  0.00  0.00    -0.301 OA
ATOM      9  C   UNL d   1       0.919   1.403  -4.845  0.00  0.00     0.078 C 
BRANCH   6  10
ATOM     10  C   UNL d   1      -1.367   3.381  -3.622  0.00  0.00     0.295 C 
ATOM     11  O   UNL d   1      -1.248   3.628  -4.814  0.00  0.00    -0.259 OA
BRANCH  10  12
ATOM     12  O   UNL d   1      -2.199   4.055  -2.774  0.00  0.00    -0.322 OA
ATOM     13  C   UNL d   1      -2.928   5.119  -3.385  0.00  0.00     0.213 C 
ENDBRANCH  10  12
ENDBRANCH   6  10
ENDBRANCH   1   4
BRANCH   1  14
ATOM     14  N   UNL d   1       0.336  -1.526   0.101  0.00  0.00    -0.300 N 
ATOM     15  H   UNL d   1       1.172  -2.075   0.298  0.00  0.00     0.173 HD
BRANCH  14  16
ATOM     16  C   UNL d   1      -0.935  -2.048   0.675  0.00  0.00     0.185 C 
ATOM     17  C   UNL d   1      -2.160  -1.436  -0.017  0.00  0.00     0.241 C 
ATOM     18  N   UNL d   1      -3.406  -1.640   0.494  0.00  0.00    -0.359 N 
ATOM     19  O   UNL d   1      -2.088  -0.811  -1.077  0.00  0.00    -0.271 OA
ATOM     20  C   UNL d   1      -3.816  -2.679   1.409  0.00  0.00     0.122 C 
ATOM     21  H   UNL d   1      -4.121  -1.238  -0.104  0.00  0.00     0.162 HD
ATOM     22  C   UNL d   1      -3.297  -2.481   2.822  0.00  0.00     0.020 C 
ATOM     23  C   UNL d   1      -1.823  -2.837   2.967  0.00  0.00     0.004 C 
ATOM     24  C   UNL d   1      -0.900  -1.894   2.204  0.00  0.00     0.035 C 
ENDBRANCH  14  16
ENDBRANCH   1  14
TORSDOF 5
