REMARK  2 active torsions:
REMARK  status: ('A' for Active; 'I' for Inactive)
REMARK    1  A    between atoms: C_3  and  C_4 
REMARK    2  A    between atoms: C_12  and  C_7 
ROOT
ATOM      1  N   UNL d   1       1.382  -0.581  -0.131  0.00  0.00    -0.348 N 
ATOM      2  HN  UNL d   1       2.278  -1.059  -0.231  1.00  0.00     0.166 HD
ATOM      3  C   UNL d   1       1.226   0.792  -0.001  0.00  0.00     0.057 A 
ATOM      4  C   UNL d   1       0.205  -1.181  -0.105  0.00  0.00     0.084 A 
ATOM      5  S   UNL d   1      -1.141  -0.114   0.072  0.00  0.00    -0.081 SA
ATOM      6  C   UNL d   1      -0.077   1.221   0.119  0.00  0.00     0.082 A 
ENDROOT
BRANCH   3   7
ATOM      7  C   UNL d   1       2.408   1.717   0.024  0.00  0.00     0.035 A 
ATOM      8  S   UNL d   1       2.316   3.405   0.297  0.00  0.00    -0.074 SA
ATOM      9  C   UNL d   1       3.998   3.568   0.201  0.00  0.00     0.097 A 
ATOM     10 CL   UNL d   1       4.693   5.126   0.429  0.00  0.00    -0.074 Cl
ATOM     11  C   UNL d   1       4.641   2.384  -0.059  0.00  0.00     0.064 A 
ATOM     12  C   UNL d   1       3.713   1.302  -0.161  0.00  0.00     0.047 A 
ATOM     13 CL   UNL d   1       6.326   2.160  -0.240  0.00  0.00    -0.082 Cl
ENDBRANCH   3   7
BRANCH   4  14
ATOM     14  C   UNL d   1       0.001  -2.643  -0.144  0.00  0.00    -0.002 A 
ATOM     15  C   UNL d   1       1.010  -3.493   0.341  0.00  0.00     0.017 A 
ATOM     16  C   UNL d   1       0.832  -4.880   0.366  0.00  0.00     0.043 A 
ATOM     17  C   UNL d   1      -0.353  -5.429  -0.106  0.00  0.00     0.116 A 
ATOM     18  C   UNL d   1      -1.359  -4.617  -0.612  0.00  0.00     0.043 A 
ATOM     19  F   UNL d   1      -0.530  -6.755  -0.072  0.00  0.00    -0.206 F 
ATOM     20  C   UNL d   1      -1.181  -3.230  -0.635  0.00  0.00     0.017 A 
ENDBRANCH   4  14
TORSDOF 2
