REMARK  3 active torsions:
REMARK  status: ('A' for Active; 'I' for Inactive)
REMARK    1  A    between atoms: C_6  and  N_1 
REMARK    2  A    between atoms: C_7  and  C_6 
REMARK       I    between atoms: N_9  and  C_7 
REMARK    3  A    between atoms: N_10  and  N_9 
ROOT
ATOM      1  N   UNL d   1       0.183  -1.600   0.064  0.00  0.00    -0.337 N 
ATOM      2  C   UNL d   1      -1.009  -0.898   0.068  0.00  0.00     0.046 A 
ATOM      3  C   UNL d   1       1.261  -0.735   0.098  0.00  0.00     0.046 A 
ATOM      4  C   UNL d   1      -0.682   0.458   0.052  0.00  0.00     0.003 A 
ATOM      5  C   UNL d   1       0.742   0.562   0.062  0.00  0.00     0.003 A 
ATOM      6  C   UNL d   1      -2.344  -1.338   0.061  0.00  0.00     0.030 A 
ATOM      7  C   UNL d   1       2.646  -0.973   0.133  0.00  0.00     0.030 A 
ATOM      8  C   UNL d   1       1.633   1.655   0.033  0.00  0.00     0.014 A 
ATOM      9  C   UNL d   1      -1.723   1.412   0.021  0.00  0.00     0.014 A 
ATOM     10  C   UNL d   1       3.508   0.129   0.105  0.00  0.00     0.002 A 
ATOM     11  C   UNL d   1      -3.053   0.984   0.007  0.00  0.00     0.001 A 
ATOM     12  C   UNL d   1       3.011   1.427   0.049  0.00  0.00     0.001 A 
ATOM     13  C   UNL d   1      -3.356  -0.373   0.028  0.00  0.00     0.002 A 
ENDROOT
BRANCH   1  14
ATOM     14  C   UNL d   1       0.284  -3.046  -0.092  0.00  0.00     0.233 C 
BRANCH  14  15
ATOM     15  C   UNL d   1       0.150  -3.873   1.168  0.00  0.00     0.249 C 
ATOM     16  O   UNL d   1       0.054  -5.102   1.101  0.00  0.00    -0.270 OA
ATOM     17  N   UNL d   1       0.176  -3.218   2.388  0.00  0.00    -0.293 N 
ATOM     18  H   UNL d   1       0.342  -2.213   2.457  0.00  0.00     0.183 HD
BRANCH  17  19
ATOM     19  N   UNL d   1       0.144  -3.983   3.579  0.00  0.00    -0.247 NA
ATOM     20  H   UNL d   1       0.510  -4.917   3.346  0.00  0.00     0.143 HD
ATOM     21  H   UNL d   1      -0.839  -4.167   3.805  0.00  0.00     0.143 HD
ENDBRANCH  17  19
ENDBRANCH  14  15
ENDBRANCH   1  14
TORSDOF 3
