REMARK  2 active torsions:
REMARK  status: ('A' for Active; 'I' for Inactive)
REMARK    1  A    between atoms: C_2  and  N_4 
REMARK       I    between atoms: N_4  and  C_5 
REMARK       I    between atoms: C_5  and  N_16 
REMARK    2  A    between atoms: N_16  and  C_12 
ROOT
ATOM      1  N   UNL d   1      -4.907   0.834  -0.222  0.00  0.00    -0.303 N 
ATOM      2  C   UNL d   1      -4.885  -0.524  -0.335  0.00  0.00     0.325 C 
ATOM      3  N   UNL d   1      -3.698  -1.172  -0.174  0.00  0.00    -0.309 N 
ATOM      4  O   UNL d   1      -5.965  -1.062  -0.582  0.00  0.00    -0.247 OA
ATOM      5  H   UNL d   1      -5.852   1.181  -0.333  0.00  0.00     0.171 HD
ATOM      6  H   UNL d   1      -2.905  -0.569  -0.007  0.00  0.00     0.170 HD
ENDROOT
BRANCH   3   7
ATOM      7  C   UNL d   1      -3.432  -2.549  -0.354  0.00  0.00     0.038 A 
ATOM      8  C   UNL d   1      -4.452  -3.486  -0.599  0.00  0.00     0.062 A 
ATOM      9  C   UNL d   1      -4.047  -4.804  -0.911  0.00  0.00     0.069 A 
ATOM     10  C   UNL d   1      -2.588  -5.179  -0.932  0.00  0.00     0.067 A 
ATOM     11  N   UNL d   1      -4.854  -5.826  -1.224  0.00  0.00    -0.310 N 
ATOM     12  N   UNL d   1      -2.374  -6.458  -1.277  0.00  0.00    -0.310 N 
ATOM     13  C   UNL d   1      -1.596  -4.228  -0.605  0.00  0.00     0.035 A 
ATOM     14  S   UNL d   1      -3.872  -7.122  -1.558  0.00  0.00     0.068 SA
ATOM     15  HN  UNL d   1      -1.472  -6.928  -1.353  1.00  0.00     0.176 HD
ATOM     16  C   UNL d   1      -2.059  -2.927  -0.325  0.00  0.00     0.032 A 
ATOM     17  HN  UNL d   1      -5.874  -5.811  -1.253  1.00  0.00     0.176 HD
ENDBRANCH   3   7
BRANCH   1  18
ATOM     18  C   UNL d   1      -3.951   1.782   0.066  0.00  0.00     0.078 A 
ATOM     19  S   UNL d   1      -2.298   1.443   0.213  0.00  0.00    -0.084 SA
ATOM     20  C   UNL d   1      -1.939   3.050   0.669  0.00  0.00     0.058 A 
ATOM     21  C   UNL d   1      -3.061   3.854   0.693  0.00  0.00    -0.053 A 
ATOM     22  C   UNL d   1      -4.214   3.119   0.268  0.00  0.00     0.044 A 
ATOM     23  C   UNL d   1      -3.084   5.279   1.130  0.00  0.00     0.049 C 
ENDBRANCH   1  18
TORSDOF 2
