REMARK  2 active torsions:
REMARK  status: ('A' for Active; 'I' for Inactive)
REMARK    1  A    between atoms: C_3  and  C_1 
REMARK       I    between atoms: N_10  and  C_3 
REMARK    2  A    between atoms: C_11  and  N_10 
ROOT
ATOM      1  C   UNL d   1      -1.392  -3.931  -0.373  0.00  0.00     0.254 C 
ATOM      2  N   UNL d   1      -0.418  -3.333   0.369  0.00  0.00    -0.348 N 
ATOM      3  O   UNL d   1      -1.194  -4.836  -1.168  0.00  0.00    -0.268 OA
ATOM      4  H   UNL d   1      -0.702  -2.562   0.970  0.00  0.00     0.163 HD
ENDROOT
BRANCH   1   5
ATOM      5  C   UNL d   1      -2.760  -3.373  -0.179  0.00  0.00     0.061 A 
ATOM      6  C   UNL d   1      -3.021  -2.155   0.515  0.00  0.00     0.082 A 
ATOM      7  N   UNL d   1      -2.136  -1.362   1.151  0.00  0.00    -0.310 N 
ATOM      8  C   UNL d   1      -4.424  -1.611   0.598  0.00  0.00     0.068 A 
ATOM      9  S   UNL d   1      -2.970  -0.061   1.741  0.00  0.00     0.068 SA
ATOM     10  HN  UNL d   1      -1.135  -1.532   1.249  1.00  0.00     0.176 HD
ATOM     11  N   UNL d   1      -4.509  -0.450   1.264  0.00  0.00    -0.310 N 
ATOM     12  HN  UNL d   1      -5.356   0.090   1.442  1.00  0.00     0.176 HD
ATOM     13  C   UNL d   1      -5.509  -2.298   0.006  0.00  0.00     0.032 A 
ATOM     14  C   UNL d   1      -5.198  -3.498  -0.655  0.00  0.00     0.003 A 
ATOM     15  C   UNL d   1      -3.882  -4.013  -0.749  0.00  0.00     0.019 A 
ENDBRANCH   1   5
BRANCH   2  16
ATOM     16  C   UNL d   1       1.016  -3.387   0.107  0.00  0.00     0.118 C 
ATOM     17  C   UNL d   1       1.490  -1.968   0.393  0.00  0.00    -0.029 A 
ATOM     18  C   UNL d   1       1.871  -1.602   1.698  0.00  0.00    -0.050 A 
ATOM     19  C   UNL d   1       1.244  -0.971  -0.567  0.00  0.00     0.010 A 
ATOM     20  C   UNL d   1       1.927  -0.243   2.036  0.00  0.00     0.007 A 
ATOM     21  C   UNL d   1       2.236  -2.646   2.726  0.00  0.00     0.039 C 
ATOM     22  C   UNL d   1       1.615   0.737   1.092  0.00  0.00     0.001 A 
ATOM     23  C   UNL d   1       1.301   0.376  -0.215  0.00  0.00     0.001 A 
ATOM     24  C   UNL d   1       1.593  -4.011   2.481  0.00  0.00     0.007 C 
ATOM     25  C   UNL d   1       1.694  -4.418   1.011  0.00  0.00     0.030 C 
ENDBRANCH   2  16
TORSDOF 2
