REMARK  5 active torsions:
REMARK  status: ('A' for Active; 'I' for Inactive)
REMARK    1  A    between atoms: C_8  and  S_1 
REMARK    2  A    between atoms: N_9  and  S_1 
REMARK    3  A    between atoms: C_7  and  C_2 
REMARK    4  A    between atoms: C_6  and  C_16 
REMARK    5  A    between atoms: C_16  and  N_9 
ROOT
ATOM      1  N   UNL d   1       0.423  -1.445   0.777  0.00  0.00    -0.310 N 
ATOM      2  H   UNL d   1      -0.547  -1.388   1.090  0.00  0.00     0.172 HD
ENDROOT
BRANCH   1   3
ATOM      3  S   UNL d   1       1.022  -0.154  -0.081  0.00  0.00     0.259 S 
ATOM      4  O   UNL d   1       0.321   1.026   0.370  0.00  0.00    -0.201 OA
ATOM      5  O   UNL d   1       2.466  -0.244  -0.054  0.00  0.00    -0.201 OA
BRANCH   3   6
ATOM      6  C   UNL d   1       0.486  -0.476  -1.747  0.00  0.00     0.080 A 
ATOM      7  C   UNL d   1       1.432  -0.733  -2.749  0.00  0.00     0.035 A 
ATOM      8  C   UNL d   1       0.963  -0.936  -4.036  0.00  0.00    -0.021 A 
ATOM      9  C   UNL d   1       1.700  -1.290  -5.271  0.00  0.00     0.068 C 
ATOM     10  C   UNL d   1      -0.395  -0.889  -4.317  0.00  0.00     0.075 A 
ATOM     11  C   UNL d   1       0.593  -1.029  -6.295  0.00  0.00     0.180 C 
ATOM     12  O   UNL d   1      -0.692  -1.122  -5.635  0.00  0.00    -0.350 OA
ATOM     13  C   UNL d   1      -1.340  -0.639  -3.342  0.00  0.00     0.039 A 
ATOM     14  C   UNL d   1      -0.891  -0.421  -2.038  0.00  0.00     0.028 A 
ENDBRANCH   3   6
ENDBRANCH   1   3
BRANCH   1  15
ATOM     15  C   UNL d   1       0.936  -2.783   0.516  0.00  0.00     0.189 C 
BRANCH  15  16
ATOM     16  C   UNL d   1       0.265  -3.733   1.467  0.00  0.00     0.035 A 
ATOM     17  N   UNL d   1      -1.069  -3.517   1.822  0.00  0.00    -0.351 N 
ATOM     18  C   UNL d   1      -1.480  -4.445   2.667  0.00  0.00     0.091 A 
ATOM     19  HN  UNL d   1      -1.645  -2.750   1.476  1.00  0.00     0.166 HD
ATOM     20  S   UNL d   1      -0.298  -5.634   3.061  0.00  0.00    -0.081 SA
ATOM     21  C   UNL d   1       0.836  -4.849   2.048  0.00  0.00     0.078 A 
BRANCH  18  22
ATOM     22  C   UNL d   1      -2.828  -4.433   3.195  0.00  0.00     0.038 A 
ATOM     23  S   UNL d   1      -3.439  -5.606   4.295  0.00  0.00    -0.099 SA
ATOM     24  C   UNL d   1      -4.974  -4.861   4.362  0.00  0.00     0.050 A 
ATOM     25  C   UNL d   1      -5.037  -3.739   3.569  0.00  0.00     0.008 A 
ATOM     26  C   UNL d   1      -3.802  -3.493   2.901  0.00  0.00     0.022 A 
ENDBRANCH  18  22
ENDBRANCH  15  16
ENDBRANCH   1  15
TORSDOF 5
