REMARK  1 active torsions:
REMARK  status: ('A' for Active; 'I' for Inactive)
REMARK    1  A    between atoms: C_9  and  C_4 
ROOT
ATOM      1  N   UNL d   1       0.874  -1.501   0.502  0.00  0.00    -0.320 N 
ATOM      2  N   UNL d   1       2.167   1.223  -0.004  0.00  0.00    -0.380 N 
ATOM      3  HN  UNL d   1       2.963   1.828   0.201  1.00  0.00     0.160 HD
ATOM      4  C   UNL d   1       0.990   1.497   0.456  0.00  0.00     0.051 C 
ATOM      5  C   UNL d   1      -0.241   0.703   0.147  0.00  0.00     0.018 A 
ATOM      6  C   UNL d   1      -0.275  -0.703   0.217  0.00  0.00     0.049 A 
ATOM      7  C   UNL d   1       2.166  -1.202   0.058  0.00  0.00     0.241 C 
ATOM      8  C   UNL d   1       2.326   0.027  -0.822  0.00  0.00     0.223 C 
ATOM      9  O   UNL d   1       3.130  -1.933   0.306  0.00  0.00    -0.271 OA
ATOM     10  C   UNL d   1       0.726  -2.738   1.254  0.00  0.00     0.159 C 
ATOM     11  C   UNL d   1      -1.414   1.426  -0.149  0.00  0.00     0.016 A 
ATOM     12  C   UNL d   1      -1.513  -1.340   0.009  0.00  0.00     0.030 A 
ATOM     13  C   UNL d   1      -2.629   0.771  -0.332  0.00  0.00     0.001 A 
ATOM     14  C   UNL d   1      -2.678  -0.612  -0.256  0.00  0.00     0.002 A 
ENDROOT
BRANCH   4  15
ATOM     15  C   UNL d   1       0.864   2.703   1.339  0.00  0.00    -0.009 A 
ATOM     16  C   UNL d   1      -0.061   2.741   2.389  0.00  0.00     0.014 A 
ATOM     17  C   UNL d   1      -0.195   3.893   3.163  0.00  0.00     0.001 A 
ATOM     18  C   UNL d   1       0.609   5.003   2.907  0.00  0.00     0.000 A 
ATOM     19  C   UNL d   1       1.559   4.957   1.887  0.00  0.00     0.001 A 
ATOM     20  C   UNL d   1       1.691   3.809   1.105  0.00  0.00     0.014 A 
ENDBRANCH   4  15
TORSDOF 1
