REMARK  6 active torsions:
REMARK  status: ('A' for Active; 'I' for Inactive)
REMARK    1  A    between atoms: C_2  and  N_1 
REMARK    2  A    between atoms: C_14  and  C_4 
REMARK    3  A    between atoms: S_15  and  C_14 
REMARK    4  A    between atoms: C_17  and  S_15 
REMARK    5  A    between atoms: O_16  and  C_18 
REMARK    6  A    between atoms: C_18  and  C_17 
ROOT
ATOM      1  C   UNL d   1       0.242   1.028  -0.876  0.00  0.00     0.104 A 
ATOM      2  C   UNL d   1      -1.438   2.769  -0.911  0.00  0.00     0.002 A 
ATOM      3  C   UNL d   1      -0.181   2.248  -2.944  0.00  0.00    -0.012 A 
ATOM      4  C   UNL d   1      -1.163   2.994  -2.268  0.00  0.00     0.087 A 
ATOM      5  C   UNL d   1      -0.746   1.769  -0.217  0.00  0.00     0.048 A 
ATOM      6  C   UNL d   1       0.534   1.271  -2.225  0.00  0.00     0.046 A 
ATOM      7  O   UNL d   1      -1.821   3.969  -2.971  0.00  0.00    -0.325 OA
ATOM      8  O   UNL d   1      -2.788   4.759  -0.946  0.00  0.00    -0.362 OA
ATOM      9  C   UNL d   1      -2.996   4.444  -2.314  0.00  0.00     0.345 C 
ATOM     10  C   UNL d   1      -2.497   3.575  -0.217  0.00  0.00     0.212 C 
ENDROOT
BRANCH   3  11
ATOM     11  C   UNL d   1       0.153   2.516  -4.395  0.00  0.00     0.115 C 
BRANCH  11  12
ATOM     12  S   UNL d   1       0.096   1.046  -5.471  0.00  0.00    -0.162 SA
BRANCH  12  13
ATOM     13  C   UNL d   1      -1.686   0.652  -5.433  0.00  0.00     0.100 C 
BRANCH  13  14
ATOM     14  C   UNL d   1      -1.927  -0.561  -6.333  0.00  0.00     0.174 C 
BRANCH  14  15
ATOM     15  O   UNL d   1      -3.302  -0.932  -6.312  0.00  0.00    -0.400 OA
ATOM     16  H   UNL d   1      -3.387  -1.711  -6.890  0.00  0.00     0.209 HD
ENDBRANCH  14  15
ENDBRANCH  13  14
ENDBRANCH  12  13
ENDBRANCH  11  12
ENDBRANCH   3  11
BRANCH   1  17
ATOM     17  N   UNL d   1       0.979  -0.013  -0.148  0.00  0.00    -0.116 N 
ATOM     18  O   UNL d   1       0.658  -0.220   1.036  0.00  0.00    -0.532 OA
ATOM     19  O   UNL d   1       1.870  -0.622  -0.750  0.00  0.00    -0.532 OA
ENDBRANCH   1  17
TORSDOF 6
