REMARK  6 active torsions:
REMARK  status: ('A' for Active; 'I' for Inactive)
REMARK    1  A    between atoms: N_5  and  C_1 
REMARK    2  A    between atoms: C_8  and  C_2 
REMARK       I    between atoms: C_7  and  N_5 
REMARK    3  A    between atoms: C_15  and  C_6 
REMARK       I    between atoms: N_9  and  C_7 
REMARK    4  A    between atoms: O_19  and  C_8 
REMARK    5  A    between atoms: C_12  and  N_9 
REMARK    6  A    between atoms: C_24  and  O_19 
ROOT
ATOM      1  C   UNL d   1       0.647   1.212  -0.014  0.00  0.00     0.095 C 
ATOM      2  C   UNL d   1       1.867   0.587  -0.189  0.00  0.00     0.074 C 
ATOM      3  S   UNL d   1      -0.600   0.119   0.411  0.00  0.00    -0.071 SA
ATOM      4  C   UNL d   1       1.690  -0.841   0.018  0.00  0.00     0.040 C 
ATOM      5  C   UNL d   1       0.380  -1.257   0.163  0.00  0.00     0.018 C 
ENDROOT
BRANCH   1   6
ATOM      6  N   UNL d   1       0.126   2.481  -0.027  0.00  0.00    -0.302 N 
ATOM      7  C   UNL d   1       0.361   3.543  -0.836  0.00  0.00     0.325 C 
ATOM      8  N   UNL d   1       0.930   3.295  -2.054  0.00  0.00    -0.309 N 
ATOM      9  O   UNL d   1      -0.103   4.632  -0.494  0.00  0.00    -0.247 OA
ATOM     10  H   UNL d   1       0.814   2.354  -2.403  0.00  0.00     0.170 HD
ATOM     11  H   UNL d   1      -0.703   2.622   0.540  0.00  0.00     0.171 HD
BRANCH   8  12
ATOM     12  C   UNL d   1       1.312   4.300  -2.967  0.00  0.00     0.038 A 
ATOM     13  C   UNL d   1       1.364   3.989  -4.327  0.00  0.00     0.055 A 
ATOM     14  C   UNL d   1       1.742   4.967  -5.257  0.00  0.00     0.058 A 
ATOM     15 CL   UNL d   1       1.731   4.528  -6.929  0.00  0.00    -0.082 Cl
ATOM     16  C   UNL d   1       2.103   6.249  -4.826  0.00  0.00     0.055 A 
ATOM     17  C   UNL d   1       2.075   6.551  -3.465  0.00  0.00     0.028 A 
ATOM     18 CL   UNL d   1       2.600   7.493  -5.915  0.00  0.00    -0.083 Cl
ATOM     19  C   UNL d   1       1.678   5.582  -2.543  0.00  0.00     0.031 A 
ENDBRANCH   8  12
ENDBRANCH   1   6
BRANCH   2  20
ATOM     20  C   UNL d   1       3.213   1.103  -0.464  0.00  0.00     0.296 C 
ATOM     21  O   UNL d   1       4.208   0.395  -0.322  0.00  0.00    -0.259 OA
BRANCH  20  22
ATOM     22  O   UNL d   1       3.264   2.342  -1.017  0.00  0.00    -0.318 OA
BRANCH  22  23
ATOM     23  C   UNL d   1       4.450   2.624  -1.776  0.00  0.00     0.174 C 
ATOM     24  C   UNL d   1       5.517   3.331  -0.964  0.00  0.00     0.034 C 
ENDBRANCH  22  23
ENDBRANCH  20  22
ENDBRANCH   2  20
BRANCH   5  25
ATOM     25  C   UNL d   1      -0.171  -2.630   0.115  0.00  0.00    -0.019 A 
ATOM     26  C   UNL d   1       0.663  -3.701  -0.257  0.00  0.00     0.013 A 
ATOM     27  C   UNL d   1       0.164  -4.996  -0.419  0.00  0.00     0.001 A 
ATOM     28  C   UNL d   1      -1.186  -5.253  -0.211  0.00  0.00     0.000 A 
ATOM     29  C   UNL d   1      -2.030  -4.217   0.176  0.00  0.00     0.001 A 
ATOM     30  C   UNL d   1      -1.528  -2.920   0.341  0.00  0.00     0.013 A 
ENDBRANCH   5  25
TORSDOF 6
