REMARK  3 active torsions:
REMARK  status: ('A' for Active; 'I' for Inactive)
REMARK    1  A    between atoms: C_6  and  C_1 
REMARK    2  A    between atoms: C_11  and  C_6 
REMARK    3  A    between atoms: O_15  and  C_9 
ROOT
ATOM      1  C   UNL d   1       3.037  -0.470   0.018  0.00  0.00     0.050 A 
ATOM      2  C   UNL d   1       1.665  -0.873   0.035  0.00  0.00     0.017 A 
ATOM      3  C   UNL d   1       0.908   0.293   0.024  0.00  0.00     0.097 A 
ATOM      4  C   UNL d   1       3.014   0.910   0.034  0.00  0.00     0.159 A 
ATOM      5  O   UNL d   1       1.738   1.378   0.022  0.00  0.00    -0.320 OA
ATOM      6  C   UNL d   1       0.999  -2.113   0.039  0.00  0.00     0.052 A 
ATOM      7  C   UNL d   1      -0.504   0.309   0.017  0.00  0.00     0.012 A 
ATOM      8  C   UNL d   1      -0.400  -2.128   0.028  0.00  0.00     0.077 A 
ATOM      9  C   UNL d   1      -1.163  -0.944   0.017  0.00  0.00     0.010 A 
ATOM     10  C   UNL d   1      -1.231   1.516   0.007  0.00  0.00     0.015 A 
ATOM     11  C   UNL d   1      -2.571  -0.941   0.008  0.00  0.00     0.015 A 
ATOM     12  C   UNL d   1      -2.625   1.480  -0.001  0.00  0.00     0.001 A 
ATOM     13  C   UNL d   1      -3.293   0.256  -0.002  0.00  0.00     0.001 A 
ENDROOT
BRANCH   1  14
ATOM     14  C   UNL d   1       4.191  -1.352   0.032  0.00  0.00     0.195 C 
ATOM     15  O   UNL d   1       4.141  -2.456   0.572  0.00  0.00    -0.287 OA
BRANCH  14  16
ATOM     16  C   UNL d   1       5.457  -0.970  -0.652  0.00  0.00     0.015 A 
ATOM     17  C   UNL d   1       5.479  -0.134  -1.778  0.00  0.00     0.017 A 
ATOM     18  C   UNL d   1       6.689   0.132  -2.428  0.00  0.00     0.025 A 
ATOM     19  C   UNL d   1       7.870  -0.449  -1.969  0.00  0.00     0.034 A 
ATOM     20  C   UNL d   1       7.857  -1.293  -0.861  0.00  0.00     0.025 A 
ATOM     21 CL   UNL d   1       9.349  -0.141  -2.791  0.00  0.00    -0.084 Cl
ATOM     22  C   UNL d   1       6.651  -1.555  -0.205  0.00  0.00     0.017 A 
ENDBRANCH  14  16
ENDBRANCH   1  14
BRANCH   8  23
ATOM     23  O   UNL d   1      -1.047  -3.338   0.021  0.00  0.00    -0.360 OA
ATOM     24  H   UNL d   1      -0.384  -4.048   0.041  0.00  0.00     0.217 HD
ENDBRANCH   8  23
TORSDOF 3
