REMARK  4 active torsions:
REMARK  status: ('A' for Active; 'I' for Inactive)
REMARK    1  A    between atoms: C_2  and  C_1 
REMARK    2  A    between atoms: C_13  and  N_3 
REMARK    3  A    between atoms: C_15  and  C_4 
REMARK    4  A    between atoms: C_14  and  N_5 
ROOT
ATOM      1  C   UNL d   1      -0.245   1.241   0.041  0.00  0.00     0.057 A 
ATOM      2  C   UNL d   1       1.077   0.832  -0.128  0.00  0.00     0.082 A 
ATOM      3  N   UNL d   1       1.026  -0.576  -0.115  0.00  0.00    -0.255 N 
ATOM      4  N   UNL d   1      -0.240  -1.027   0.110  0.00  0.00    -0.303 N 
ATOM      5  HN  UNL d   1      -0.539  -1.992   0.250  1.00  0.00     0.186 HD
ATOM      6  C   UNL d   1      -0.997   0.058   0.107  0.00  0.00     0.125 A 
ENDROOT
BRANCH   1   7
ATOM      7  C   UNL d   1      -0.797   2.628   0.136  0.00  0.00     0.152 C 
ATOM      8  N   UNL d   1      -2.005   3.029   0.701  0.00  0.00    -0.224 N 
ATOM      9  N   UNL d   1      -2.304   4.256   0.213  0.00  0.00     0.001 NA
ATOM     10  N   UNL d   1      -1.214   4.668  -0.412  0.00  0.00    -0.007 NA
ATOM     11  N   UNL d   1      -0.266   3.683  -0.445  0.00  0.00    -0.269 N 
ATOM     12  HN  UNL d   1       0.671   3.752  -0.843  1.00  0.00     0.185 HD
BRANCH   8  13
ATOM     13  C   UNL d   1      -2.817   2.426   1.697  0.00  0.00     0.056 A 
ATOM     14  C   UNL d   1      -2.276   1.510   2.612  0.00  0.00     0.034 A 
ATOM     15  C   UNL d   1      -3.094   0.928   3.584  0.00  0.00     0.044 A 
ATOM     16  C   UNL d   1      -4.437   1.272   3.650  0.00  0.00     0.116 A 
ATOM     17  C   UNL d   1      -4.981   2.201   2.770  0.00  0.00     0.044 A 
ATOM     18  F   UNL d   1      -5.217   0.709   4.581  0.00  0.00    -0.206 F 
ATOM     19  C   UNL d   1      -4.169   2.792   1.797  0.00  0.00     0.034 A 
ENDBRANCH   8  13
ENDBRANCH   1   7
BRANCH   2  20
ATOM     20  C   UNL d   1       2.314   1.632  -0.120  0.00  0.00    -0.006 A 
ATOM     21  C   UNL d   1       3.338   1.363   0.804  0.00  0.00     0.014 A 
ATOM     22  C   UNL d   1       4.531   2.090   0.786  0.00  0.00     0.001 A 
ATOM     23  C   UNL d   1       4.698   3.132  -0.122  0.00  0.00     0.000 A 
ATOM     24  C   UNL d   1       3.679   3.434  -1.021  0.00  0.00     0.001 A 
ATOM     25  C   UNL d   1       2.504   2.677  -1.032  0.00  0.00     0.014 A 
ENDBRANCH   2  20
BRANCH   3  26
ATOM     26  C   UNL d   1       2.061  -1.551  -0.255  0.00  0.00     0.057 A 
ATOM     27  C   UNL d   1       1.873  -2.819   0.324  0.00  0.00     0.031 A 
ATOM     28  C   UNL d   1       2.886  -3.778   0.276  0.00  0.00     0.002 A 
ATOM     29  C   UNL d   1       4.083  -3.490  -0.373  0.00  0.00     0.000 A 
ATOM     30  C   UNL d   1       4.260  -2.252  -0.991  0.00  0.00     0.002 A 
ATOM     31  C   UNL d   1       3.251  -1.286  -0.941  0.00  0.00     0.031 A 
ENDBRANCH   3  26
TORSDOF 4
