REMARK  6 active torsions:
REMARK  status: ('A' for Active; 'I' for Inactive)
REMARK    1  A    between atoms: C_2  and  C_1 
REMARK       I    between atoms: N_5  and  C_2 
REMARK    2  A    between atoms: C_4  and  C_3 
REMARK    3  A    between atoms: C_12  and  N_5 
REMARK    4  A    between atoms: C_25  and  N_5 
REMARK    5  A    between atoms: C_9  and  C_12 
REMARK    6  A    between atoms: O_24  and  C_11 
ROOT
ATOM      1  C   UNL d   1       1.024   2.462  -0.307  0.00  0.00     0.256 C 
ATOM      2  N   UNL d   1       0.459   3.726  -0.041  0.00  0.00    -0.344 N 
ATOM      3  O   UNL d   1       2.226   2.276  -0.474  0.00  0.00    -0.267 OA
ENDROOT
BRANCH   1   4
ATOM      4  C   UNL d   1       0.172   1.254  -0.359  0.00  0.00     0.062 A 
ATOM      5  C   UNL d   1       0.183   0.324  -1.408  0.00  0.00     0.069 A 
ATOM      6  C   UNL d   1      -0.689  -0.781  -1.320  0.00  0.00     0.073 A 
ATOM      7  C   UNL d   1      -1.510  -0.919  -0.216  0.00  0.00     0.142 A 
ATOM      8  N   UNL d   1      -1.492  -0.065   0.833  0.00  0.00    -0.346 N 
ATOM      9  C   UNL d   1      -0.631   0.976   0.744  0.00  0.00     0.108 A 
ATOM     10  HN  UNL d   1      -2.093  -0.198   1.646  1.00  0.00     0.167 HD
BRANCH   5  11
ATOM     11  C   UNL d   1       1.072   0.385  -2.622  0.00  0.00     0.418 C 
ATOM     12  F   UNL d   1       1.748   1.540  -2.831  0.00  0.00    -0.166 F 
ATOM     13  F   UNL d   1       1.999  -0.616  -2.622  0.00  0.00    -0.166 F 
ATOM     14  F   UNL d   1       0.349   0.194  -3.767  0.00  0.00    -0.166 F 
ENDBRANCH   5  11
BRANCH   7  15
ATOM     15  O   UNL d   1      -2.374  -1.992  -0.213  0.00  0.00    -0.341 OA
ATOM     16  C   UNL d   1      -3.286  -1.970   0.881  0.00  0.00     0.211 C 
ENDBRANCH   7  15
ENDBRANCH   1   4
BRANCH   2  17
ATOM     17  C   UNL d   1       1.392   4.865  -0.014  0.00  0.00     0.164 C 
BRANCH  17  18
ATOM     18  C   UNL d   1       1.227   5.859   1.118  0.00  0.00    -0.037 A 
ATOM     19  C   UNL d   1       1.044   5.456   2.449  0.00  0.00     0.032 A 
ATOM     20  C   UNL d   1       0.938   6.411   3.467  0.00  0.00     0.036 A 
ATOM     21 CL   UNL d   1       0.691   5.898   5.092  0.00  0.00    -0.084 Cl
ATOM     22  C   UNL d   1       1.033   7.772   3.187  0.00  0.00     0.047 A 
ATOM     23  C   UNL d   1       1.243   8.177   1.874  0.00  0.00     0.036 A 
ATOM     24  C   UNL d   1       1.347   7.235   0.848  0.00  0.00     0.032 A 
ATOM     25 CL   UNL d   1       1.382   9.853   1.508  0.00  0.00    -0.084 Cl
ENDBRANCH  17  18
ENDBRANCH   2  17
BRANCH   2  26
ATOM     26  C   UNL d   1      -0.993   3.977   0.076  0.00  0.00     0.122 C 
ATOM     27  C   UNL d   1      -1.525   5.223  -0.617  0.00  0.00     0.026 C 
ENDBRANCH   2  26
TORSDOF 6
