REMARK  5 active torsions:
REMARK  status: ('A' for Active; 'I' for Inactive)
REMARK    1  A    between atoms: C_2  and  S_1 
REMARK    2  A    between atoms: N_12  and  S_1 
REMARK    3  A    between atoms: C_19  and  C_7 
REMARK    4  A    between atoms: C_9  and  C_18 
REMARK    5  A    between atoms: C_18  and  N_12 
ROOT
ATOM      1  S   UNL d   1       0.895  -0.144   0.022  0.00  0.00     0.248 S 
ATOM      2  O   UNL d   1       0.066   0.994   0.352  0.00  0.00    -0.205 OA
ATOM      3  O   UNL d   1       2.338  -0.063  -0.003  0.00  0.00    -0.205 OA
ENDROOT
BRANCH   1   4
ATOM      4  C   UNL d   1       0.441  -0.511  -1.659  0.00  0.00     0.116 A 
ATOM      5  S   UNL d   1      -0.403  -1.962  -1.969  0.00  0.00    -0.075 SA
ATOM      6  C   UNL d   1      -0.456  -1.672  -3.661  0.00  0.00     0.033 A 
ATOM      7  C   UNL d   1       0.099  -0.440  -3.960  0.00  0.00     0.023 A 
ATOM      8  C   UNL d   1       0.631   0.217  -2.817  0.00  0.00     0.034 A 
BRANCH   6   9
ATOM      9  C   UNL d   1      -1.039  -2.639  -4.601  0.00  0.00     0.049 A 
ATOM     10  N   UNL d   1      -1.575  -2.075  -5.712  0.00  0.00    -0.365 N 
ATOM     11  C   UNL d   1      -2.051  -2.905  -6.665  0.00  0.00     0.088 A 
ATOM     12  HN  UNL d   1      -1.616  -1.062  -5.824  1.00  0.00     0.165 HD
ATOM     13  C   UNL d   1      -2.006  -4.285  -6.576  0.00  0.00     0.017 A 
ATOM     14  C   UNL d   1      -1.456  -4.849  -5.432  0.00  0.00     0.004 A 
ATOM     15  C   UNL d   1      -0.969  -4.018  -4.424  0.00  0.00     0.031 A 
ENDBRANCH   6   9
ENDBRANCH   1   4
BRANCH   1  16
ATOM     16  N   UNL d   1       0.452  -1.387   1.057  0.00  0.00    -0.210 NA
ATOM     17  H   UNL d   1      -0.515  -1.686   0.921  0.00  0.00     0.140 HD
BRANCH  16  18
ATOM     18  C   UNL d   1       1.389  -2.511   1.154  0.00  0.00     0.162 C 
BRANCH  18  19
ATOM     19  C   UNL d   1       0.771  -3.535   2.057  0.00  0.00     0.030 A 
ATOM     20  N   UNL d   1      -0.413  -4.151   1.662  0.00  0.00    -0.351 N 
ATOM     21  C   UNL d   1      -0.807  -5.022   2.575  0.00  0.00     0.091 A 
ATOM     22  HN  UNL d   1      -0.907  -3.958   0.791  1.00  0.00     0.166 HD
ATOM     23  C   UNL d   1      -2.000  -5.820   2.388  0.00  0.00     0.038 A 
ATOM     24  S   UNL d   1       0.214  -5.125   3.959  0.00  0.00    -0.081 SA
ATOM     25  S   UNL d   1      -2.576  -6.966   3.533  0.00  0.00    -0.099 SA
ATOM     26  C   UNL d   1      -2.831  -5.784   1.280  0.00  0.00     0.022 A 
ATOM     27  C   UNL d   1      -3.904  -7.401   2.550  0.00  0.00     0.050 A 
ATOM     28  C   UNL d   1      -3.924  -6.694   1.371  0.00  0.00     0.008 A 
ATOM     29  C   UNL d   1       1.249  -3.941   3.287  0.00  0.00     0.078 A 
ENDBRANCH  18  19
ENDBRANCH  16  18
ENDBRANCH   1  16
TORSDOF 5
