REMARK  7 active torsions:
REMARK  status: ('A' for Active; 'I' for Inactive)
REMARK    1  A    between atoms: C_9  and  N_1 
REMARK    2  A    between atoms: C_2  and  C_9 
REMARK    3  A    between atoms: C_22  and  N_3 
REMARK    4  A    between atoms: S_15  and  C_4 
REMARK    5  A    between atoms: C_18  and  S_15 
REMARK    6  A    between atoms: C_16  and  C_18 
REMARK    7  A    between atoms: C_17  and  C_16 
ROOT
ATOM      1  C   UNL d   1       1.498  -2.524   2.384  0.00  0.00     0.118 A 
ATOM      2  N   UNL d   1       2.237  -1.532   3.027  0.00  0.00    -0.314 N 
ATOM      3  C   UNL d   1       3.402  -2.154   3.419  0.00  0.00     0.163 A 
ATOM      4  N   UNL d   1       2.195  -3.647   2.405  0.00  0.00    -0.285 N 
ATOM      5  HN  UNL d   1       1.899  -4.538   2.009  1.00  0.00     0.188 HD
ATOM      6  N   UNL d   1       3.381  -3.413   3.047  0.00  0.00    -0.278 N 
ATOM      7  HN  UNL d   1       4.120  -4.097   3.208  1.00  0.00     0.189 HD
ENDROOT
BRANCH   1   8
ATOM      8  C   UNL d   1       0.183  -2.348   1.651  0.00  0.00     0.207 C 
BRANCH   8   9
ATOM      9  N   UNL d   1      -1.083  -2.492   2.413  0.00  0.00    -0.338 N 
ATOM     10  C   UNL d   1      -1.355  -3.762   2.984  0.00  0.00     0.052 A 
ATOM     11  C   UNL d   1      -1.869  -3.880   4.292  0.00  0.00     0.032 A 
ATOM     12  C   UNL d   1      -1.229  -4.943   2.227  0.00  0.00     0.031 A 
ATOM     13  C   UNL d   1      -2.205  -5.138   4.821  0.00  0.00     0.021 A 
ATOM     14  S   UNL d   1      -2.087  -2.456   5.350  0.00  0.00    -0.086 SA
ATOM     15  C   UNL d   1      -2.068  -6.289   4.051  0.00  0.00     0.002 A 
ATOM     16  C   UNL d   1      -1.587  -6.191   2.751  0.00  0.00     0.002 A 
ATOM     17  C   UNL d   1      -2.244  -1.163   4.130  0.00  0.00     0.032 A 
ATOM     18  C   UNL d   1      -1.729  -1.304   2.827  0.00  0.00     0.052 A 
ATOM     19  C   UNL d   1      -2.886   0.023   4.519  0.00  0.00     0.021 A 
ATOM     20  C   UNL d   1      -1.968  -0.258   1.915  0.00  0.00     0.031 A 
ATOM     21  C   UNL d   1      -2.623   0.916   2.302  0.00  0.00     0.002 A 
ATOM     22  C   UNL d   1      -3.065   1.063   3.611  0.00  0.00     0.002 A 
ENDBRANCH   8   9
ENDBRANCH   1   8
BRANCH   2  23
ATOM     23  C   UNL d   1       1.773  -0.177   3.256  0.00  0.00     0.128 C 
ATOM     24  C   UNL d   1       2.787   0.958   3.347  0.00  0.00     0.027 C 
ENDBRANCH   2  23
BRANCH   3  25
ATOM     25  S   UNL d   1       4.718  -1.411   4.267  0.00  0.00    -0.085 SA
BRANCH  25  26
ATOM     26  C   UNL d   1       5.977  -2.717   4.255  0.00  0.00     0.166 C 
BRANCH  26  27
ATOM     27  C   UNL d   1       7.275  -2.293   4.940  0.00  0.00     0.169 C 
ATOM     28  O   UNL d   1       7.483  -1.166   5.399  0.00  0.00    -0.291 OA
BRANCH  27  29
ATOM     29  C   UNL d   1       8.377  -3.313   5.035  0.00  0.00     0.011 A 
ATOM     30  C   UNL d   1       8.210  -4.624   4.566  0.00  0.00     0.016 A 
ATOM     31  C   UNL d   1       9.267  -5.543   4.639  0.00  0.00     0.020 A 
ATOM     32  C   UNL d   1      10.491  -5.155   5.178  0.00  0.00     0.011 A 
ATOM     33  C   UNL d   1      10.667  -3.861   5.662  0.00  0.00     0.020 A 
ATOM     34 BR   UNL d   1      11.919  -6.392   5.237  0.00  0.00    -0.051 Br
ATOM     35  C   UNL d   1       9.611  -2.944   5.592  0.00  0.00     0.016 A 
ENDBRANCH  27  29
ENDBRANCH  26  27
ENDBRANCH  25  26
ENDBRANCH   3  25
TORSDOF 7
