REMARK  4 active torsions:
REMARK  status: ('A' for Active; 'I' for Inactive)
REMARK    1  A    between atoms: C_6  and  C_1 
REMARK    2  A    between atoms: C_7  and  C_2 
REMARK    3  A    between atoms: O_10  and  C_6 
REMARK    4  A    between atoms: O_11  and  C_7 
ROOT
ATOM      1  C   UNL d   1      -1.641  -1.341  -0.036  0.00  0.00     0.084 A 
ATOM      2  C   UNL d   1      -2.489  -0.236  -0.083  0.00  0.00     0.126 A 
ATOM      3  N   UNL d   1      -1.695   0.887  -0.022  0.00  0.00    -0.350 N 
ATOM      4  C   UNL d   1      -0.292  -0.839  -0.038  0.00  0.00     0.009 A 
ATOM      5  C   UNL d   1      -0.364   0.553  -0.036  0.00  0.00     0.044 A 
ATOM      6  C   UNL d   1       0.988  -1.436  -0.010  0.00  0.00     0.015 A 
ATOM      7  C   UNL d   1       0.769   1.377  -0.031  0.00  0.00     0.030 A 
ATOM      8  C   UNL d   1       2.132  -0.630  -0.007  0.00  0.00     0.001 A 
ATOM      9  C   UNL d   1       2.021   0.756  -0.021  0.00  0.00     0.002 A 
ATOM     10  H   UNL d   1      -2.056   1.832  -0.009  0.00  0.00     0.166 HD
ENDROOT
BRANCH   1  11
ATOM     11  C   UNL d   1      -2.072  -2.734   0.042  0.00  0.00     0.296 C 
ATOM     12  O   UNL d   1      -3.115  -3.091   0.578  0.00  0.00    -0.259 OA
BRANCH  11  13
ATOM     13  O   UNL d   1      -1.179  -3.592  -0.530  0.00  0.00    -0.322 OA
ATOM     14  C   UNL d   1      -1.581  -4.961  -0.487  0.00  0.00     0.213 C 
ENDBRANCH  11  13
ENDBRANCH   1  11
BRANCH   2  15
ATOM     15  C   UNL d   1      -3.925  -0.126  -0.170  0.00  0.00     0.310 C 
ATOM     16  O   UNL d   1      -4.563   0.847   0.212  0.00  0.00    -0.258 OA
BRANCH  15  17
ATOM     17  O   UNL d   1      -4.445  -1.193  -0.828  0.00  0.00    -0.321 OA
ATOM     18  C   UNL d   1      -5.868  -1.194  -0.916  0.00  0.00     0.213 C 
ENDBRANCH  15  17
ENDBRANCH   2  15
TORSDOF 4
