REMARK  3 active torsions:
REMARK  status: ('A' for Active; 'I' for Inactive)
REMARK    1  A    between atoms: C_4  and  C_1 
REMARK    2  A    between atoms: N_2  and  C_3 
REMARK       I    between atoms: N_5  and  C_4 
REMARK    3  A    between atoms: C_6  and  N_5 
ROOT
ATOM      1  C   UNL d   1       3.703  -0.007   0.072  0.00  0.00     0.258 C 
ATOM      2  N   UNL d   1       4.425  -1.162   0.297  0.00  0.00    -0.322 N 
ATOM      3  O   UNL d   1       2.605   0.101  -0.453  0.00  0.00    -0.267 OA
ATOM      4  H   UNL d   1       5.194  -1.129   0.954  0.00  0.00     0.169 HD
ENDROOT
BRANCH   1   5
ATOM      5  C   UNL d   1       4.310   1.211   0.645  0.00  0.00     0.065 A 
ATOM      6  C   UNL d   1       5.530   1.717   0.204  0.00  0.00     0.120 A 
ATOM      7  C   UNL d   1       6.111   2.855   0.768  0.00  0.00     0.060 A 
ATOM      8  C   UNL d   1       5.423   3.510   1.787  0.00  0.00     0.036 A 
ATOM      9  C   UNL d   1       4.181   3.041   2.226  0.00  0.00     0.025 A 
ATOM     10 CL   UNL d   1       6.105   4.916   2.506  0.00  0.00    -0.084 Cl
ATOM     11  C   UNL d   1       3.621   1.892   1.654  0.00  0.00     0.021 A 
BRANCH   6  12
ATOM     12  N   UNL d   1       6.221   1.075  -0.890  0.00  0.00    -0.115 N 
ATOM     13  O   UNL d   1       5.761   1.244  -2.024  0.00  0.00    -0.532 OA
ATOM     14  O   UNL d   1       7.234   0.429  -0.597  0.00  0.00    -0.532 OA
ENDBRANCH   6  12
ENDBRANCH   1   5
BRANCH   2  15
ATOM     15  C   UNL d   1       4.116  -2.438  -0.232  0.00  0.00     0.041 A 
ATOM     16  C   UNL d   1       4.539  -3.608   0.444  0.00  0.00    -0.029 A 
ATOM     17  C   UNL d   1       4.343  -4.870  -0.173  0.00  0.00    -0.054 A 
ATOM     18  C   UNL d   1       5.114  -3.555   1.839  0.00  0.00     0.051 C 
ATOM     19  C   UNL d   1       4.796  -6.173   0.433  0.00  0.00     0.049 C 
ATOM     20  C   UNL d   1       3.700  -4.940  -1.420  0.00  0.00     0.007 A 
ATOM     21  C   UNL d   1       3.248  -3.788  -2.053  0.00  0.00     0.003 A 
ATOM     22  C   UNL d   1       3.457  -2.545  -1.463  0.00  0.00     0.030 A 
ENDBRANCH   2  15
TORSDOF 3
