REMARK  9 active torsions:
REMARK  status: ('A' for Active; 'I' for Inactive)
REMARK    1  A    between atoms: C_2  and  C_1 
REMARK    2  A    between atoms: C_3  and  C_1 
REMARK    3  A    between atoms: C_20  and  C_1 
REMARK       I    between atoms: N_10  and  C_2 
REMARK       I    between atoms: N_11  and  C_3 
REMARK    4  A    between atoms: N_4  and  N_10 
REMARK    5  A    between atoms: N_6  and  N_11 
REMARK    6  A    between atoms: C_8  and  C_16 
REMARK    7  A    between atoms: C_9  and  C_17 
REMARK    8  A    between atoms: C_25  and  C_20 
REMARK    9  A    between atoms: C_26  and  C_25 
ROOT
ATOM      1  C   UNL d   1       1.090  -0.032  -0.013  0.00  0.00     0.173 C 
ENDROOT
BRANCH   1   2
ATOM      2  C   UNL d   1       0.453   0.701  -1.177  0.00  0.00     0.249 C 
ATOM      3  N   UNL d   1       0.127   2.019  -0.874  0.00  0.00    -0.270 N 
ATOM      4  H   UNL d   1       0.288   2.400   0.053  0.00  0.00     0.190 HD
ATOM      5  O   UNL d   1       0.307   0.164  -2.276  0.00  0.00    -0.271 OA
BRANCH   3   6
ATOM      6  N   UNL d   1      -0.475   2.798  -1.813  0.00  0.00    -0.308 N 
ATOM      7  C   UNL d   1      -0.700   4.033  -1.479  0.00  0.00     0.120 C 
ATOM      8  HN  UNL d   1      -0.736   2.432  -2.729  1.00  0.00     0.186 HD
BRANCH   7   9
ATOM      9  C   UNL d   1      -1.411   4.951  -2.401  0.00  0.00     0.002 A 
ATOM     10  C   UNL d   1      -1.645   6.295  -2.082  0.00  0.00     0.045 A 
ATOM     11 CL   UNL d   1      -1.074   7.030  -0.626  0.00  0.00    -0.083 Cl
ATOM     12  C   UNL d   1      -2.373   7.103  -2.965  0.00  0.00     0.024 A 
ATOM     13  C   UNL d   1      -2.860   6.579  -4.164  0.00  0.00     0.002 A 
ATOM     14  C   UNL d   1      -2.613   5.248  -4.491  0.00  0.00     0.001 A 
ATOM     15  C   UNL d   1      -1.892   4.438  -3.614  0.00  0.00     0.014 A 
ENDBRANCH   7   9
ENDBRANCH   3   6
ENDBRANCH   1   2
BRANCH   1  16
ATOM     16  C   UNL d   1       0.703  -1.498   0.073  0.00  0.00     0.249 C 
ATOM     17  N   UNL d   1       0.799  -2.239  -1.097  0.00  0.00    -0.270 N 
ATOM     18  H   UNL d   1       0.805  -1.760  -2.000  0.00  0.00     0.190 HD
ATOM     19  O   UNL d   1       0.417  -1.980   1.174  0.00  0.00    -0.271 OA
BRANCH  17  20
ATOM     20  N   UNL d   1       0.502  -3.568  -1.028  0.00  0.00    -0.308 N 
ATOM     21  C   UNL d   1       0.366  -4.228  -2.131  0.00  0.00     0.120 C 
ATOM     22  HN  UNL d   1       0.390  -4.031  -0.126  1.00  0.00     0.186 HD
BRANCH  21  23
ATOM     23  C   UNL d   1      -0.021  -5.663  -2.077  0.00  0.00     0.002 A 
ATOM     24  C   UNL d   1      -0.342  -6.404  -3.219  0.00  0.00     0.045 A 
ATOM     25 CL   UNL d   1      -0.241  -5.755  -4.817  0.00  0.00    -0.083 Cl
ATOM     26  C   UNL d   1      -0.777  -7.732  -3.091  0.00  0.00     0.024 A 
ATOM     27  C   UNL d   1      -0.883  -8.326  -1.832  0.00  0.00     0.002 A 
ATOM     28  C   UNL d   1      -0.543  -7.601  -0.694  0.00  0.00     0.001 A 
ATOM     29  C   UNL d   1      -0.114  -6.279  -0.816  0.00  0.00     0.014 A 
ENDBRANCH  21  23
ENDBRANCH  17  20
ENDBRANCH   1  16
BRANCH   1  30
ATOM     30  C   UNL d   1       2.620   0.094  -0.048  0.00  0.00     0.024 C 
BRANCH  30  31
ATOM     31  C   UNL d   1       3.125   1.489   0.343  0.00  0.00     0.001 C 
BRANCH  31  32
ATOM     32  C   UNL d   1       4.653   1.528   0.374  0.00  0.00    -0.005 C 
ATOM     33  C   UNL d   1       5.174   2.908   0.741  0.00  0.00     0.005 C 
ENDBRANCH  31  32
ENDBRANCH  30  31
ENDBRANCH   1  30
TORSDOF 9
