REMARK  4 active torsions:
REMARK  status: ('A' for Active; 'I' for Inactive)
REMARK    1  A    between atoms: C_11  and  N_3 
REMARK    2  A    between atoms: C_14  and  C_9 
REMARK    3  A    between atoms: C_12  and  C_11 
REMARK    4  A    between atoms: C_16  and  C_12 
ROOT
ATOM      1  C   UNL d   1      -0.233   0.634  -0.067  0.00  0.00     0.067 A 
ATOM      2  C   UNL d   1      -0.148  -0.738  -0.100  0.00  0.00     0.091 A 
ATOM      3  N   UNL d   1       2.149   0.603  -0.037  0.00  0.00    -0.302 N 
ATOM      4  C   UNL d   1       1.002   1.395  -0.044  0.00  0.00     0.262 A 
ATOM      5  N   UNL d   1       0.988  -1.478  -0.128  0.00  0.00    -0.346 N 
ATOM      6  HN  UNL d   1       0.986  -2.498  -0.166  1.00  0.00     0.167 HD
ATOM      7  C   UNL d   1      -1.584   1.093  -0.028  0.00  0.00     0.039 A 
ATOM      8  S   UNL d   1      -1.685  -1.465  -0.092  0.00  0.00    -0.071 SA
ATOM      9  C   UNL d   1      -2.498   0.051  -0.001  0.00  0.00     0.018 A 
ATOM     10  C   UNL d   1       2.076  -0.777  -0.101  0.00  0.00     0.187 A 
ATOM     11  O   UNL d   1       1.018   2.622   0.018  0.00  0.00    -0.267 OA
ENDROOT
BRANCH   3  12
ATOM     12  C   UNL d   1       3.443   1.247   0.107  0.00  0.00     0.216 C 
BRANCH  12  13
ATOM     13  C   UNL d   1       4.100   1.579  -1.225  0.00  0.00     0.177 C 
ATOM     14  O   UNL d   1       3.591   1.289  -2.307  0.00  0.00    -0.291 OA
BRANCH  13  15
ATOM     15  C   UNL d   1       5.447   2.231  -1.192  0.00  0.00     0.011 A 
ATOM     16  C   UNL d   1       6.072   2.586   0.015  0.00  0.00     0.015 A 
ATOM     17  C   UNL d   1       7.352   3.149   0.011  0.00  0.00     0.001 A 
ATOM     18  C   UNL d   1       8.015   3.369  -1.193  0.00  0.00     0.000 A 
ATOM     19  C   UNL d   1       7.399   3.033  -2.397  0.00  0.00     0.001 A 
ATOM     20  C   UNL d   1       6.121   2.468  -2.398  0.00  0.00     0.015 A 
ENDBRANCH  13  15
ENDBRANCH  12  13
ENDBRANCH   3  12
BRANCH   9  21
ATOM     21  C   UNL d   1      -3.968   0.104   0.074  0.00  0.00    -0.019 A 
ATOM     22  C   UNL d   1      -4.677   1.124  -0.580  0.00  0.00     0.013 A 
ATOM     23  C   UNL d   1      -6.073   1.191  -0.502  0.00  0.00     0.001 A 
ATOM     24  C   UNL d   1      -6.779   0.242   0.231  0.00  0.00     0.000 A 
ATOM     25  C   UNL d   1      -6.094  -0.776   0.887  0.00  0.00     0.001 A 
ATOM     26  C   UNL d   1      -4.701  -0.842   0.811  0.00  0.00     0.013 A 
ENDBRANCH   9  21
TORSDOF 4
