REMARK  6 active torsions:
REMARK  status: ('A' for Active; 'I' for Inactive)
REMARK    1  A    between atoms: S_12  and  C_3 
REMARK    2  A    between atoms: S_13  and  C_10 
REMARK    3  A    between atoms: C_18  and  S_12 
REMARK    4  A    between atoms: C_19  and  S_13 
REMARK    5  A    between atoms: C_16  and  C_18 
REMARK    6  A    between atoms: C_17  and  C_19 
ROOT
ATOM      1  C   UNL d   1       0.970  -0.704  -0.046  0.00  0.00     0.090 A 
ATOM      2  C   UNL d   1       0.459   0.592  -0.061  0.00  0.00     0.039 A 
ATOM      3  C   UNL d   1       1.421   1.607  -0.056  0.00  0.00     0.085 A 
ATOM      4  N   UNL d   1       2.265  -1.047  -0.034  0.00  0.00    -0.330 N 
ATOM      5  HN  UNL d   1       2.590  -2.014  -0.020  1.00  0.00     0.168 HD
ATOM      6  N   UNL d   1       2.734   1.306  -0.041  0.00  0.00    -0.331 N 
ATOM      7  HN  UNL d   1       3.440   2.042  -0.028  1.00  0.00     0.168 HD
ATOM      8  S   UNL d   1      -0.250  -1.919  -0.029  0.00  0.00    -0.075 SA
ATOM      9  C   UNL d   1      -0.963   0.535  -0.070  0.00  0.00    -0.029 A 
ATOM     10  C   UNL d   1       3.089   0.008  -0.042  0.00  0.00     0.146 A 
ATOM     11  C   UNL d   1      -1.439  -0.748  -0.052  0.00  0.00    -0.008 A 
ATOM     12  C   UNL d   1      -2.081   1.512  -0.107  0.00  0.00     0.041 C 
ATOM     13  C   UNL d   1      -2.917  -0.846  -0.062  0.00  0.00     0.047 C 
ATOM     14  C   UNL d   1      -3.310   0.626   0.264  0.00  0.00     0.010 C 
ENDROOT
BRANCH   3  15
ATOM     15  S   UNL d   1       0.894   3.288   0.072  0.00  0.00    -0.104 SA
BRANCH  15  16
ATOM     16  C   UNL d   1       2.078   4.112  -1.030  0.00  0.00     0.158 C 
BRANCH  16  17
ATOM     17  C   UNL d   1       1.599   5.535  -1.252  0.00  0.00     0.132 C 
ATOM     18  O   UNL d   1       0.998   5.864  -2.276  0.00  0.00    -0.298 OA
ATOM     19  C   UNL d   1       1.868   6.536  -0.156  0.00  0.00     0.091 C 
ENDBRANCH  16  17
ENDBRANCH  15  16
ENDBRANCH   3  15
BRANCH  10  20
ATOM     20  S   UNL d   1       4.835  -0.339   0.034  0.00  0.00    -0.086 SA
BRANCH  20  21
ATOM     21  C   UNL d   1       4.848  -1.990  -0.736  0.00  0.00     0.160 C 
BRANCH  21  22
ATOM     22  C   UNL d   1       4.328  -1.958  -2.164  0.00  0.00     0.132 C 
ATOM     23  O   UNL d   1       4.452  -0.985  -2.907  0.00  0.00    -0.298 OA
ATOM     24  C   UNL d   1       3.698  -3.230  -2.672  0.00  0.00     0.091 C 
ENDBRANCH  21  22
ENDBRANCH  20  21
ENDBRANCH  10  20
TORSDOF 6
