REMARK  10 active torsions:
REMARK  status: ('A' for Active; 'I' for Inactive)
REMARK    1  A    between atoms: C_12  and  C_3 
REMARK    2  A    between atoms: C_18  and  N_5 
REMARK    3  A    between atoms: N_15  and  C_8 
REMARK    4  A    between atoms: C_14  and  C_10 
REMARK    5  A    between atoms: O_28  and  C_12 
REMARK    6  A    between atoms: C_13  and  N_15 
REMARK    7  A    between atoms: O_29  and  C_14 
REMARK    8  A    between atoms: C_20  and  C_21 
REMARK    9  A    between atoms: C_33  and  O_28 
REMARK   10  A    between atoms: C_34  and  O_29 
ROOT
ATOM      1  C   UNL d   1      -1.495  -5.037  -0.407  0.00  0.00     0.135 C 
ATOM      2  C   UNL d   1      -1.030  -3.780  -0.511  0.00  0.00     0.118 C 
ATOM      3  C   UNL d   1      -0.831  -6.010   0.386  0.00  0.00     0.107 C 
ATOM      4  N   UNL d   1      -0.225  -6.759   1.027  0.00  0.00    -0.191 NA
ENDROOT
BRANCH   1   5
ATOM      5  C   UNL d   1      -2.692  -5.488  -1.155  0.00  0.00     0.305 C 
ATOM      6  O   UNL d   1      -3.241  -6.564  -0.964  0.00  0.00    -0.258 OA
BRANCH   5   7
ATOM      7  O   UNL d   1      -2.999  -4.620  -2.155  0.00  0.00    -0.317 OA
BRANCH   7   8
ATOM      8  C   UNL d   1      -3.832  -5.142  -3.197  0.00  0.00     0.174 C 
ATOM      9  C   UNL d   1      -2.931  -5.790  -4.233  0.00  0.00     0.034 C 
ENDBRANCH   7   8
ENDBRANCH   5   7
ENDBRANCH   1   5
BRANCH   2  10
ATOM     10  N   UNL d   1       0.099  -3.228   0.062  0.00  0.00    -0.358 N 
ATOM     11  H   UNL d   1       0.774  -3.913   0.409  0.00  0.00     0.166 HD
BRANCH  10  12
ATOM     12  C   UNL d   1       0.547  -1.943   0.022  0.00  0.00     0.090 A 
ATOM     13  C   UNL d   1      -0.099  -0.715  -0.016  0.00  0.00     0.081 A 
ATOM     14  C   UNL d   1       0.824   0.379  -0.062  0.00  0.00     0.023 A 
ATOM     15  C   UNL d   1      -1.534  -0.437   0.047  0.00  0.00     0.281 A 
ATOM     16  C   UNL d   1       0.349   1.748  -0.097  0.00  0.00     0.136 A 
ATOM     17  C   UNL d   1       2.135  -0.036  -0.026  0.00  0.00     0.067 A 
ATOM     18  N   UNL d   1      -0.933   1.982  -0.109  0.00  0.00    -0.284 N 
ATOM     19  N   UNL d   1      -1.854   0.940  -0.012  0.00  0.00    -0.219 N 
ATOM     20  HN  UNL d   1      -1.268   2.942  -0.190  1.00  0.00     0.188 HD
ATOM     21  S   UNL d   1       2.260  -1.727   0.096  0.00  0.00    -0.082 SA
ATOM     22  O   UNL d   1      -2.378  -1.327   0.127  0.00  0.00    -0.265 OA
BRANCH  16  23
ATOM     23  C   UNL d   1       1.292   2.951  -0.017  0.00  0.00     0.312 C 
ATOM     24  O   UNL d   1       2.348   2.905   0.591  0.00  0.00    -0.258 OA
BRANCH  23  25
ATOM     25  O   UNL d   1       0.721   4.040  -0.570  0.00  0.00    -0.317 OA
BRANCH  25  26
ATOM     26  C   UNL d   1       1.248   5.290  -0.108  0.00  0.00     0.175 C 
ATOM     27  C   UNL d   1       0.536   5.665   1.181  0.00  0.00     0.034 C 
ENDBRANCH  25  26
ENDBRANCH  23  25
ENDBRANCH  16  23
BRANCH  19  28
ATOM     28  C   UNL d   1      -3.193   1.399   0.154  0.00  0.00     0.060 A 
ATOM     29  C   UNL d   1      -4.059   0.812   1.082  0.00  0.00     0.032 A 
ATOM     30  C   UNL d   1      -5.370   1.279   1.234  0.00  0.00     0.010 A 
ATOM     31  C   UNL d   1      -5.875   2.320   0.434  0.00  0.00    -0.051 A 
ATOM     32  C   UNL d   1      -4.992   2.904  -0.486  0.00  0.00     0.010 A 
ATOM     33  C   UNL d   1      -3.665   2.471  -0.606  0.00  0.00     0.032 A 
BRANCH  31  34
ATOM     34  C   UNL d   1      -7.341   2.770   0.580  0.00  0.00    -0.024 C 
ATOM     35  C   UNL d   1      -7.748   3.862  -0.435  0.00  0.00     0.019 C 
ATOM     36  C   UNL d   1      -8.285   1.568   0.357  0.00  0.00     0.019 C 
ATOM     37  C   UNL d   1      -7.582   3.343   1.992  0.00  0.00     0.019 C 
ENDBRANCH  31  34
ENDBRANCH  19  28
ENDBRANCH  10  12
ENDBRANCH   2  10
TORSDOF 10
