REMARK  7 active torsions:
REMARK  status: ('A' for Active; 'I' for Inactive)
REMARK    1  A    between atoms: N_4  and  C_1 
REMARK    2  A    between atoms: S_2  and  N_4 
REMARK    3  A    between atoms: C_9  and  S_2 
REMARK    4  A    between atoms: C_8  and  C_3 
REMARK    5  A    between atoms: C_12  and  C_5 
REMARK    6  A    between atoms: O_16  and  C_8 
REMARK    7  A    between atoms: C_24  and  O_16 
ROOT
ATOM      1  C   UNL d   1      -1.770  -0.101   0.149  0.00  0.00     0.081 A 
ATOM      2  C   UNL d   1      -1.390  -1.430   0.203  0.00  0.00     0.080 A 
ATOM      3  C   UNL d   1       0.059  -1.556   0.036  0.00  0.00     0.005 A 
ATOM      4  S   UNL d   1      -0.461   0.969   0.037  0.00  0.00    -0.080 SA
ATOM      5  C   UNL d   1       0.674  -0.308  -0.021  0.00  0.00    -0.007 A 
ATOM      6  C   UNL d   1       2.131   0.044  -0.060  0.00  0.00     0.057 C 
ENDROOT
BRANCH   1   7
ATOM      7  N   UNL d   1      -3.104   0.394   0.315  0.00  0.00    -0.174 NA
ATOM      8  H   UNL d   1      -3.116   1.289   0.811  0.00  0.00     0.146 HD
BRANCH   7   9
ATOM      9  S   UNL d   1      -3.917   0.737  -1.149  0.00  0.00     0.246 S 
ATOM     10  O   UNL d   1      -4.659   1.956  -0.904  0.00  0.00    -0.206 OA
ATOM     11  O   UNL d   1      -3.019   0.618  -2.272  0.00  0.00    -0.206 OA
BRANCH   9  12
ATOM     12  C   UNL d   1      -5.089  -0.596  -1.230  0.00  0.00     0.075 A 
ATOM     13  C   UNL d   1      -6.296  -0.511  -0.528  0.00  0.00     0.028 A 
ATOM     14  C   UNL d   1      -7.228  -1.544  -0.645  0.00  0.00     0.044 A 
ATOM     15  C   UNL d   1      -6.947  -2.636  -1.463  0.00  0.00     0.116 A 
ATOM     16  C   UNL d   1      -5.752  -2.718  -2.171  0.00  0.00     0.044 A 
ATOM     17  F   UNL d   1      -7.844  -3.625  -1.571  0.00  0.00    -0.206 F 
ATOM     18  C   UNL d   1      -4.816  -1.691  -2.060  0.00  0.00     0.028 A 
ENDBRANCH   9  12
ENDBRANCH   7   9
ENDBRANCH   1   7
BRANCH   2  19
ATOM     19  C   UNL d   1      -2.294  -2.543   0.483  0.00  0.00     0.296 C 
ATOM     20  O   UNL d   1      -2.144  -3.672   0.031  0.00  0.00    -0.259 OA
BRANCH  19  21
ATOM     21  O   UNL d   1      -3.219  -2.226   1.438  0.00  0.00    -0.318 OA
BRANCH  21  22
ATOM     22  C   UNL d   1      -3.699  -3.304   2.248  0.00  0.00     0.174 C 
ATOM     23  C   UNL d   1      -4.720  -4.182   1.552  0.00  0.00     0.034 C 
ENDBRANCH  21  22
ENDBRANCH  19  21
ENDBRANCH   2  19
BRANCH   3  24
ATOM     24  C   UNL d   1       0.864  -2.787   0.113  0.00  0.00    -0.024 A 
ATOM     25  C   UNL d   1       1.855  -3.065  -0.840  0.00  0.00     0.012 A 
ATOM     26  C   UNL d   1       2.669  -4.196  -0.716  0.00  0.00     0.001 A 
ATOM     27  C   UNL d   1       2.473  -5.085   0.338  0.00  0.00     0.000 A 
ATOM     28  C   UNL d   1       1.468  -4.843   1.270  0.00  0.00     0.001 A 
ATOM     29  C   UNL d   1       0.680  -3.693   1.167  0.00  0.00     0.012 A 
ENDBRANCH   3  24
TORSDOF 7
