REMARK  4 active torsions:
REMARK  status: ('A' for Active; 'I' for Inactive)
REMARK    1  A    between atoms: C_3  and  C_1 
REMARK    2  A    between atoms: N_8  and  C_2 
REMARK    3  A    between atoms: N_6  and  N_8 
REMARK    4  A    between atoms: C_16  and  C_10 
ROOT
ATOM      1  C   UNL d   1      -1.455   0.877  -0.153  0.00  0.00     0.089 A 
ATOM      2  C   UNL d   1      -2.421  -0.112   0.070  0.00  0.00     0.115 A 
ATOM      3  N   UNL d   1      -2.024  -1.377   0.412  0.00  0.00    -0.353 N 
ATOM      4  HN  UNL d   1      -2.723  -2.109   0.542  1.00  0.00     0.166 HD
ATOM      5  C   UNL d   1      -0.088   0.535   0.030  0.00  0.00     0.044 A 
ATOM      6  C   UNL d   1      -0.712  -1.664   0.581  0.00  0.00     0.113 A 
ATOM      7  C   UNL d   1       0.288  -0.743   0.399  0.00  0.00     0.050 A 
ATOM      8 CL   UNL d   1       1.938  -1.163   0.592  0.00  0.00    -0.083 Cl
ENDROOT
BRANCH   2   9
ATOM      9  N   UNL d   1      -3.818   0.105  -0.092  0.00  0.00    -0.185 NA
ATOM     10  C   UNL d   1      -4.593  -1.130   0.153  0.00  0.00     0.144 C 
BRANCH   9  11
ATOM     11  N   UNL d   1      -4.341   1.242   0.484  0.00  0.00    -0.324 N 
ATOM     12  C   UNL d   1      -5.424   1.661  -0.099  0.00  0.00     0.113 C 
ATOM     13  HN  UNL d   1      -3.921   1.707   1.288  1.00  0.00     0.180 HD
BRANCH  12  14
ATOM     14  C   UNL d   1      -6.170   2.851   0.351  0.00  0.00    -0.020 A 
ATOM     15  C   UNL d   1      -5.684   3.645   1.394  0.00  0.00     0.014 A 
ATOM     16  C   UNL d   1      -6.397   4.780   1.788  0.00  0.00     0.024 A 
ATOM     17  C   UNL d   1      -7.587   5.112   1.147  0.00  0.00     0.034 A 
ATOM     18  C   UNL d   1      -8.082   4.315   0.111  0.00  0.00     0.024 A 
ATOM     19 CL   UNL d   1      -8.456   6.516   1.627  0.00  0.00    -0.084 Cl
ATOM     20  C   UNL d   1      -7.367   3.182  -0.290  0.00  0.00     0.014 A 
ENDBRANCH  12  14
ENDBRANCH   9  11
ENDBRANCH   2   9
BRANCH   1  21
ATOM     21  C   UNL d   1      -1.701   2.281  -0.627  0.00  0.00     0.420 C 
ATOM     22  F   UNL d   1      -2.948   2.660  -0.997  0.00  0.00    -0.166 F 
ATOM     23  F   UNL d   1      -1.285   3.202   0.295  0.00  0.00    -0.166 F 
ATOM     24  F   UNL d   1      -0.936   2.546  -1.736  0.00  0.00    -0.166 F 
ENDBRANCH   1  21
TORSDOF 4
