REMARK  4 active torsions:
REMARK  status: ('A' for Active; 'I' for Inactive)
REMARK    1  A    between atoms: C_6  and  C_1 
REMARK    2  A    between atoms: C_8  and  N_2 
REMARK    3  A    between atoms: C_9  and  C_4 
REMARK       I    between atoms: N_7  and  C_6 
REMARK    4  A    between atoms: C_11  and  N_7 
ROOT
ATOM      1  C   UNL d   1      -0.245   1.082  -0.032  0.00  0.00     0.057 C 
ATOM      2  N   UNL d   1       0.913  -0.869   0.201  0.00  0.00    -0.314 N 
ATOM      3  C   UNL d   1       0.999   0.523   0.261  0.00  0.00     0.029 C 
ATOM      4  C   UNL d   1      -0.445  -1.215   0.063  0.00  0.00     0.051 C 
ATOM      5  C   UNL d   1      -1.142  -0.025  -0.107  0.00  0.00     0.050 C 
ATOM      6  C   UNL d   1       2.266   1.235   0.641  0.00  0.00     0.070 C 
ENDROOT
BRANCH   1   7
ATOM      7  C   UNL d   1      -0.505   2.535  -0.169  0.00  0.00     0.258 C 
ATOM      8  N   UNL d   1      -1.817   2.885  -0.436  0.00  0.00    -0.323 N 
ATOM      9  H   UNL d   1      -2.483   2.128  -0.522  0.00  0.00     0.169 HD
ATOM     10  O   UNL d   1       0.417   3.345  -0.045  0.00  0.00    -0.267 OA
BRANCH   8  11
ATOM     11  C   UNL d   1      -2.366   4.192  -0.449  0.00  0.00     0.035 A 
ATOM     12  C   UNL d   1      -1.612   5.359  -0.307  0.00  0.00     0.030 A 
ATOM     13  C   UNL d   1      -2.236   6.602  -0.141  0.00  0.00     0.009 A 
ATOM     14  C   UNL d   1      -3.629   6.702  -0.126  0.00  0.00    -0.062 A 
ATOM     15  C   UNL d   1      -4.386   5.554  -0.371  0.00  0.00     0.009 A 
ATOM     16  C   UNL d   1      -4.282   7.993   0.272  0.00  0.00     0.048 C 
ATOM     17  C   UNL d   1      -3.759   4.312  -0.541  0.00  0.00     0.030 A 
ENDBRANCH   8  11
ENDBRANCH   1   7
BRANCH   2  18
ATOM     18  C   UNL d   1       2.036  -1.759   0.180  0.00  0.00     0.039 A 
ATOM     19  C   UNL d   1       2.020  -2.976   0.874  0.00  0.00     0.030 A 
ATOM     20  C   UNL d   1       2.985  -3.949   0.600  0.00  0.00     0.002 A 
ATOM     21  C   UNL d   1       4.008  -3.687  -0.309  0.00  0.00     0.000 A 
ATOM     22  C   UNL d   1       4.090  -2.437  -0.920  0.00  0.00     0.002 A 
ATOM     23  C   UNL d   1       3.106  -1.475  -0.682  0.00  0.00     0.030 A 
ENDBRANCH   2  18
BRANCH   4  24
ATOM     24  C   UNL d   1      -1.008  -2.586   0.050  0.00  0.00    -0.009 C 
ATOM     25  C   UNL d   1      -0.403  -3.640  -0.649  0.00  0.00     0.014 C 
ATOM     26  C   UNL d   1      -0.786  -4.966  -0.425  0.00  0.00     0.001 C 
ATOM     27  C   UNL d   1      -1.865  -5.247   0.405  0.00  0.00     0.000 C 
ATOM     28  C   UNL d   1      -2.577  -4.199   0.984  0.00  0.00     0.001 C 
ATOM     29  C   UNL d   1      -2.146  -2.878   0.815  0.00  0.00     0.014 C 
ENDBRANCH   4  24
TORSDOF 4
