REMARK  8 active torsions:
REMARK  status: ('A' for Active; 'I' for Inactive)
REMARK    1  A    between atoms: N_3  and  S_1 
REMARK    2  A    between atoms: C_4  and  S_1 
REMARK    3  A    between atoms: C_5  and  C_2 
REMARK    4  A    between atoms: C_6  and  N_3 
REMARK    5  A    between atoms: C_10  and  C_6 
REMARK    6  A    between atoms: C_11  and  C_6 
REMARK    7  A    between atoms: C_7  and  C_11 
REMARK    8  A    between atoms: O_20  and  C_10 
ROOT
ATOM      1  C   UNL d   1       1.020   1.448  -2.044  0.00  0.00     0.197 C 
ENDROOT
BRANCH   1   2
ATOM      2  N   UNL d   1       0.525   0.262  -1.310  0.00  0.00    -0.301 N 
ATOM      3  H   UNL d   1      -0.367  -0.164  -1.574  0.00  0.00     0.173 HD
BRANCH   2   4
ATOM      4  S   UNL d   1       0.945   0.102   0.314  0.00  0.00     0.260 S 
ATOM      5  O   UNL d   1       2.375   0.240   0.426  0.00  0.00    -0.200 OA
ATOM      6  O   UNL d   1       0.253  -1.030   0.875  0.00  0.00    -0.200 OA
BRANCH   4   7
ATOM      7  C   UNL d   1       0.200   1.565   1.011  0.00  0.00     0.094 A 
ATOM      8  C   UNL d   1      -1.193   1.754   1.036  0.00  0.00     0.071 A 
ATOM      9  C   UNL d   1      -1.677   2.977   1.552  0.00  0.00     0.018 A 
ATOM     10  C   UNL d   1      -0.810   3.976   2.001  0.00  0.00     0.001 A 
ATOM     11  C   UNL d   1       0.564   3.768   1.969  0.00  0.00     0.002 A 
ATOM     12  C   UNL d   1       1.071   2.563   1.486  0.00  0.00     0.026 A 
BRANCH   8  13
ATOM     13  C   UNL d   1      -2.232   0.761   0.560  0.00  0.00     0.419 C 
ATOM     14  F   UNL d   1      -1.800  -0.214  -0.277  0.00  0.00    -0.166 F 
ATOM     15  F   UNL d   1      -2.869   0.144   1.592  0.00  0.00    -0.166 F 
ATOM     16  F   UNL d   1      -3.217   1.391  -0.148  0.00  0.00    -0.166 F 
ENDBRANCH   8  13
ENDBRANCH   4   7
ENDBRANCH   2   4
ENDBRANCH   1   2
BRANCH   1  17
ATOM     17  C   UNL d   1       2.557   1.421  -2.142  0.00  0.00     0.282 C 
ATOM     18  O   UNL d   1       3.215   0.467  -2.528  0.00  0.00    -0.263 OA
BRANCH  17  19
ATOM     19  O   UNL d   1       3.073   2.658  -1.881  0.00  0.00    -0.325 OA
ATOM     20  C   UNL d   1       4.479   2.754  -2.125  0.00  0.00     0.213 C 
ENDBRANCH  17  19
ENDBRANCH   1  17
BRANCH   1  21
ATOM     21  C   UNL d   1       0.596   1.478  -3.501  0.00  0.00     0.077 C 
BRANCH  21  22
ATOM     22  C   UNL d   1      -0.831   1.399  -3.957  0.00  0.00    -0.028 C 
ATOM     23  C   UNL d   1      -1.282   0.344  -4.733  0.00  0.00     0.096 C 
ATOM     24  N   UNL d   1      -2.082   0.892  -5.700  0.00  0.00    -0.365 N 
ATOM     25  C   UNL d   1      -2.372   2.196  -5.385  0.00  0.00     0.042 C 
ATOM     26  H   UNL d   1      -2.370   0.426  -6.548  0.00  0.00     0.165 HD
ATOM     27  C   UNL d   1      -1.785   2.458  -4.143  0.00  0.00    -0.002 C 
ATOM     28  C   UNL d   1      -3.083   3.156  -6.113  0.00  0.00     0.030 C 
ATOM     29  C   UNL d   1      -2.107   3.678  -3.511  0.00  0.00     0.014 C 
ATOM     30  C   UNL d   1      -2.952   4.591  -4.168  0.00  0.00     0.001 C 
ATOM     31  C   UNL d   1      -3.374   4.360  -5.475  0.00  0.00     0.002 C 
ENDBRANCH  21  22
ENDBRANCH   1  21
TORSDOF 8
