REMARK  3 active torsions:
REMARK  status: ('A' for Active; 'I' for Inactive)
REMARK    1  A    between atoms: C_5  and  C_1 
REMARK       I    between atoms: N_11  and  C_5 
REMARK    2  A    between atoms: C_7  and  C_18 
REMARK    3  A    between atoms: C_18  and  N_11 
ROOT
ATOM      1  C   UNL d   1       0.254   3.076   0.227  0.00  0.00     0.254 C 
ATOM      2  N   UNL d   1      -1.013   3.609   0.156  0.00  0.00    -0.351 N 
ATOM      3  O   UNL d   1       1.234   3.805   0.381  0.00  0.00    -0.268 OA
ATOM      4  H   UNL d   1      -1.813   3.024  -0.067  0.00  0.00     0.163 HD
ENDROOT
BRANCH   1   5
ATOM      5  C   UNL d   1       0.459   1.602   0.105  0.00  0.00     0.069 A 
ATOM      6  C   UNL d   1      -0.551   0.637  -0.070  0.00  0.00     0.096 A 
ATOM      7  C   UNL d   1      -0.213  -0.730  -0.135  0.00  0.00     0.003 A 
ATOM      8  O   UNL d   1      -1.860   1.037  -0.157  0.00  0.00    -0.325 OA
ATOM      9  C   UNL d   1      -1.284  -1.769  -0.293  0.00  0.00     0.212 C 
ATOM     10  C   UNL d   1       1.129  -1.127  -0.080  0.00  0.00     0.054 A 
ATOM     11  O   UNL d   1      -2.548  -1.234   0.067  0.00  0.00    -0.362 OA
ATOM     12  C   UNL d   1      -2.748   0.004  -0.596  0.00  0.00     0.345 C 
ATOM     13  C   UNL d   1       2.119  -0.170   0.067  0.00  0.00     0.118 A 
ATOM     14  C   UNL d   1       1.798   1.175   0.166  0.00  0.00     0.062 A 
ATOM     15  F   UNL d   1       3.402  -0.550   0.117  0.00  0.00    -0.206 F 
ENDBRANCH   1   5
BRANCH   2  16
ATOM     16  C   UNL d   1      -1.149   5.049   0.143  0.00  0.00     0.181 C 
BRANCH  16  17
ATOM     17  C   UNL d   1      -2.559   5.522   0.133  0.00  0.00     0.052 A 
ATOM     18  N   UNL d   1      -3.537   4.862  -0.505  0.00  0.00    -0.264 N 
ATOM     19  O   UNL d   1      -4.672   5.648  -0.365  0.00  0.00    -0.243 OA
ATOM     20  HN  UNL d   1      -3.461   3.969  -0.992  1.00  0.00     0.194 HD
ATOM     21  C   UNL d   1      -4.367   6.767   0.347  0.00  0.00     0.074 A 
ATOM     22  C   UNL d   1      -3.042   6.730   0.696  0.00  0.00     0.063 A 
ATOM     23  C   UNL d   1      -5.457   7.735   0.570  0.00  0.00     0.079 C 
ENDBRANCH  16  17
ENDBRANCH   2  16
TORSDOF 3
