REMARK  5 active torsions:
REMARK  status: ('A' for Active; 'I' for Inactive)
REMARK    1  A    between atoms: N_7  and  C_2 
REMARK    2  A    between atoms: C_9  and  C_5 
REMARK    3  A    between atoms: C_25  and  N_14 
REMARK    4  A    between atoms: O_26  and  C_17 
REMARK    5  A    between atoms: O_27  and  C_20 
ROOT
ATOM      1  C   UNL d   1      -1.797   1.659  -0.237  0.00  0.00     0.102 A 
ATOM      2  C   UNL d   1      -3.119   1.175  -0.129  0.00  0.00     0.099 A 
ATOM      3  C   UNL d   1      -0.915   0.615  -0.043  0.00  0.00     0.069 A 
ATOM      4  N   UNL d   1      -1.726  -0.516   0.117  0.00  0.00    -0.342 N 
ATOM      5  C   UNL d   1      -3.080  -0.198   0.078  0.00  0.00     0.082 A 
ATOM      6  C   UNL d   1       0.555   0.486  -0.043  0.00  0.00     0.002 A 
ATOM      7  C   UNL d   1      -1.418   3.019  -0.537  0.00  0.00     0.104 C 
ATOM      8  C   UNL d   1       1.098  -0.791  -0.209  0.00  0.00    -0.041 A 
ATOM      9  C   UNL d   1       1.450   1.556   0.180  0.00  0.00     0.054 A 
ATOM     10  C   UNL d   1      -1.130  -1.830   0.309  0.00  0.00     0.134 C 
ATOM     11  N   UNL d   1      -1.093   4.112  -0.777  0.00  0.00    -0.191 NA
ATOM     12  C   UNL d   1       2.860   1.367   0.224  0.00  0.00     0.102 A 
ATOM     13  C   UNL d   1       2.485  -0.966  -0.218  0.00  0.00     0.047 A 
ATOM     14  C   UNL d   1       3.385   0.088   0.008  0.00  0.00     0.102 A 
ATOM     15  C   UNL d   1       0.202  -1.983  -0.417  0.00  0.00     0.060 C 
ENDROOT
BRANCH   2  16
ATOM     16  N   UNL d   1      -4.301   1.942  -0.269  0.00  0.00    -0.296 N 
ATOM     17  N   UNL d   1      -4.221   3.049   0.305  0.00  0.00    -0.300 N 
ATOM     18  HN  UNL d   1      -3.429   3.324   0.888  1.00  0.00     0.187 HD
ATOM     19  HN  UNL d   1      -5.125   1.627  -0.781  1.00  0.00     0.187 HD
BRANCH  17  20
ATOM     20  C   UNL d   1      -5.333   3.879   0.066  0.00  0.00     0.048 A 
ATOM     21  C   UNL d   1      -6.659   3.421   0.102  0.00  0.00     0.031 A 
ATOM     22  C   UNL d   1      -7.728   4.306  -0.077  0.00  0.00     0.002 A 
ATOM     23  C   UNL d   1      -7.486   5.662  -0.286  0.00  0.00     0.000 A 
ATOM     24  C   UNL d   1      -6.177   6.134  -0.323  0.00  0.00     0.002 A 
ATOM     25  C   UNL d   1      -5.110   5.247  -0.148  0.00  0.00     0.031 A 
ENDBRANCH  17  20
ENDBRANCH   2  16
BRANCH   5  26
ATOM     26  C   UNL d   1      -4.161  -1.157   0.220  0.00  0.00     0.034 A 
ATOM     27  S   UNL d   1      -5.642  -0.974  -0.640  0.00  0.00    -0.100 SA
ATOM     28  C   UNL d   1      -6.311  -2.394   0.031  0.00  0.00     0.050 A 
ATOM     29  C   UNL d   1      -5.428  -3.027   0.873  0.00  0.00     0.008 A 
ATOM     30  C   UNL d   1      -4.206  -2.301   1.001  0.00  0.00     0.021 A 
ENDBRANCH   5  26
BRANCH  12  31
ATOM     31  O   UNL d   1       3.555   2.432   0.741  0.00  0.00    -0.353 OA
ATOM     32  C   UNL d   1       4.447   3.111  -0.137  0.00  0.00     0.210 C 
ENDBRANCH  12  31
BRANCH  14  33
ATOM     33  O   UNL d   1       4.648  -0.415   0.049  0.00  0.00    -0.353 OA
ATOM     34  C   UNL d   1       5.788   0.401   0.168  0.00  0.00     0.210 C 
ENDBRANCH  14  33
TORSDOF 5
