REMARK  0 active torsions:
REMARK  status: ('A' for Active; 'I' for Inactive)
ROOT
ATOM      1  C   UNL d   1      -1.125   0.825  -0.028  0.00  0.00     0.108 A 
ATOM      2  N   UNL d   1      -0.020   1.623   0.062  0.00  0.00    -0.351 N 
ATOM      3  C   UNL d   1      -0.706  -0.490   0.029  0.00  0.00    -0.012 A 
ATOM      4  C   UNL d   1       0.715  -0.489   0.060  0.00  0.00    -0.000 A 
ATOM      5  C   UNL d   1       1.120   0.848   0.071  0.00  0.00     0.043 A 
ATOM      6  C   UNL d   1      -2.480   1.263  -0.214  0.00  0.00     0.268 C 
ATOM      7  N   UNL d   1      -3.393   0.230  -0.313  0.00  0.00    -0.355 N 
ATOM      8  C   UNL d   1       1.700  -1.496   0.036  0.00  0.00     0.021 A 
ATOM      9  O   UNL d   1      -2.826   2.433  -0.319  0.00  0.00    -0.266 OA
ATOM     10  C   UNL d   1       2.466   1.226   0.062  0.00  0.00     0.031 A 
ATOM     11  C   UNL d   1      -1.677  -1.615  -0.063  0.00  0.00     0.061 C 
ATOM     12  C   UNL d   1       3.059  -1.142  -0.004  0.00  0.00    -0.061 A 
ATOM     13  C   UNL d   1      -3.112  -1.110   0.200  0.00  0.00     0.128 C 
ATOM     14  C   UNL d   1       3.425   0.209   0.015  0.00  0.00     0.009 A 
ATOM     15  C   UNL d   1       4.119  -2.200  -0.092  0.00  0.00     0.048 C 
ATOM     16  H   UNL d   1      -0.042   2.634   0.043  0.00  0.00     0.166 HD
ATOM     17  H   UNL d   1      -4.352   0.542  -0.380  0.00  0.00     0.162 HD
ENDROOT
TORSDOF 0
