REMARK  3 active torsions:
REMARK  status: ('A' for Active; 'I' for Inactive)
REMARK    1  A    between atoms: N_3  and  C_1 
REMARK    2  A    between atoms: C_7  and  C_2 
REMARK    3  A    between atoms: O_11  and  C_7 
ROOT
ATOM      1  C   UNL d   1       0.155   1.233  -0.005  0.00  0.00     0.144 A 
ATOM      2  C   UNL d   1       1.464  -0.708   0.004  0.00  0.00     0.049 A 
ATOM      3  C   UNL d   1       1.440   0.733   0.002  0.00  0.00     0.061 A 
ATOM      4  S   UNL d   1      -1.023   0.010  -0.011  0.00  0.00    -0.077 SA
ATOM      5  C   UNL d   1       0.173  -1.213  -0.004  0.00  0.00     0.069 A 
ENDROOT
BRANCH   2   6
ATOM      6  C   UNL d   1       2.642  -1.573   0.011  0.00  0.00     0.293 C 
ATOM      7  O   UNL d   1       2.575  -2.796   0.013  0.00  0.00    -0.259 OA
BRANCH   6   8
ATOM      8  O   UNL d   1       3.805  -0.862   0.017  0.00  0.00    -0.323 OA
ATOM      9  C   UNL d   1       4.981  -1.673   0.025  0.00  0.00     0.213 C 
ENDBRANCH   6   8
ENDBRANCH   2   6
BRANCH   1  10
ATOM     10  N   UNL d   1      -0.232   2.621  -0.010  0.00  0.00    -0.108 N 
ATOM     11  O   UNL d   1       0.692   3.446  -0.006  0.00  0.00    -0.531 OA
ATOM     12  O   UNL d   1      -1.438   2.896  -0.017  0.00  0.00    -0.531 OA
ENDBRANCH   1  10
TORSDOF 3
