REMARK  5 active torsions:
REMARK  status: ('A' for Active; 'I' for Inactive)
REMARK    1  A    between atoms: C_3  and  C_1 
REMARK       I    between atoms: C_2  and  N_6 
REMARK       I    between atoms: N_7  and  C_2 
REMARK    2  A    between atoms: N_6  and  C_16 
REMARK    3  A    between atoms: C_18  and  N_7 
REMARK    4  A    between atoms: C_8  and  O_11 
REMARK    5  A    between atoms: O_11  and  C_12 
ROOT
ATOM      1  N   UNL d   1      -4.664   1.807  -1.651  0.00  0.00    -0.344 N 
ATOM      2  HN  UNL d   1      -4.956   2.560  -2.273  1.00  0.00     0.167 HD
ATOM      3  C   UNL d   1      -3.461   1.822  -1.036  0.00  0.00     0.148 A 
ATOM      4  C   UNL d   1      -5.110  -0.339  -0.599  0.00  0.00     0.051 A 
ATOM      5  C   UNL d   1      -5.462   0.745  -1.400  0.00  0.00     0.119 A 
ATOM      6  C   UNL d   1      -2.982   0.759  -0.287  0.00  0.00     0.059 A 
ATOM      7  C   UNL d   1      -3.817  -0.341  -0.076  0.00  0.00     0.035 A 
ENDROOT
BRANCH   4   8
ATOM      8  N   UNL d   1      -6.093  -1.307  -0.312  0.00  0.00    -0.307 N 
ATOM      9  C   UNL d   1      -5.946  -2.453   0.413  0.00  0.00     0.325 C 
ATOM     10  N   UNL d   1      -7.075  -3.122   0.791  0.00  0.00    -0.309 N 
ATOM     11  O   UNL d   1      -4.875  -2.892   0.831  0.00  0.00    -0.247 OA
ATOM     12  H   UNL d   1      -6.840  -3.782   1.524  0.00  0.00     0.170 HD
ATOM     13  H   UNL d   1      -7.036  -1.048  -0.553  0.00  0.00     0.170 HD
BRANCH  10  14
ATOM     14  C   UNL d   1      -8.441  -2.980   0.500  0.00  0.00     0.036 A 
ATOM     15  C   UNL d   1      -8.954  -2.432  -0.676  0.00  0.00     0.029 A 
ATOM     16  C   UNL d   1     -10.335  -2.270  -0.836  0.00  0.00     0.002 A 
ATOM     17  C   UNL d   1     -11.213  -2.691   0.160  0.00  0.00     0.000 A 
ATOM     18  C   UNL d   1     -10.714  -3.308   1.303  0.00  0.00     0.002 A 
ATOM     19  C   UNL d   1      -9.337  -3.463   1.466  0.00  0.00     0.029 A 
ENDBRANCH  10  14
ENDBRANCH   4   8
BRANCH   3  20
ATOM     20  O   UNL d   1      -2.641   2.943  -1.116  0.00  0.00    -0.294 OA
BRANCH  20  21
ATOM     21  C   UNL d   1      -3.206   4.169  -1.393  0.00  0.00     0.078 A 
ATOM     22  C   UNL d   1      -4.499   4.546  -1.022  0.00  0.00     0.053 A 
ATOM     23  C   UNL d   1      -5.030   5.782  -1.421  0.00  0.00     0.050 A 
ATOM     24  C   UNL d   1      -4.202   6.687  -2.098  0.00  0.00     0.016 A 
ATOM     25  C   UNL d   1      -2.880   6.349  -2.394  0.00  0.00     0.004 A 
ATOM     26  C   UNL d   1      -2.388   5.088  -2.051  0.00  0.00     0.037 A 
BRANCH  23  27
ATOM     27  C   UNL d   1      -6.482   6.104  -1.175  0.00  0.00     0.417 C 
ATOM     28  F   UNL d   1      -7.163   5.122  -0.519  0.00  0.00    -0.166 F 
ATOM     29  F   UNL d   1      -7.167   6.314  -2.335  0.00  0.00    -0.166 F 
ATOM     30  F   UNL d   1      -6.652   7.233  -0.433  0.00  0.00    -0.166 F 
ENDBRANCH  23  27
ENDBRANCH  20  21
ENDBRANCH   3  20
TORSDOF 5
