REMARK  1 active torsions:
REMARK  status: ('A' for Active; 'I' for Inactive)
REMARK    1  A    between atoms: C_3  and  C_1 
ROOT
ATOM      1  C   UNL d   1      -3.812  -0.014   0.049  0.00  0.00     0.100 C 
ATOM      2  S   UNL d   1      -4.275   0.761   1.652  0.00  0.00    -0.117 SA
ATOM      3  N   UNL d   1      -5.986   2.350  -0.527  0.00  0.00    -0.326 N 
ATOM      4  C   UNL d   1      -5.697   1.176  -1.169  0.00  0.00     0.223 C 
ATOM      5  C   UNL d   1      -4.255   0.728  -1.201  0.00  0.00     0.123 C 
ATOM      6  C   UNL d   1      -4.261   2.502   1.243  0.00  0.00     0.028 A 
ATOM      7  C   UNL d   1      -5.136   3.091   0.312  0.00  0.00     0.051 A 
ATOM      8  O   UNL d   1      -6.574   0.587  -1.801  0.00  0.00    -0.273 OA
ATOM      9  C   UNL d   1      -3.447   3.326   2.034  0.00  0.00     0.021 A 
ATOM     10  C   UNL d   1      -5.214   4.486   0.222  0.00  0.00     0.031 A 
ATOM     11  C   UNL d   1      -3.485   4.712   1.892  0.00  0.00     0.002 A 
ATOM     12  C   UNL d   1      -4.374   5.292   0.991  0.00  0.00     0.002 A 
ATOM     13  H   UNL d   1      -6.868   2.761  -0.811  0.00  0.00     0.169 HD
ENDROOT
BRANCH   1  14
ATOM     14  C   UNL d   1      -2.317  -0.269   0.024  0.00  0.00     0.030 A 
ATOM     15  C   UNL d   1      -1.855  -1.660  -0.224  0.00  0.00     0.194 A 
ATOM     16  C   UNL d   1      -0.398  -1.882  -0.272  0.00  0.00     0.048 A 
ATOM     17  O   UNL d   1      -2.641  -2.583  -0.401  0.00  0.00    -0.287 OA
ATOM     18  C   UNL d   1       0.126  -3.152  -0.529  0.00  0.00     0.018 A 
ATOM     19  C   UNL d   1       0.456  -0.801  -0.068  0.00  0.00     0.089 A 
ATOM     20  C   UNL d   1       1.510  -3.333  -0.574  0.00  0.00     0.001 A 
ATOM     21  C   UNL d   1       2.366  -2.250  -0.358  0.00  0.00     0.003 A 
ATOM     22  C   UNL d   1       1.838  -0.983  -0.104  0.00  0.00     0.038 A 
ATOM     23  O   UNL d   1      -0.002   0.469   0.163  0.00  0.00    -0.321 OA
ATOM     24  C   UNL d   1      -1.361   0.663   0.178  0.00  0.00     0.154 A 
ENDBRANCH   1  14
TORSDOF 1
