REMARK  9 active torsions:
REMARK  status: ('A' for Active; 'I' for Inactive)
REMARK    1  A    between atoms: C_2  and  S_1 
REMARK    2  A    between atoms: C_6  and  S_1 
REMARK    3  A    between atoms: C_3  and  C_2 
REMARK    4  A    between atoms: C_5  and  C_2 
REMARK    5  A    between atoms: C_4  and  C_3 
REMARK    6  A    between atoms: C_9  and  C_4 
REMARK    7  A    between atoms: O_18  and  C_8 
REMARK    8  A    between atoms: O_22  and  C_10 
REMARK    9  A    between atoms: N_17  and  C_11 
ROOT
ATOM      1  C   UNL d   1       0.385   1.325  -1.179  0.00  0.00     0.092 C 
ENDROOT
BRANCH   1   2
ATOM      2  S   UNL d   1       0.918  -0.286  -1.972  0.00  0.00    -0.118 SA
BRANCH   2   3
ATOM      3  C   UNL d   1       2.245  -0.865  -0.907  0.00  0.00     0.022 C 
ATOM      4  C   UNL d   1       2.142  -1.006   0.492  0.00  0.00     0.022 C 
ATOM      5  C   UNL d   1       3.296  -1.237   1.248  0.00  0.00     0.024 C 
ATOM      6  C   UNL d   1       4.494  -1.566   0.620  0.00  0.00     0.002 C 
ATOM      7  C   UNL d   1       4.545  -1.646  -0.766  0.00  0.00     0.001 C 
ATOM      8  C   UNL d   1       3.434  -1.271  -1.528  0.00  0.00     0.020 C 
BRANCH   4   9
ATOM      9  N   UNL d   1       0.909  -0.882   1.169  0.00  0.00    -0.302 NA
ATOM     10  H   UNL d   1       0.216  -1.433   0.663  0.00  0.00     0.124 HD
ATOM     11  H   UNL d   1       0.957  -1.184   2.136  0.00  0.00     0.124 HD
ENDBRANCH   4   9
ENDBRANCH   2   3
ENDBRANCH   1   2
BRANCH   1  12
ATOM     12  C   UNL d   1       1.216   2.556  -1.587  0.00  0.00     0.104 C 
BRANCH  12  13
ATOM     13  C   UNL d   1       1.694   2.974  -2.981  0.00  0.00     0.161 C 
ATOM     14  O   UNL d   1       2.790   3.544  -3.066  0.00  0.00    -0.292 OA
BRANCH  13  15
ATOM     15  C   UNL d   1       0.856   2.967  -4.221  0.00  0.00     0.010 A 
ATOM     16  C   UNL d   1      -0.119   2.026  -4.503  0.00  0.00     0.015 A 
ATOM     17  C   UNL d   1      -0.891   2.116  -5.667  0.00  0.00     0.007 A 
ATOM     18  C   UNL d   1      -0.684   3.146  -6.588  0.00  0.00    -0.062 A 
ATOM     19  C   UNL d   1       0.330   4.073  -6.338  0.00  0.00     0.007 A 
ATOM     20  C   UNL d   1      -1.599   3.293  -7.767  0.00  0.00     0.048 C 
ATOM     21  C   UNL d   1       1.097   3.981  -5.173  0.00  0.00     0.015 A 
ENDBRANCH  13  15
ENDBRANCH  12  13
ENDBRANCH   1  12
BRANCH   1  22
ATOM     22  C   UNL d   1      -1.151   1.461  -1.158  0.00  0.00    -0.041 A 
ATOM     23  C   UNL d   1      -1.871   2.521  -1.739  0.00  0.00     0.048 A 
ATOM     24  C   UNL d   1      -3.279   2.591  -1.661  0.00  0.00     0.102 A 
ATOM     25  C   UNL d   1      -3.987   1.601  -0.958  0.00  0.00     0.101 A 
ATOM     26  C   UNL d   1      -3.281   0.558  -0.365  0.00  0.00     0.040 A 
ATOM     27  C   UNL d   1      -1.890   0.497  -0.460  0.00  0.00     0.011 A 
BRANCH  24  28
ATOM     28  O   UNL d   1      -4.012   3.547  -2.319  0.00  0.00    -0.353 OA
ATOM     29  C   UNL d   1      -3.393   4.808  -2.523  0.00  0.00     0.210 C 
ENDBRANCH  24  28
BRANCH  25  30
ATOM     30  O   UNL d   1      -5.341   1.487  -0.781  0.00  0.00    -0.353 OA
ATOM     31  C   UNL d   1      -6.112   2.679  -0.825  0.00  0.00     0.210 C 
ENDBRANCH  25  30
ENDBRANCH   1  22
TORSDOF 9
