REMARK  6 active torsions:
REMARK  status: ('A' for Active; 'I' for Inactive)
REMARK    1  A    between atoms: C_6  and  S_1 
REMARK    2  A    between atoms: C_8  and  S_1 
REMARK    3  A    between atoms: C_2  and  C_8 
REMARK    4  A    between atoms: C_9  and  C_3 
REMARK    5  A    between atoms: C_15  and  C_5 
REMARK    6  A    between atoms: O_20  and  C_9 
ROOT
ATOM      1  C   UNL d   1       0.844   0.509   2.736  0.00  0.00    -0.020 A 
ATOM      2  C   UNL d   1       0.856  -0.728   3.376  0.00  0.00     0.087 A 
ATOM      3  S   UNL d   1       1.312  -0.565   5.024  0.00  0.00    -0.087 SA
ATOM      4  C   UNL d   1       1.581   1.119   4.907  0.00  0.00    -0.008 A 
ATOM      5  C   UNL d   1       1.263   1.557   3.636  0.00  0.00     0.025 A 
ENDROOT
BRANCH   1   6
ATOM      6  C   UNL d   1       0.510   0.798   1.287  0.00  0.00     0.185 C 
BRANCH   6   7
ATOM      7  S   UNL d   1      -1.109   1.552   1.044  0.00  0.00     0.180 S 
ATOM      8  O   UNL d   1      -2.106   0.502   0.940  0.00  0.00    -0.222 OA
ATOM      9  O   UNL d   1      -1.299   2.630   1.997  0.00  0.00    -0.222 OA
BRANCH   7  10
ATOM     10  C   UNL d   1      -0.970   2.295  -0.597  0.00  0.00     0.066 A 
ATOM     11  C   UNL d   1      -1.221   1.447  -1.693  0.00  0.00     0.032 A 
ATOM     12  C   UNL d   1      -1.206   1.936  -3.011  0.00  0.00    -0.039 A 
ATOM     13  C   UNL d   1      -1.464   0.999  -4.157  0.00  0.00     0.050 C 
ATOM     14  C   UNL d   1      -0.947   3.296  -3.217  0.00  0.00     0.040 A 
ATOM     15  C   UNL d   1      -0.700   4.141  -2.131  0.00  0.00     0.032 A 
ATOM     16 CL   UNL d   1      -0.929   3.988  -4.800  0.00  0.00    -0.084 Cl
ATOM     17  C   UNL d   1      -0.691   3.660  -0.807  0.00  0.00    -0.039 A 
ATOM     18  C   UNL d   1      -0.433   4.660   0.284  0.00  0.00     0.050 C 
ENDBRANCH   7  10
ENDBRANCH   6   7
ENDBRANCH   1   6
BRANCH   2  19
ATOM     19  C   UNL d   1       0.585  -2.063   2.840  0.00  0.00     0.300 C 
ATOM     20  O   UNL d   1       0.387  -2.309   1.655  0.00  0.00    -0.259 OA
BRANCH  19  21
ATOM     21  O   UNL d   1       0.632  -3.003   3.826  0.00  0.00    -0.322 OA
ATOM     22  C   UNL d   1       0.507  -4.378   3.460  0.00  0.00     0.213 C 
ENDBRANCH  19  21
ENDBRANCH   2  19
BRANCH   4  23
ATOM     23  C   UNL d   1       2.115   1.903   6.112  0.00  0.00    -0.018 C 
ATOM     24  C   UNL d   1       2.212   3.411   5.799  0.00  0.00     0.020 C 
ATOM     25  C   UNL d   1       1.186   1.737   7.332  0.00  0.00     0.020 C 
ATOM     26  C   UNL d   1       3.531   1.407   6.474  0.00  0.00     0.020 C 
ENDBRANCH   4  23
TORSDOF 6
