REMARK  0 active torsions:
REMARK  status: ('A' for Active; 'I' for Inactive)
ROOT
ATOM      1  C   UNL d   1      -0.761  -1.382  -0.158  0.00  0.00     0.034 C 
ATOM      2  C   UNL d   1      -0.715  -1.421  -1.547  0.00  0.00     0.036 C 
ATOM      3  C   UNL d   1      -0.718  -2.556   0.704  0.00  0.00     0.194 C 
ATOM      4  C   UNL d   1      -0.746  -2.560  -2.416  0.00  0.00     0.029 C 
ATOM      5  C   UNL d   1      -0.185  -3.735  -2.078  0.00  0.00     0.032 C 
ATOM      6  C   UNL d   1       0.325  -3.568   0.415  0.00  0.00     0.025 A 
ATOM      7  C   UNL d   1       0.587  -4.064  -0.870  0.00  0.00    -0.021 A 
ATOM      8  S   UNL d   1      -0.599   0.189  -2.176  0.00  0.00    -0.100 SA
ATOM      9  C   UNL d   1      -0.878  -0.044   0.348  0.00  0.00     0.024 C 
ATOM     10  C   UNL d   1      -0.776   0.901  -0.641  0.00  0.00     0.051 C 
ATOM     11  O   UNL d   1      -1.375  -2.633   1.738  0.00  0.00    -0.287 OA
ATOM     12 BR   UNL d   1      -1.676  -2.438  -4.051  0.00  0.00    -0.050 Br
ATOM     13  C   UNL d   1       1.103  -3.982   1.511  0.00  0.00     0.016 A 
ATOM     14  C   UNL d   1       1.629  -4.996  -1.021  0.00  0.00     0.012 A 
ATOM     15  C   UNL d   1       2.154  -4.879   1.333  0.00  0.00     0.001 A 
ATOM     16  C   UNL d   1       2.414  -5.389   0.066  0.00  0.00     0.001 A 
ENDROOT
TORSDOF 0
