REMARK  6 active torsions:
REMARK  status: ('A' for Active; 'I' for Inactive)
REMARK    1  A    between atoms: C_15  and  N_4 
REMARK       I    between atoms: C_7  and  N_8 
REMARK    2  A    between atoms: N_8  and  C_9 
REMARK    3  A    between atoms: C_14  and  O_17 
REMARK    4  A    between atoms: C_16  and  C_15 
REMARK    5  A    between atoms: C_21  and  C_16 
REMARK    6  A    between atoms: O_17  and  C_21 
ROOT
ATOM      1  O   UNL d   1      -3.656  -2.624   4.192  0.00  0.00    -0.351 OA
ENDROOT
BRANCH   1   2
ATOM      2  C   UNL d   1      -3.690  -2.685   5.566  0.00  0.00     0.070 A 
ATOM      3  C   UNL d   1      -3.843  -1.558   6.378  0.00  0.00     0.066 A 
ATOM      4  C   UNL d   1      -3.781  -1.641   7.766  0.00  0.00     0.037 A 
ATOM      5  C   UNL d   1      -3.642  -2.902   8.351  0.00  0.00     0.029 A 
ATOM      6  C   UNL d   1      -3.550  -4.048   7.548  0.00  0.00     0.005 A 
ATOM      7  C   UNL d   1      -3.569  -3.938   6.157  0.00  0.00     0.037 A 
BRANCH   4   8
ATOM      8  N   UNL d   1      -3.828  -0.497   8.598  0.00  0.00    -0.327 N 
ATOM      9  C   UNL d   1      -3.877   0.827   8.183  0.00  0.00     0.218 C 
ATOM     10  O   UNL d   1      -3.935   1.242   7.029  0.00  0.00    -0.274 OA
ATOM     11  C   UNL d   1      -3.851   1.817   9.315  0.00  0.00     0.117 C 
ATOM     12  H   UNL d   1      -3.768  -0.672   9.592  0.00  0.00     0.169 HD
ENDBRANCH   4   8
ENDBRANCH   1   2
BRANCH   1  13
ATOM     13  C   UNL d   1      -3.099  -1.394   3.708  0.00  0.00     0.177 C 
BRANCH  13  14
ATOM     14  C   UNL d   1      -3.036  -1.399   2.190  0.00  0.00     0.057 C 
BRANCH  14  15
ATOM     15  C   UNL d   1      -2.458  -0.077   1.670  0.00  0.00     0.274 C 
BRANCH  15  16
ATOM     16  N   UNL d   1      -1.080   0.197   2.116  0.00  0.00     0.090 N 
ATOM     17  C   UNL d   1      -0.082  -0.791   1.683  0.00  0.00     0.287 C 
ATOM     18  C   UNL d   1       0.107  -0.869   0.181  0.00  0.00     0.170 C 
ATOM     19  S   UNL d   1       0.591   0.711  -0.468  0.00  0.00     0.147 S 
ATOM     20  C   UNL d   1      -0.519   1.857   0.312  0.00  0.00     0.170 C 
ATOM     21  O   UNL d   1       0.295   0.711  -1.886  0.00  0.00    -0.228 OA
ATOM     22  O   UNL d   1       1.936   0.996   0.001  0.00  0.00    -0.228 OA
ATOM     23  C   UNL d   1      -0.637   1.565   1.797  0.00  0.00     0.287 C 
ENDBRANCH  15  16
ENDBRANCH  14  15
ENDBRANCH  13  14
ENDBRANCH   1  13
TORSDOF 6
