REMARK  10 active torsions:
REMARK  status: ('A' for Active; 'I' for Inactive)
REMARK    1  A    between atoms: C1*_3  and  N_1 
REMARK    2  A    between atoms: N_22  and  C_2 
REMARK    3  A    between atoms: C2*_8  and  O2*_30 
REMARK    4  A    between atoms: N_11  and  C_10 
REMARK    5  A    between atoms: C3*_12  and  O3*_32 
REMARK    6  A    between atoms: C4*_13  and  C5*_33 
REMARK    7  A    between atoms: N_31  and  C_17 
REMARK    8  A    between atoms: C_21  and  C_29 
REMARK    9  A    between atoms: N_23  and  N_22 
REMARK   10  A    between atoms: O5*_34  and  C5*_33 
ROOT
ATOM      1  N   UNL d   1       1.599   1.201   0.124  0.00  0.00    -0.134 N 
ATOM      2  C   UNL d   1       2.426   0.089   0.155  0.00  0.00     0.703 C 
ATOM      3  C   UNL d   1       0.312   0.747   0.258  0.00  0.00     0.158 A 
ATOM      4  N   UNL d   1       1.726  -1.026   0.177  0.00  0.00    -0.182 N 
ATOM      5  HN  UNL d   1       2.084  -1.981   0.175  1.00  0.00     0.184 HD
ATOM      6  C   UNL d   1       0.410  -0.632   0.203  0.00  0.00     0.137 A 
ATOM      7  N   UNL d   1      -0.814   1.472   0.293  0.00  0.00    -0.336 N 
ATOM      8  HN  UNL d   1      -0.843   2.490   0.347  1.00  0.00     0.168 HD
ATOM      9  C   UNL d   1      -0.793  -1.351   0.122  0.00  0.00     0.131 A 
ATOM     10  N   UNL d   1      -1.957  -0.666   0.162  0.00  0.00    -0.337 N 
ATOM     11  HN  UNL d   1      -2.852  -1.155   0.130  1.00  0.00     0.168 HD
ATOM     12  C   UNL d   1      -1.907   0.680   0.246  0.00  0.00     0.183 A 
ENDROOT
BRANCH   2  13
ATOM     13  N   UNL d   1       3.773   0.221   0.031  0.00  0.00    -0.132 N 
ATOM     14  H   UNL d   1       4.233   0.943   0.585  0.00  0.00     0.205 HD
BRANCH  13  15
ATOM     15  N   UNL d   1       4.647  -0.707  -0.465  0.00  0.00    -0.295 N 
ATOM     16  C   UNL d   1       4.210  -1.490  -1.403  0.00  0.00     0.144 C 
ATOM     17  HN  UNL d   1       5.601  -0.779  -0.113  1.00  0.00     0.186 HD
BRANCH  16  18
ATOM     18  C   UNL d   1       5.105  -2.415  -2.038  0.00  0.00     0.095 A 
ATOM     19  O   UNL d   1       4.629  -3.164  -3.086  0.00  0.00    -0.287 OA
ATOM     20  C   UNL d   1       5.683  -3.889  -3.538  0.00  0.00     0.215 A 
ATOM     21  C   UNL d   1       6.824  -3.643  -2.817  0.00  0.00     0.065 A 
ATOM     22  C   UNL d   1       6.444  -2.690  -1.834  0.00  0.00     0.043 A 
BRANCH  20  23
ATOM     23  N   UNL d   1       5.437  -4.735  -4.666  0.00  0.00    -0.090 N 
ATOM     24  O   UNL d   1       6.419  -5.335  -5.120  0.00  0.00    -0.530 OA
ATOM     25  O   UNL d   1       4.282  -4.799  -5.101  0.00  0.00    -0.530 OA
ENDBRANCH  20  23
ENDBRANCH  16  18
ENDBRANCH  13  15
ENDBRANCH   2  13
BRANCH   1  26
ATOM     26  C1* UNL d   1       1.983   2.480  -0.438  0.00  0.00     0.279 C 
ATOM     27  C2* UNL d   1       1.398   3.771   0.143  0.00  0.00     0.199 C 
ATOM     28  C3* UNL d   1       0.360   4.209  -0.882  0.00  0.00     0.182 C 
ATOM     29  C4* UNL d   1       0.870   3.599  -2.183  0.00  0.00     0.179 C 
ATOM     30  O4* UNL d   1       1.664   2.446  -1.847  0.00  0.00    -0.353 OA
BRANCH  27  31
ATOM     31  O2* UNL d   1       2.421   4.796   0.226  0.00  0.00    -0.388 OA
ATOM     32  H2* UNL d   1       2.951   4.779  -0.595  0.00  0.00     0.210 HD
ENDBRANCH  27  31
BRANCH  28  33
ATOM     33  O3* UNL d   1       0.280   5.632  -0.992  0.00  0.00    -0.390 OA
ATOM     34  H3* UNL d   1       1.039   5.999  -0.496  0.00  0.00     0.210 HD
ENDBRANCH  28  33
BRANCH  29  35
ATOM     35  C5* UNL d   1      -0.245   3.186  -3.147  0.00  0.00     0.198 C 
BRANCH  35  36
ATOM     36  O5* UNL d   1      -1.139   2.246  -2.563  0.00  0.00    -0.398 OA
ATOM     37  H5* UNL d   1      -0.594   1.530  -2.183  0.00  0.00     0.209 HD
ENDBRANCH  35  36
ENDBRANCH  29  35
ENDBRANCH   1  26
BRANCH   9  38
ATOM     38  N   UNL d   1      -0.844  -2.725  -0.050  0.00  0.00    -0.383 N 
ATOM     39  H   UNL d   1      -0.007  -3.224   0.226  0.00  0.00     0.157 HD
ATOM     40  H   UNL d   1      -1.745  -3.127   0.166  0.00  0.00     0.157 HD
ENDBRANCH   9  38
TORSDOF 10
