REMARK  7 active torsions:
REMARK  status: ('A' for Active; 'I' for Inactive)
REMARK    1  A    between atoms: N_2  and  S_1 
REMARK    2  A    between atoms: C_5  and  S_1 
REMARK    3  A    between atoms: C_3  and  N_2 
REMARK    4  A    between atoms: S_6  and  C_4 
REMARK    5  A    between atoms: C_13  and  S_6 
REMARK    6  A    between atoms: C_24  and  C_16 
REMARK    7  A    between atoms: C_27  and  C_24 
ROOT
ATOM      1  C   UNL d   1       0.874   2.719   0.013  0.00  0.00     0.076 A 
ATOM      2  C   UNL d   1       2.038   3.509   0.030  0.00  0.00     0.102 A 
ATOM      3  N   UNL d   1       2.169   4.581   0.857  0.00  0.00    -0.358 N 
ATOM      4  HN  UNL d   1       3.014   5.152   0.847  1.00  0.00     0.166 HD
ATOM      5  C   UNL d   1      -0.180   3.075   0.860  0.00  0.00     0.034 A 
ATOM      6  C   UNL d   1       1.147   4.866   1.690  0.00  0.00     0.089 A 
ATOM      7  C   UNL d   1      -0.037   4.154   1.726  0.00  0.00     0.019 A 
ENDROOT
BRANCH   1   8
ATOM      8  N   UNL d   1       0.742   1.515  -0.750  0.00  0.00    -0.278 N 
ATOM      9  H   UNL d   1      -0.112   1.390  -1.292  0.00  0.00     0.179 HD
BRANCH   8  10
ATOM     10  S   UNL d   1       1.273   0.064  -0.057  0.00  0.00     0.263 S 
ATOM     11  O   UNL d   1       2.624   0.218   0.432  0.00  0.00    -0.200 OA
ATOM     12  O   UNL d   1       0.927  -0.979  -1.002  0.00  0.00    -0.200 OA
BRANCH  10  13
ATOM     13  C   UNL d   1       0.211  -0.151   1.362  0.00  0.00     0.079 A 
ATOM     14  C   UNL d   1      -0.998  -0.841   1.224  0.00  0.00     0.026 A 
ATOM     15  C   UNL d   1      -1.802  -1.055   2.344  0.00  0.00     0.009 A 
ATOM     16  C   UNL d   1      -1.409  -0.591   3.611  0.00  0.00    -0.058 A 
ATOM     17  C   UNL d   1      -0.185   0.085   3.735  0.00  0.00     0.009 A 
ATOM     18  C   UNL d   1       0.626   0.299   2.619  0.00  0.00     0.026 A 
BRANCH  16  19
ATOM     19  C   UNL d   1      -2.266  -0.877   4.824  0.00  0.00     0.038 C 
BRANCH  19  20
ATOM     20  C   UNL d   1      -2.738   0.362   5.593  0.00  0.00     0.000 C 
ATOM     21  C   UNL d   1      -3.654   1.260   4.774  0.00  0.00     0.005 C 
ENDBRANCH  19  20
ENDBRANCH  16  19
ENDBRANCH  10  13
ENDBRANCH   8  10
ENDBRANCH   1   8
BRANCH   2  22
ATOM     22  S   UNL d   1       3.465   3.180  -0.985  0.00  0.00    -0.070 SA
BRANCH  22  23
ATOM     23  C   UNL d   1       3.202   4.101  -2.492  0.00  0.00     0.007 A 
ATOM     24  C   UNL d   1       2.420   5.255  -2.595  0.00  0.00     0.019 A 
ATOM     25  C   UNL d   1       2.268   5.907  -3.828  0.00  0.00     0.008 A 
ATOM     26  C   UNL d   1       2.901   5.423  -4.979  0.00  0.00    -0.062 A 
ATOM     27  C   UNL d   1       3.727   4.302  -4.868  0.00  0.00     0.008 A 
ATOM     28  C   UNL d   1       2.714   6.110  -6.300  0.00  0.00     0.048 C 
ATOM     29  C   UNL d   1       3.872   3.650  -3.639  0.00  0.00     0.019 A 
ENDBRANCH  22  23
ENDBRANCH   2  22
TORSDOF 7
