REMARK  5 active torsions:
REMARK  status: ('A' for Active; 'I' for Inactive)
REMARK    1  A    between atoms: N_2  and  C_1 
REMARK    2  A    between atoms: S_10  and  C_3 
REMARK    3  A    between atoms: N_8  and  C_5 
REMARK    4  A    between atoms: C_7  and  C_11 
REMARK    5  A    between atoms: C_23  and  S_10 
ROOT
ATOM      1  C   UNL d   1       1.777  -1.212   0.086  0.00  0.00     0.121 A 
ATOM      2  C   UNL d   1       2.465  -0.002  -0.014  0.00  0.00     0.041 A 
ATOM      3  C   UNL d   1       0.378  -1.268   0.148  0.00  0.00     0.063 A 
ATOM      4  C   UNL d   1       0.285   1.152   0.001  0.00  0.00     0.061 A 
ATOM      5  C   UNL d   1       1.698   1.176  -0.068  0.00  0.00     0.053 A 
ATOM      6  C   UNL d   1      -0.372  -0.087   0.098  0.00  0.00     0.063 A 
ATOM      7 CL   UNL d   1      -2.083  -0.312  -0.015  0.00  0.00    -0.082 Cl
ENDROOT
BRANCH   2   8
ATOM      8  S   UNL d   1       4.238   0.165  -0.141  0.00  0.00    -0.088 SA
BRANCH   8   9
ATOM      9  C   UNL d   1       4.759   0.122   1.564  0.00  0.00     0.005 A 
ATOM     10  C   UNL d   1       5.626  -0.889   1.987  0.00  0.00     0.019 A 
ATOM     11  C   UNL d   1       6.130  -0.894   3.293  0.00  0.00     0.017 A 
ATOM     12  C   UNL d   1       5.777   0.118   4.197  0.00  0.00     0.048 A 
ATOM     13  C   UNL d   1       4.900   1.126   3.769  0.00  0.00     0.017 A 
ATOM     14  C   UNL d   1       4.400   1.131   2.463  0.00  0.00     0.019 A 
BRANCH  12  15
ATOM     15  C   UNL d   1       6.338   0.149   5.600  0.00  0.00     0.417 C 
ATOM     16  F   UNL d   1       7.169  -0.893   5.880  0.00  0.00    -0.166 F 
ATOM     17  F   UNL d   1       7.059   1.278   5.844  0.00  0.00    -0.166 F 
ATOM     18  F   UNL d   1       5.363   0.117   6.550  0.00  0.00    -0.166 F 
ENDBRANCH  12  15
ENDBRANCH   8   9
ENDBRANCH   2   8
BRANCH   1  19
ATOM     19  N   UNL d   1       2.482  -2.478   0.086  0.00  0.00    -0.114 N 
ATOM     20  O   UNL d   1       3.097  -2.787  -0.943  0.00  0.00    -0.532 OA
ATOM     21  O   UNL d   1       2.361  -3.182   1.096  0.00  0.00    -0.532 OA
ENDBRANCH   1  19
BRANCH   4  22
ATOM     22  N   UNL d   1      -0.400   2.406  -0.034  0.00  0.00    -0.331 N 
ATOM     23  C   UNL d   1      -1.584   2.737   0.594  0.00  0.00     0.096 A 
ATOM     24  C   UNL d   1      -1.903   4.047   0.311  0.00  0.00     0.019 A 
ATOM     25  C   UNL d   1      -0.866   4.564  -0.488  0.00  0.00     0.019 A 
ATOM     26  C   UNL d   1       0.052   3.553  -0.665  0.00  0.00     0.096 A 
ENDBRANCH   4  22
TORSDOF 5
