REMARK  2 active torsions:
REMARK  status: ('A' for Active; 'I' for Inactive)
REMARK    1  A    between atoms: C_8  and  C_1 
REMARK    2  A    between atoms: N_12  and  C_4 
REMARK       I    between atoms: N_14  and  C_8 
ROOT
ATOM      1  C   UNL d   1       2.413  -0.717  -0.061  0.00  0.00     0.137 A 
ATOM      2  N   UNL d   1       2.401   0.637  -0.011  0.00  0.00    -0.294 N 
ATOM      3  HN  UNL d   1       3.278   1.159  -0.011  1.00  0.00     0.187 HD
ATOM      4  C   UNL d   1       1.246  -1.491  -0.029  0.00  0.00     0.052 A 
ATOM      5  C   UNL d   1       0.013  -0.789  -0.021  0.00  0.00     0.017 A 
ATOM      6  N   UNL d   1       1.208   1.296   0.037  0.00  0.00    -0.299 N 
ATOM      7  HN  UNL d   1       1.198   2.315   0.086  1.00  0.00     0.187 HD
ATOM      8  C   UNL d   1       0.050   0.623   0.022  0.00  0.00     0.060 A 
ATOM      9  C   UNL d   1      -1.253  -1.425  -0.063  0.00  0.00     0.039 A 
ATOM     10  C   UNL d   1      -1.142   1.339   0.035  0.00  0.00     0.033 A 
ATOM     11  C   UNL d   1      -2.433  -0.684  -0.048  0.00  0.00     0.035 A 
ATOM     12  C   UNL d   1      -2.383   0.701   0.002  0.00  0.00     0.026 A 
ATOM     13 CL   UNL d   1      -3.953  -1.486  -0.090  0.00  0.00    -0.084 Cl
ENDROOT
BRANCH   1  14
ATOM     14  C   UNL d   1       3.779  -1.331  -0.083  0.00  0.00     0.269 C 
ATOM     15  O   UNL d   1       3.965  -2.542  -0.022  0.00  0.00    -0.266 OA
ATOM     16  N   UNL d   1       4.836  -0.459  -0.151  0.00  0.00    -0.365 N 
ATOM     17  H   UNL d   1       4.686   0.543  -0.156  0.00  0.00     0.159 HD
ATOM     18  H   UNL d   1       5.778  -0.825  -0.144  0.00  0.00     0.159 HD
ENDBRANCH   1  14
BRANCH   4  19
ATOM     19  N   UNL d   1       1.270  -2.899  -0.202  0.00  0.00    -0.300 NA
ATOM     20  H   UNL d   1       2.209  -3.293  -0.055  0.00  0.00     0.124 HD
ATOM     21  H   UNL d   1       0.571  -3.407   0.329  0.00  0.00     0.124 HD
ENDBRANCH   4  19
TORSDOF 2
