REMARK  2 active torsions:
REMARK  status: ('A' for Active; 'I' for Inactive)
REMARK    1  A    between atoms: S_12  and  C_5 
REMARK    2  A    between atoms: C_9  and  N_8 
ROOT
ATOM      1  C   UNL d   1       3.599  -1.589  -0.579  0.00  0.00     0.166 A 
ATOM      2  S   UNL d   1       2.173  -2.390  -1.137  0.00  0.00    -0.027 SA
ATOM      3  N   UNL d   1       4.701  -2.264  -0.847  0.00  0.00    -0.278 N 
ATOM      4  HN  UNL d   1       5.631  -1.954  -0.565  1.00  0.00     0.189 HD
ATOM      5  C   UNL d   1       3.191  -3.603  -1.784  0.00  0.00     0.127 A 
ATOM      6  N   UNL d   1       4.469  -3.429  -1.545  0.00  0.00    -0.286 N 
ATOM      7  HN  UNL d   1       5.201  -4.077  -1.839  1.00  0.00     0.188 HD
ATOM      8  N   UNL d   1       3.520  -0.397   0.066  0.00  0.00    -0.335 N 
ATOM      9  H   UNL d   1       2.597  -0.038   0.283  0.00  0.00     0.168 HD
ENDROOT
BRANCH   8  10
ATOM     10  C   UNL d   1       4.518   0.606   0.050  0.00  0.00     0.041 A 
ATOM     11  C   UNL d   1       4.615   1.547   1.103  0.00  0.00    -0.013 A 
ATOM     12  C   UNL d   1       5.626   2.532   1.042  0.00  0.00     0.042 A 
ATOM     13  C   UNL d   1       3.685   1.512   2.289  0.00  0.00     0.052 C 
ATOM     14 CL   UNL d   1       5.799   3.737   2.274  0.00  0.00    -0.084 Cl
ATOM     15  C   UNL d   1       6.536   2.575  -0.017  0.00  0.00     0.024 A 
ATOM     16  C   UNL d   1       6.455   1.637  -1.036  0.00  0.00     0.004 A 
ATOM     17  C   UNL d   1       5.459   0.665  -0.997  0.00  0.00     0.030 A 
ENDBRANCH   8  10
BRANCH   5  18
ATOM     18  S   UNL d   1       2.613  -4.967  -2.704  0.00  0.00    -0.117 SA
ATOM     19  H   UNL d   1       1.349  -4.554  -2.848  0.00  0.00     0.109 HD
ENDBRANCH   5  18
TORSDOF 2
