REMARK  3 active torsions:
REMARK  status: ('A' for Active; 'I' for Inactive)
REMARK    1  A    between atoms: C_13  and  N_1 
REMARK    2  A    between atoms: C_7  and  C_2 
REMARK    3  A    between atoms: C_6  and  C_14 
ROOT
ATOM      1  C   UNL d   1      -0.911   2.469   0.098  0.00  0.00     0.047 C 
ATOM      2  C   UNL d   1      -2.043   2.941   0.660  0.00  0.00     0.125 C 
ATOM      3  N   UNL d   1      -3.767   1.468   1.899  0.00  0.00    -0.191 NA
ATOM      4  N   UNL d   1      -2.495   5.480   0.528  0.00  0.00    -0.191 NA
ATOM      5  C   UNL d   1      -2.984   2.126   1.347  0.00  0.00     0.111 C 
ATOM      6  C   UNL d   1      -2.306   4.340   0.591  0.00  0.00     0.111 C 
ENDROOT
BRANCH   1   7
ATOM      7  C   UNL d   1      -0.440   1.118   0.049  0.00  0.00    -0.009 A 
ATOM      8  C   UNL d   1       0.895   0.738   0.025  0.00  0.00     0.023 A 
ATOM      9  N   UNL d   1       0.953  -0.669  -0.020  0.00  0.00    -0.319 N 
ATOM     10  C   UNL d   1       2.104   1.624  -0.031  0.00  0.00     0.069 C 
ATOM     11  C   UNL d   1      -0.364  -1.137  -0.024  0.00  0.00     0.014 A 
ATOM     12  C   UNL d   1      -1.214  -0.051  -0.042  0.00  0.00     0.038 A 
ATOM     13  C   UNL d   1      -0.812  -2.558   0.079  0.00  0.00     0.068 C 
BRANCH   9  14
ATOM     14  C   UNL d   1       2.139  -1.476  -0.077  0.00  0.00     0.039 A 
ATOM     15  C   UNL d   1       2.167  -2.641  -0.855  0.00  0.00     0.031 A 
ATOM     16  C   UNL d   1       3.318  -3.437  -0.908  0.00  0.00     0.018 A 
ATOM     17  C   UNL d   1       4.476  -3.066  -0.213  0.00  0.00     0.048 A 
ATOM     18  C   UNL d   1       4.452  -1.891   0.549  0.00  0.00     0.018 A 
ATOM     19  C   UNL d   1       3.291  -1.117   0.632  0.00  0.00     0.031 A 
BRANCH  17  20
ATOM     20  C   UNL d   1       5.735  -3.896  -0.278  0.00  0.00     0.417 C 
ATOM     21  F   UNL d   1       5.583  -5.067  -0.956  0.00  0.00    -0.166 F 
ATOM     22  F   UNL d   1       6.758  -3.239  -0.891  0.00  0.00    -0.166 F 
ATOM     23  F   UNL d   1       6.197  -4.237   0.957  0.00  0.00    -0.166 F 
ENDBRANCH  17  20
ENDBRANCH   9  14
ENDBRANCH   1   7
TORSDOF 3
