REMARK  2 active torsions:
REMARK  status: ('A' for Active; 'I' for Inactive)
REMARK    1  A    between atoms: C_6  and  N_1 
REMARK    2  A    between atoms: C_14  and  C_9 
ROOT
ATOM      1  C   UNL d   1       0.066   2.281   0.007  0.00  0.00     0.045 A 
ATOM      2  C   UNL d   1       0.095   5.131   0.066  0.00  0.00    -0.055 A 
ATOM      3  C   UNL d   1      -0.672   2.998   0.959  0.00  0.00     0.031 A 
ATOM      4  C   UNL d   1       0.828   3.022  -0.907  0.00  0.00     0.031 A 
ATOM      5  C   UNL d   1      -0.647   4.398   0.998  0.00  0.00     0.010 A 
ATOM      6  C   UNL d   1       0.837   4.424  -0.885  0.00  0.00     0.010 A 
ENDROOT
BRANCH   1   7
ATOM      7  N   UNL d   1       0.046   0.859  -0.024  0.00  0.00    -0.245 N 
ATOM      8  C   UNL d   1      -0.914   0.066   0.548  0.00  0.00     0.255 A 
ATOM      9  C   UNL d   1      -0.541  -1.331   0.295  0.00  0.00     0.080 A 
ATOM     10  O   UNL d   1      -1.944   0.343   1.137  0.00  0.00    -0.268 OA
ATOM     11  C   UNL d   1       0.590  -1.332  -0.403  0.00  0.00     0.080 A 
ATOM     12  C   UNL d   1       0.982   0.064  -0.628  0.00  0.00     0.255 A 
ATOM     13  O   UNL d   1       2.009   0.338  -1.225  0.00  0.00    -0.268 OA
ENDBRANCH   1   7
BRANCH   2  14
ATOM     14  C   UNL d   1       0.097   6.649   0.059  0.00  0.00     0.010 C 
ATOM     15  C   UNL d   1      -1.317   7.208  -0.124  0.00  0.00     0.015 C 
ATOM     16  C   UNL d   1       0.751   7.224   1.317  0.00  0.00     0.015 C 
ENDBRANCH   2  14
TORSDOF 2
