REMARK  4 active torsions:
REMARK  status: ('A' for Active; 'I' for Inactive)
REMARK    1  A    between atoms: C_13  and  C_3 
REMARK    2  A    between atoms: C_14  and  N_4 
REMARK    3  A    between atoms: C_15  and  C_10 
REMARK    4  A    between atoms: C_18  and  C_13 
ROOT
ATOM      1  C   UNL d   1      -1.287  -0.050  -0.096  0.00  0.00     0.118 C 
ATOM      2  C   UNL d   1      -2.569   0.072  -0.503  0.00  0.00     0.106 C 
ATOM      3  C   UNL d   1       0.738   0.388   1.135  0.00  0.00     0.142 C 
ATOM      4  N   UNL d   1      -0.584  -1.182   0.370  0.00  0.00    -0.247 N 
ATOM      5  S   UNL d   1      -0.242   1.373   0.106  0.00  0.00    -0.046 SA
ATOM      6  N   UNL d   1       0.520  -0.886   1.186  0.00  0.00    -0.282 N 
ATOM      7  HN  UNL d   1       1.059  -1.562   1.728  1.00  0.00     0.188 HD
ATOM      8  N   UNL d   1      -4.502   0.786  -1.513  0.00  0.00    -0.256 N 
ATOM      9  HN  UNL d   1      -5.211   1.374  -1.950  1.00  0.00     0.195 HD
ATOM     10  C   UNL d   1      -3.427   1.201  -0.906  0.00  0.00     0.084 C 
ATOM     11  C   UNL d   1      -3.463  -1.087  -0.683  0.00  0.00     0.320 C 
ATOM     12  O   UNL d   1      -4.509  -0.637  -1.458  0.00  0.00    -0.194 OA
ATOM     13  O   UNL d   1      -3.364  -2.215  -0.246  0.00  0.00    -0.257 OA
ENDROOT
BRANCH   4  14
ATOM     14  C   UNL d   1      -0.470  -2.460  -0.259  0.00  0.00     0.057 A 
ATOM     15  C   UNL d   1      -0.670  -2.655  -1.635  0.00  0.00     0.031 A 
ATOM     16  C   UNL d   1      -0.530  -3.927  -2.205  0.00  0.00     0.002 A 
ATOM     17  C   UNL d   1      -0.179  -5.019  -1.415  0.00  0.00     0.000 A 
ATOM     18  C   UNL d   1       0.044  -4.845  -0.052  0.00  0.00     0.002 A 
ATOM     19  C   UNL d   1      -0.097  -3.573   0.514  0.00  0.00     0.031 A 
ENDBRANCH   4  14
BRANCH  10  20
ATOM     20  C   UNL d   1      -3.250   2.639  -0.623  0.00  0.00    -0.006 A 
ATOM     21  C   UNL d   1      -2.774   3.106   0.607  0.00  0.00     0.014 A 
ATOM     22  C   UNL d   1      -2.606   4.476   0.827  0.00  0.00     0.001 A 
ATOM     23  C   UNL d   1      -3.010   5.391  -0.142  0.00  0.00     0.000 A 
ATOM     24  C   UNL d   1      -3.589   4.939  -1.326  0.00  0.00     0.001 A 
ATOM     25  C   UNL d   1      -3.704   3.568  -1.569  0.00  0.00     0.014 A 
ENDBRANCH  10  20
BRANCH   3  26
ATOM     26  C   UNL d   1       1.715   1.214   1.907  0.00  0.00     0.217 C 
ATOM     27  O   UNL d   1       2.207   2.223   1.410  0.00  0.00    -0.284 OA
BRANCH  26  28
ATOM     28  C   UNL d   1       2.130   0.786   3.270  0.00  0.00     0.017 A 
ATOM     29  C   UNL d   1       3.349   1.272   3.761  0.00  0.00     0.015 A 
ATOM     30  C   UNL d   1       3.813   0.884   5.020  0.00  0.00     0.001 A 
ATOM     31  C   UNL d   1       3.052   0.013   5.798  0.00  0.00     0.000 A 
ATOM     32  C   UNL d   1       1.827  -0.455   5.329  0.00  0.00     0.001 A 
ATOM     33  C   UNL d   1       1.359  -0.068   4.068  0.00  0.00     0.015 A 
ENDBRANCH  26  28
ENDBRANCH   3  26
TORSDOF 4
