REMARK  6 active torsions:
REMARK  status: ('A' for Active; 'I' for Inactive)
REMARK    1  A    between atoms: N_2  and  S_1 
REMARK    2  A    between atoms: C_6  and  S_1 
REMARK    3  A    between atoms: N_3  and  N_2 
REMARK    4  A    between atoms: C_4  and  N_3 
REMARK    5  A    between atoms: N_5  and  C_4 
REMARK    6  A    between atoms: C_9  and  N_5 
ROOT
ATOM      1  N   UNL d   1       1.095   2.423  -1.021  0.00  0.00    -0.266 N 
ATOM      2  H   UNL d   1       1.888   2.755  -0.482  0.00  0.00     0.190 HD
ENDROOT
BRANCH   1   3
ATOM      3  N   UNL d   1       0.749   1.024  -0.959  0.00  0.00    -0.221 N 
ATOM      4  H   UNL d   1      -0.134   0.692  -1.364  0.00  0.00     0.200 HD
BRANCH   3   5
ATOM      5  S   UNL d   1       1.835  -0.156  -0.462  0.00  0.00     0.276 S 
ATOM      6  O   UNL d   1       3.037  -0.023  -1.264  0.00  0.00    -0.199 OA
ATOM      7  O   UNL d   1       1.107  -1.404  -0.390  0.00  0.00    -0.199 OA
BRANCH   5   8
ATOM      8  C   UNL d   1       2.240   0.345   1.190  0.00  0.00     0.081 A 
ATOM      9  C   UNL d   1       1.506  -0.147   2.273  0.00  0.00     0.027 A 
ATOM     10  C   UNL d   1       1.863   0.230   3.568  0.00  0.00     0.025 A 
ATOM     11  C   UNL d   1       2.946   1.084   3.773  0.00  0.00     0.034 A 
ATOM     12  C   UNL d   1       3.691   1.561   2.693  0.00  0.00     0.025 A 
ATOM     13 CL   UNL d   1       3.376   1.553   5.373  0.00  0.00    -0.084 Cl
ATOM     14  C   UNL d   1       3.347   1.181   1.397  0.00  0.00     0.027 A 
ENDBRANCH   5   8
ENDBRANCH   3   5
ENDBRANCH   1   3
BRANCH   1  15
ATOM     15  C   UNL d   1       0.437   3.284  -1.850  0.00  0.00     0.191 C 
ATOM     16  S   UNL d   1      -0.351   2.818  -3.253  0.00  0.00    -0.039 SA
BRANCH  15  17
ATOM     17  N   UNL d   1       0.503   4.617  -1.559  0.00  0.00    -0.330 N 
ATOM     18  H   UNL d   1       0.280   5.200  -2.361  0.00  0.00     0.168 HD
BRANCH  17  19
ATOM     19  C   UNL d   1       0.328   5.263  -0.305  0.00  0.00     0.073 A 
ATOM     20  C   UNL d   1       0.113   4.630   0.928  0.00  0.00     0.143 A 
ATOM     21  F   UNL d   1       0.136   3.299   1.063  0.00  0.00    -0.204 F 
ATOM     22  C   UNL d   1      -0.190   5.363   2.076  0.00  0.00     0.044 A 
ATOM     23  C   UNL d   1      -0.283   6.750   2.016  0.00  0.00     0.003 A 
ATOM     24  C   UNL d   1      -0.053   7.401   0.808  0.00  0.00     0.002 A 
ATOM     25  C   UNL d   1       0.252   6.664  -0.342  0.00  0.00     0.033 A 
ENDBRANCH  17  19
ENDBRANCH  15  17
ENDBRANCH   1  15
TORSDOF 6
