REMARK  2 active torsions:
REMARK  status: ('A' for Active; 'I' for Inactive)
REMARK    1  A    between atoms: N_8  and  C_1 
REMARK       I    between atoms: C_4  and  N_7 
REMARK       I    between atoms: N_9  and  C_4 
REMARK    2  A    between atoms: C_15  and  N_9 
ROOT
ATOM      1  C   UNL d   1      -3.353   2.057   3.797  0.00  0.00     0.323 C 
ATOM      2  N   UNL d   1      -2.249   2.379   2.997  0.00  0.00    -0.331 N 
ATOM      3  N   UNL d   1       0.061   2.531   1.110  0.00  0.00     0.105 N 
ATOM      4  N   UNL d   1      -4.390   2.962   3.756  0.00  0.00    -0.309 N 
ATOM      5  O   UNL d   1      -3.357   1.038   4.484  0.00  0.00    -0.247 OA
ATOM      6  C   UNL d   1      -1.226   1.334   2.933  0.00  0.00     0.158 C 
ATOM      7  C   UNL d   1      -2.296   3.293   1.848  0.00  0.00     0.158 C 
ATOM      8  C   UNL d   1      -0.931   3.608   1.178  0.00  0.00     0.293 C 
ATOM      9  C   UNL d   1       0.116   1.845   2.412  0.00  0.00     0.293 C 
ATOM     10  H   UNL d   1      -4.262   3.776   3.185  0.00  0.00     0.170 HD
ENDROOT
BRANCH   3  11
ATOM     11  C   UNL d   1       0.043   1.690  -0.106  0.00  0.00     0.290 C 
ATOM     12  C   UNL d   1      -1.244   0.933  -0.422  0.00  0.00    -0.009 C 
ATOM     13  C   UNL d   1      -1.048  -0.457  -0.257  0.00  0.00    -0.017 C 
ATOM     14  C   UNL d   1      -2.458   1.424  -0.878  0.00  0.00     0.010 C 
ATOM     15  C   UNL d   1      -2.111  -1.336  -0.371  0.00  0.00     0.013 C 
ATOM     16  C   UNL d   1       0.360  -0.707  -0.017  0.00  0.00    -0.017 A 
ATOM     17  C   UNL d   1      -3.365  -0.825  -0.720  0.00  0.00     0.001 C 
ATOM     18  C   UNL d   1      -3.530   0.538  -1.004  0.00  0.00     0.001 C 
ATOM     19  C   UNL d   1       1.044   0.532  -0.008  0.00  0.00    -0.009 A 
ATOM     20  C   UNL d   1       1.050  -1.890   0.152  0.00  0.00     0.013 A 
ATOM     21  C   UNL d   1       2.421   0.597   0.152  0.00  0.00     0.010 A 
ATOM     22  C   UNL d   1       3.116  -0.601   0.331  0.00  0.00     0.001 A 
ATOM     23  C   UNL d   1       2.437  -1.833   0.334  0.00  0.00     0.001 A 
ENDBRANCH   3  11
BRANCH   4  24
ATOM     24  C   UNL d   1      -5.612   2.903   4.463  0.00  0.00     0.037 A 
ATOM     25  C   UNL d   1      -5.966   1.875   5.341  0.00  0.00     0.053 A 
ATOM     26  C   UNL d   1      -7.206   1.894   5.980  0.00  0.00     0.036 A 
ATOM     27 CL   UNL d   1      -7.635   0.620   7.058  0.00  0.00    -0.084 Cl
ATOM     28  C   UNL d   1      -8.105   2.935   5.761  0.00  0.00     0.024 A 
ATOM     29  C   UNL d   1      -7.757   3.971   4.897  0.00  0.00     0.004 A 
ATOM     30  C   UNL d   1      -6.517   3.954   4.255  0.00  0.00     0.029 A 
ENDBRANCH   4  24
TORSDOF 2
