REMARK  4 active torsions:
REMARK  status: ('A' for Active; 'I' for Inactive)
REMARK    1  A    between atoms: N_2  and  C_1 
REMARK    2  A    between atoms: N_3  and  C_1 
REMARK    3  A    between atoms: N_5  and  N_2 
REMARK    4  A    between atoms: C_6  and  N_3 
ROOT
ATOM      1  N   UNL d   1       0.179  -0.529  -0.903  0.00  0.00    -0.332 N 
ATOM      2  H   UNL d   1       0.692  -0.625  -1.773  0.00  0.00     0.168 HD
ENDROOT
BRANCH   1   3
ATOM      3  C   UNL d   1       1.046  -0.212   0.115  0.00  0.00     0.186 C 
ATOM      4  S   UNL d   1       0.807  -0.134   1.764  0.00  0.00    -0.040 SA
BRANCH   3   5
ATOM      5  N   UNL d   1       2.318   0.116  -0.336  0.00  0.00    -0.296 N 
ATOM      6  H   UNL d   1       2.984   0.358   0.398  0.00  0.00     0.183 HD
BRANCH   5   7
ATOM      7  N   UNL d   1       2.628   0.434  -1.690  0.00  0.00    -0.238 NA
ATOM      8  C   UNL d   1       1.986   1.696  -2.091  0.00  0.00     0.135 C 
ATOM      9  C   UNL d   1       4.086   0.611  -1.820  0.00  0.00     0.135 C 
ENDBRANCH   5   7
ENDBRANCH   3   5
ENDBRANCH   1   3
BRANCH   1  10
ATOM     10  C   UNL d   1      -1.224  -0.639  -0.989  0.00  0.00     0.034 A 
ATOM     11  C   UNL d   1      -1.750  -0.852  -2.273  0.00  0.00     0.030 A 
ATOM     12  C   UNL d   1      -3.132  -0.907  -2.493  0.00  0.00     0.009 A 
ATOM     13  C   UNL d   1      -4.021  -0.758  -1.424  0.00  0.00    -0.062 A 
ATOM     14  C   UNL d   1      -3.503  -0.560  -0.144  0.00  0.00     0.009 A 
ATOM     15  C   UNL d   1      -5.501  -0.809  -1.662  0.00  0.00     0.048 C 
ATOM     16  C   UNL d   1      -2.117  -0.499   0.069  0.00  0.00     0.030 A 
ENDBRANCH   1  10
TORSDOF 4
