REMARK  8 active torsions:
REMARK  status: ('A' for Active; 'I' for Inactive)
REMARK    1  A    between atoms: C_12  and  C_2 
REMARK    2  A    between atoms: C_6  and  O_10 
REMARK    3  A    between atoms: C_13  and  C_6 
REMARK    4  A    between atoms: O_10  and  N_8 
REMARK    5  A    between atoms: C_11  and  C_23 
REMARK    6  A    between atoms: N_24  and  C_11 
REMARK    7  A    between atoms: C_14  and  C_15 
REMARK    8  A    between atoms: C_23  and  C_25 
ROOT
ATOM      1  N   UNL d   1       3.603  -3.067  -0.730  0.00  0.00    -0.245 N 
ATOM      2  HN  UNL d   1       2.967  -2.270  -0.767  1.00  0.00     0.196 HD
ATOM      3  C   UNL d   1       4.491  -3.228   0.201  0.00  0.00     0.100 C 
ENDROOT
BRANCH   3   4
ATOM      4  C   UNL d   1       4.583  -2.138   1.272  0.00  0.00     0.116 C 
BRANCH   4   5
ATOM      5  C   UNL d   1       3.748  -2.352   2.520  0.00  0.00    -0.051 A 
ATOM      6  C   UNL d   1       4.178  -1.794   3.734  0.00  0.00     0.008 A 
ATOM      7  C   UNL d   1       3.381  -1.863   4.886  0.00  0.00     0.014 A 
ATOM      8  C   UNL d   1       2.129  -2.486   4.851  0.00  0.00    -0.008 A 
ATOM      9  C   UNL d   1       1.704  -3.055   3.643  0.00  0.00     0.014 A 
ATOM     10  C   UNL d   1       2.497  -2.978   2.488  0.00  0.00     0.008 A 
BRANCH   8  11
ATOM     11  C   UNL d   1       1.256  -2.542   6.021  0.00  0.00     0.063 A 
ATOM     12  N   UNL d   1       0.297  -3.543   6.158  0.00  0.00    -0.292 N 
ATOM     13  N   UNL d   1      -0.405  -3.413   7.272  0.00  0.00    -0.061 NA
ATOM     14  HN  UNL d   1       0.153  -4.290   5.479  1.00  0.00     0.183 HD
ATOM     15  S   UNL d   1       0.050  -2.082   8.174  0.00  0.00    -0.010 SA
ATOM     16  C   UNL d   1       1.267  -1.619   7.055  0.00  0.00     0.096 A 
ENDBRANCH   8  11
ENDBRANCH   4   5
ENDBRANCH   3   4
BRANCH   3  17
ATOM     17  N   UNL d   1       5.357  -4.292   0.294  0.00  0.00    -0.387 N 
ATOM     18  H   UNL d   1       5.084  -5.099  -0.254  0.00  0.00     0.157 HD
ATOM     19  H   UNL d   1       5.704  -4.516   1.220  0.00  0.00     0.157 HD
ENDBRANCH   3  17
BRANCH   1  20
ATOM     20  O   UNL d   1       3.604  -4.108  -1.692  0.00  0.00    -0.193 OA
BRANCH  20  21
ATOM     21  C   UNL d   1       2.707  -3.793  -2.684  0.00  0.00     0.315 C 
ATOM     22  O   UNL d   1       2.031  -2.777  -2.764  0.00  0.00    -0.257 OA
BRANCH  21  23
ATOM     23  C   UNL d   1       2.600  -4.875  -3.708  0.00  0.00     0.041 A 
ATOM     24  C   UNL d   1       1.635  -4.729  -4.713  0.00  0.00     0.018 A 
ATOM     25  C   UNL d   1       1.443  -5.724  -5.681  0.00  0.00     0.009 A 
ATOM     26  C   UNL d   1       2.204  -6.907  -5.680  0.00  0.00    -0.051 A 
ATOM     27  C   UNL d   1       3.196  -7.022  -4.688  0.00  0.00     0.009 A 
ATOM     28  C   UNL d   1       3.394  -6.024  -3.714  0.00  0.00     0.018 A 
BRANCH  26  29
ATOM     29  C   UNL d   1       1.911  -8.016  -6.712  0.00  0.00    -0.024 C 
ATOM     30  C   UNL d   1       2.802  -9.268  -6.548  0.00  0.00     0.019 C 
ATOM     31  C   UNL d   1       0.445  -8.486  -6.567  0.00  0.00     0.019 C 
ATOM     32  C   UNL d   1       2.121  -7.493  -8.150  0.00  0.00     0.019 C 
ENDBRANCH  26  29
ENDBRANCH  21  23
ENDBRANCH  20  21
ENDBRANCH   1  20
TORSDOF 8
