REMARK  3 active torsions:
REMARK  status: ('A' for Active; 'I' for Inactive)
REMARK    1  A    between atoms: C_10  and  C_5 
REMARK    2  A    between atoms: S_15  and  C_8 
REMARK    3  A    between atoms: N_16  and  C_9 
ROOT
ATOM      1  N   UNL d   1       1.784  -0.008  -0.046  0.00  0.00    -0.322 N 
ATOM      2  HN  UNL d   1       2.801   0.014  -0.110  1.00  0.00     0.169 HD
ATOM      3  N   UNL d   1      -0.286   1.124   0.100  0.00  0.00    -0.318 N 
ATOM      4  HN  UNL d   1      -0.814   1.996   0.135  1.00  0.00     0.170 HD
ATOM      5  C   UNL d   1       1.040   1.091   0.016  0.00  0.00     0.126 A 
ATOM      6  N   UNL d   1      -0.237  -1.221   0.059  0.00  0.00    -0.313 N 
ATOM      7  HN  UNL d   1      -0.731  -2.114   0.059  1.00  0.00     0.170 HD
ATOM      8  C   UNL d   1       1.088  -1.137  -0.018  0.00  0.00     0.147 A 
ATOM      9  C   UNL d   1      -0.867  -0.060   0.135  0.00  0.00     0.158 A 
ENDROOT
BRANCH   5  10
ATOM     10  C   UNL d   1       1.771   2.364  -0.014  0.00  0.00     0.049 A 
ATOM     11  S   UNL d   1       0.941   3.872   0.017  0.00  0.00    -0.098 SA
ATOM     12  C   UNL d   1       2.396   4.765  -0.034  0.00  0.00     0.050 A 
ATOM     13  C   UNL d   1       3.501   3.949  -0.079  0.00  0.00     0.009 A 
ATOM     14  C   UNL d   1       3.142   2.570  -0.069  0.00  0.00     0.023 A 
ENDBRANCH   5  10
BRANCH   9  15
ATOM     15  N   UNL d   1      -2.243  -0.081   0.226  0.00  0.00    -0.274 NA
ATOM     16  H   UNL d   1      -2.628  -0.927  -0.167  0.00  0.00     0.127 HD
ATOM     17  H   UNL d   1      -2.633   0.799  -0.088  0.00  0.00     0.127 HD
ENDBRANCH   9  15
BRANCH   8  18
ATOM     18  S   UNL d   1       2.054  -2.631  -0.098  0.00  0.00    -0.098 SA
ATOM     19  C   UNL d   1       0.752  -3.883  -0.024  0.00  0.00     0.099 C 
ENDBRANCH   8  18
TORSDOF 3
