REMARK  11 active torsions:
REMARK  status: ('A' for Active; 'I' for Inactive)
REMARK    1  A    between atoms: N_2  and  C_1 
REMARK       I    between atoms: C_6  and  N_2 
REMARK    2  A    between atoms: C_10  and  C_6 
REMARK    3  A    between atoms: C_11  and  C_10 
REMARK    4  A    between atoms: C_17  and  C_11 
REMARK    5  A    between atoms: C_12  and  C_13 
REMARK    6  A    between atoms: C_13  and  C_16 
REMARK    7  A    between atoms: C_14  and  C_19 
REMARK    8  A    between atoms: C_15  and  C_14 
REMARK    9  A    between atoms: C_16  and  C_15 
REMARK   10  A    between atoms: C_18  and  C_17 
REMARK   11  A    between atoms: C_19  and  C_18 
ROOT
ATOM      1  C   UNL d   1       0.990  -4.931  -0.086  0.00  0.00     0.103 C 
ENDROOT
BRANCH   1   2
ATOM      2  C   UNL d   1       1.178  -3.435   0.029  0.00  0.00     0.223 C 
ATOM      3  N   UNL d   1       1.849  -2.865  -1.030  0.00  0.00    -0.307 N 
ATOM      4  H   UNL d   1       2.072  -3.390  -1.863  0.00  0.00     0.171 HD
ATOM      5  O   UNL d   1       0.701  -2.843   0.997  0.00  0.00    -0.273 OA
BRANCH   3   6
ATOM      6  C   UNL d   1       2.135  -1.527  -1.029  0.00  0.00     0.150 A 
ATOM      7  N   UNL d   1       2.071  -0.689  -0.026  0.00  0.00    -0.346 N 
ATOM      8  C   UNL d   1       2.408   0.574  -0.454  0.00  0.00     0.097 A 
ATOM      9  HN  UNL d   1       1.812  -0.936   0.930  1.00  0.00     0.167 HD
ATOM     10  C   UNL d   1       2.715   0.681  -1.793  0.00  0.00     0.070 A 
ATOM     11  S   UNL d   1       2.640  -0.875  -2.523  0.00  0.00    -0.064 SA
ENDBRANCH   3   6
ENDBRANCH   1   2
BRANCH   1  12
ATOM     12  C   UNL d   1       2.321  -5.665  -0.060  0.00  0.00     0.009 C 
BRANCH  12  13
ATOM     13  C   UNL d   1       2.122  -7.177  -0.061  0.00  0.00     0.000 C 
BRANCH  13  14
ATOM     14  C   UNL d   1       3.475  -7.880  -0.057  0.00  0.00     0.000 C 
BRANCH  14  15
ATOM     15  C   UNL d   1       3.303  -9.392  -0.072  0.00  0.00     0.000 C 
BRANCH  15  16
ATOM     16  C   UNL d   1       4.661 -10.083  -0.071  0.00  0.00     0.000 C 
BRANCH  16  17
ATOM     17  C   UNL d   1       4.489 -11.595  -0.089  0.00  0.00     0.000 C 
BRANCH  17  18
ATOM     18  C   UNL d   1       5.844 -12.291  -0.086  0.00  0.00     0.000 C 
BRANCH  18  19
ATOM     19  C   UNL d   1       5.667 -13.805  -0.102  0.00  0.00    -0.000 C 
BRANCH  19  20
ATOM     20  C   UNL d   1       7.017 -14.512  -0.101  0.00  0.00    -0.005 C 
ATOM     21  C   UNL d   1       6.837 -16.019  -0.117  0.00  0.00     0.005 C 
ENDBRANCH  19  20
ENDBRANCH  18  19
ENDBRANCH  17  18
ENDBRANCH  16  17
ENDBRANCH  15  16
ENDBRANCH  14  15
ENDBRANCH  13  14
ENDBRANCH  12  13
ENDBRANCH   1  12
TORSDOF 11
