REMARK  6 active torsions:
REMARK  status: ('A' for Active; 'I' for Inactive)
REMARK    1  A    between atoms: N_3  and  C_1 
REMARK    2  A    between atoms: C_9  and  C_2 
REMARK    3  A    between atoms: C_5  and  N_3 
REMARK    4  A    between atoms: N_8  and  C_5 
REMARK    5  A    between atoms: O_17  and  C_9 
REMARK    6  A    between atoms: C_21  and  O_17 
ROOT
ATOM      1  C   UNL d   1       1.071  -1.438   0.045  0.00  0.00     0.093 C 
ATOM      2  C   UNL d   1      -0.300  -1.706   0.042  0.00  0.00     0.080 C 
ATOM      3  S   UNL d   1       1.406   0.225   0.188  0.00  0.00    -0.076 SA
ATOM      4  C   UNL d   1      -1.064  -0.458   0.011  0.00  0.00    -0.030 C 
ATOM      5  C   UNL d   1      -0.231   0.652   0.039  0.00  0.00    -0.012 C 
ATOM      6  C   UNL d   1      -2.559  -0.319  -0.025  0.00  0.00     0.050 C 
ATOM      7  C   UNL d   1      -0.620   2.094  -0.012  0.00  0.00     0.057 C 
ENDROOT
BRANCH   1   8
ATOM      8  N   UNL d   1       2.150  -2.324   0.110  0.00  0.00    -0.327 N 
ATOM      9  H   UNL d   1       1.885  -3.303   0.181  0.00  0.00     0.169 HD
BRANCH   8  10
ATOM     10  C   UNL d   1       3.376  -2.155  -0.541  0.00  0.00     0.174 C 
ATOM     11  S   UNL d   1       3.529  -1.359  -2.028  0.00  0.00    -0.041 SA
BRANCH  10  12
ATOM     12  N   UNL d   1       4.451  -2.840   0.096  0.00  0.00    -0.355 N 
ATOM     13  C   UNL d   1       5.818  -2.682  -0.444  0.00  0.00     0.155 C 
ATOM     14  C   UNL d   1       6.828  -3.724   0.064  0.00  0.00     0.291 C 
ATOM     15  N   UNL d   1       6.865  -3.891   1.525  0.00  0.00     0.087 N 
ATOM     16  C   UNL d   1       5.495  -4.152   2.003  0.00  0.00     0.291 C 
ATOM     17  C   UNL d   1       7.474  -2.738   2.185  0.00  0.00     0.310 C 
ATOM     18  C   UNL d   1       4.416  -3.139   1.544  0.00  0.00     0.155 C 
ENDBRANCH  10  12
ENDBRANCH   8  10
ENDBRANCH   1   8
BRANCH   2  19
ATOM     19  C   UNL d   1      -0.879  -3.051   0.084  0.00  0.00     0.296 C 
ATOM     20  O   UNL d   1      -2.087  -3.267   0.117  0.00  0.00    -0.259 OA
BRANCH  19  21
ATOM     21  O   UNL d   1       0.054  -4.041   0.204  0.00  0.00    -0.318 OA
BRANCH  21  22
ATOM     22  C   UNL d   1      -0.449  -5.251   0.787  0.00  0.00     0.174 C 
ATOM     23  C   UNL d   1      -0.356  -5.094   2.294  0.00  0.00     0.034 C 
ENDBRANCH  21  22
ENDBRANCH  19  21
ENDBRANCH   2  19
TORSDOF 6
