REMARK  3 active torsions:
REMARK  status: ('A' for Active; 'I' for Inactive)
REMARK       I    between atoms: N_2  and  C_1 
REMARK    1  A    between atoms: C_6  and  C_1 
REMARK    2  A    between atoms: C_3  and  N_2 
REMARK    3  A    between atoms: N_4  and  C_6 
ROOT
ATOM      1  C   UNL d   1       1.303  -0.015  -0.110  0.00  0.00     0.250 C 
ATOM      2  N   UNL d   1       0.748   0.824  -1.070  0.00  0.00    -0.325 N 
ATOM      3  O   UNL d   1       2.454  -0.435  -0.105  0.00  0.00    -0.271 OA
ATOM      4  H   UNL d   1      -0.080   1.319  -0.776  0.00  0.00     0.169 HD
ENDROOT
BRANCH   2   5
ATOM      5  C   UNL d   1       1.430   1.394  -2.174  0.00  0.00     0.040 A 
ATOM      6  C   UNL d   1       2.335   0.740  -3.028  0.00  0.00    -0.034 A 
ATOM      7  C   UNL d   1       2.948   1.472  -4.070  0.00  0.00     0.028 A 
ATOM      8  C   UNL d   1       2.663  -0.725  -2.968  0.00  0.00     0.050 C 
ATOM      9  C   UNL d   1       2.629   2.812  -4.289  0.00  0.00     0.011 A 
ATOM     10  C   UNL d   1       1.704   3.445  -3.475  0.00  0.00     0.021 A 
ATOM     11 BR   UNL d   1       3.431   3.755  -5.716  0.00  0.00    -0.051 Br
ATOM     12  C   UNL d   1       1.103   2.738  -2.433  0.00  0.00     0.031 A 
ENDBRANCH   2   5
BRANCH   1  13
ATOM     13  C   UNL d   1       0.341  -0.296   1.059  0.00  0.00     0.375 C 
BRANCH  13  14
ATOM     14  N   UNL d   1      -0.370  -1.582   1.050  0.00  0.00     0.101 N 
ATOM     15  C   UNL d   1       0.484  -2.778   1.056  0.00  0.00     0.299 C 
ATOM     16  C   UNL d   1       0.930  -3.258  -0.334  0.00  0.00     0.198 C 
ATOM     17  O   UNL d   1      -0.171  -3.395  -1.241  0.00  0.00    -0.388 OA
ATOM     18  C   UNL d   1      -0.963  -2.206  -1.325  0.00  0.00     0.198 C 
ATOM     19  C   UNL d   1      -1.437  -1.733   0.056  0.00  0.00     0.299 C 
ENDBRANCH  13  14
ENDBRANCH   1  13
TORSDOF 3
