REMARK  6 active torsions:
REMARK  status: ('A' for Active; 'I' for Inactive)
REMARK    1  A    between atoms: C_8  and  N_1 
REMARK    2  A    between atoms: S_11  and  C_2 
REMARK    3  A    between atoms: O_16  and  C_3 
REMARK    4  A    between atoms: C_15  and  S_11 
REMARK    5  A    between atoms: C_12  and  C_15 
REMARK       I    between atoms: N_13  and  C_12 
REMARK    6  A    between atoms: C_17  and  N_13 
ROOT
ATOM      1  N   UNL d   1       3.251  -2.119  -3.817  0.00  0.00    -0.286 N 
ATOM      2  C   UNL d   1       2.418  -2.458  -2.775  0.00  0.00     0.165 A 
ATOM      3  C   UNL d   1       2.807  -2.887  -4.875  0.00  0.00     0.240 A 
ATOM      4  N   UNL d   1       1.606  -3.425  -3.153  0.00  0.00    -0.277 N 
ATOM      5  HN  UNL d   1       0.912  -3.888  -2.566  1.00  0.00     0.189 HD
ATOM      6  N   UNL d   1       1.858  -3.700  -4.476  0.00  0.00    -0.263 N 
ATOM      7  HN  UNL d   1       1.392  -4.408  -5.043  1.00  0.00     0.190 HD
ENDROOT
BRANCH   2   8
ATOM      8  S   UNL d   1       2.387  -1.780  -1.181  0.00  0.00    -0.083 SA
BRANCH   8   9
ATOM      9  C   UNL d   1       2.584  -3.312  -0.204  0.00  0.00     0.185 C 
BRANCH   9  10
ATOM     10  C   UNL d   1       3.978  -3.896  -0.373  0.00  0.00     0.231 C 
ATOM     11  N   UNL d   1       4.302  -4.852   0.582  0.00  0.00    -0.327 N 
ATOM     12  H   UNL d   1       3.540  -5.290   1.084  0.00  0.00     0.169 HD
ATOM     13  O   UNL d   1       4.724  -3.575  -1.293  0.00  0.00    -0.272 OA
BRANCH  11  14
ATOM     14  C   UNL d   1       5.564  -5.485   0.656  0.00  0.00     0.034 A 
ATOM     15  C   UNL d   1       6.734  -4.898   0.159  0.00  0.00     0.029 A 
ATOM     16  C   UNL d   1       7.944  -5.594   0.173  0.00  0.00     0.002 A 
ATOM     17  C   UNL d   1       7.995  -6.880   0.698  0.00  0.00     0.000 A 
ATOM     18  C   UNL d   1       6.848  -7.454   1.240  0.00  0.00     0.002 A 
ATOM     19  C   UNL d   1       5.637  -6.753   1.237  0.00  0.00     0.029 A 
ENDBRANCH  11  14
ENDBRANCH   9  10
ENDBRANCH   8   9
ENDBRANCH   2   8
BRANCH   1  20
ATOM     20  C   UNL d   1       4.386  -1.211  -3.915  0.00  0.00     0.096 A 
ATOM     21  C   UNL d   1       5.352  -0.898  -2.789  0.00  0.00     0.028 A 
ATOM     22  C   UNL d   1       4.423   0.161  -3.269  0.00  0.00     0.028 A 
ENDBRANCH   1  20
BRANCH   3  23
ATOM     23  O   UNL d   1       3.220  -2.829  -6.135  0.00  0.00    -0.331 OA
ATOM     24  H   UNL d   1       3.626  -1.964  -6.293  0.00  0.00     0.221 HD
ENDBRANCH   3  23
TORSDOF 6
