REMARK  2 active torsions:
REMARK  status: ('A' for Active; 'I' for Inactive)
REMARK    1  A    between atoms: N_7  and  C_4 
REMARK    2  A    between atoms: O_14  and  C_10 
ROOT
ATOM      1  C   UNL d   1      -1.055   0.399   0.013  0.00  0.00     0.058 A 
ATOM      2  N   UNL d   1      -1.858   1.513  -0.138  0.00  0.00    -0.335 N 
ATOM      3  HN  UNL d   1      -1.520   2.465  -0.279  1.00  0.00     0.168 HD
ATOM      4  C   UNL d   1      -3.132   1.159  -0.070  0.00  0.00     0.150 A 
ATOM      5  C   UNL d   1      -1.722  -0.789   0.212  0.00  0.00     0.014 A 
ATOM      6  S   UNL d   1      -3.395  -0.537   0.209  0.00  0.00    -0.056 SA
ATOM      7  C   UNL d   1       0.403   0.386  -0.017  0.00  0.00    -0.002 A 
ATOM      8  C   UNL d   1      -1.069  -2.110   0.425  0.00  0.00     0.053 C 
ATOM      9  C   UNL d   1       1.069  -0.861  -0.133  0.00  0.00    -0.045 A 
ATOM     10  C   UNL d   1       0.269  -2.138  -0.329  0.00  0.00     0.044 C 
ATOM     11  C   UNL d   1       1.148   1.560   0.104  0.00  0.00     0.014 A 
ATOM     12  C   UNL d   1       2.469  -0.904  -0.135  0.00  0.00     0.008 A 
ATOM     13  C   UNL d   1       2.545   1.501   0.119  0.00  0.00     0.001 A 
ATOM     14  C   UNL d   1       3.202   0.275   0.003  0.00  0.00     0.001 A 
ENDROOT
BRANCH   4  15
ATOM     15  N   UNL d   1      -4.242   1.925  -0.190  0.00  0.00    -0.327 N 
ATOM     16  C   UNL d   1      -4.036   3.169  -0.419  0.00  0.00     0.227 C 
ATOM     17  HN  UNL d   1      -5.182   1.538  -0.103  1.00  0.00     0.169 HD
BRANCH  16  18
ATOM     18  O   UNL d   1      -5.048   4.063  -0.571  0.00  0.00    -0.351 OA
ATOM     19  C   UNL d   1      -6.375   3.528  -0.475  0.00  0.00     0.210 C 
ENDBRANCH  16  18
ENDBRANCH   4  15
TORSDOF 2
