REMARK  8 active torsions:
REMARK  status: ('A' for Active; 'I' for Inactive)
REMARK    1  A    between atoms: C_10  and  N_1 
REMARK    2  A    between atoms: N_3  and  C_2 
REMARK    3  A    between atoms: S_24  and  C_4 
REMARK    4  A    between atoms: C_20  and  C_5 
REMARK    5  A    between atoms: O_27  and  C_12 
REMARK    6  A    between atoms: C_15  and  S_18 
REMARK    7  A    between atoms: O_29  and  C_16 
REMARK    8  A    between atoms: S_18  and  C_20 
ROOT
ATOM      1  N   UNL d   1      -0.288  -1.001  -0.265  0.00  0.00    -0.279 N 
ATOM      2  C   UNL d   1       0.791  -0.475   0.438  0.00  0.00     0.164 A 
ATOM      3  C   UNL d   1      -1.385  -0.309   0.269  0.00  0.00     0.114 A 
ATOM      4  N   UNL d   1       0.385   0.402   1.323  0.00  0.00    -0.278 N 
ATOM      5  HN  UNL d   1       0.978   0.911   1.979  1.00  0.00     0.189 HD
ATOM      6  N   UNL d   1      -0.964   0.514   1.212  0.00  0.00    -0.286 N 
ATOM      7  HN  UNL d   1      -1.556   1.133   1.767  1.00  0.00     0.188 HD
ENDROOT
BRANCH   3   8
ATOM      8  C   UNL d   1      -2.835  -0.441  -0.066  0.00  0.00     0.158 C 
BRANCH   8   9
ATOM      9  S   UNL d   1      -3.516  -2.087   0.312  0.00  0.00    -0.119 SA
BRANCH   9  10
ATOM     10  C   UNL d   1      -5.272  -1.745   0.101  0.00  0.00     0.037 A 
ATOM     11  C   UNL d   1      -6.092  -1.903   1.234  0.00  0.00     0.060 A 
ATOM     12  C   UNL d   1      -7.476  -1.681   1.183  0.00  0.00     0.102 A 
ATOM     13  C   UNL d   1      -8.016  -1.270  -0.035  0.00  0.00     0.138 A 
ATOM     14  C   UNL d   1      -7.222  -1.127  -1.189  0.00  0.00     0.077 A 
ATOM     15  C   UNL d   1      -5.845  -1.364  -1.130  0.00  0.00     0.087 A 
BRANCH  12  16
ATOM     16  O   UNL d   1      -8.096  -1.851   2.387  0.00  0.00    -0.353 OA
ATOM     17  C   UNL d   1      -9.413  -2.395   2.401  0.00  0.00     0.210 C 
ENDBRANCH  12  16
BRANCH  13  18
ATOM     18  N   UNL d   1      -9.406  -0.899  -0.175  0.00  0.00    -0.113 N 
ATOM     19  O   UNL d   1     -10.087  -1.571  -0.962  0.00  0.00    -0.532 OA
ATOM     20  O   UNL d   1      -9.804   0.079   0.469  0.00  0.00    -0.532 OA
ENDBRANCH  13  18
BRANCH  15  21
ATOM     21  O   UNL d   1      -4.998  -1.242  -2.200  0.00  0.00    -0.355 OA
ATOM     22  C   UNL d   1      -5.569  -0.899  -3.459  0.00  0.00     0.210 C 
ENDBRANCH  15  21
ENDBRANCH   9  10
ENDBRANCH   8   9
ENDBRANCH   3   8
BRANCH   1  23
ATOM     23  C   UNL d   1      -0.273  -2.005  -1.286  0.00  0.00     0.044 A 
ATOM     24  C   UNL d   1      -1.159  -1.949  -2.370  0.00  0.00     0.055 A 
ATOM     25  C   UNL d   1      -1.112  -2.920  -3.383  0.00  0.00     0.058 A 
ATOM     26 CL   UNL d   1      -2.251  -2.781  -4.676  0.00  0.00    -0.082 Cl
ATOM     27  C   UNL d   1      -0.163  -3.943  -3.334  0.00  0.00     0.055 A 
ATOM     28  C   UNL d   1       0.716  -4.010  -2.253  0.00  0.00     0.028 A 
ATOM     29 CL   UNL d   1      -0.018  -5.140  -4.570  0.00  0.00    -0.083 Cl
ATOM     30  C   UNL d   1       0.648  -3.061  -1.227  0.00  0.00     0.032 A 
ENDBRANCH   1  23
BRANCH   2  31
ATOM     31  S   UNL d   1       2.484  -0.714   0.116  0.00  0.00    -0.105 SA
ATOM     32  H   UNL d   1       2.420  -1.166  -1.143  0.00  0.00     0.110 HD
ENDBRANCH   2  31
TORSDOF 8
