REMARK  9 active torsions:
REMARK  status: ('A' for Active; 'I' for Inactive)
REMARK    1  A    between atoms: C_9  and  S_1 
REMARK    2  A    between atoms: C_10  and  S_1 
REMARK    3  A    between atoms: C_2  and  C_3 
REMARK    4  A    between atoms: C_4  and  C_5 
REMARK    5  A    between atoms: C_5  and  O_12 
REMARK    6  A    between atoms: O_12  and  N_6 
REMARK    7  A    between atoms: C_8  and  C_11 
REMARK    8  A    between atoms: N_21  and  C_8 
REMARK    9  A    between atoms: C_11  and  C_10 
ROOT
ATOM      1  N   UNL d   1      -0.597   0.203   4.414  0.00  0.00    -0.251 N 
ATOM      2  HN  UNL d   1      -1.103   0.233   5.299  1.00  0.00     0.196 HD
ATOM      3  C   UNL d   1       0.285  -0.700   4.104  0.00  0.00     0.076 C 
ENDROOT
BRANCH   3   4
ATOM      4  C   UNL d   1       0.644  -1.753   5.150  0.00  0.00     0.087 C 
BRANCH   4   5
ATOM      5  C   UNL d   1      -0.515  -2.623   5.604  0.00  0.00     0.153 C 
BRANCH   5   6
ATOM      6  S   UNL d   1      -1.198  -3.614   4.292  0.00  0.00     0.175 S 
ATOM      7  O   UNL d   1      -1.849  -2.761   3.320  0.00  0.00    -0.223 OA
ATOM      8  O   UNL d   1      -0.185  -4.563   3.868  0.00  0.00    -0.223 OA
BRANCH   6   9
ATOM      9  C   UNL d   1      -2.480  -4.543   5.120  0.00  0.00     0.059 A 
ATOM     10  C   UNL d   1      -3.777  -4.019   5.173  0.00  0.00     0.025 A 
ATOM     11  C   UNL d   1      -4.789  -4.743   5.806  0.00  0.00     0.025 A 
ATOM     12  C   UNL d   1      -4.505  -5.986   6.373  0.00  0.00     0.034 A 
ATOM     13  C   UNL d   1      -3.215  -6.516   6.309  0.00  0.00     0.025 A 
ATOM     14 CL   UNL d   1      -5.756  -6.874   7.154  0.00  0.00    -0.084 Cl
ATOM     15  C   UNL d   1      -2.197  -5.796   5.674  0.00  0.00     0.025 A 
ENDBRANCH   6   9
ENDBRANCH   5   6
ENDBRANCH   4   5
ENDBRANCH   3   4
BRANCH   3  16
ATOM     16  N   UNL d   1       0.951  -0.765   2.908  0.00  0.00    -0.291 NA
ATOM     17  H   UNL d   1       0.454  -0.293   2.158  0.00  0.00     0.125 HD
ATOM     18  H   UNL d   1       1.295  -1.675   2.621  0.00  0.00     0.125 HD
ENDBRANCH   3  16
BRANCH   1  19
ATOM     19  O   UNL d   1      -0.767   1.144   3.359  0.00  0.00    -0.194 OA
BRANCH  19  20
ATOM     20  C   UNL d   1      -1.864   1.919   3.587  0.00  0.00     0.316 C 
ATOM     21  O   UNL d   1      -2.585   1.917   4.582  0.00  0.00    -0.257 OA
BRANCH  20  22
ATOM     22  C   UNL d   1      -2.069   2.927   2.498  0.00  0.00     0.056 A 
ATOM     23  C   UNL d   1      -1.921   2.699   1.117  0.00  0.00     0.064 A 
ATOM     24  C   UNL d   1      -2.112   3.784   0.223  0.00  0.00     0.017 A 
ATOM     25  C   UNL d   1      -2.521   5.040   0.671  0.00  0.00     0.001 A 
ATOM     26  C   UNL d   1      -2.747   5.239   2.025  0.00  0.00     0.001 A 
ATOM     27  C   UNL d   1      -2.511   4.199   2.928  0.00  0.00     0.018 A 
BRANCH  23  28
ATOM     28  C   UNL d   1      -1.663   1.355   0.487  0.00  0.00     0.418 C 
ATOM     29  F   UNL d   1      -1.631   0.294   1.328  0.00  0.00    -0.166 F 
ATOM     30  F   UNL d   1      -2.616   1.044  -0.438  0.00  0.00    -0.166 F 
ATOM     31  F   UNL d   1      -0.478   1.325  -0.185  0.00  0.00    -0.166 F 
ENDBRANCH  23  28
ENDBRANCH  20  22
ENDBRANCH  19  20
ENDBRANCH   1  19
TORSDOF 9
