REMARK  5 active torsions:
REMARK  status: ('A' for Active; 'I' for Inactive)
REMARK    1  A    between atoms: N_8  and  C_2 
REMARK       I    between atoms: C_11  and  N_8 
REMARK    2  A    between atoms: C_14  and  C_11 
REMARK    3  A    between atoms: N_15  and  C_14 
REMARK    4  A    between atoms: C_18  and  N_15 
REMARK    5  A    between atoms: C_19  and  N_15 
ROOT
ATOM      1  C   UNL d   1       2.745   0.583   0.565  0.00  0.00     0.085 A 
ATOM      2  C   UNL d   1       2.832  -0.697   0.065  0.00  0.00     0.093 A 
ATOM      3  C   UNL d   1       1.389   1.041   0.599  0.00  0.00     0.003 A 
ATOM      4  C   UNL d   1       3.827   1.387   1.103  0.00  0.00     0.302 C 
ATOM      5  O   UNL d   1       3.436   2.539   1.805  0.00  0.00    -0.274 OA
ATOM      6  S   UNL d   1       1.323  -1.292  -0.461  0.00  0.00    -0.082 SA
ATOM      7  C   UNL d   1       0.515   0.131   0.051  0.00  0.00     0.065 A 
ATOM      8  C   UNL d   1       1.052   2.311   1.208  0.00  0.00     0.010 A 
ATOM      9  C   UNL d   1       2.093   3.003   1.843  0.00  0.00     0.090 A 
ATOM     10  O   UNL d   1       5.013   1.096   0.970  0.00  0.00    -0.259 OA
ATOM     11  C   UNL d   1      -0.227   2.870   1.214  0.00  0.00     0.015 A 
ATOM     12  C   UNL d   1       1.873   4.206   2.511  0.00  0.00     0.038 A 
ATOM     13  C   UNL d   1      -0.451   4.093   1.857  0.00  0.00     0.001 A 
ATOM     14  C   UNL d   1       0.591   4.753   2.513  0.00  0.00     0.003 A 
ENDROOT
BRANCH   2  15
ATOM     15  N   UNL d   1       3.940  -1.511  -0.123  0.00  0.00    -0.319 N 
ATOM     16  C   UNL d   1       4.007  -2.718   0.571  0.00  0.00     0.251 C 
ATOM     17  O   UNL d   1       3.093  -3.219   1.226  0.00  0.00    -0.271 OA
ATOM     18  H   UNL d   1       4.850  -1.057  -0.187  0.00  0.00     0.169 HD
BRANCH  16  19
ATOM     19  C   UNL d   1       5.353  -3.444   0.451  0.00  0.00     0.374 C 
BRANCH  19  20
ATOM     20  N   UNL d   1       6.534  -2.541   0.366  0.00  0.00     0.096 N 
BRANCH  20  21
ATOM     21  C   UNL d   1       6.689  -1.670   1.549  0.00  0.00     0.268 C 
ATOM     22  C   UNL d   1       6.950  -2.334   2.893  0.00  0.00     0.037 C 
ENDBRANCH  20  21
BRANCH  20  23
ATOM     23  C   UNL d   1       7.731  -3.376   0.116  0.00  0.00     0.268 C 
ATOM     24  C   UNL d   1       9.022  -2.590  -0.086  0.00  0.00     0.037 C 
ENDBRANCH  20  23
ENDBRANCH  19  20
ENDBRANCH  16  19
ENDBRANCH   2  15
TORSDOF 5
