REMARK  5 active torsions:
REMARK  status: ('A' for Active; 'I' for Inactive)
REMARK    1  A    between atoms: S_2  and  C_1 
REMARK    2  A    between atoms: N_14  and  S_2 
REMARK    3  A    between atoms: C_13  and  C_7 
REMARK    4  A    between atoms: C_12  and  C_19 
REMARK    5  A    between atoms: C_19  and  N_14 
ROOT
ATOM      1  N   UNL d   1      -2.612  -2.759   1.552  0.00  0.00    -0.209 NA
ATOM      2  H   UNL d   1      -3.338  -3.478   1.573  0.00  0.00     0.140 HD
ENDROOT
BRANCH   1   3
ATOM      3  S   UNL d   1      -1.738  -2.762   0.115  0.00  0.00     0.250 S 
ATOM      4  O   UNL d   1      -0.737  -1.725   0.210  0.00  0.00    -0.205 OA
ATOM      5  O   UNL d   1      -2.691  -2.808  -0.971  0.00  0.00    -0.205 OA
BRANCH   3   6
ATOM      6  C   UNL d   1      -0.851  -4.290   0.035  0.00  0.00     0.139 A 
ATOM      7  S   UNL d   1      -1.825  -5.707   0.020  0.00  0.00    -0.062 SA
ATOM      8  C   UNL d   1      -0.415  -6.677  -0.024  0.00  0.00     0.048 A 
ATOM      9  C   UNL d   1      -0.511  -8.162  -0.056  0.00  0.00     0.076 C 
ATOM     10  N   UNL d   1       0.721  -6.016  -0.012  0.00  0.00    -0.356 N 
ATOM     11  C   UNL d   1       0.488  -4.645   0.013  0.00  0.00     0.036 A 
ATOM     12  HN  UNL d   1       1.645  -6.448  -0.020  1.00  0.00     0.166 HD
ATOM     13  C   UNL d   1       1.686  -3.765   0.036  0.00  0.00     0.070 C 
ENDBRANCH   3   6
ENDBRANCH   1   3
BRANCH   1  14
ATOM     14  C   UNL d   1      -1.803  -2.721   2.774  0.00  0.00     0.162 C 
BRANCH  14  15
ATOM     15  C   UNL d   1      -2.731  -2.728   3.948  0.00  0.00     0.030 A 
ATOM     16  N   UNL d   1      -3.576  -3.820   4.141  0.00  0.00    -0.351 N 
ATOM     17  C   UNL d   1      -4.293  -3.657   5.240  0.00  0.00     0.091 A 
ATOM     18  HN  UNL d   1      -3.633  -4.629   3.523  1.00  0.00     0.166 HD
ATOM     19  S   UNL d   1      -4.008  -2.174   6.071  0.00  0.00    -0.081 SA
ATOM     20  C   UNL d   1      -2.840  -1.739   4.905  0.00  0.00     0.078 A 
BRANCH  17  21
ATOM     21  C   UNL d   1      -5.214  -4.673   5.704  0.00  0.00     0.038 A 
ATOM     22  S   UNL d   1      -6.173  -4.514   7.123  0.00  0.00    -0.099 SA
ATOM     23  C   UNL d   1      -6.856  -6.067   6.936  0.00  0.00     0.050 A 
ATOM     24  C   UNL d   1      -6.386  -6.703   5.811  0.00  0.00     0.008 A 
ATOM     25  C   UNL d   1      -5.447  -5.899   5.100  0.00  0.00     0.022 A 
ENDBRANCH  17  21
ENDBRANCH  14  15
ENDBRANCH   1  14
TORSDOF 5
