REMARK  4 active torsions:
REMARK  status: ('A' for Active; 'I' for Inactive)
REMARK    1  A    between atoms: C_6  and  N_1 
REMARK    2  A    between atoms: C_7  and  C_6 
REMARK       I    between atoms: N_8  and  C_7 
REMARK    3  A    between atoms: C_11  and  N_8 
REMARK    4  A    between atoms: O_17  and  C_14 
ROOT
ATOM      1  C   UNL d   1       3.428   0.110  -1.103  0.00  0.00     0.238 C 
ENDROOT
BRANCH   1   2
ATOM      2  N   UNL d   1       2.129  -0.469  -0.820  0.00  0.00    -0.271 N 
ATOM      3  C   UNL d   1       0.973  -0.027  -1.400  0.00  0.00     0.262 A 
ATOM      4  C   UNL d   1       0.013  -1.131  -1.342  0.00  0.00     0.048 A 
ATOM      5  O   UNL d   1       0.763   1.061  -1.899  0.00  0.00    -0.267 OA
ATOM      6  C   UNL d   1      -1.246  -1.261  -1.893  0.00  0.00     0.018 A 
ATOM      7  C   UNL d   1       0.637  -2.188  -0.702  0.00  0.00     0.048 A 
ATOM      8  C   UNL d   1      -1.871  -2.510  -1.781  0.00  0.00     0.001 A 
ATOM      9  C   UNL d   1      -1.234  -3.583  -1.124  0.00  0.00     0.001 A 
ATOM     10  C   UNL d   1       0.041  -3.427  -0.572  0.00  0.00     0.018 A 
ATOM     11  C   UNL d   1       1.999  -1.763  -0.377  0.00  0.00     0.262 A 
ATOM     12  O   UNL d   1       2.837  -2.501   0.100  0.00  0.00    -0.267 OA
ENDBRANCH   1   2
BRANCH   1  13
ATOM     13  C   UNL d   1       3.881   1.377  -0.377  0.00  0.00     0.240 C 
ATOM     14  N   UNL d   1       2.928   2.369  -0.225  0.00  0.00    -0.326 N 
ATOM     15  H   UNL d   1       1.969   2.137  -0.475  0.00  0.00     0.169 HD
ATOM     16  O   UNL d   1       5.080   1.505  -0.119  0.00  0.00    -0.271 OA
BRANCH  14  17
ATOM     17  C   UNL d   1       3.158   3.695   0.226  0.00  0.00     0.037 A 
ATOM     18  C   UNL d   1       4.436   4.249   0.389  0.00  0.00     0.066 A 
ATOM     19  C   UNL d   1       4.604   5.564   0.838  0.00  0.00     0.070 A 
ATOM     20  C   UNL d   1       3.480   6.336   1.122  0.00  0.00     0.037 A 
ATOM     21  C   UNL d   1       2.202   5.806   0.955  0.00  0.00     0.005 A 
ATOM     22  C   UNL d   1       2.042   4.493   0.500  0.00  0.00     0.029 A 
BRANCH  19  23
ATOM     23  O   UNL d   1       5.803   6.199   1.029  0.00  0.00    -0.356 OA
ATOM     24  C   UNL d   1       6.980   5.422   0.826  0.00  0.00     0.210 C 
ENDBRANCH  19  23
ENDBRANCH  14  17
ENDBRANCH   1  13
TORSDOF 4
