REMARK  3 active torsions:
REMARK  status: ('A' for Active; 'I' for Inactive)
REMARK    1  A    between atoms: N_4  and  S_1 
REMARK    2  A    between atoms: C_11  and  S_1 
REMARK    3  A    between atoms: C_2  and  N_5 
ROOT
ATOM      1  N   UNL d   1       0.521  -1.056  -0.287  0.00  0.00    -0.203 NA
ATOM      2  N   UNL d   1      -0.875  -2.442   1.882  0.00  0.00    -0.364 N 
ATOM      3  C   UNL d   1      -0.949  -0.833  -0.060  0.00  0.00     0.127 C 
ATOM      4  C   UNL d   1       0.864  -2.458   0.132  0.00  0.00     0.127 C 
ATOM      5  C   UNL d   1      -1.385  -1.135   1.398  0.00  0.00     0.140 C 
ATOM      6  C   UNL d   1       0.548  -2.689   1.625  0.00  0.00     0.140 C 
ENDROOT
BRANCH   2   7
ATOM      7  C   UNL d   1      -1.470  -2.836   3.085  0.00  0.00     0.117 A 
ATOM      8  C   UNL d   1      -0.835  -3.302   4.272  0.00  0.00     0.042 A 
ATOM      9  C   UNL d   1      -1.677  -3.674   5.316  0.00  0.00     0.088 A 
ATOM     10  C   UNL d   1       0.539  -3.459   4.698  0.00  0.00     0.025 A 
ATOM     11  S   UNL d   1      -0.850  -4.213   6.708  0.00  0.00    -0.083 SA
ATOM     12  N   UNL d   1      -3.018  -3.646   5.322  0.00  0.00    -0.346 N 
ATOM     13  C   UNL d   1       0.665  -3.940   5.986  0.00  0.00     0.053 A 
ATOM     14  C   UNL d   1      -3.516  -3.188   4.178  0.00  0.00     0.182 A 
ATOM     15  HN  UNL d   1      -3.590  -3.943   6.113  1.00  0.00     0.167 HD
ATOM     16  N   UNL d   1      -2.833  -2.790   3.100  0.00  0.00    -0.338 N 
ATOM     17  HN  UNL d   1      -3.336  -2.448   2.281  1.00  0.00     0.168 HD
ENDBRANCH   2   7
BRANCH   1  18
ATOM     18  S   UNL d   1       1.566   0.146   0.328  0.00  0.00     0.243 S 
ATOM     19  O   UNL d   1       2.843  -0.483   0.602  0.00  0.00    -0.206 OA
ATOM     20  O   UNL d   1       0.874   0.881   1.365  0.00  0.00    -0.206 OA
BRANCH  18  21
ATOM     21  C   UNL d   1       1.823   1.277  -1.027  0.00  0.00     0.074 A 
ATOM     22  C   UNL d   1       0.901   2.300  -1.266  0.00  0.00     0.025 A 
ATOM     23  C   UNL d   1       1.250   3.363  -2.106  0.00  0.00     0.008 A 
ATOM     24  C   UNL d   1       2.527   3.428  -2.682  0.00  0.00    -0.062 A 
ATOM     25  C   UNL d   1       3.415   2.362  -2.493  0.00  0.00     0.008 A 
ATOM     26  C   UNL d   1       2.943   4.632  -3.477  0.00  0.00     0.048 C 
ATOM     27  C   UNL d   1       3.068   1.292  -1.666  0.00  0.00     0.025 A 
ENDBRANCH  18  21
ENDBRANCH   1  18
TORSDOF 3
