REMARK  6 active torsions:
REMARK  status: ('A' for Active; 'I' for Inactive)
REMARK    1  A    between atoms: C_11  and  C_1 
REMARK    2  A    between atoms: C_2  and  C_11 
REMARK    3  A    between atoms: N_23  and  C_3 
REMARK    4  A    between atoms: N_24  and  C_4 
REMARK    5  A    between atoms: C_16  and  C_11 
REMARK    6  A    between atoms: N_14  and  C_15 
ROOT
ATOM      1  C   UNL d   1      -1.453   2.408  -0.091  0.00  0.00     0.102 C 
ENDROOT
BRANCH   1   2
ATOM      2  C   UNL d   1      -0.992   3.203  -1.324  0.00  0.00     0.061 A 
ATOM      3  C   UNL d   1      -0.401   4.426  -1.294  0.00  0.00     0.092 A 
ATOM      4  N   UNL d   1       0.072   4.967  -2.461  0.00  0.00    -0.323 N 
ATOM      5  C   UNL d   1      -0.015   4.397  -3.688  0.00  0.00     0.179 A 
ATOM      6  H   UNL d   1       0.506   5.884  -2.425  0.00  0.00     0.169 HD
ATOM      7  N   UNL d   1      -0.641   3.197  -3.748  0.00  0.00    -0.300 N 
ATOM      8  S   UNL d   1       0.634   5.114  -5.038  0.00  0.00    -0.040 SA
ATOM      9  C   UNL d   1      -1.073   2.509  -2.654  0.00  0.00     0.258 A 
ATOM     10  H   UNL d   1      -0.684   2.716  -4.636  0.00  0.00     0.171 HD
ATOM     11  O   UNL d   1      -1.427   1.341  -2.780  0.00  0.00    -0.267 OA
BRANCH   3  12
ATOM     12  N   UNL d   1      -0.180   5.176  -0.173  0.00  0.00    -0.288 NA
ATOM     13  H   UNL d   1      -0.223   4.704   0.723  0.00  0.00     0.125 HD
ATOM     14  H   UNL d   1       0.627   5.792  -0.232  0.00  0.00     0.125 HD
ENDBRANCH   3  12
ENDBRANCH   1   2
BRANCH   1  15
ATOM     15  C   UNL d   1      -0.758   1.038   0.109  0.00  0.00     0.061 C 
ATOM     16  C   UNL d   1       0.467   0.642  -0.329  0.00  0.00     0.092 C 
ATOM     17  N   UNL d   1       0.865  -0.653  -0.150  0.00  0.00    -0.323 N 
ATOM     18  C   UNL d   1       0.122  -1.632   0.421  0.00  0.00     0.179 C 
ATOM     19  H   UNL d   1       1.792  -0.910  -0.466  0.00  0.00     0.169 HD
ATOM     20  N   UNL d   1      -1.093  -1.265   0.885  0.00  0.00    -0.300 N 
ATOM     21  S   UNL d   1       0.693  -3.185   0.571  0.00  0.00    -0.040 SA
ATOM     22  C   UNL d   1      -1.470   0.040   0.987  0.00  0.00     0.258 C 
ATOM     23  H   UNL d   1      -1.585  -1.919   1.478  0.00  0.00     0.171 HD
ATOM     24  O   UNL d   1      -2.288   0.364   1.839  0.00  0.00    -0.267 OA
BRANCH  16  25
ATOM     25  N   UNL d   1       1.416   1.413  -0.953  0.00  0.00    -0.288 NA
ATOM     26  H   UNL d   1       1.177   2.371  -1.164  0.00  0.00     0.125 HD
ATOM     27  H   UNL d   1       1.808   0.946  -1.769  0.00  0.00     0.125 HD
ENDBRANCH  16  25
ENDBRANCH   1  15
BRANCH   1  28
ATOM     28  C   UNL d   1      -2.996   2.402   0.047  0.00  0.00    -0.044 A 
ATOM     29  C   UNL d   1      -3.846   1.813  -0.904  0.00  0.00     0.011 A 
ATOM     30  C   UNL d   1      -5.211   1.635  -0.650  0.00  0.00     0.036 A 
ATOM     31  C   UNL d   1      -5.745   2.034   0.578  0.00  0.00     0.102 A 
ATOM     32  C   UNL d   1      -4.939   2.680   1.518  0.00  0.00     0.036 A 
ATOM     33  C   UNL d   1      -3.581   2.880   1.242  0.00  0.00     0.011 A 
BRANCH  31  34
ATOM     34  N   UNL d   1      -7.141   1.716   0.899  0.00  0.00    -0.116 N 
ATOM     35  O   UNL d   1      -7.818   1.145   0.031  0.00  0.00    -0.532 OA
ATOM     36  O   UNL d   1      -7.563   2.030   2.022  0.00  0.00    -0.532 OA
ENDBRANCH  31  34
ENDBRANCH   1  28
TORSDOF 6
