REMARK  0 active torsions:
REMARK  status: ('A' for Active; 'I' for Inactive)
ROOT
ATOM      1  C   UNL d   1      -1.324  -0.210  -0.004  0.00  0.00     0.147 A 
ATOM      2  C   UNL d   1      -0.166   0.584   0.005  0.00  0.00     0.066 A 
ATOM      3  N   UNL d   1      -2.436   0.544  -0.017  0.00  0.00    -0.290 N 
ATOM      4  HN  UNL d   1      -3.407   0.232  -0.025  1.00  0.00     0.188 HD
ATOM      5  N   UNL d   1      -1.967   1.807  -0.017  0.00  0.00    -0.309 N 
ATOM      6  C   UNL d   1      -1.427  -1.640  -0.002  0.00  0.00     0.120 C 
ATOM      7  C   UNL d   1      -0.604   1.883  -0.001  0.00  0.00     0.129 A 
ATOM      8  N   UNL d   1      -1.480  -2.801  -0.000  0.00  0.00    -0.190 NA
ATOM      9 BR   UNL d   1       1.605  -0.013   0.020  0.00  0.00    -0.046 Br
ATOM     10  H   UNL d   1      -2.639   2.570  -0.030  0.00  0.00     0.186 HD
ENDROOT
TORSDOF 0
