REMARK  4 active torsions:
REMARK  status: ('A' for Active; 'I' for Inactive)
REMARK       I    between atoms: C_7  and  N_9 
REMARK    1  A    between atoms: C_15  and  C_7 
REMARK    2  A    between atoms: N_9  and  C_10 
REMARK    3  A    between atoms: O_13  and  C_15 
REMARK    4  A    between atoms: C_17  and  O_13 
ROOT
ATOM      1  N   UNL d   1      -0.991   1.790  -0.152  0.00  0.00    -0.372 N 
ATOM      2  C   UNL d   1       0.116   0.970  -0.060  0.00  0.00     0.064 A 
ATOM      3  C   UNL d   1      -0.060  -0.413   0.165  0.00  0.00     0.097 A 
ATOM      4  O   UNL d   1      -1.295  -0.973   0.453  0.00  0.00    -0.347 OA
ATOM      5  C   UNL d   1       1.007  -1.312   0.114  0.00  0.00     0.068 A 
ATOM      6  C   UNL d   1       1.423   1.438  -0.193  0.00  0.00     0.034 A 
ATOM      7  C   UNL d   1      -2.295   1.220   0.176  0.00  0.00     0.109 C 
ATOM      8  C   UNL d   1       2.300  -0.823  -0.010  0.00  0.00     0.037 A 
ATOM      9  C   UNL d   1      -2.146   0.004   1.081  0.00  0.00     0.201 C 
ATOM     10  C   UNL d   1       2.520   0.555  -0.135  0.00  0.00     0.032 A 
ATOM     11  C   UNL d   1      -1.030   3.242  -0.248  0.00  0.00     0.123 C 
ATOM     12  C   UNL d   1      -2.518   3.566  -0.046  0.00  0.00     0.022 C 
ATOM     13  C   UNL d   1      -3.019   2.407   0.812  0.00  0.00     0.029 C 
ENDROOT
BRANCH   8  14
ATOM     14  N   UNL d   1       3.374  -1.734  -0.077  0.00  0.00    -0.325 N 
ATOM     15  C   UNL d   1       4.299  -1.814   0.959  0.00  0.00     0.246 C 
ATOM     16  O   UNL d   1       4.279  -1.133   1.981  0.00  0.00    -0.271 OA
ATOM     17  H   UNL d   1       3.161  -2.645  -0.472  0.00  0.00     0.169 HD
BRANCH  15  18
ATOM     18  C   UNL d   1       5.412  -2.826   0.680  0.00  0.00     0.278 C 
BRANCH  18  19
ATOM     19  O   UNL d   1       4.927  -4.159   0.565  0.00  0.00    -0.342 OA
BRANCH  19  20
ATOM     20  C   UNL d   1       5.886  -5.130   0.404  0.00  0.00     0.069 A 
ATOM     21  C   UNL d   1       7.233  -4.901   0.099  0.00  0.00     0.037 A 
ATOM     22  C   UNL d   1       8.118  -5.974  -0.058  0.00  0.00     0.003 A 
ATOM     23  C   UNL d   1       7.667  -7.283   0.086  0.00  0.00     0.000 A 
ATOM     24  C   UNL d   1       6.328  -7.519   0.391  0.00  0.00     0.003 A 
ATOM     25  C   UNL d   1       5.443  -6.450   0.543  0.00  0.00     0.037 A 
ENDBRANCH  19  20
ENDBRANCH  18  19
ENDBRANCH  15  18
ENDBRANCH   8  14
TORSDOF 4
