REMARK  5 active torsions:
REMARK  status: ('A' for Active; 'I' for Inactive)
REMARK    1  A    between atoms: C_2  and  C_1 
REMARK    2  A    between atoms: N_8  and  C_3 
REMARK    3  A    between atoms: C_4  and  C_5 
REMARK       I    between atoms: C_5  and  N_10 
REMARK    4  A    between atoms: N_10  and  N_8 
REMARK    5  A    between atoms: O_20  and  C_13 
ROOT
ATOM      1  N   UNL d   1      -2.212   0.419   5.415  0.00  0.00    -0.186 NA
ATOM      2  H   UNL d   1      -2.829   0.883   6.090  0.00  0.00     0.154 HD
ENDROOT
BRANCH   1   3
ATOM      3  C   UNL d   1      -2.832   0.284   4.145  0.00  0.00     0.120 A 
ATOM      4  N   UNL d   1      -2.507  -0.800   3.382  0.00  0.00    -0.353 N 
ATOM      5  C   UNL d   1      -3.086  -0.921   2.163  0.00  0.00     0.105 A 
ATOM      6  HN  UNL d   1      -1.847  -1.500   3.721  1.00  0.00     0.166 HD
ATOM      7  C   UNL d   1      -4.010  -0.024   1.647  0.00  0.00     0.065 A 
ATOM      8  C   UNL d   1      -4.305   1.106   2.415  0.00  0.00     0.044 A 
ATOM      9  C   UNL d   1      -3.699   1.274   3.663  0.00  0.00     0.074 A 
ATOM     10 CL   UNL d   1      -4.095   2.673   4.591  0.00  0.00    -0.081 Cl
BRANCH   7  11
ATOM     11  C   UNL d   1      -4.665  -0.309   0.330  0.00  0.00     0.418 C 
ATOM     12  F   UNL d   1      -5.618   0.602  -0.010  0.00  0.00    -0.166 F 
ATOM     13  F   UNL d   1      -5.287  -1.520   0.318  0.00  0.00    -0.166 F 
ATOM     14  F   UNL d   1      -3.780  -0.333  -0.703  0.00  0.00    -0.166 F 
ENDBRANCH   7  11
ENDBRANCH   1   3
BRANCH   1  15
ATOM     15  N   UNL d   1      -1.775  -0.831   5.912  0.00  0.00    -0.281 N 
ATOM     16  C   UNL d   1      -1.905  -1.083   7.279  0.00  0.00     0.269 C 
ATOM     17  O   UNL d   1      -2.315  -0.228   8.053  0.00  0.00    -0.266 OA
ATOM     18  H   UNL d   1      -1.709  -1.561   5.206  0.00  0.00     0.184 HD
BRANCH  16  19
ATOM     19  C   UNL d   1      -1.511  -2.473   7.716  0.00  0.00     0.066 A 
ATOM     20  C   UNL d   1      -1.967  -3.049   8.921  0.00  0.00     0.084 A 
ATOM     21  C   UNL d   1      -1.590  -4.368   9.234  0.00  0.00     0.038 A 
ATOM     22  C   UNL d   1      -0.736  -5.091   8.402  0.00  0.00     0.003 A 
ATOM     23  C   UNL d   1      -0.239  -4.508   7.245  0.00  0.00     0.001 A 
ATOM     24  C   UNL d   1      -0.622  -3.209   6.907  0.00  0.00     0.020 A 
BRANCH  20  25
ATOM     25  O   UNL d   1      -2.801  -2.327   9.733  0.00  0.00    -0.355 OA
ATOM     26  C   UNL d   1      -2.820  -2.697  11.112  0.00  0.00     0.210 C 
ENDBRANCH  20  25
ENDBRANCH  16  19
ENDBRANCH   1  15
TORSDOF 5
