REMARK  4 active torsions:
REMARK  status: ('A' for Active; 'I' for Inactive)
REMARK    1  A    between atoms: C_4  and  C_1 
REMARK    2  A    between atoms: C_2  and  C_3 
REMARK       I    between atoms: N_6  and  C_4 
REMARK       I    between atoms: C_5  and  N_7 
REMARK    3  A    between atoms: C_8  and  C_5 
REMARK    4  A    between atoms: N_7  and  N_6 
ROOT
ATOM      1  C   UNL d   1       1.157   2.686  -0.056  0.00  0.00     0.272 C 
ATOM      2  N   UNL d   1       0.404   3.740   0.403  0.00  0.00    -0.263 N 
ATOM      3  O   UNL d   1       0.672   1.762  -0.706  0.00  0.00    -0.266 OA
ATOM      4  H   UNL d   1       0.747   4.527   0.955  0.00  0.00     0.190 HD
ENDROOT
BRANCH   1   5
ATOM      5  C   UNL d   1       2.592   2.648   0.313  0.00  0.00     0.064 A 
ATOM      6  C   UNL d   1       3.504   3.712   0.278  0.00  0.00     0.066 A 
ATOM      7  C   UNL d   1       4.836   3.457   0.669  0.00  0.00     0.034 A 
ATOM      8  C   UNL d   1       5.210   2.177   1.041  0.00  0.00     0.088 A 
ATOM      9  N   UNL d   1       4.356   1.140   1.055  0.00  0.00    -0.374 N 
ATOM     10  C   UNL d   1       3.076   1.394   0.686  0.00  0.00     0.105 A 
ATOM     11  HN  UNL d   1       4.656   0.205   1.330  1.00  0.00     0.164 HD
BRANCH   6  12
ATOM     12  C   UNL d   1       3.193   5.112  -0.171  0.00  0.00     0.418 C 
ATOM     13  F   UNL d   1       2.008   5.275  -0.804  0.00  0.00    -0.166 F 
ATOM     14  F   UNL d   1       3.178   5.978   0.882  0.00  0.00    -0.166 F 
ATOM     15  F   UNL d   1       4.133   5.596  -1.031  0.00  0.00    -0.166 F 
ENDBRANCH   6  12
ENDBRANCH   1   5
BRANCH   2  16
ATOM     16  N   UNL d   1      -0.935   3.833  -0.003  0.00  0.00    -0.263 N 
ATOM     17  C   UNL d   1      -1.730   4.751   0.639  0.00  0.00     0.270 C 
ATOM     18  O   UNL d   1      -1.319   5.472   1.545  0.00  0.00    -0.266 OA
ATOM     19  H   UNL d   1      -1.285   3.092  -0.610  0.00  0.00     0.190 HD
BRANCH  17  20
ATOM     20  C   UNL d   1      -3.146   4.839   0.202  0.00  0.00     0.033 A 
ATOM     21  C   UNL d   1      -4.120   5.128   1.165  0.00  0.00     0.019 A 
ATOM     22  C   UNL d   1      -5.455   5.300   0.780  0.00  0.00     0.025 A 
ATOM     23  C   UNL d   1      -5.809   5.196  -0.563  0.00  0.00     0.034 A 
ATOM     24  C   UNL d   1      -4.838   4.908  -1.530  0.00  0.00     0.025 A 
ATOM     25 CL   UNL d   1      -7.441   5.448  -1.040  0.00  0.00    -0.084 Cl
ATOM     26  C   UNL d   1      -3.506   4.726  -1.147  0.00  0.00     0.019 A 
ENDBRANCH  17  20
ENDBRANCH   2  16
TORSDOF 4
