REMARK  3 active torsions:
REMARK  status: ('A' for Active; 'I' for Inactive)
REMARK    1  A    between atoms: C_15  and  C_5 
REMARK    2  A    between atoms: C_9  and  C_6 
REMARK    3  A    between atoms: C_18  and  C_10 
ROOT
ATOM      1  C   UNL d   1      -6.181   0.507  -0.696  0.00  0.00     0.100 A 
ATOM      2  S   UNL d   1      -4.642   0.915  -1.343  0.00  0.00    -0.083 SA
ATOM      3  C   UNL d   1      -3.803   0.025  -0.163  0.00  0.00     0.034 A 
ATOM      4  C   UNL d   1      -6.060  -0.354   0.394  0.00  0.00    -0.003 A 
ATOM      5  C   UNL d   1      -4.672  -0.625   0.686  0.00  0.00     0.034 A 
ENDROOT
BRANCH   3   6
ATOM      6  C   UNL d   1      -2.304  -0.025  -0.075  0.00  0.00     0.069 A 
ATOM      7  N   UNL d   1      -1.656  -0.770   0.831  0.00  0.00    -0.288 N 
ATOM      8  N   UNL d   1      -0.338  -0.543   0.566  0.00  0.00    -0.203 N 
ATOM      9  HN  UNL d   1      -2.056  -1.369   1.553  1.00  0.00     0.188 HD
ATOM     10  C   UNL d   1      -0.166   0.350  -0.473  0.00  0.00     0.133 A 
ATOM     11  C   UNL d   1       0.721  -1.145   1.266  0.00  0.00     0.270 A 
ATOM     12  C   UNL d   1      -1.413   0.700  -0.909  0.00  0.00     0.083 A 
ATOM     13  N   UNL d   1       1.087   0.690  -0.849  0.00  0.00    -0.345 N 
ATOM     14  C   UNL d   1       2.199   0.143  -0.227  0.00  0.00     0.012 A 
ATOM     15  H   UNL d   1       1.263   1.346  -1.609  0.00  0.00     0.167 HD
ATOM     16  C   UNL d   1       2.074  -0.738   0.786  0.00  0.00     0.101 A 
ATOM     17  C   UNL d   1       3.547   0.571  -0.738  0.00  0.00     0.068 C 
ATOM     18  O   UNL d   1       0.538  -1.933   2.186  0.00  0.00    -0.266 OA
ENDBRANCH   3   6
BRANCH   1  19
ATOM     19  C   UNL d   1      -7.390   1.098  -1.353  0.00  0.00     0.424 C 
ATOM     20  F   UNL d   1      -7.102   2.178  -2.131  0.00  0.00    -0.166 F 
ATOM     21  F   UNL d   1      -8.003   0.201  -2.170  0.00  0.00    -0.166 F 
ATOM     22  F   UNL d   1      -8.319   1.521  -0.460  0.00  0.00    -0.166 F 
ENDBRANCH   1  19
BRANCH   4  23
ATOM     23  C   UNL d   1      -7.203  -0.839   1.179  0.00  0.00    -0.025 A 
ATOM     24  C   UNL d   1      -7.122  -0.857   2.580  0.00  0.00     0.012 A 
ATOM     25  C   UNL d   1      -8.206  -1.278   3.356  0.00  0.00     0.001 A 
ATOM     26  C   UNL d   1      -9.389  -1.680   2.742  0.00  0.00     0.000 A 
ATOM     27  C   UNL d   1      -9.478  -1.689   1.353  0.00  0.00     0.001 A 
ATOM     28  C   UNL d   1      -8.385  -1.291   0.576  0.00  0.00     0.012 A 
ENDBRANCH   4  23
TORSDOF 3
