REMARK  8 active torsions:
REMARK  status: ('A' for Active; 'I' for Inactive)
REMARK    1  A    between atoms: O_21  and  C_2 
REMARK    2  A    between atoms: C_3  and  O_5 
REMARK    3  A    between atoms: O_5  and  C_16 
REMARK    4  A    between atoms: O_18  and  N_6 
REMARK    5  A    between atoms: C_12  and  C_22 
REMARK    6  A    between atoms: C_16  and  C_13 
REMARK    7  A    between atoms: C_23  and  C_14 
REMARK    8  A    between atoms: C_22  and  C_23 
ROOT
ATOM      1  C   UNL d   1     -11.678  12.714  -5.088  0.00  0.00     0.102 A 
ATOM      2  C   UNL d   1     -10.543  13.048  -5.841  0.00  0.00     0.102 A 
ATOM      3  C   UNL d   1     -11.617  11.625  -4.203  0.00  0.00     0.046 A 
ATOM      4  C   UNL d   1      -9.402  12.234  -5.744  0.00  0.00     0.040 A 
ATOM      5  C   UNL d   1     -10.470  10.829  -4.082  0.00  0.00    -0.055 A 
ATOM      6  C   UNL d   1      -9.363  11.143  -4.870  0.00  0.00     0.010 A 
ENDROOT
BRANCH   2   7
ATOM      7  O   UNL d   1     -10.581  14.153  -6.653  0.00  0.00    -0.344 OA
BRANCH   7   8
ATOM      8  C   UNL d   1      -9.330  14.807  -6.877  0.00  0.00     0.214 C 
BRANCH   8   9
ATOM      9  C   UNL d   1      -9.581  16.218  -7.358  0.00  0.00    -0.032 A 
ATOM     10  C   UNL d   1      -9.023  16.676  -8.561  0.00  0.00     0.035 A 
ATOM     11  C   UNL d   1      -9.218  17.997  -8.982  0.00  0.00     0.056 A 
ATOM     12  C   UNL d   1      -9.976  18.874  -8.201  0.00  0.00     0.055 A 
ATOM     13 CL   UNL d   1      -8.482  18.480 -10.469  0.00  0.00    -0.083 Cl
ATOM     14  C   UNL d   1     -10.533  18.426  -7.001  0.00  0.00     0.026 A 
ATOM     15 CL   UNL d   1     -10.254  20.518  -8.654  0.00  0.00    -0.083 Cl
ATOM     16  C   UNL d   1     -10.333  17.110  -6.578  0.00  0.00     0.011 A 
ENDBRANCH   8   9
ENDBRANCH   7   8
ENDBRANCH   2   7
BRANCH   1  17
ATOM     17  O   UNL d   1     -12.894  13.344  -5.045  0.00  0.00    -0.353 OA
ATOM     18  C   UNL d   1     -13.232  14.242  -6.089  0.00  0.00     0.210 C 
ENDBRANCH   1  17
BRANCH   5  19
ATOM     19  C   UNL d   1     -10.431   9.677  -3.107  0.00  0.00     0.044 C 
BRANCH  19  20
ATOM     20  C   UNL d   1     -11.481   8.612  -3.416  0.00  0.00     0.058 C 
BRANCH  20  21
ATOM     21  C   UNL d   1     -11.456   7.515  -2.369  0.00  0.00     0.006 C 
ATOM     22  N   UNL d   1     -10.687   6.489  -2.590  0.00  0.00    -0.278 N 
ATOM     23  HN  UNL d   1     -10.100   6.384  -3.417  1.00  0.00     0.193 HD
ATOM     24  C   UNL d   1     -12.323   7.714  -1.146  0.00  0.00     0.065 C 
BRANCH  22  25
ATOM     25  O   UNL d   1     -10.761   5.549  -1.560  0.00  0.00    -0.290 OA
ATOM     26  H   UNL d   1     -10.190   4.831  -1.889  0.00  0.00     0.244 HD
ENDBRANCH  22  25
ENDBRANCH  20  21
ENDBRANCH  19  20
ENDBRANCH   5  19
TORSDOF 8
