REMARK  7 active torsions:
REMARK  status: ('A' for Active; 'I' for Inactive)
REMARK       I    between atoms: C_7  and  N_2 
REMARK    1  A    between atoms: S_13  and  C_6 
REMARK    2  A    between atoms: C_11  and  C_7 
REMARK    3  A    between atoms: N_10  and  C_12 
REMARK    4  A    between atoms: C_20  and  S_13 
REMARK    5  A    between atoms: C_16  and  C_20 
REMARK    6  A    between atoms: C_19  and  C_16 
REMARK    7  A    between atoms: O_31  and  C_27 
ROOT
ATOM      1  C   UNL d   1       0.288   0.644   0.068  0.00  0.00     0.706 A 
ATOM      2  N   UNL d   1      -0.703   1.615  -0.026  0.00  0.00    -0.145 N 
ATOM      3  N   UNL d   1      -0.042  -0.693   0.014  0.00  0.00    -0.159 N 
ATOM      4  N   UNL d   1       1.591   0.737   0.212  0.00  0.00    -0.129 N 
ATOM      5  HN  UNL d   1       2.116   1.601   0.351  1.00  0.00     0.205 HD
ATOM      6  C   UNL d   1       1.136  -1.378   0.009  0.00  0.00     0.177 A 
ATOM      7  C   UNL d   1      -0.461   2.990  -0.183  0.00  0.00     0.272 C 
ATOM      8  N   UNL d   1       2.130  -0.531   0.143  0.00  0.00    -0.265 N 
ATOM      9  HN  UNL d   1       3.121  -0.768   0.187  1.00  0.00     0.189 HD
ATOM     10  O   UNL d   1      -1.376   3.805  -0.007  0.00  0.00    -0.267 OA
ATOM     11  C   UNL d   1      -2.088   1.204   0.231  0.00  0.00     0.153 C 
ATOM     12  C   UNL d   1      -1.398  -1.193  -0.034  0.00  0.00     0.151 C 
ATOM     13  C   UNL d   1      -2.396  -0.119  -0.458  0.00  0.00     0.042 C 
ENDROOT
BRANCH   6  14
ATOM     14  S   UNL d   1       1.247  -3.095  -0.154  0.00  0.00    -0.084 SA
BRANCH  14  15
ATOM     15  C   UNL d   1       3.053  -3.322  -0.170  0.00  0.00     0.166 C 
BRANCH  15  16
ATOM     16  C   UNL d   1       3.457  -4.787  -0.299  0.00  0.00     0.169 C 
ATOM     17  O   UNL d   1       2.654  -5.716  -0.304  0.00  0.00    -0.291 OA
BRANCH  16  18
ATOM     18  C   UNL d   1       4.922  -5.101  -0.420  0.00  0.00     0.011 A 
ATOM     19  C   UNL d   1       5.907  -4.107  -0.393  0.00  0.00     0.018 A 
ATOM     20  C   UNL d   1       7.260  -4.442  -0.536  0.00  0.00     0.037 A 
ATOM     21  C   UNL d   1       7.641  -5.773  -0.716  0.00  0.00     0.068 A 
ATOM     22  C   UNL d   1       6.667  -6.772  -0.703  0.00  0.00     0.037 A 
ATOM     23  C   UNL d   1       5.316  -6.441  -0.568  0.00  0.00     0.018 A 
BRANCH  21  24
ATOM     24  O   UNL d   1       8.930  -6.200  -0.861  0.00  0.00    -0.356 OA
ATOM     25  C   UNL d   1       9.806  -5.290  -1.520  0.00  0.00     0.210 C 
ENDBRANCH  21  24
ENDBRANCH  16  18
ENDBRANCH  15  16
ENDBRANCH  14  15
ENDBRANCH   6  14
BRANCH   7  26
ATOM     26  C   UNL d   1       0.846   3.583  -0.602  0.00  0.00     0.035 A 
ATOM     27  C   UNL d   1       1.774   2.945  -1.427  0.00  0.00     0.053 A 
ATOM     28  C   UNL d   1       3.009   3.556  -1.691  0.00  0.00     0.103 A 
ATOM     29  C   UNL d   1       3.274   4.861  -1.256  0.00  0.00     0.036 A 
ATOM     30  C   UNL d   1       2.302   5.549  -0.537  0.00  0.00     0.003 A 
ATOM     31  C   UNL d   1       1.106   4.909  -0.201  0.00  0.00     0.017 A 
BRANCH  28  32
ATOM     32  N   UNL d   1       4.051   2.805  -2.404  0.00  0.00    -0.116 N 
ATOM     33  O   UNL d   1       3.781   1.661  -2.794  0.00  0.00    -0.532 OA
ATOM     34  O   UNL d   1       5.146   3.363  -2.576  0.00  0.00    -0.532 OA
ENDBRANCH  28  32
ENDBRANCH   7  26
TORSDOF 7
