REMARK  5 active torsions:
REMARK  status: ('A' for Active; 'I' for Inactive)
REMARK    1  A    between atoms: C_10  and  C_1 
REMARK    2  A    between atoms: N_6  and  C_2 
REMARK    3  A    between atoms: C_7  and  C_3 
REMARK       I    between atoms: C_9  and  N_6 
REMARK       I    between atoms: N_11  and  C_9 
REMARK    4  A    between atoms: O_17  and  C_10 
REMARK    5  A    between atoms: N_16  and  N_11 
ROOT
ATOM      1  C   UNL d   1      -1.013  -0.915   0.379  0.00  0.00     0.122 A 
ATOM      2  C   UNL d   1      -0.726   0.345  -0.098  0.00  0.00     0.193 A 
ATOM      3  C   UNL d   1       0.003  -1.743  -0.190  0.00  0.00     0.089 A 
ATOM      4  N   UNL d   1       0.855  -1.014  -0.924  0.00  0.00    -0.257 N 
ATOM      5  HN  UNL d   1       1.675  -1.351  -1.429  1.00  0.00     0.195 HD
ATOM      6  O   UNL d   1       0.397   0.281  -0.858  0.00  0.00    -0.218 OA
ENDROOT
BRANCH   2   7
ATOM      7  N   UNL d   1      -1.378   1.546   0.060  0.00  0.00    -0.285 N 
ATOM      8  C   UNL d   1      -1.004   2.780  -0.403  0.00  0.00     0.336 C 
ATOM      9  N   UNL d   1       0.246   2.888  -0.970  0.00  0.00    -0.271 N 
ATOM     10  O   UNL d   1      -1.791   3.719  -0.269  0.00  0.00    -0.246 OA
ATOM     11  H   UNL d   1       0.873   2.091  -0.936  0.00  0.00     0.185 HD
ATOM     12  H   UNL d   1      -2.276   1.541   0.535  0.00  0.00     0.172 HD
BRANCH   9  13
ATOM     13  N   UNL d   1       0.740   4.121  -1.439  0.00  0.00    -0.236 NA
ATOM     14  C   UNL d   1       0.967   4.072  -2.884  0.00  0.00     0.135 C 
ATOM     15  C   UNL d   1       1.941   4.517  -0.708  0.00  0.00     0.135 C 
ENDBRANCH   9  13
ENDBRANCH   2   7
BRANCH   1  16
ATOM     16  C   UNL d   1      -2.124  -1.266   1.232  0.00  0.00     0.299 C 
ATOM     17  O   UNL d   1      -3.050  -0.505   1.472  0.00  0.00    -0.259 OA
BRANCH  16  18
ATOM     18  O   UNL d   1      -2.011  -2.529   1.733  0.00  0.00    -0.322 OA
ATOM     19  C   UNL d   1      -3.144  -3.008   2.456  0.00  0.00     0.213 C 
ENDBRANCH  16  18
ENDBRANCH   1  16
BRANCH   3  20
ATOM     20  C   UNL d   1       0.161  -3.191  -0.082  0.00  0.00     0.037 A 
ATOM     21  C   UNL d   1      -0.784  -4.061  -0.658  0.00  0.00     0.048 A 
ATOM     22 CL   UNL d   1      -2.127  -3.489  -1.595  0.00  0.00    -0.083 Cl
ATOM     23  C   UNL d   1      -0.686  -5.446  -0.481  0.00  0.00     0.025 A 
ATOM     24  C   UNL d   1       0.369  -5.984   0.250  0.00  0.00     0.003 A 
ATOM     25  C   UNL d   1       1.329  -5.138   0.803  0.00  0.00     0.025 A 
ATOM     26  C   UNL d   1       1.226  -3.751   0.646  0.00  0.00     0.048 A 
ATOM     27 CL   UNL d   1       2.432  -2.782   1.424  0.00  0.00    -0.083 Cl
ENDBRANCH   3  20
TORSDOF 5
