REMARK  3 active torsions:
REMARK  status: ('A' for Active; 'I' for Inactive)
REMARK    1  A    between atoms: N_7  and  C_13 
REMARK    2  A    between atoms: C_10  and  N_7 
REMARK    3  A    between atoms: C_13  and  C_11 
ROOT
ATOM      1  C   UNL d   1       3.511  -1.400  -0.093  0.00  0.00     0.131 C 
ENDROOT
BRANCH   1   2
ATOM      2  N   UNL d   1       4.665  -0.510  -0.091  0.00  0.00    -0.289 NA
ATOM      3  H   UNL d   1       4.587   0.211   0.623  0.00  0.00     0.128 HD
BRANCH   2   4
ATOM      4  C   UNL d   1       5.951  -1.060  -0.155  0.00  0.00     0.011 A 
ATOM      5  C   UNL d   1       6.238  -2.281  -0.774  0.00  0.00     0.065 A 
ATOM      6  C   UNL d   1       7.553  -2.733  -0.878  0.00  0.00     0.118 A 
ATOM      7  F   UNL d   1       7.796  -3.911  -1.467  0.00  0.00    -0.206 F 
ATOM      8  C   UNL d   1       8.614  -1.982  -0.394  0.00  0.00     0.042 A 
ATOM      9  C   UNL d   1       8.356  -0.747   0.189  0.00  0.00     0.005 A 
ATOM     10  C   UNL d   1       7.037  -0.288   0.292  0.00  0.00     0.024 A 
ENDBRANCH   2   4
ENDBRANCH   1   2
BRANCH   1  11
ATOM     11  C   UNL d   1       2.235  -0.588  -0.051  0.00  0.00    -0.042 A 
ATOM     12  C   UNL d   1       1.927   0.288  -1.108  0.00  0.00     0.048 A 
ATOM     13  C   UNL d   1       0.733   0.974  -1.061  0.00  0.00     0.105 A 
ATOM     14  C   UNL d   1      -0.148   0.822  -0.017  0.00  0.00     0.105 A 
ATOM     15  O   UNL d   1       0.278   1.845  -2.001  0.00  0.00    -0.323 OA
ATOM     16  O   UNL d   1      -1.268   1.578  -0.169  0.00  0.00    -0.323 OA
ATOM     17  C   UNL d   1       0.119  -0.020   1.040  0.00  0.00     0.040 A 
ATOM     18  C   UNL d   1      -0.993   2.219  -1.432  0.00  0.00     0.352 A 
ATOM     19  C   UNL d   1       1.323  -0.732   1.020  0.00  0.00     0.011 A 
ENDBRANCH   1  11
TORSDOF 3
