REMARK  4 active torsions:
REMARK  status: ('A' for Active; 'I' for Inactive)
REMARK    1  A    between atoms: N_3  and  C_1 
REMARK    2  A    between atoms: N_4  and  C_1 
REMARK    3  A    between atoms: C_2  and  N_3 
REMARK    4  A    between atoms: C_8  and  N_4 
ROOT
ATOM      1  N   UNL d   1       0.574   0.075  -1.144  0.00  0.00    -0.332 N 
ATOM      2  H   UNL d   1       0.066  -0.773  -1.350  0.00  0.00     0.168 HD
ENDROOT
BRANCH   1   3
ATOM      3  C   UNL d   1       1.005   0.823  -2.267  0.00  0.00     0.057 A 
ATOM      4  C   UNL d   1       0.946   0.172  -3.507  0.00  0.00     0.055 A 
ATOM      5  C   UNL d   1       1.308   0.843  -4.677  0.00  0.00     0.036 A 
ATOM      6 CL   UNL d   1       1.232   0.023  -6.188  0.00  0.00    -0.084 Cl
ATOM      7  C   UNL d   1       1.717   2.172  -4.633  0.00  0.00     0.026 A 
ATOM      8  C   UNL d   1       1.743   2.843  -3.410  0.00  0.00     0.028 A 
ATOM      9  C   UNL d   1       1.374   2.183  -2.230  0.00  0.00     0.060 A 
ATOM     10 CL   UNL d   1       1.211   3.177  -0.822  0.00  0.00    -0.082 Cl
ENDBRANCH   1   3
BRANCH   1  11
ATOM     11  C   UNL d   1       1.101   0.073   0.115  0.00  0.00     0.172 C 
ATOM     12  S   UNL d   1       2.721   0.238   0.501  0.00  0.00    -0.041 SA
BRANCH  11  13
ATOM     13  N   UNL d   1       0.228  -0.173   1.134  0.00  0.00    -0.359 N 
ATOM     14  H   UNL d   1       0.697  -0.203   2.034  0.00  0.00     0.162 HD
BRANCH  13  15
ATOM     15  C   UNL d   1      -1.242  -0.333   1.158  0.00  0.00     0.021 C 
ATOM     16  C   UNL d   1      -1.639  -1.731   0.663  0.00  0.00     0.037 C 
ATOM     17  C   UNL d   1      -1.699  -0.193   2.624  0.00  0.00     0.037 C 
ATOM     18  C   UNL d   1      -1.966   0.750   0.341  0.00  0.00     0.037 C 
ENDBRANCH  13  15
ENDBRANCH  11  13
ENDBRANCH   1  11
TORSDOF 4
