REMARK  0 active torsions:
REMARK  status: ('A' for Active; 'I' for Inactive)
ROOT
ATOM      1  C   UNL d   1      -1.845  -0.762  -0.086  0.00  0.00     0.263 C 
ATOM      2  O   UNL d   1      -1.839   0.537   0.270  0.00  0.00    -0.316 OA
ATOM      3  C   UNL d   1      -0.549  -1.396  -0.531  0.00  0.00     0.086 C 
ATOM      4  C   UNL d   1      -0.661   1.303   0.598  0.00  0.00     0.132 C 
ATOM      5  C   UNL d   1       0.999   0.549  -1.167  0.00  0.00    -0.011 C 
ATOM      6  C   UNL d   1       1.130  -0.458   1.126  0.00  0.00    -0.011 C 
ATOM      7  C   UNL d   1       0.356  -1.693   0.662  0.00  0.00     0.019 C 
ATOM      8  C   UNL d   1       0.138  -0.620  -1.658  0.00  0.00     0.019 C 
ATOM      9  O   UNL d   1      -2.886  -1.415  -0.035  0.00  0.00    -0.265 OA
ATOM     10  C   UNL d   1       0.185   0.621   1.677  0.00  0.00     0.037 C 
ATOM     11  C   UNL d   1       0.125   1.694  -0.650  0.00  0.00     0.037 C 
ATOM     12  C   UNL d   1       1.943   0.093  -0.050  0.00  0.00     0.009 C 
ENDROOT
TORSDOF 0
