REMARK  8 active torsions:
REMARK  status: ('A' for Active; 'I' for Inactive)
REMARK    1  A    between atoms: N_6  and  C_1 
REMARK    2  A    between atoms: C_10  and  C_2 
REMARK    3  A    between atoms: C_12  and  N_3 
REMARK    4  A    between atoms: C_11  and  N_6 
REMARK    5  A    between atoms: N_8  and  C_13 
REMARK    6  A    between atoms: O_22  and  C_10 
REMARK    7  A    between atoms: N_21  and  C_11 
REMARK    8  A    between atoms: C_25  and  O_22 
ROOT
ATOM      1  C   UNL d   1       0.993  -0.922   0.141  0.00  0.00     0.146 A 
ATOM      2  C   UNL d   1      -0.349  -1.310   0.183  0.00  0.00     0.102 A 
ATOM      3  N   UNL d   1       0.965   0.484   0.135  0.00  0.00    -0.239 N 
ATOM      4  N   UNL d   1      -0.296   0.977   0.268  0.00  0.00    -0.302 N 
ATOM      5  HN  UNL d   1      -0.581   1.951   0.366  1.00  0.00     0.186 HD
ATOM      6  C   UNL d   1      -1.071  -0.102   0.239  0.00  0.00     0.129 A 
ENDROOT
BRANCH   3   7
ATOM      7  C   UNL d   1       2.057   1.397   0.021  0.00  0.00     0.058 A 
ATOM      8  C   UNL d   1       3.239   1.041  -0.644  0.00  0.00     0.034 A 
ATOM      9  C   UNL d   1       4.303   1.944  -0.722  0.00  0.00     0.038 A 
ATOM     10  C   UNL d   1       4.190   3.201  -0.114  0.00  0.00     0.103 A 
ATOM     11  C   UNL d   1       3.007   3.574   0.536  0.00  0.00     0.038 A 
ATOM     12  C   UNL d   1       1.935   2.679   0.582  0.00  0.00     0.034 A 
BRANCH  10  13
ATOM     13  N   UNL d   1       5.325   4.131  -0.154  0.00  0.00    -0.116 N 
ATOM     14  O   UNL d   1       5.215   5.203   0.458  0.00  0.00    -0.532 OA
ATOM     15  O   UNL d   1       6.329   3.788  -0.795  0.00  0.00    -0.532 OA
ENDBRANCH  10  13
ENDBRANCH   3   7
BRANCH   1  16
ATOM     16  N   UNL d   1       2.181  -1.584   0.227  0.00  0.00    -0.336 N 
ATOM     17  HN  UNL d   1       2.932  -1.221   0.814  1.00  0.00     0.168 HD
BRANCH  16  18
ATOM     18  C   UNL d   1       2.348  -2.674  -0.442  0.00  0.00     0.179 C 
BRANCH  18  19
ATOM     19  N   UNL d   1       3.501  -3.428  -0.470  0.00  0.00    -0.386 N 
ATOM     20  C   UNL d   1       3.458  -4.831  -0.855  0.00  0.00     0.149 C 
ATOM     21  C   UNL d   1       4.670  -3.030   0.301  0.00  0.00     0.149 C 
ENDBRANCH  18  19
ENDBRANCH  16  18
ENDBRANCH   1  16
BRANCH   2  22
ATOM     22  C   UNL d   1      -0.916  -2.644   0.197  0.00  0.00     0.298 C 
ATOM     23  O   UNL d   1      -0.264  -3.678   0.268  0.00  0.00    -0.259 OA
BRANCH  22  24
ATOM     24  O   UNL d   1      -2.272  -2.615   0.033  0.00  0.00    -0.318 OA
BRANCH  24  25
ATOM     25  C   UNL d   1      -2.881  -3.867  -0.315  0.00  0.00     0.174 C 
ATOM     26  C   UNL d   1      -2.948  -3.958  -1.828  0.00  0.00     0.034 C 
ENDBRANCH  24  25
ENDBRANCH  22  24
ENDBRANCH   2  22
TORSDOF 8
