REMARK  1 active torsions:
REMARK  status: ('A' for Active; 'I' for Inactive)
REMARK    1  A    between atoms: N_10  and  C_6 
ROOT
ATOM      1  C   UNL d   1       1.143   0.988  -0.042  0.00  0.00     0.078 A 
ATOM      2  S   UNL d   1      -0.196   2.061  -0.126  0.00  0.00    -0.065 SA
ATOM      3  C   UNL d   1      -1.306   0.791  -0.078  0.00  0.00     0.088 A 
ATOM      4  C   UNL d   1      -0.718  -0.468  -0.060  0.00  0.00     0.032 A 
ATOM      5  C   UNL d   1       0.724  -0.338  -0.071  0.00  0.00     0.067 A 
ATOM      6  C   UNL d   1       2.511   1.303   0.017  0.00  0.00     0.123 A 
ATOM      7  N   UNL d   1      -2.616   1.089  -0.065  0.00  0.00    -0.354 N 
ATOM      8  HN  UNL d   1      -2.960   2.049  -0.080  1.00  0.00     0.166 HD
ATOM      9  C   UNL d   1      -1.612  -1.574  -0.032  0.00  0.00    -0.045 A 
ATOM     10  N   UNL d   1       3.389   0.281  -0.052  0.00  0.00    -0.338 N 
ATOM     11  HN  UNL d   1       4.394   0.455  -0.072  1.00  0.00     0.168 HD
ATOM     12  N   UNL d   1       1.625  -1.360  -0.086  0.00  0.00    -0.350 N 
ATOM     13  HN  UNL d   1       1.346  -2.341  -0.090  1.00  0.00     0.166 HD
ATOM     14  C   UNL d   1       2.905  -0.970  -0.094  0.00  0.00     0.182 A 
ATOM     15  C   UNL d   1      -2.991  -1.285  -0.016  0.00  0.00     0.032 A 
ATOM     16  C   UNL d   1      -3.437   0.031  -0.030  0.00  0.00     0.006 A 
ATOM     17  C   UNL d   1      -1.196  -3.019  -0.013  0.00  0.00     0.049 C 
ATOM     18  C   UNL d   1      -4.906   0.334  -0.009  0.00  0.00     0.068 C 
ENDROOT
BRANCH   6  19
ATOM     19  N   UNL d   1       2.932   2.616   0.094  0.00  0.00    -0.366 N 
ATOM     20  C   UNL d   1       4.183   3.018  -0.528  0.00  0.00     0.124 C 
ATOM     21  C   UNL d   1       4.019   4.492  -0.932  0.00  0.00     0.020 C 
ATOM     22  C   UNL d   1       3.554   5.374   0.237  0.00  0.00     0.003 C 
ATOM     23  C   UNL d   1       2.357   4.773   0.979  0.00  0.00     0.020 C 
ATOM     24  C   UNL d   1       2.626   3.315   1.341  0.00  0.00     0.124 C 
ENDBRANCH   6  19
TORSDOF 1
