REMARK  5 active torsions:
REMARK  status: ('A' for Active; 'I' for Inactive)
REMARK    1  A    between atoms: C_2  and  C_1 
REMARK       I    between atoms: N_8  and  C_2 
REMARK    2  A    between atoms: S_12  and  C_5 
REMARK    3  A    between atoms: S_13  and  C_6 
REMARK    4  A    between atoms: C_14  and  N_8 
REMARK    5  A    between atoms: C_10  and  C_11 
ROOT
ATOM      1  C   UNL d   1      -3.904  -1.923  -0.491  0.00  0.00     0.260 C 
ATOM      2  N   UNL d   1      -3.936  -0.963   0.510  0.00  0.00    -0.323 N 
ATOM      3  O   UNL d   1      -3.959  -1.701  -1.695  0.00  0.00    -0.267 OA
ATOM      4  H   UNL d   1      -4.056  -1.284   1.461  0.00  0.00     0.169 HD
ENDROOT
BRANCH   1   5
ATOM      5  C   UNL d   1      -3.874  -3.290   0.002  0.00  0.00     0.091 A 
ATOM      6  C   UNL d   1      -4.879  -4.223  -0.226  0.00  0.00     0.076 A 
ATOM      7  S   UNL d   1      -4.391  -5.731   0.423  0.00  0.00    -0.006 SA
ATOM      8  N   UNL d   1      -2.944  -5.210   1.018  0.00  0.00    -0.319 N 
ATOM      9  C   UNL d   1      -2.789  -3.929   0.698  0.00  0.00     0.093 A 
ATOM     10  HN  UNL d   1      -2.278  -5.776   1.544  1.00  0.00     0.175 HD
BRANCH   6  11
ATOM     11  S   UNL d   1      -6.428  -4.055  -1.033  0.00  0.00    -0.125 SA
ATOM     12  C   UNL d   1      -7.289  -2.935   0.090  0.00  0.00     0.096 C 
ENDBRANCH   6  11
BRANCH   9  13
ATOM     13  S   UNL d   1      -1.299  -3.105   1.162  0.00  0.00    -0.115 SA
ATOM     14  C   UNL d   1      -0.158  -4.496   1.368  0.00  0.00     0.097 C 
ENDBRANCH   9  13
ENDBRANCH   1   5
BRANCH   2  15
ATOM     15  C   UNL d   1      -3.886   0.440   0.318  0.00  0.00     0.035 A 
ATOM     16  C   UNL d   1      -4.256   1.264   1.383  0.00  0.00     0.030 A 
ATOM     17  C   UNL d   1      -4.219   2.663   1.248  0.00  0.00     0.010 A 
ATOM     18  C   UNL d   1      -3.772   3.286   0.069  0.00  0.00    -0.051 A 
ATOM     19  C   UNL d   1      -3.400   2.437  -0.986  0.00  0.00     0.010 A 
ATOM     20  C   UNL d   1      -3.463   1.040  -0.865  0.00  0.00     0.030 A 
BRANCH  18  21
ATOM     21  C   UNL d   1      -3.708   4.820  -0.042  0.00  0.00    -0.024 C 
ATOM     22  C   UNL d   1      -2.975   5.326  -1.306  0.00  0.00     0.019 C 
ATOM     23  C   UNL d   1      -5.139   5.394  -0.078  0.00  0.00     0.019 C 
ATOM     24  C   UNL d   1      -2.958   5.418   1.171  0.00  0.00     0.019 C 
ENDBRANCH  18  21
ENDBRANCH   2  15
TORSDOF 5
