REMARK  5 active torsions:
REMARK  status: ('A' for Active; 'I' for Inactive)
REMARK    1  A    between atoms: S_7  and  C_1 
REMARK    2  A    between atoms: C_10  and  C_2 
REMARK    3  A    between atoms: S_14  and  C_5 
REMARK    4  A    between atoms: C_6  and  S_7 
REMARK    5  A    between atoms: C_9  and  C_6 
ROOT
ATOM      1  C   UNL d   1       1.256   0.886   0.393  0.00  0.00     0.072 A 
ATOM      2  C   UNL d   1      -0.144   1.134   0.165  0.00  0.00     0.078 A 
ATOM      3  N   UNL d   1      -0.807  -0.029   0.024  0.00  0.00    -0.298 N 
ATOM      4  HN  UNL d   1      -1.802  -0.164  -0.152  1.00  0.00     0.187 HD
ATOM      5  C   UNL d   1       1.387  -0.487   0.404  0.00  0.00     0.103 A 
ATOM      6  N   UNL d   1       0.134  -0.967   0.167  0.00  0.00    -0.292 N 
ATOM      7  H   UNL d   1      -0.138  -1.941   0.104  0.00  0.00     0.187 HD
ENDROOT
BRANCH   1   8
ATOM      8  S   UNL d   1       2.509   2.080   0.641  0.00  0.00    -0.042 SA
BRANCH   8   9
ATOM      9  C   UNL d   1       2.795   2.698  -0.985  0.00  0.00     0.230 C 
ATOM     10  O   UNL d   1       2.265   2.223  -1.979  0.00  0.00    -0.279 OA
BRANCH   9  11
ATOM     11  C   UNL d   1       3.783   3.788  -1.102  0.00  0.00     0.098 A 
ATOM     12  C   UNL d   1       3.772   4.895  -0.255  0.00  0.00     0.134 A 
ATOM     13  F   UNL d   1       2.832   5.034   0.691  0.00  0.00    -0.205 F 
ATOM     14  C   UNL d   1       4.725   5.908  -0.379  0.00  0.00     0.043 A 
ATOM     15  C   UNL d   1       5.697   5.829  -1.374  0.00  0.00     0.006 A 
ATOM     16  C   UNL d   1       5.706   4.739  -2.242  0.00  0.00     0.043 A 
ATOM     17  C   UNL d   1       4.753   3.727  -2.104  0.00  0.00     0.134 A 
ATOM     18  F   UNL d   1       4.822   2.679  -2.936  0.00  0.00    -0.205 F 
ENDBRANCH   9  11
ENDBRANCH   8   9
ENDBRANCH   1   8
BRANCH   2  19
ATOM     19  C   UNL d   1      -0.911   2.387   0.094  0.00  0.00    -0.006 A 
ATOM     20  C   UNL d   1      -1.984   2.494  -0.811  0.00  0.00     0.015 A 
ATOM     21  C   UNL d   1      -2.784   3.644  -0.852  0.00  0.00     0.024 A 
ATOM     22  C   UNL d   1      -2.517   4.695   0.015  0.00  0.00     0.034 A 
ATOM     23  C   UNL d   1      -1.459   4.610   0.918  0.00  0.00     0.024 A 
ATOM     24 CL   UNL d   1      -3.507   6.103  -0.012  0.00  0.00    -0.084 Cl
ATOM     25  C   UNL d   1      -0.665   3.457   0.963  0.00  0.00     0.015 A 
ENDBRANCH   2  19
BRANCH   5  26
ATOM     26  S   UNL d   1       2.608  -1.699   0.594  0.00  0.00    -0.114 SA
ATOM     27  C   UNL d   1       4.113  -0.843   1.064  0.00  0.00     0.097 C 
ENDBRANCH   5  26
TORSDOF 5
