REMARK  6 active torsions:
REMARK  status: ('A' for Active; 'I' for Inactive)
REMARK    1  A    between atoms: C_4  and  C_1 
REMARK    2  A    between atoms: C_8  and  C_4 
REMARK    3  A    between atoms: C_9  and  C_4 
REMARK    4  A    between atoms: O_22  and  C_7 
REMARK    5  A    between atoms: N_12  and  C_10 
REMARK    6  A    between atoms: N_13  and  C_11 
ROOT
ATOM      1  C   UNL d   1       1.460   2.468   0.021  0.00  0.00     0.085 C 
ENDROOT
BRANCH   1   2
ATOM      2  C   UNL d   1       0.811   1.073   0.056  0.00  0.00    -0.039 A 
ATOM      3  C   UNL d   1       1.071   0.229   1.164  0.00  0.00     0.018 A 
ATOM      4  C   UNL d   1       0.597  -1.093   1.284  0.00  0.00    -0.028 A 
ATOM      5  C   UNL d   1       1.066  -1.847   2.496  0.00  0.00     0.051 C 
ATOM      6  C   UNL d   1      -0.227  -1.588   0.274  0.00  0.00     0.074 A 
ATOM      7  C   UNL d   1      -0.502  -0.759  -0.833  0.00  0.00     0.044 A 
ATOM      8  C   UNL d   1       0.026   0.538  -0.979  0.00  0.00    -0.052 A 
ATOM      9  C   UNL d   1      -0.325   1.282  -2.240  0.00  0.00     0.049 C 
BRANCH   6  10
ATOM     10  O   UNL d   1      -0.833  -2.804   0.146  0.00  0.00    -0.355 OA
ATOM     11  C   UNL d   1      -0.725  -3.779   1.165  0.00  0.00     0.210 C 
ENDBRANCH   6  10
ENDBRANCH   1   2
BRANCH   1  12
ATOM     12  C   UNL d   1       1.053   3.337   1.235  0.00  0.00    -0.045 A 
ATOM     13  C   UNL d   1       1.747   3.266   2.450  0.00  0.00     0.010 A 
ATOM     14  C   UNL d   1       1.507   4.178   3.484  0.00  0.00     0.030 A 
ATOM     15  C   UNL d   1       0.576   5.217   3.361  0.00  0.00     0.029 A 
ATOM     16  C   UNL d   1      -0.168   5.227   2.166  0.00  0.00     0.030 A 
ATOM     17  C   UNL d   1       0.050   4.304   1.125  0.00  0.00     0.010 A 
BRANCH  15  18
ATOM     18  N   UNL d   1       0.466   6.228   4.309  0.00  0.00    -0.390 N 
ATOM     19  C   UNL d   1      -0.813   6.881   4.570  0.00  0.00     0.149 C 
ATOM     20  C   UNL d   1       1.438   6.346   5.395  0.00  0.00     0.149 C 
ENDBRANCH  15  18
ENDBRANCH   1  12
BRANCH   1  21
ATOM     21  C   UNL d   1       2.999   2.472  -0.165  0.00  0.00    -0.045 A 
ATOM     22  C   UNL d   1       3.752   1.310  -0.347  0.00  0.00     0.010 A 
ATOM     23  C   UNL d   1       5.153   1.348  -0.302  0.00  0.00     0.030 A 
ATOM     24  C   UNL d   1       5.872   2.534  -0.089  0.00  0.00     0.029 A 
ATOM     25  C   UNL d   1       5.114   3.707  -0.025  0.00  0.00     0.030 A 
ATOM     26  C   UNL d   1       3.710   3.683  -0.079  0.00  0.00     0.010 A 
BRANCH  24  27
ATOM     27  N   UNL d   1       7.264   2.509  -0.012  0.00  0.00    -0.390 N 
ATOM     28  C   UNL d   1       7.888   1.476   0.820  0.00  0.00     0.149 C 
ATOM     29  C   UNL d   1       8.033   3.746  -0.110  0.00  0.00     0.149 C 
ENDBRANCH  24  27
ENDBRANCH   1  21
TORSDOF 6
