REMARK  4 active torsions:
REMARK  status: ('A' for Active; 'I' for Inactive)
REMARK    1  A    between atoms: C_4  and  C_2 
REMARK    2  A    between atoms: C_10  and  C_2 
REMARK    3  A    between atoms: C_6  and  C_4 
REMARK    4  A    between atoms: C_13  and  C_6 
ROOT
ATOM      1  C   UNL d   1      -2.042   0.306   0.201  0.00  0.00     0.001 C 
ATOM      2  C   UNL d   1      -3.198   0.046  -0.451  0.00  0.00    -0.030 C 
ATOM      3  C   UNL d   1      -1.030  -0.779   0.398  0.00  0.00     0.189 C 
ATOM      4  C   UNL d   1       0.393  -0.372   0.251  0.00  0.00     0.021 A 
ATOM      5  C   UNL d   1      -1.588   1.628   0.765  0.00  0.00     0.048 C 
ATOM      6  O   UNL d   1      -1.335  -1.937   0.651  0.00  0.00    -0.287 OA
ATOM      7  C   UNL d   1       0.744   0.979   0.078  0.00  0.00    -0.044 A 
ATOM      8  C   UNL d   1      -0.306   2.062   0.054  0.00  0.00     0.044 C 
ATOM      9  C   UNL d   1       1.375  -1.368   0.243  0.00  0.00     0.016 A 
ATOM     10  C   UNL d   1       2.091   1.307  -0.132  0.00  0.00     0.008 A 
ATOM     11  C   UNL d   1       2.712  -1.026   0.039  0.00  0.00     0.001 A 
ATOM     12  C   UNL d   1       3.066   0.308  -0.150  0.00  0.00     0.001 A 
ENDROOT
BRANCH   2  13
ATOM     13  C   UNL d   1      -3.564  -1.273  -1.110  0.00  0.00     0.124 C 
BRANCH  13  14
ATOM     14  C   UNL d   1      -4.326  -2.206  -0.172  0.00  0.00     0.163 C 
ATOM     15  O   UNL d   1      -4.738  -1.875   0.936  0.00  0.00    -0.292 OA
BRANCH  14  16
ATOM     16  C   UNL d   1      -4.619  -3.592  -0.639  0.00  0.00     0.010 A 
ATOM     17  C   UNL d   1      -4.721  -4.599   0.331  0.00  0.00     0.015 A 
ATOM     18  C   UNL d   1      -5.100  -5.891  -0.031  0.00  0.00     0.001 A 
ATOM     19  C   UNL d   1      -5.384  -6.184  -1.364  0.00  0.00     0.000 A 
ATOM     20  C   UNL d   1      -5.262  -5.192  -2.338  0.00  0.00     0.001 A 
ATOM     21  C   UNL d   1      -4.872  -3.897  -1.981  0.00  0.00     0.015 A 
ENDBRANCH  14  16
ENDBRANCH  13  14
ENDBRANCH   2  13
BRANCH   2  22
ATOM     22  C   UNL d   1      -4.196   1.119  -0.636  0.00  0.00    -0.029 A 
ATOM     23  C   UNL d   1      -4.130   1.970  -1.746  0.00  0.00     0.012 A 
ATOM     24  C   UNL d   1      -5.056   3.005  -1.893  0.00  0.00     0.001 A 
ATOM     25  C   UNL d   1      -6.052   3.195  -0.935  0.00  0.00     0.000 A 
ATOM     26  C   UNL d   1      -6.124   2.350   0.171  0.00  0.00     0.001 A 
ATOM     27  C   UNL d   1      -5.198   1.317   0.322  0.00  0.00     0.012 A 
ENDBRANCH   2  22
TORSDOF 4
