REMARK  7 active torsions:
REMARK  status: ('A' for Active; 'I' for Inactive)
REMARK    1  A    between atoms: C_9  and  C_3 
REMARK    2  A    between atoms: C_17  and  N_4 
REMARK    3  A    between atoms: C_14  and  C_5 
REMARK    4  A    between atoms: C_10  and  C_6 
REMARK    5  A    between atoms: N_7  and  C_13 
REMARK    6  A    between atoms: O_23  and  C_10 
REMARK    7  A    between atoms: C_26  and  O_23 
ROOT
ATOM      1  C   UNL d   1      -1.641   2.223  -0.977  0.00  0.00     0.120 C 
ATOM      2  C   UNL d   1      -0.969   2.716   0.085  0.00  0.00     0.044 C 
ATOM      3  C   UNL d   1      -1.380   2.630  -2.310  0.00  0.00     0.105 C 
ATOM      4  N   UNL d   1      -1.161   2.971  -3.398  0.00  0.00    -0.191 NA
ENDROOT
BRANCH   1   5
ATOM      5  C   UNL d   1      -2.602   1.126  -0.708  0.00  0.00     0.303 C 
ATOM      6  O   UNL d   1      -2.811   0.658   0.403  0.00  0.00    -0.258 OA
BRANCH   5   7
ATOM      7  O   UNL d   1      -3.106   0.646  -1.872  0.00  0.00    -0.317 OA
BRANCH   7   8
ATOM      8  C   UNL d   1      -3.664  -0.677  -1.815  0.00  0.00     0.174 C 
ATOM      9  C   UNL d   1      -2.543  -1.668  -2.072  0.00  0.00     0.034 C 
ENDBRANCH   7   8
ENDBRANCH   5   7
ENDBRANCH   1   5
BRANCH   2  10
ATOM     10  C   UNL d   1       0.110   3.643   0.036  0.00  0.00     0.012 A 
ATOM     11  C   UNL d   1       1.513   3.409  -0.036  0.00  0.00     0.070 A 
ATOM     12  N   UNL d   1       2.171   4.578  -0.104  0.00  0.00    -0.293 N 
ATOM     13  N   UNL d   1       1.223   5.546  -0.001  0.00  0.00    -0.266 N 
ATOM     14  HN  UNL d   1       3.177   4.711  -0.212  1.00  0.00     0.187 HD
ATOM     15  C   UNL d   1      -0.041   5.003   0.075  0.00  0.00     0.130 A 
BRANCH  11  16
ATOM     16  C   UNL d   1       2.231   2.127  -0.058  0.00  0.00    -0.007 A 
ATOM     17  C   UNL d   1       3.441   1.996  -0.760  0.00  0.00     0.016 A 
ATOM     18  C   UNL d   1       4.106   0.764  -0.823  0.00  0.00     0.037 A 
ATOM     19  C   UNL d   1       3.559  -0.351  -0.177  0.00  0.00     0.102 A 
ATOM     20  C   UNL d   1       2.372  -0.233   0.552  0.00  0.00     0.037 A 
ATOM     21  C   UNL d   1       1.724   1.004   0.617  0.00  0.00     0.016 A 
BRANCH  19  22
ATOM     22  N   UNL d   1       4.228  -1.655  -0.261  0.00  0.00    -0.116 N 
ATOM     23  O   UNL d   1       5.285  -1.720  -0.903  0.00  0.00    -0.532 OA
ATOM     24  O   UNL d   1       3.692  -2.615   0.310  0.00  0.00    -0.532 OA
ENDBRANCH  19  22
ENDBRANCH  11  16
BRANCH  13  25
ATOM     25  C   UNL d   1       1.569   6.928   0.034  0.00  0.00     0.056 A 
ATOM     26  C   UNL d   1       2.904   7.321  -0.143  0.00  0.00     0.031 A 
ATOM     27  C   UNL d   1       3.247   8.677  -0.107  0.00  0.00     0.002 A 
ATOM     28  C   UNL d   1       2.267   9.643   0.114  0.00  0.00     0.000 A 
ATOM     29  C   UNL d   1       0.941   9.260   0.296  0.00  0.00     0.002 A 
ATOM     30  C   UNL d   1       0.589   7.909   0.253  0.00  0.00     0.031 A 
ENDBRANCH  13  25
ENDBRANCH   2  10
TORSDOF 7
