REMARK  6 active torsions:
REMARK  status: ('A' for Active; 'I' for Inactive)
REMARK    1  A    between atoms: C_3  and  C_1 
REMARK    2  A    between atoms: O_4  and  C_1 
REMARK    3  A    between atoms: C_5  and  C_2 
REMARK    4  A    between atoms: C_12  and  C_2 
REMARK    5  A    between atoms: C_6  and  O_4 
REMARK    6  A    between atoms: N_7  and  C_5 
ROOT
ATOM      1  C   UNL d   1       1.108   0.272  -0.007  0.00  0.00     0.180 C 
ATOM      2  C   UNL d   1       0.394   0.035  -1.135  0.00  0.00     0.075 C 
ENDROOT
BRANCH   1   3
ATOM      3  C   UNL d   1       0.435   0.385   1.337  0.00  0.00     0.441 C 
ATOM      4  F   UNL d   1       1.324   0.484   2.358  0.00  0.00    -0.164 F 
ATOM      5  F   UNL d   1      -0.358   1.483   1.403  0.00  0.00    -0.164 F 
ATOM      6  F   UNL d   1      -0.342  -0.694   1.604  0.00  0.00    -0.164 F 
ENDBRANCH   1   3
BRANCH   1   7
ATOM      7  O   UNL d   1       2.499   0.293   0.093  0.00  0.00    -0.303 OA
BRANCH   7   8
ATOM      8  C   UNL d   1       3.297   1.018  -0.768  0.00  0.00     0.098 A 
ATOM      9  C   UNL d   1       4.611   0.551  -0.962  0.00  0.00     0.069 A 
ATOM     10  C   UNL d   1       5.466   1.182  -1.870  0.00  0.00     0.050 A 
ATOM     11 CL   UNL d   1       5.204  -0.835  -0.119  0.00  0.00    -0.081 Cl
ATOM     12  C   UNL d   1       5.009   2.284  -2.581  0.00  0.00     0.035 A 
ATOM     13  C   UNL d   1       3.722   2.782  -2.370  0.00  0.00     0.026 A 
ATOM     14 CL   UNL d   1       6.036   3.039  -3.738  0.00  0.00    -0.084 Cl
ATOM     15  C   UNL d   1       2.873   2.164  -1.445  0.00  0.00     0.040 A 
ENDBRANCH   7   8
ENDBRANCH   1   7
BRANCH   2  16
ATOM     16  C   UNL d   1      -1.126   0.035  -1.135  0.00  0.00    -0.033 C 
BRANCH  16  17
ATOM     17  N   UNL d   1      -2.387   0.035  -1.135  0.00  0.00    -0.365 N 
ATOM     18  HN2 UNL d   1      -1.367   0.035  -1.135  1.00  0.00     0.165 HD
ATOM     19  HN1 UNL d   1      -3.407   0.035  -1.135  1.00  0.00     0.165 HD
ENDBRANCH  16  17
ENDBRANCH   2  16
BRANCH   2  20
ATOM     20  C   UNL d   1       0.956  -0.226  -2.497  0.00  0.00    -0.014 A 
ATOM     21  C   UNL d   1       2.021  -1.112  -2.717  0.00  0.00     0.013 A 
ATOM     22  C   UNL d   1       2.518  -1.330  -4.008  0.00  0.00     0.001 A 
ATOM     23  C   UNL d   1       1.925  -0.709  -5.107  0.00  0.00     0.000 A 
ATOM     24  C   UNL d   1       0.836   0.134  -4.917  0.00  0.00     0.001 A 
ATOM     25  C   UNL d   1       0.363   0.379  -3.626  0.00  0.00     0.013 A 
ENDBRANCH   2  20
TORSDOF 6
