REMARK  5 active torsions:
REMARK  status: ('A' for Active; 'I' for Inactive)
REMARK    1  A    between atoms: C_2  and  C_1 
REMARK       I    between atoms: N_5  and  C_2 
REMARK    2  A    between atoms: C_4  and  C_3 
REMARK    3  A    between atoms: C_12  and  N_5 
REMARK    4  A    between atoms: C_9  and  C_12 
REMARK    5  A    between atoms: O_24  and  C_11 
ROOT
ATOM      1  C   UNL d   1       0.325   1.230  -0.140  0.00  0.00     0.062 A 
ATOM      2  C   UNL d   1       0.103   0.235  -1.105  0.00  0.00     0.069 A 
ATOM      3  C   UNL d   1      -0.012   0.947   1.180  0.00  0.00     0.108 A 
ATOM      4  N   UNL d   1      -0.624  -0.190   1.586  0.00  0.00    -0.346 N 
ATOM      5  HN  UNL d   1      -0.897  -0.334   2.559  1.00  0.00     0.167 HD
ATOM      6  C   UNL d   1      -0.496  -0.966  -0.686  0.00  0.00     0.073 A 
ATOM      7  C   UNL d   1      -0.856  -1.121   0.641  0.00  0.00     0.142 A 
ENDROOT
BRANCH   1   8
ATOM      8  C   UNL d   1       1.027   2.490  -0.442  0.00  0.00     0.255 C 
ATOM      9  N   UNL d   1       0.523   3.720   0.005  0.00  0.00    -0.348 N 
ATOM     10  C   UNL d   1      -0.859   3.932   0.430  0.00  0.00     0.153 C 
ATOM     11  O   UNL d   1       2.067   2.373  -1.077  0.00  0.00    -0.267 OA
BRANCH   9  12
ATOM     12  C   UNL d   1       1.249   4.935  -0.383  0.00  0.00     0.164 C 
BRANCH  12  13
ATOM     13  C   UNL d   1       2.426   5.297   0.502  0.00  0.00    -0.037 A 
ATOM     14  C   UNL d   1       3.638   4.594   0.412  0.00  0.00     0.032 A 
ATOM     15  C   UNL d   1       4.755   4.986   1.152  0.00  0.00     0.036 A 
ATOM     16 CL   UNL d   1       6.227   4.107   1.002  0.00  0.00    -0.084 Cl
ATOM     17  C   UNL d   1       4.696   6.095   1.986  0.00  0.00     0.047 A 
ATOM     18  C   UNL d   1       3.501   6.801   2.086  0.00  0.00     0.036 A 
ATOM     19  C   UNL d   1       2.370   6.406   1.362  0.00  0.00     0.032 A 
ATOM     20 CL   UNL d   1       3.428   8.200   3.088  0.00  0.00    -0.084 Cl
ENDBRANCH  12  13
ENDBRANCH   9  12
ENDBRANCH   1   8
BRANCH   2  21
ATOM     21  C   UNL d   1       0.500   0.349  -2.553  0.00  0.00     0.418 C 
ATOM     22  F   UNL d   1       0.668   1.609  -3.030  0.00  0.00    -0.166 F 
ATOM     23  F   UNL d   1       1.637  -0.344  -2.835  0.00  0.00    -0.166 F 
ATOM     24  F   UNL d   1      -0.458  -0.194  -3.365  0.00  0.00    -0.166 F 
ENDBRANCH   2  21
BRANCH   7  25
ATOM     25  O   UNL d   1      -1.462  -2.314   0.972  0.00  0.00    -0.341 OA
ATOM     26  C   UNL d   1      -1.924  -2.352   2.317  0.00  0.00     0.211 C 
ENDBRANCH   7  25
TORSDOF 5
