REMARK  5 active torsions:
REMARK  status: ('A' for Active; 'I' for Inactive)
REMARK    1  A    between atoms: C_2  and  S_1 
REMARK    2  A    between atoms: N_4  and  S_1 
REMARK    3  A    between atoms: C_5  and  C_7 
REMARK    4  A    between atoms: C_18  and  C_6 
REMARK    5  A    between atoms: C_10  and  N_9 
ROOT
ATOM      1  N   UNL d   1       0.545  -1.096  -1.229  0.00  0.00    -0.204 NA
ATOM      2  N   UNL d   1       0.931  -2.610  -3.808  0.00  0.00    -0.366 N 
ATOM      3  C   UNL d   1       0.808  -0.468  -2.586  0.00  0.00     0.127 C 
ATOM      4  C   UNL d   1       0.286  -1.298  -3.771  0.00  0.00     0.140 C 
ATOM      5  C   UNL d   1       0.542  -3.608  -1.579  0.00  0.00     0.035 C 
ATOM      6  C   UNL d   1       1.294  -2.389  -1.053  0.00  0.00     0.109 C 
ATOM      7  C   UNL d   1       0.277  -3.677  -3.077  0.00  0.00     0.125 C 
ENDROOT
BRANCH   1   8
ATOM      8  S   UNL d   1       0.949   0.007   0.052  0.00  0.00     0.250 S 
ATOM      9  O   UNL d   1       0.677  -0.648   1.318  0.00  0.00    -0.205 OA
ATOM     10  O   UNL d   1       2.258   0.555  -0.239  0.00  0.00    -0.205 OA
BRANCH   8  11
ATOM     11  C   UNL d   1      -0.150   1.402   0.019  0.00  0.00     0.116 A 
ATOM     12  S   UNL d   1      -1.806   1.049   0.211  0.00  0.00    -0.075 SA
ATOM     13  C   UNL d   1      -2.253   2.709   0.194  0.00  0.00     0.033 A 
ATOM     14  C   UNL d   1      -1.139   3.509   0.001  0.00  0.00     0.023 A 
ATOM     15  C   UNL d   1       0.070   2.759  -0.101  0.00  0.00     0.034 A 
BRANCH  13  16
ATOM     16  C   UNL d   1      -3.662   3.110   0.319  0.00  0.00     0.049 A 
ATOM     17  N   UNL d   1      -3.964   4.282  -0.293  0.00  0.00    -0.365 N 
ATOM     18  C   UNL d   1      -5.259   4.672  -0.279  0.00  0.00     0.088 A 
ATOM     19  HN  UNL d   1      -3.245   4.846  -0.745  1.00  0.00     0.165 HD
ATOM     20  C   UNL d   1      -6.276   3.954   0.325  0.00  0.00     0.017 A 
ATOM     21  C   UNL d   1      -5.947   2.773   0.975  0.00  0.00     0.004 A 
ATOM     22  C   UNL d   1      -4.621   2.345   0.980  0.00  0.00     0.031 A 
ENDBRANCH  13  16
ENDBRANCH   8  11
ENDBRANCH   1   8
BRANCH   2  23
ATOM     23  C   UNL d   1       1.988  -2.846  -4.659  0.00  0.00     0.102 A 
ATOM     24  N   UNL d   1       2.076  -2.129  -5.799  0.00  0.00    -0.352 N 
ATOM     25  C   UNL d   1       3.092  -2.385  -6.660  0.00  0.00     0.106 A 
ATOM     26  HN  UNL d   1       1.390  -1.404  -6.009  1.00  0.00     0.166 HD
ATOM     27  C   UNL d   1       4.090  -3.314  -6.431  0.00  0.00     0.063 A 
ATOM     28  C   UNL d   1       4.023  -4.026  -5.236  0.00  0.00     0.021 A 
ATOM     29  C   UNL d   1       2.963  -3.797  -4.357  0.00  0.00     0.049 A 
BRANCH  27  30
ATOM     30  C   UNL d   1       5.193  -3.530  -7.418  0.00  0.00     0.418 C 
ATOM     31  F   UNL d   1       5.078  -2.773  -8.543  0.00  0.00    -0.166 F 
ATOM     32  F   UNL d   1       6.419  -3.243  -6.899  0.00  0.00    -0.166 F 
ATOM     33  F   UNL d   1       5.264  -4.822  -7.845  0.00  0.00    -0.166 F 
ENDBRANCH  27  30
ENDBRANCH   2  23
TORSDOF 5
