REMARK  5 active torsions:
REMARK  status: ('A' for Active; 'I' for Inactive)
REMARK    1  A    between atoms: C_3  and  C_1 
REMARK       I    between atoms: N_4  and  C_1 
REMARK    2  A    between atoms: C_2  and  C_3 
REMARK       I    between atoms: N_5  and  C_2 
REMARK    3  A    between atoms: C_8  and  C_3 
REMARK    4  A    between atoms: C_9  and  N_4 
REMARK    5  A    between atoms: C_10  and  N_5 
ROOT
ATOM      1  C   UNL d   1       0.351   0.272   1.144  0.00  0.00     0.203 C 
ENDROOT
BRANCH   1   2
ATOM      2  C   UNL d   1      -0.439  -0.840   1.839  0.00  0.00     0.239 C 
ATOM      3  N   UNL d   1      -1.066  -0.717   3.043  0.00  0.00    -0.326 N 
ATOM      4  H   UNL d   1      -1.411  -1.622   3.347  0.00  0.00     0.169 HD
ATOM      5  O   UNL d   1      -0.528  -1.973   1.333  0.00  0.00    -0.272 OA
BRANCH   3   6
ATOM      6  C   UNL d   1      -1.188   0.318   3.982  0.00  0.00     0.034 A 
ATOM      7  C   UNL d   1      -1.026   1.671   3.708  0.00  0.00     0.029 A 
ATOM      8  C   UNL d   1      -1.053   2.611   4.743  0.00  0.00     0.002 A 
ATOM      9  C   UNL d   1      -1.276   2.206   6.056  0.00  0.00     0.000 A 
ATOM     10  C   UNL d   1      -1.516   0.864   6.330  0.00  0.00     0.002 A 
ATOM     11  C   UNL d   1      -1.486  -0.072   5.295  0.00  0.00     0.029 A 
ENDBRANCH   3   6
ENDBRANCH   1   2
BRANCH   1  12
ATOM     12  C   UNL d   1       0.881  -0.086  -0.268  0.00  0.00     0.239 C 
ATOM     13  N   UNL d   1       1.153  -1.421  -0.502  0.00  0.00    -0.326 N 
ATOM     14  H   UNL d   1       0.701  -2.080   0.134  0.00  0.00     0.169 HD
ATOM     15  O   UNL d   1       1.076   0.819  -1.087  0.00  0.00    -0.272 OA
BRANCH  13  16
ATOM     16  C   UNL d   1       1.724  -1.989  -1.657  0.00  0.00     0.034 A 
ATOM     17  C   UNL d   1       2.446  -1.258  -2.600  0.00  0.00     0.029 A 
ATOM     18  C   UNL d   1       2.947  -1.883  -3.746  0.00  0.00     0.002 A 
ATOM     19  C   UNL d   1       2.733  -3.244  -3.953  0.00  0.00     0.000 A 
ATOM     20  C   UNL d   1       2.042  -3.989  -3.000  0.00  0.00     0.002 A 
ATOM     21  C   UNL d   1       1.550  -3.365  -1.851  0.00  0.00     0.029 A 
ENDBRANCH  13  16
ENDBRANCH   1  12
BRANCH   1  22
ATOM     22  C   UNL d   1       1.519   0.860   1.941  0.00  0.00    -0.036 A 
ATOM     23  C   UNL d   1       2.252   0.106   2.868  0.00  0.00     0.008 A 
ATOM     24  C   UNL d   1       3.375   0.654   3.495  0.00  0.00     0.001 A 
ATOM     25  C   UNL d   1       3.787   1.951   3.200  0.00  0.00     0.000 A 
ATOM     26  C   UNL d   1       3.063   2.719   2.293  0.00  0.00     0.001 A 
ATOM     27  C   UNL d   1       1.936   2.179   1.671  0.00  0.00     0.008 A 
ENDBRANCH   1  22
TORSDOF 5
