REMARK  3 active torsions:
REMARK  status: ('A' for Active; 'I' for Inactive)
REMARK    1  A    between atoms: S_2  and  N_1 
REMARK    2  A    between atoms: C_9  and  S_2 
REMARK    3  A    between atoms: C_8  and  C_3 
ROOT
ATOM      1  N   UNL d   1       1.614   1.146  -0.017  0.00  0.00    -0.176 N 
ATOM      2  C   UNL d   1       1.670  -0.999   0.047  0.00  0.00     0.147 C 
ATOM      3  N   UNL d   1       2.466   0.084   0.103  0.00  0.00    -0.279 N 
ATOM      4  HN  UNL d   1       3.480   0.107   0.212  1.00  0.00     0.188 HD
ATOM      5  C   UNL d   1       0.298  -0.627   0.027  0.00  0.00     0.042 A 
ATOM      6  C   UNL d   1       0.281   0.771   0.027  0.00  0.00     0.084 A 
ATOM      7  N   UNL d   1      -2.087  -0.662   0.008  0.00  0.00    -0.374 N 
ATOM      8  HN  UNL d   1      -2.971  -1.172   0.000  1.00  0.00     0.164 HD
ATOM      9  C   UNL d   1      -0.911  -1.331   0.011  0.00  0.00     0.103 A 
ATOM     10  C   UNL d   1      -0.933   1.471   0.029  0.00  0.00     0.050 A 
ATOM     11  C   UNL d   1      -2.078   0.686   0.015  0.00  0.00     0.090 A 
ENDROOT
BRANCH   1  12
ATOM     12  S   UNL d   1       2.151   2.803  -0.041  0.00  0.00     0.282 S 
ATOM     13  O   UNL d   1       3.496   2.784  -0.585  0.00  0.00    -0.198 OA
ATOM     14  O   UNL d   1       1.088   3.570  -0.662  0.00  0.00    -0.198 OA
BRANCH  12  15
ATOM     15  C   UNL d   1       2.264   3.254   1.670  0.00  0.00     0.081 A 
ATOM     16  C   UNL d   1       3.127   2.551   2.517  0.00  0.00     0.027 A 
ATOM     17  C   UNL d   1       3.234   2.930   3.858  0.00  0.00     0.025 A 
ATOM     18  C   UNL d   1       2.491   4.010   4.338  0.00  0.00     0.034 A 
ATOM     19  C   UNL d   1       1.649   4.725   3.485  0.00  0.00     0.025 A 
ATOM     20 CL   UNL d   1       2.619   4.468   5.990  0.00  0.00    -0.084 Cl
ATOM     21  C   UNL d   1       1.536   4.351   2.144  0.00  0.00     0.027 A 
ENDBRANCH  12  15
ENDBRANCH   1  12
BRANCH   2  22
ATOM     22  C   UNL d   1       2.187  -2.412   0.035  0.00  0.00     0.434 C 
ATOM     23  F   UNL d   1       3.541  -2.497   0.045  0.00  0.00    -0.165 F 
ATOM     24  F   UNL d   1       1.740  -3.111   1.113  0.00  0.00    -0.165 F 
ATOM     25  F   UNL d   1       1.757  -3.086  -1.065  0.00  0.00    -0.165 F 
ENDBRANCH   2  22
TORSDOF 3
