REMARK  4 active torsions:
REMARK  status: ('A' for Active; 'I' for Inactive)
REMARK    1  A    between atoms: C_8  and  N_1 
REMARK    2  A    between atoms: S_10  and  C_2 
REMARK    3  A    between atoms: C_11  and  C_7 
REMARK    4  A    between atoms: C_12  and  C_8 
ROOT
ATOM      1  N   UNL d   1       1.416  -1.055  -0.198  0.00  0.00    -0.288 N 
ATOM      2  C   UNL d   1       0.098  -1.368  -0.097  0.00  0.00     0.149 A 
ATOM      3  C   UNL d   1       1.506   0.306  -0.197  0.00  0.00     0.276 A 
ATOM      4  C   UNL d   1       0.084   0.737  -0.101  0.00  0.00     0.104 A 
ATOM      5  N   UNL d   1      -0.730  -0.370  -0.045  0.00  0.00    -0.332 N 
ATOM      6  HN  UNL d   1      -1.747  -0.400   0.022  1.00  0.00     0.168 HD
ATOM      7  C   UNL d   1      -0.273   2.023  -0.055  0.00  0.00     0.046 C 
ATOM      8  O   UNL d   1       2.494   1.018  -0.221  0.00  0.00    -0.265 OA
ENDROOT
BRANCH   1   9
ATOM      9  C   UNL d   1       2.590  -1.907  -0.174  0.00  0.00     0.173 C 
BRANCH   9  10
ATOM     10  C   UNL d   1       3.101  -2.285  -1.547  0.00  0.00    -0.040 A 
ATOM     11  C   UNL d   1       4.039  -1.476  -2.209  0.00  0.00     0.010 A 
ATOM     12  C   UNL d   1       4.577  -1.869  -3.438  0.00  0.00     0.024 A 
ATOM     13  C   UNL d   1       4.171  -3.067  -4.021  0.00  0.00     0.034 A 
ATOM     14  C   UNL d   1       3.219  -3.866  -3.394  0.00  0.00     0.024 A 
ATOM     15 CL   UNL d   1       4.860  -3.572  -5.515  0.00  0.00    -0.084 Cl
ATOM     16  C   UNL d   1       2.685  -3.475  -2.163  0.00  0.00     0.010 A 
ENDBRANCH   9  10
ENDBRANCH   1   9
BRANCH   2  17
ATOM     17  S   UNL d   1      -0.404  -3.024  -0.028  0.00  0.00    -0.098 SA
ATOM     18  C   UNL d   1      -2.198  -2.839   0.072  0.00  0.00     0.099 C 
ENDBRANCH   2  17
BRANCH   7  19
ATOM     19  C   UNL d   1      -1.663   2.471   0.044  0.00  0.00    -0.034 A 
ATOM     20  C   UNL d   1      -2.259   2.672   1.294  0.00  0.00     0.013 A 
ATOM     21  C   UNL d   1      -3.580   3.124   1.377  0.00  0.00     0.024 A 
ATOM     22  C   UNL d   1      -4.302   3.370   0.211  0.00  0.00     0.034 A 
ATOM     23  C   UNL d   1      -3.720   3.160  -1.038  0.00  0.00     0.024 A 
ATOM     24 CL   UNL d   1      -5.921   3.943   0.312  0.00  0.00    -0.084 Cl
ATOM     25  C   UNL d   1      -2.401   2.709  -1.121  0.00  0.00     0.013 A 
ENDBRANCH   7  19
TORSDOF 4
