REMARK  4 active torsions:
REMARK  status: ('A' for Active; 'I' for Inactive)
REMARK    1  A    between atoms: C_2  and  C_1 
REMARK       I    between atoms: N_3  and  C_2 
REMARK    2  A    between atoms: C_10  and  N_3 
REMARK    3  A    between atoms: C_11  and  N_4 
REMARK    4  A    between atoms: C_16  and  C_11 
ROOT
ATOM      1  N   UNL d   1       4.695  -3.277  -0.786  0.00  0.00     0.092 N 
ATOM      2  C   UNL d   1       3.919  -0.555  -0.056  0.00  0.00     0.088 C 
ATOM      3  C   UNL d   1       4.505  -0.832  -1.437  0.00  0.00     0.055 C 
ATOM      4  C   UNL d   1       4.679  -1.422   0.943  0.00  0.00     0.055 C 
ATOM      5  C   UNL d   1       4.362  -2.897   0.605  0.00  0.00     0.275 C 
ATOM      6  C   UNL d   1       4.212  -2.294  -1.784  0.00  0.00     0.275 C 
ENDROOT
BRANCH   2   7
ATOM      7  N   UNL d   1       3.800   0.868   0.256  0.00  0.00    -0.352 N 
ATOM      8  C   UNL d   1       2.570   1.480   0.029  0.00  0.00     0.252 C 
ATOM      9  O   UNL d   1       1.595   0.826  -0.350  0.00  0.00    -0.268 OA
ATOM     10  H   UNL d   1       4.624   1.428   0.427  0.00  0.00     0.163 HD
BRANCH   8  11
ATOM     11  C   UNL d   1       2.437   2.926   0.226  0.00  0.00     0.038 A 
ATOM     12  C   UNL d   1       1.209   3.535  -0.007  0.00  0.00     0.066 A 
ATOM     13  S   UNL d   1       1.226   5.226   0.205  0.00  0.00    -0.113 SA
ATOM     14  C   UNL d   1       2.873   5.191   0.650  0.00  0.00     0.050 A 
ATOM     15  C   UNL d   1       3.392   3.909   0.649  0.00  0.00     0.024 A 
ENDBRANCH   8  11
ENDBRANCH   2   7
BRANCH   1  16
ATOM     16  C   UNL d   1       4.093  -4.591  -1.146  0.00  0.00     0.311 C 
BRANCH  16  17
ATOM     17  C   UNL d   1       4.521  -5.786  -0.322  0.00  0.00    -0.030 A 
ATOM     18  C   UNL d   1       3.571  -6.521   0.407  0.00  0.00     0.009 A 
ATOM     19  C   UNL d   1       3.946  -7.661   1.123  0.00  0.00     0.001 A 
ATOM     20  C   UNL d   1       5.272  -8.088   1.108  0.00  0.00     0.000 A 
ATOM     21  C   UNL d   1       6.221  -7.378   0.374  0.00  0.00     0.001 A 
ATOM     22  C   UNL d   1       5.849  -6.232  -0.336  0.00  0.00     0.009 A 
ENDBRANCH  16  17
ENDBRANCH   1  16
TORSDOF 4
