REMARK  5 active torsions:
REMARK  status: ('A' for Active; 'I' for Inactive)
REMARK    1  A    between atoms: C_2  and  C_1 
REMARK    2  A    between atoms: C_3  and  C_1 
REMARK    3  A    between atoms: C_5  and  C_4 
REMARK    4  A    between atoms: C_7  and  C_6 
REMARK    5  A    between atoms: N_12  and  C_8 
ROOT
ATOM      1  C   UNL d   1       2.408  -0.102  -0.011  0.00  0.00     0.182 C 
ATOM      2  O   UNL d   1       1.335  -0.143  -0.606  0.00  0.00    -0.288 OA
ENDROOT
BRANCH   1   3
ATOM      3  C   UNL d   1       2.860   1.182   0.596  0.00  0.00     0.014 A 
ATOM      4  C   UNL d   1       2.333   2.371   0.071  0.00  0.00     0.016 A 
ATOM      5  C   UNL d   1       2.654   3.606   0.640  0.00  0.00     0.007 A 
ATOM      6  C   UNL d   1       3.497   3.673   1.754  0.00  0.00    -0.062 A 
ATOM      7  C   UNL d   1       4.032   2.487   2.273  0.00  0.00     0.007 A 
ATOM      8  C   UNL d   1       3.805   5.004   2.375  0.00  0.00     0.048 C 
ATOM      9  C   UNL d   1       3.716   1.247   1.701  0.00  0.00     0.016 A 
ENDBRANCH   1   3
BRANCH   1  10
ATOM     10  C   UNL d   1       3.283  -1.305   0.093  0.00  0.00     0.055 C 
ATOM     11  C   UNL d   1       2.756  -2.508  -0.188  0.00  0.00     0.004 C 
BRANCH  11  12
ATOM     12  C   UNL d   1       3.503  -3.748  -0.163  0.00  0.00     0.000 C 
ATOM     13  C   UNL d   1       2.938  -4.940  -0.421  0.00  0.00     0.001 C 
BRANCH  13  14
ATOM     14  C   UNL d   1       3.680  -6.184  -0.411  0.00  0.00     0.017 C 
ATOM     15  C   UNL d   1       3.132  -7.383  -0.662  0.00  0.00     0.084 C 
BRANCH  15  16
ATOM     16  N   UNL d   1       3.718  -8.641  -0.689  0.00  0.00    -0.398 N 
ATOM     17  C   UNL d   1       5.141  -8.897  -0.472  0.00  0.00     0.148 C 
ATOM     18  C   UNL d   1       2.949  -9.845  -1.014  0.00  0.00     0.148 C 
ENDBRANCH  15  16
ENDBRANCH  13  14
ENDBRANCH  11  12
ENDBRANCH   1  10
TORSDOF 5
