REMARK  1 active torsions:
REMARK  status: ('A' for Active; 'I' for Inactive)
REMARK    1  A    between atoms: C_2  and  C_1 
REMARK       I    between atoms: N_3  and  C_2 
ROOT
ATOM      1  C   UNL d   1      -1.476   0.259   0.077  0.00  0.00     0.042 C 
ATOM      2  C   UNL d   1      -0.721   0.950   1.240  0.00  0.00     0.024 C 
ATOM      3  C   UNL d   1      -0.921   0.602  -1.330  0.00  0.00     0.024 C 
ATOM      4  C   UNL d   1      -1.198  -1.270   0.258  0.00  0.00     0.024 C 
ATOM      5  C   UNL d   1       0.320  -1.567   0.168  0.00  0.00    -0.013 C 
ATOM      6  C   UNL d   1       0.788   0.710   1.122  0.00  0.00    -0.013 C 
ATOM      7  C   UNL d   1       0.594   0.390  -1.379  0.00  0.00    -0.013 C 
ATOM      8  C   UNL d   1       1.062  -0.794   1.270  0.00  0.00     0.009 C 
ATOM      9  C   UNL d   1       0.867  -1.108  -1.193  0.00  0.00     0.009 C 
ATOM     10  C   UNL d   1       1.267   1.197  -0.255  0.00  0.00     0.009 C 
ENDROOT
BRANCH   1  11
ATOM     11  C   UNL d   1      -2.988   0.574   0.162  0.00  0.00     0.228 C 
ATOM     12  N   UNL d   1      -3.428   1.890   0.025  0.00  0.00    -0.347 N 
ATOM     13  C   UNL d   1      -2.656   3.076  -0.380  0.00  0.00     0.152 C 
ATOM     14  C   UNL d   1      -4.871   2.155   0.064  0.00  0.00     0.152 C 
ATOM     15  C   UNL d   1      -3.031   4.297   0.458  0.00  0.00     0.187 C 
ATOM     16  O   UNL d   1      -4.440   4.547   0.401  0.00  0.00    -0.388 OA
ATOM     17  C   UNL d   1      -5.169   3.410   0.891  0.00  0.00     0.187 C 
ATOM     18  O   UNL d   1      -3.787  -0.336   0.382  0.00  0.00    -0.273 OA
ENDBRANCH   1  11
TORSDOF 1
