REMARK  3 active torsions:
REMARK  status: ('A' for Active; 'I' for Inactive)
REMARK    1  A    between atoms: C_4  and  C_1 
REMARK    2  A    between atoms: C_9  and  C_3 
REMARK    3  A    between atoms: C_5  and  C_4 
ROOT
ATOM      1  C   UNL d   1       0.114   1.316  -0.021  0.00  0.00     0.056 A 
ATOM      2  S   UNL d   1      -1.027   0.045  -0.102  0.00  0.00    -0.090 SA
ATOM      3  C   UNL d   1       0.177  -1.186  -0.011  0.00  0.00    -0.009 A 
ATOM      4  C   UNL d   1       1.400   0.810   0.017  0.00  0.00     0.024 A 
ATOM      5  C   UNL d   1       1.436  -0.613   0.035  0.00  0.00     0.017 A 
ENDROOT
BRANCH   1   6
ATOM      6  C   UNL d   1      -0.235   2.736  -0.114  0.00  0.00     0.205 C 
ATOM      7  O   UNL d   1       0.554   3.538  -0.610  0.00  0.00    -0.286 OA
BRANCH   6   8
ATOM      8  C   UNL d   1      -1.520   3.156   0.444  0.00  0.00     0.056 A 
ATOM      9  S   UNL d   1      -2.307   4.513  -0.265  0.00  0.00    -0.098 SA
ATOM     10  C   UNL d   1      -3.608   4.431   0.838  0.00  0.00     0.050 A 
ATOM     11  C   UNL d   1      -3.450   3.409   1.745  0.00  0.00     0.009 A 
ATOM     12  C   UNL d   1      -2.241   2.685   1.528  0.00  0.00     0.023 A 
ENDBRANCH   6   8
ENDBRANCH   1   6
BRANCH   3  13
ATOM     13  C   UNL d   1      -0.208  -2.673  -0.013  0.00  0.00    -0.018 C 
ATOM     14  C   UNL d   1      -0.959  -3.039  -1.309  0.00  0.00     0.020 C 
ATOM     15  C   UNL d   1       1.050  -3.569   0.068  0.00  0.00     0.020 C 
ATOM     16  C   UNL d   1      -1.094  -3.009   1.202  0.00  0.00     0.020 C 
ENDBRANCH   3  13
TORSDOF 3
