REMARK  4 active torsions:
REMARK  status: ('A' for Active; 'I' for Inactive)
REMARK    1  A    between atoms: C_3  and  C_1 
REMARK    2  A    between atoms: C_7  and  C_1 
REMARK    3  A    between atoms: C_12  and  C_2 
REMARK    4  A    between atoms: N_4  and  C_3 
ROOT
ATOM      1  C   UNL d   1       0.940  -0.066   0.045  0.00  0.00     0.054 C 
ATOM      2  C   UNL d   1       0.281  -1.245   0.061  0.00  0.00     0.036 C 
ENDROOT
BRANCH   1   3
ATOM      3  C   UNL d   1       2.460  -0.066   0.045  0.00  0.00    -0.035 C 
BRANCH   3   4
ATOM      4  N   UNL d   1       3.721  -0.066   0.045  0.00  0.00    -0.365 N 
ATOM      5  HN2 UNL d   1       2.701  -0.066   0.045  1.00  0.00     0.165 HD
ATOM      6  HN1 UNL d   1       4.741  -0.066   0.045  1.00  0.00     0.165 HD
ENDBRANCH   3   4
ENDBRANCH   1   3
BRANCH   1   7
ATOM      7  C   UNL d   1       0.225   1.235   0.044  0.00  0.00     0.051 A 
ATOM      8  N   UNL d   1      -1.132   1.180   0.069  0.00  0.00    -0.365 N 
ATOM      9  C   UNL d   1      -1.817   2.346   0.076  0.00  0.00     0.088 A 
ATOM     10  HN  UNL d   1      -1.620   0.285   0.081  1.00  0.00     0.165 HD
ATOM     11  C   UNL d   1      -1.217   3.591   0.061  0.00  0.00     0.017 A 
ATOM     12  C   UNL d   1       0.169   3.644   0.034  0.00  0.00     0.004 A 
ATOM     13  C   UNL d   1       0.901   2.458   0.026  0.00  0.00     0.031 A 
ENDBRANCH   1   7
BRANCH   2  14
ATOM     14  C   UNL d   1       0.945  -2.551   0.079  0.00  0.00    -0.019 A 
ATOM     15  C   UNL d   1       1.258  -3.220  -1.102  0.00  0.00     0.099 A 
ATOM     16  N   UNL d   1       1.912  -4.405  -1.152  0.00  0.00    -0.374 N 
ATOM     17  C   UNL d   1       2.279  -4.944   0.031  0.00  0.00     0.087 A 
ATOM     18  HN  UNL d   1       2.117  -4.867  -2.038  1.00  0.00     0.164 HD
ATOM     19  C   UNL d   1       2.010  -4.362   1.259  0.00  0.00     0.018 A 
ATOM     20  C   UNL d   1       1.329  -3.146   1.281  0.00  0.00     0.014 A 
ENDBRANCH   2  14
TORSDOF 4
