REMARK  3 active torsions:
REMARK  status: ('A' for Active; 'I' for Inactive)
REMARK    1  A    between atoms: N_2  and  S_1 
REMARK    2  A    between atoms: C_3  and  S_1 
REMARK    3  A    between atoms: C_6  and  N_2 
ROOT
ATOM      1  S   UNL d   1       1.101  -0.150   0.072  0.00  0.00     0.259 S 
ATOM      2  O   UNL d   1       0.275  -0.203   1.259  0.00  0.00    -0.201 OA
ATOM      3  O   UNL d   1       2.533  -0.325   0.153  0.00  0.00    -0.201 OA
ENDROOT
BRANCH   1   4
ATOM      4  N   UNL d   1       0.749   1.332  -0.641  0.00  0.00    -0.307 N 
ATOM      5  H   UNL d   1       0.212   1.912   0.004  0.00  0.00     0.173 HD
BRANCH   4   6
ATOM      6  C   UNL d   1       1.623   2.041  -1.603  0.00  0.00     0.029 C 
ATOM      7  C   UNL d   1       1.845   1.208  -2.865  0.00  0.00     0.038 C 
ATOM      8  C   UNL d   1       0.891   3.340  -2.003  0.00  0.00     0.038 C 
ATOM      9  C   UNL d   1       2.950   2.446  -0.951  0.00  0.00     0.038 C 
ENDBRANCH   4   6
ENDBRANCH   1   4
BRANCH   1  10
ATOM     10  C   UNL d   1       0.449  -1.360  -1.052  0.00  0.00     0.079 A 
ATOM     11  C   UNL d   1       1.313  -2.257  -1.691  0.00  0.00     0.026 A 
ATOM     12  C   UNL d   1       0.785  -3.285  -2.476  0.00  0.00     0.008 A 
ATOM     13  C   UNL d   1      -0.602  -3.432  -2.614  0.00  0.00    -0.062 A 
ATOM     14  C   UNL d   1      -1.455  -2.524  -1.973  0.00  0.00     0.008 A 
ATOM     15  C   UNL d   1      -1.155  -4.574  -3.417  0.00  0.00     0.048 C 
ATOM     16  C   UNL d   1      -0.933  -1.492  -1.190  0.00  0.00     0.026 A 
ENDBRANCH   1  10
TORSDOF 3
