REMARK  1 active torsions:
REMARK  status: ('A' for Active; 'I' for Inactive)
REMARK    1  A    between atoms: N_7  and  C_6 
ROOT
ATOM      1  C   UNL d   1       1.211   0.954   0.034  0.00  0.00     0.073 A 
ATOM      2  S   UNL d   1      -0.102   2.064   0.008  0.00  0.00    -0.066 SA
ATOM      3  C   UNL d   1      -1.252   0.819   0.012  0.00  0.00     0.088 A 
ATOM      4  C   UNL d   1      -0.694  -0.453   0.011  0.00  0.00     0.032 A 
ATOM      5  C   UNL d   1       0.750  -0.359   0.012  0.00  0.00     0.067 A 
ATOM      6  C   UNL d   1       2.595   1.214   0.043  0.00  0.00     0.103 A 
ATOM      7  N   UNL d   1      -2.562   1.137   0.011  0.00  0.00    -0.354 N 
ATOM      8  HN  UNL d   1      -2.892   2.102   0.015  1.00  0.00     0.166 HD
ATOM      9  C   UNL d   1      -1.604  -1.546   0.002  0.00  0.00    -0.045 A 
ATOM     10  N   UNL d   1       3.425   0.149  -0.013  0.00  0.00    -0.342 N 
ATOM     11  HN  UNL d   1       4.436   0.280  -0.044  1.00  0.00     0.167 HD
ATOM     12  N   UNL d   1       1.607  -1.415  -0.006  0.00  0.00    -0.350 N 
ATOM     13  HN  UNL d   1       1.287  -2.384  -0.003  1.00  0.00     0.166 HD
ATOM     14  C   UNL d   1       2.898  -1.081  -0.028  0.00  0.00     0.182 A 
ATOM     15  C   UNL d   1      -2.976  -1.237  -0.001  0.00  0.00     0.032 A 
ATOM     16  C   UNL d   1      -3.400   0.086   0.003  0.00  0.00     0.006 A 
ATOM     17  C   UNL d   1      -1.216  -2.999  -0.004  0.00  0.00     0.049 C 
ATOM     18  C   UNL d   1      -4.870   0.392  -0.004  0.00  0.00     0.068 C 
ENDROOT
BRANCH   6  19
ATOM     19  N   UNL d   1       3.104   2.514   0.047  0.00  0.00    -0.265 NA
ATOM     20  C   UNL d   1       4.454   2.665  -0.526  0.00  0.00     0.127 C 
ATOM     21  C   UNL d   1       4.771   4.177  -0.666  0.00  0.00     0.286 C 
ATOM     22  N   UNL d   1       4.659   4.914   0.618  0.00  0.00     0.086 N 
ATOM     23  C   UNL d   1       3.328   4.665   1.220  0.00  0.00     0.286 C 
ATOM     24  C   UNL d   1       4.860   6.346   0.409  0.00  0.00     0.310 C 
ATOM     25  C   UNL d   1       3.019   3.158   1.374  0.00  0.00     0.127 C 
ENDBRANCH   6  19
TORSDOF 1
