REMARK  6 active torsions:
REMARK  status: ('A' for Active; 'I' for Inactive)
REMARK    1  A    between atoms: C_2  and  C_1 
REMARK       I    between atoms: N_6  and  C_2 
REMARK    2  A    between atoms: C_5  and  C_3 
REMARK    3  A    between atoms: C_4  and  C_7 
REMARK    4  A    between atoms: C_7  and  N_6 
REMARK    5  A    between atoms: O_19  and  C_13 
REMARK    6  A    between atoms: C_25  and  O_19 
ROOT
ATOM      1  C   UNL d   1       0.420   1.259  -0.233  0.00  0.00     0.062 A 
ATOM      2  C   UNL d   1       0.276   0.278  -1.222  0.00  0.00     0.069 A 
ATOM      3  C   UNL d   1       0.085   0.919   1.071  0.00  0.00     0.108 A 
ATOM      4  N   UNL d   1      -0.425  -0.270   1.444  0.00  0.00    -0.346 N 
ATOM      5  HN  UNL d   1      -0.716  -0.447   2.405  1.00  0.00     0.167 HD
ATOM      6  C   UNL d   1      -0.533  -1.216   0.485  0.00  0.00     0.148 A 
ATOM      7  C   UNL d   1      -0.216  -0.991  -0.843  0.00  0.00     0.073 A 
ENDROOT
BRANCH   1   8
ATOM      8  C   UNL d   1       1.016   2.590  -0.469  0.00  0.00     0.255 C 
ATOM      9  N   UNL d   1       0.374   3.733   0.025  0.00  0.00    -0.348 N 
ATOM     10  C   UNL d   1      -1.048   3.790   0.369  0.00  0.00     0.153 C 
ATOM     11  O   UNL d   1       2.093   2.613  -1.054  0.00  0.00    -0.267 OA
BRANCH   9  12
ATOM     12  C   UNL d   1       0.992   5.034  -0.233  0.00  0.00     0.166 C 
BRANCH  12  13
ATOM     13  C   UNL d   1       2.318   5.368   0.437  0.00  0.00    -0.013 C 
ATOM     14  C   UNL d   1       2.708   4.884   1.705  0.00  0.00     0.044 C 
ATOM     15  C   UNL d   1       3.966   5.175   2.244  0.00  0.00     0.048 C 
ATOM     16 CL   UNL d   1       1.655   3.990   2.748  0.00  0.00    -0.084 Cl
ATOM     17  C   UNL d   1       4.847   5.994   1.554  0.00  0.00     0.036 C 
ATOM     18  C   UNL d   1       4.458   6.567   0.352  0.00  0.00     0.031 C 
ATOM     19 CL   UNL d   1       6.394   6.351   2.216  0.00  0.00    -0.084 Cl
ATOM     20  C   UNL d   1       3.194   6.292  -0.203  0.00  0.00    -0.051 C 
ATOM     21  C   UNL d   1       2.838   7.081  -1.441  0.00  0.00     0.049 C 
ENDBRANCH  12  13
ENDBRANCH   9  12
ENDBRANCH   1   8
BRANCH   2  22
ATOM     22  C   UNL d   1       0.651   0.475  -2.668  0.00  0.00     0.418 C 
ATOM     23  F   UNL d   1       0.747   1.762  -3.084  0.00  0.00    -0.166 F 
ATOM     24  F   UNL d   1       1.822  -0.139  -2.988  0.00  0.00    -0.166 F 
ATOM     25  F   UNL d   1      -0.284  -0.083  -3.496  0.00  0.00    -0.166 F 
ENDBRANCH   2  22
BRANCH   6  26
ATOM     26  O   UNL d   1      -0.971  -2.489   0.831  0.00  0.00    -0.294 OA
BRANCH  26  27
ATOM     27  C   UNL d   1      -0.778  -2.877   2.139  0.00  0.00     0.077 A 
ATOM     28  C   UNL d   1      -1.833  -3.528   2.777  0.00  0.00     0.037 A 
ATOM     29  C   UNL d   1      -1.699  -3.924   4.108  0.00  0.00     0.003 A 
ATOM     30  C   UNL d   1      -0.510  -3.678   4.798  0.00  0.00     0.000 A 
ATOM     31  C   UNL d   1       0.558  -3.061   4.149  0.00  0.00     0.003 A 
ATOM     32  C   UNL d   1       0.432  -2.679   2.815  0.00  0.00     0.037 A 
ENDBRANCH  26  27
ENDBRANCH   6  26
TORSDOF 6
