REMARK  8 active torsions:
REMARK  status: ('A' for Active; 'I' for Inactive)
REMARK    1  A    between atoms: C_13  and  N_1 
REMARK    2  A    between atoms: S_12  and  C_2 
REMARK    3  A    between atoms: C_15  and  C_3 
REMARK    4  A    between atoms: C_10  and  C_16 
REMARK       I    between atoms: N_11  and  C_10 
REMARK    5  A    between atoms: C_20  and  N_11 
REMARK    6  A    between atoms: C_16  and  S_12 
REMARK    7  A    between atoms: C_14  and  O_17 
REMARK    8  A    between atoms: O_17  and  C_15 
ROOT
ATOM      1  N   UNL d   1      -0.391  -1.341  -0.066  0.00  0.00    -0.277 N 
ATOM      2  C   UNL d   1       0.849  -0.715  -0.231  0.00  0.00     0.168 C 
ATOM      3  C   UNL d   1      -1.276  -0.270   0.081  0.00  0.00     0.129 C 
ATOM      4  N   UNL d   1       0.741   0.573  -0.007  0.00  0.00    -0.278 N 
ATOM      5  HN  UNL d   1       1.506   1.247   0.012  1.00  0.00     0.189 HD
ATOM      6  N   UNL d   1      -0.579   0.850   0.194  0.00  0.00    -0.285 N 
ATOM      7  HN  UNL d   1      -0.966   1.771   0.399  1.00  0.00     0.188 HD
ENDROOT
BRANCH   2   8
ATOM      8  S   UNL d   1       2.278  -1.451  -0.930  0.00  0.00    -0.083 SA
BRANCH   8   9
ATOM      9  C   UNL d   1       3.472  -0.084  -0.815  0.00  0.00     0.185 C 
BRANCH   9  10
ATOM     10  C   UNL d   1       4.869  -0.506  -1.271  0.00  0.00     0.233 C 
ATOM     11  N   UNL d   1       5.226  -0.340  -2.620  0.00  0.00    -0.322 N 
ATOM     12  C   UNL d   1       4.287  -0.067  -3.705  0.00  0.00     0.159 C 
ATOM     13  O   UNL d   1       5.650  -0.959  -0.431  0.00  0.00    -0.272 OA
BRANCH  11  14
ATOM     14  C   UNL d   1       6.607  -0.433  -2.996  0.00  0.00     0.036 A 
ATOM     15  C   UNL d   1       7.017  -1.220  -4.082  0.00  0.00     0.029 A 
ATOM     16  C   UNL d   1       8.366  -1.287  -4.445  0.00  0.00     0.002 A 
ATOM     17  C   UNL d   1       9.317  -0.535  -3.758  0.00  0.00     0.000 A 
ATOM     18  C   UNL d   1       8.919   0.271  -2.693  0.00  0.00     0.002 A 
ATOM     19  C   UNL d   1       7.577   0.309  -2.306  0.00  0.00     0.029 A 
ENDBRANCH  11  14
ENDBRANCH   9  10
ENDBRANCH   8   9
ENDBRANCH   2   8
BRANCH   1  20
ATOM     20  C   UNL d   1      -0.652  -2.743  -0.092  0.00  0.00     0.043 A 
ATOM     21  C   UNL d   1       0.294  -3.629   0.450  0.00  0.00     0.030 A 
ATOM     22  C   UNL d   1       0.123  -5.010   0.341  0.00  0.00     0.002 A 
ATOM     23  C   UNL d   1      -1.005  -5.522  -0.291  0.00  0.00     0.000 A 
ATOM     24  C   UNL d   1      -1.977  -4.653  -0.779  0.00  0.00     0.002 A 
ATOM     25  C   UNL d   1      -1.810  -3.268  -0.674  0.00  0.00     0.030 A 
ENDBRANCH   1  20
BRANCH   3  26
ATOM     26  C   UNL d   1      -2.771  -0.278   0.047  0.00  0.00     0.254 C 
BRANCH  26  27
ATOM     27  O   UNL d   1      -3.300  -1.095   1.093  0.00  0.00    -0.343 OA
BRANCH  27  28
ATOM     28  C   UNL d   1      -4.668  -1.204   1.135  0.00  0.00     0.076 A 
ATOM     29  C   UNL d   1      -5.210  -1.931   2.192  0.00  0.00    -0.018 A 
ATOM     30  C   UNL d   1      -6.594  -2.123   2.323  0.00  0.00    -0.043 A 
ATOM     31  C   UNL d   1      -4.461  -2.588   3.307  0.00  0.00     0.042 A 
ATOM     32  C   UNL d   1      -6.927  -2.932   3.536  0.00  0.00     0.040 A 
ATOM     33  C   UNL d   1      -7.490  -1.594   1.399  0.00  0.00    -0.055 A 
ATOM     34  C   UNL d   1      -5.562  -3.232   4.164  0.00  0.00     0.009 A 
ATOM     35  C   UNL d   1      -6.958  -0.851   0.342  0.00  0.00     0.010 A 
ATOM     36  C   UNL d   1      -8.969  -1.809   1.528  0.00  0.00     0.049 C 
ATOM     37  C   UNL d   1      -5.568  -0.653   0.211  0.00  0.00     0.038 A 
ENDBRANCH  27  28
ENDBRANCH  26  27
ENDBRANCH   3  26
TORSDOF 8
