REMARK  5 active torsions:
REMARK  status: ('A' for Active; 'I' for Inactive)
REMARK    1  A    between atoms: N_7  and  C_1 
REMARK    2  A    between atoms: N_10  and  C_1 
REMARK    3  A    between atoms: C_2  and  N_8 
REMARK    4  A    between atoms: C_3  and  C_4 
REMARK    5  A    between atoms: C_22  and  N_10 
ROOT
ATOM      1  N   UNL d   1       0.211  -0.790   1.433  0.00  0.00    -0.355 N 
ATOM      2  N   UNL d   1       0.183  -3.419   2.666  0.00  0.00    -0.363 N 
ATOM      3  C   UNL d   1       0.833  -0.992   2.746  0.00  0.00     0.145 C 
ATOM      4  C   UNL d   1      -0.892  -1.728   1.157  0.00  0.00     0.145 C 
ATOM      5  C   UNL d   1       1.248  -2.451   3.012  0.00  0.00     0.144 C 
ATOM      6  C   UNL d   1      -0.413  -3.184   1.330  0.00  0.00     0.144 C 
ENDROOT
BRANCH   2   7
ATOM      7  C   UNL d   1      -0.690  -3.861   3.661  0.00  0.00     0.125 A 
ATOM      8  N   UNL d   1      -2.023  -3.739   3.419  0.00  0.00    -0.350 N 
ATOM      9  C   UNL d   1      -2.916  -4.272   4.289  0.00  0.00     0.106 A 
ATOM     10  HN  UNL d   1      -2.350  -3.248   2.586  1.00  0.00     0.166 HD
ATOM     11  C   UNL d   1      -2.566  -4.933   5.451  0.00  0.00     0.065 A 
ATOM     12  C   UNL d   1      -1.204  -5.042   5.726  0.00  0.00     0.045 A 
ATOM     13  C   UNL d   1      -0.260  -4.522   4.829  0.00  0.00     0.078 A 
ATOM     14 CL   UNL d   1       1.397  -4.879   5.185  0.00  0.00    -0.080 Cl
BRANCH  11  15
ATOM     15  C   UNL d   1      -3.620  -5.553   6.312  0.00  0.00     0.418 C 
ATOM     16  F   UNL d   1      -3.152  -5.977   7.519  0.00  0.00    -0.166 F 
ATOM     17  F   UNL d   1      -4.644  -4.701   6.588  0.00  0.00    -0.166 F 
ATOM     18  F   UNL d   1      -4.188  -6.644   5.729  0.00  0.00    -0.166 F 
ENDBRANCH  11  15
ENDBRANCH   2   7
BRANCH   1  19
ATOM     19  C   UNL d   1       0.806  -0.104   0.392  0.00  0.00     0.174 C 
ATOM     20  S   UNL d   1       2.446  -0.121   0.054  0.00  0.00    -0.041 SA
BRANCH  19  21
ATOM     21  N   UNL d   1      -0.025   0.574  -0.467  0.00  0.00    -0.333 N 
ATOM     22  H   UNL d   1       0.382   0.791  -1.369  0.00  0.00     0.168 HD
BRANCH  21  23
ATOM     23  C   UNL d   1      -1.204   1.284  -0.140  0.00  0.00     0.034 A 
ATOM     24  C   UNL d   1      -1.563   1.597   1.177  0.00  0.00     0.029 A 
ATOM     25  C   UNL d   1      -2.719   2.333   1.446  0.00  0.00     0.002 A 
ATOM     26  C   UNL d   1      -3.522   2.769   0.399  0.00  0.00     0.000 A 
ATOM     27  C   UNL d   1      -3.166   2.483  -0.916  0.00  0.00     0.002 A 
ATOM     28  C   UNL d   1      -2.000   1.754  -1.187  0.00  0.00     0.029 A 
ENDBRANCH  21  23
ENDBRANCH  19  21
ENDBRANCH   1  19
TORSDOF 5
