REMARK  4 active torsions:
REMARK  status: ('A' for Active; 'I' for Inactive)
REMARK    1  A    between atoms: C_2  and  S_1 
REMARK    2  A    between atoms: N_3  and  S_1 
REMARK    3  A    between atoms: C_16  and  N_3 
REMARK    4  A    between atoms: C_17  and  C_16 
ROOT
ATOM      1  N   UNL d   1       0.438  -1.397  -0.758  0.00  0.00    -0.311 N 
ATOM      2  H   UNL d   1      -0.261  -1.940  -0.259  0.00  0.00     0.172 HD
ENDROOT
BRANCH   1   3
ATOM      3  S   UNL d   1       0.919   0.066  -0.120  0.00  0.00     0.259 S 
ATOM      4  O   UNL d   1       0.440   0.112   1.241  0.00  0.00    -0.201 OA
ATOM      5  O   UNL d   1       2.306   0.297  -0.449  0.00  0.00    -0.201 OA
BRANCH   3   6
ATOM      6  C   UNL d   1      -0.076   1.192  -1.073  0.00  0.00     0.082 A 
ATOM      7  C   UNL d   1       0.422   1.725  -2.263  0.00  0.00     0.070 A 
ATOM      8  C   UNL d   1      -0.386   2.588  -2.999  0.00  0.00     0.156 A 
ATOM      9  F   UNL d   1       0.075   3.089  -4.154  0.00  0.00    -0.203 F 
ATOM     10  C   UNL d   1      -1.660   2.929  -2.548  0.00  0.00     0.154 A 
ATOM     11  C   UNL d   1      -2.144   2.427  -1.346  0.00  0.00     0.047 A 
ATOM     12  F   UNL d   1      -2.433   3.748  -3.274  0.00  0.00    -0.203 F 
ATOM     13  C   UNL d   1      -1.345   1.554  -0.597  0.00  0.00     0.028 A 
ENDBRANCH   3   6
ENDBRANCH   1   3
BRANCH   1  14
ATOM     14  C   UNL d   1       1.130  -1.949  -1.908  0.00  0.00     0.170 C 
BRANCH  14  15
ATOM     15  C   UNL d   1       0.616  -3.321  -2.284  0.00  0.00    -0.039 A 
ATOM     16  C   UNL d   1       1.190  -4.476  -1.720  0.00  0.00     0.019 A 
ATOM     17  C   UNL d   1       0.753  -5.715  -2.158  0.00  0.00    -0.022 A 
ATOM     18  C   UNL d   1       1.175  -7.074  -1.748  0.00  0.00     0.068 C 
ATOM     19  C   UNL d   1      -0.260  -5.822  -3.097  0.00  0.00     0.075 A 
ATOM     20  C   UNL d   1       0.540  -7.872  -2.888  0.00  0.00     0.180 C 
ATOM     21  O   UNL d   1      -0.568  -7.115  -3.431  0.00  0.00    -0.350 OA
ATOM     22  C   UNL d   1      -0.886  -4.711  -3.625  0.00  0.00     0.038 A 
ATOM     23  C   UNL d   1      -0.439  -3.452  -3.215  0.00  0.00     0.011 A 
ENDBRANCH  14  15
ENDBRANCH   1  14
TORSDOF 4
