REMARK  8 active torsions:
REMARK  status: ('A' for Active; 'I' for Inactive)
REMARK    1  A    between atoms: C_2  and  N_1 
REMARK    2  A    between atoms: C_21  and  C_4 
REMARK    3  A    between atoms: C_8  and  O_20 
REMARK    4  A    between atoms: C_12  and  C_8 
REMARK    5  A    between atoms: O_20  and  C_27 
REMARK    6  A    between atoms: S_24  and  C_21 
REMARK    7  A    between atoms: C_26  and  S_24 
REMARK    8  A    between atoms: C_27  and  C_26 
ROOT
ATOM      1  C   UNL d   1       0.238  -0.618   5.037  0.00  0.00     0.115 C 
ENDROOT
BRANCH   1   2
ATOM      2  C   UNL d   1      -0.236  -0.886   3.613  0.00  0.00    -0.012 A 
ATOM      3  C   UNL d   1      -0.874   0.147   2.891  0.00  0.00     0.046 A 
ATOM      4  C   UNL d   1      -1.358  -0.082   1.596  0.00  0.00     0.104 A 
ATOM      5  C   UNL d   1      -1.226  -1.333   0.989  0.00  0.00     0.048 A 
ATOM      6  C   UNL d   1      -0.606  -2.372   1.691  0.00  0.00     0.002 A 
ATOM      7  C   UNL d   1      -0.481  -3.729   1.058  0.00  0.00     0.212 C 
ATOM      8  C   UNL d   1      -0.118  -2.147   2.994  0.00  0.00     0.087 A 
ATOM      9  O   UNL d   1       0.447  -4.541   1.761  0.00  0.00    -0.362 OA
ATOM     10  C   UNL d   1       0.205  -4.449   3.158  0.00  0.00     0.345 C 
ATOM     11  O   UNL d   1       0.491  -3.155   3.697  0.00  0.00    -0.325 OA
BRANCH   4  12
ATOM     12  N   UNL d   1      -2.027   1.003   0.855  0.00  0.00    -0.116 N 
ATOM     13  O   UNL d   1      -2.468   0.746  -0.271  0.00  0.00    -0.532 OA
ATOM     14  O   UNL d   1      -2.104   2.109   1.407  0.00  0.00    -0.532 OA
ENDBRANCH   4  12
ENDBRANCH   1   2
BRANCH   1  15
ATOM     15  S   UNL d   1      -1.083  -1.011   6.244  0.00  0.00    -0.162 SA
BRANCH  15  16
ATOM     16  C   UNL d   1      -0.330  -0.484   7.842  0.00  0.00     0.101 C 
BRANCH  16  17
ATOM     17  C   UNL d   1      -1.358  -0.745   8.958  0.00  0.00     0.189 C 
BRANCH  17  18
ATOM     18  O   UNL d   1      -0.867  -0.443  10.285  0.00  0.00    -0.317 OA
BRANCH  18  19
ATOM     19  C   UNL d   1      -1.091   0.823  10.725  0.00  0.00     0.293 C 
ATOM     20  O   UNL d   1      -1.496   1.745  10.035  0.00  0.00    -0.259 OA
BRANCH  19  21
ATOM     21  C   UNL d   1      -0.776   0.978  12.180  0.00  0.00     0.039 A 
ATOM     22  C   UNL d   1      -0.820   2.269  12.733  0.00  0.00     0.019 A 
ATOM     23  C   UNL d   1      -0.493   2.484  14.078  0.00  0.00     0.025 A 
ATOM     24  C   UNL d   1      -0.138   1.406  14.883  0.00  0.00     0.034 A 
ATOM     25  C   UNL d   1      -0.130   0.112  14.360  0.00  0.00     0.025 A 
ATOM     26 CL   UNL d   1       0.300   1.671  16.526  0.00  0.00    -0.084 Cl
ATOM     27  C   UNL d   1      -0.447  -0.104  13.011  0.00  0.00     0.019 A 
ENDBRANCH  19  21
ENDBRANCH  18  19
ENDBRANCH  17  18
ENDBRANCH  16  17
ENDBRANCH  15  16
ENDBRANCH   1  15
TORSDOF 8
