REMARK  8 active torsions:
REMARK  status: ('A' for Active; 'I' for Inactive)
REMARK    1  A    between atoms: S_10  and  C_1 
REMARK       I    between atoms: N_5  and  C_6 
REMARK    2  A    between atoms: C_11  and  N_5 
REMARK    3  A    between atoms: C_12  and  N_5 
REMARK    4  A    between atoms: C_6  and  C_15 
REMARK    5  A    between atoms: C_15  and  S_10 
REMARK    6  A    between atoms: C_13  and  C_11 
REMARK    7  A    between atoms: O_24  and  C_13 
REMARK    8  A    between atoms: C_28  and  O_24 
ROOT
ATOM      1  C   UNL d   1      -2.245   1.825   0.094  0.00  0.00     0.091 A 
ATOM      2  C   UNL d   1      -3.372   1.061   0.435  0.00  0.00     0.084 A 
ATOM      3  N   UNL d   1      -1.173   1.282  -0.538  0.00  0.00    -0.353 N 
ATOM      4  HN  UNL d   1      -0.363   1.857  -0.767  1.00  0.00     0.166 HD
ATOM      5  C   UNL d   1      -3.368  -0.319   0.122  0.00  0.00    -0.037 A 
ATOM      6  C   UNL d   1      -4.517   1.655   1.064  0.00  0.00     0.103 C 
ATOM      7  N   UNL d   1      -5.473   2.071   1.565  0.00  0.00    -0.191 NA
ATOM      8  C   UNL d   1      -1.193  -0.029  -0.860  0.00  0.00     0.006 A 
ATOM      9  C   UNL d   1      -2.261  -0.855  -0.547  0.00  0.00     0.033 A 
ATOM     10  C   UNL d   1      -4.529  -1.245   0.394  0.00  0.00     0.050 C 
ATOM     11  C   UNL d   1      -0.036  -0.547  -1.659  0.00  0.00     0.068 C 
ENDROOT
BRANCH   1  12
ATOM     12  S   UNL d   1      -2.107   3.595   0.403  0.00  0.00    -0.101 SA
BRANCH  12  13
ATOM     13  C   UNL d   1      -0.414   3.916  -0.239  0.00  0.00     0.184 C 
BRANCH  13  14
ATOM     14  C   UNL d   1      -0.043   5.408  -0.255  0.00  0.00     0.234 C 
ATOM     15  N   UNL d   1       1.321   5.727  -0.103  0.00  0.00    -0.308 N 
ATOM     16  O   UNL d   1      -0.888   6.290  -0.429  0.00  0.00    -0.272 OA
BRANCH  15  17
ATOM     17  C   UNL d   1       1.746   7.141  -0.234  0.00  0.00     0.243 C 
BRANCH  17  18
ATOM     18  C   UNL d   1       2.309   7.803   1.024  0.00  0.00     0.277 C 
ATOM     19  O   UNL d   1       2.321   7.325   2.150  0.00  0.00    -0.263 OA
BRANCH  18  20
ATOM     20  O   UNL d   1       2.749   9.062   0.708  0.00  0.00    -0.321 OA
BRANCH  20  21
ATOM     21  C   UNL d   1       2.911   9.979   1.803  0.00  0.00     0.174 C 
ATOM     22  C   UNL d   1       4.212   9.792   2.561  0.00  0.00     0.034 C 
ENDBRANCH  20  21
ENDBRANCH  18  20
ENDBRANCH  17  18
ENDBRANCH  15  17
BRANCH  15  23
ATOM     23  C   UNL d   1       2.358   4.787  -0.329  0.00  0.00     0.037 A 
ATOM     24  C   UNL d   1       2.509   4.201  -1.593  0.00  0.00     0.033 A 
ATOM     25  C   UNL d   1       3.615   3.393  -1.857  0.00  0.00     0.044 A 
ATOM     26  C   UNL d   1       4.555   3.166  -0.857  0.00  0.00     0.116 A 
ATOM     27  C   UNL d   1       4.407   3.728   0.406  0.00  0.00     0.044 A 
ATOM     28  F   UNL d   1       5.627   2.408  -1.120  0.00  0.00    -0.206 F 
ATOM     29  C   UNL d   1       3.309   4.548   0.670  0.00  0.00     0.033 A 
ENDBRANCH  15  23
ENDBRANCH  13  14
ENDBRANCH  12  13
ENDBRANCH   1  12
TORSDOF 8
