REMARK  3 active torsions:
REMARK  status: ('A' for Active; 'I' for Inactive)
REMARK    1  A    between atoms: C_7  and  C_1 
REMARK       I    between atoms: N_9  and  C_7 
REMARK    2  A    between atoms: C_17  and  N_9 
REMARK    3  A    between atoms: C_16  and  C_17 
ROOT
ATOM      1  C   UNL d   1      -3.044  -0.780  -0.002  0.00  0.00     0.269 C 
ATOM      2  N   UNL d   1      -3.599  -2.043   0.018  0.00  0.00    -0.351 N 
ATOM      3  O   UNL d   1      -1.829  -0.589  -0.011  0.00  0.00    -0.266 OA
ATOM      4  H   UNL d   1      -4.612  -2.105   0.042  0.00  0.00     0.163 HD
ENDROOT
BRANCH   2   5
ATOM      5  C   UNL d   1      -2.752  -3.205   0.045  0.00  0.00     0.161 C 
BRANCH   5   6
ATOM      6  C   UNL d   1      -3.513  -4.503   0.013  0.00  0.00    -0.038 A 
ATOM      7  C   UNL d   1      -3.849  -5.101  -1.211  0.00  0.00     0.048 A 
ATOM      8  C   UNL d   1      -4.524  -6.327  -1.252  0.00  0.00     0.102 A 
ATOM      9  O   UNL d   1      -4.820  -6.783  -2.514  0.00  0.00    -0.348 OA
ATOM     10  C   UNL d   1      -4.832  -6.994  -0.060  0.00  0.00     0.102 A 
ATOM     11  C   UNL d   1      -6.098  -7.417  -2.589  0.00  0.00     0.178 C 
ATOM     12  C   UNL d   1      -6.003  -8.889  -2.230  0.00  0.00     0.053 C 
ATOM     13  C   UNL d   1      -5.112  -9.121  -1.022  0.00  0.00     0.178 C 
ATOM     14  O   UNL d   1      -5.434  -8.223   0.040  0.00  0.00    -0.348 OA
ATOM     15  C   UNL d   1      -4.534  -6.385   1.161  0.00  0.00     0.040 A 
ATOM     16  C   UNL d   1      -3.882  -5.148   1.200  0.00  0.00     0.012 A 
ENDBRANCH   5   6
ENDBRANCH   2   5
BRANCH   1  17
ATOM     17  C   UNL d   1      -4.013   0.326  -0.012  0.00  0.00     0.117 A 
ATOM     18  N   UNL d   1      -5.349   0.139   0.018  0.00  0.00    -0.294 N 
ATOM     19  N   UNL d   1      -5.859   1.389  -0.006  0.00  0.00    -0.301 N 
ATOM     20  HN  UNL d   1      -5.858  -0.745   0.052  1.00  0.00     0.187 HD
ATOM     21  C   UNL d   1      -7.292   1.577   0.020  0.00  0.00     0.177 C 
ATOM     22  C   UNL d   1      -4.906   2.374  -0.049  0.00  0.00     0.026 A 
ATOM     23  C   UNL d   1      -3.700   1.711  -0.053  0.00  0.00     0.063 A 
ATOM     24  C   UNL d   1      -5.213   3.825  -0.083  0.00  0.00     0.070 C 
ENDBRANCH   1  17
TORSDOF 3
