REMARK  5 active torsions:
REMARK  status: ('A' for Active; 'I' for Inactive)
REMARK    1  A    between atoms: C_2  and  C_1 
REMARK    2  A    between atoms: O_7  and  C_1 
REMARK    3  A    between atoms: C_3  and  C_2 
REMARK    4  A    between atoms: S_4  and  C_3 
REMARK    5  A    between atoms: C_6  and  S_4 
ROOT
ATOM      1  S   UNL d   1      -1.986   0.632  -0.996  0.00  0.00    -0.129 SA
ENDROOT
BRANCH   1   2
ATOM      2  C   UNL d   1      -0.708  -0.417  -1.786  0.00  0.00     0.094 C 
BRANCH   2   3
ATOM      3  C   UNL d   1       0.224  -1.068  -0.746  0.00  0.00     0.089 C 
ATOM      4  C   UNL d   1      -0.524  -2.004   0.208  0.00  0.00     0.022 C 
BRANCH   3   5
ATOM      5  C   UNL d   1       1.308  -1.838  -1.484  0.00  0.00     0.144 C 
ATOM      6  O   UNL d   1       1.363  -1.972  -2.695  0.00  0.00    -0.650 OA
BRANCH   5   7
ATOM      7  O   UNL d   1       2.258  -2.356  -0.670  0.00  0.00    -0.776 OA
ATOM      8  H   UNL d   1       2.136  -2.165   0.278  0.00  0.00     0.167 HD
ENDBRANCH   5   7
ENDBRANCH   3   5
ENDBRANCH   2   3
ENDBRANCH   1   2
BRANCH   1   9
ATOM      9  C   UNL d   1      -2.940   1.160  -2.406  0.00  0.00     0.000 A 
ATOM     10  C   UNL d   1      -3.474   0.262  -3.337  0.00  0.00     0.020 A 
ATOM     11  C   UNL d   1      -4.275   0.725  -4.387  0.00  0.00     0.025 A 
ATOM     12  C   UNL d   1      -4.551   2.086  -4.503  0.00  0.00     0.034 A 
ATOM     13  C   UNL d   1      -4.030   2.988  -3.579  0.00  0.00     0.025 A 
ATOM     14 CL   UNL d   1      -5.552   2.653  -5.780  0.00  0.00    -0.084 Cl
ATOM     15  C   UNL d   1      -3.231   2.524  -2.531  0.00  0.00     0.020 A 
ENDBRANCH   1   9
TORSDOF 5
