REMARK  3 active torsions:
REMARK  status: ('A' for Active; 'I' for Inactive)
REMARK    1  A    between atoms: C_6  and  C_3 
REMARK    2  A    between atoms: C_12  and  N_8 
REMARK    3  A    between atoms: O_13  and  C_9 
ROOT
ATOM      1  N   UNL d   1       1.392  -0.644   0.152  0.00  0.00    -0.335 N 
ATOM      2  HN  UNL d   1       2.262  -1.174   0.104  1.00  0.00     0.168 HD
ATOM      3  C   UNL d   1       1.313   0.743   0.122  0.00  0.00     0.053 A 
ATOM      4  C   UNL d   1       0.195  -1.184   0.250  0.00  0.00     0.149 A 
ATOM      5  S   UNL d   1      -1.101  -0.034   0.241  0.00  0.00    -0.064 SA
ATOM      6  C   UNL d   1       0.026   1.241   0.203  0.00  0.00     0.083 A 
ATOM      7  N   UNL d   1       0.003  -2.528   0.248  0.00  0.00    -0.335 N 
ATOM      8  H   UNL d   1       0.843  -3.083   0.143  0.00  0.00     0.168 HD
ENDROOT
BRANCH   7   9
ATOM      9  C   UNL d   1      -1.113  -3.249   0.702  0.00  0.00     0.049 A 
ATOM     10  C   UNL d   1      -1.541  -4.395   0.027  0.00  0.00     0.117 A 
ATOM     11  N   UNL d   1      -2.623  -5.139   0.365  0.00  0.00    -0.373 N 
ATOM     12  C   UNL d   1      -3.329  -4.722   1.438  0.00  0.00     0.088 A 
ATOM     13  HN  UNL d   1      -2.889  -5.970  -0.163  1.00  0.00     0.164 HD
ATOM     14  C   UNL d   1      -2.994  -3.609   2.188  0.00  0.00     0.019 A 
ATOM     15  C   UNL d   1      -1.871  -2.872   1.812  0.00  0.00     0.032 A 
ENDBRANCH   7   9
BRANCH   3  16
ATOM     16  C   UNL d   1       2.474   1.618  -0.074  0.00  0.00     0.025 A 
ATOM     17  C   UNL d   1       3.726   1.403   0.536  0.00  0.00     0.080 A 
ATOM     18  C   UNL d   1       4.772   2.314   0.295  0.00  0.00     0.037 A 
ATOM     19  C   UNL d   1       4.596   3.408  -0.555  0.00  0.00     0.003 A 
ATOM     20  C   UNL d   1       3.373   3.612  -1.174  0.00  0.00     0.001 A 
ATOM     21  C   UNL d   1       2.326   2.725  -0.938  0.00  0.00     0.016 A 
BRANCH  17  22
ATOM     22  O   UNL d   1       3.861   0.349   1.406  0.00  0.00    -0.355 OA
ATOM     23  C   UNL d   1       5.183  -0.156   1.577  0.00  0.00     0.210 C 
ENDBRANCH  17  22
ENDBRANCH   3  16
TORSDOF 3
