REMARK  5 active torsions:
REMARK  status: ('A' for Active; 'I' for Inactive)
REMARK    1  A    between atoms: N_18  and  C_3 
REMARK       I    between atoms: C_4  and  N_6 
REMARK       I    between atoms: N_13  and  C_4 
REMARK    2  A    between atoms: S_15  and  C_5 
REMARK       I    between atoms: N_6  and  C_12 
REMARK    3  A    between atoms: C_12  and  C_19 
REMARK    4  A    between atoms: C_20  and  N_13 
REMARK    5  A    between atoms: C_19  and  S_15 
ROOT
ATOM      1  N   UNL d   1       5.826   3.052  -1.360  0.00  0.00    -0.326 N 
ATOM      2  HN  UNL d   1       6.514   2.487  -0.862  1.00  0.00     0.169 HD
ATOM      3  C   UNL d   1       6.110   4.304  -1.781  0.00  0.00     0.102 A 
ATOM      4  C   UNL d   1       4.598   2.587  -1.629  0.00  0.00     0.145 A 
ATOM      5  C   UNL d   1       5.215   5.076  -2.503  0.00  0.00     0.098 A 
ATOM      6  N   UNL d   1       3.643   3.270  -2.281  0.00  0.00    -0.345 N 
ATOM      7  HN  UNL d   1       2.716   2.877  -2.444  1.00  0.00     0.167 HD
ATOM      8  C   UNL d   1       5.519   6.376  -3.002  0.00  0.00     0.104 C 
ATOM      9  N   UNL d   1       5.742   7.441  -3.412  0.00  0.00    -0.191 NA
ATOM     10  C   UNL d   1       3.980   4.509  -2.711  0.00  0.00     0.116 A 
ENDROOT
BRANCH   3  11
ATOM     11  N   UNL d   1       7.393   4.752  -1.462  0.00  0.00    -0.287 NA
ATOM     12  H   UNL d   1       7.845   4.059  -0.871  0.00  0.00     0.125 HD
ATOM     13  H   UNL d   1       7.411   5.670  -1.030  0.00  0.00     0.125 HD
ENDBRANCH   3  11
BRANCH   4  14
ATOM     14  S   UNL d   1       4.142   1.041  -0.884  0.00  0.00    -0.085 SA
BRANCH  14  15
ATOM     15  C   UNL d   1       5.148  -0.121  -1.857  0.00  0.00     0.185 C 
BRANCH  15  16
ATOM     16  C   UNL d   1       6.407  -0.633  -1.162  0.00  0.00     0.235 C 
ATOM     17  N   UNL d   1       6.926   0.140  -0.146  0.00  0.00    -0.278 N 
ATOM     18  C   UNL d   1       7.880  -0.183   0.801  0.00  0.00     0.327 C 
ATOM     19  H   UNL d   1       6.423   0.985   0.099  0.00  0.00     0.173 HD
ATOM     20  N   UNL d   1       8.547  -1.368   0.608  0.00  0.00    -0.309 N 
ATOM     21  O   UNL d   1       8.029   0.598   1.738  0.00  0.00    -0.247 OA
ATOM     22  H   UNL d   1       8.376  -1.825  -0.284  0.00  0.00     0.170 HD
ATOM     23  O   UNL d   1       6.973  -1.653  -1.564  0.00  0.00    -0.272 OA
BRANCH  20  24
ATOM     24  C   UNL d   1       9.435  -2.016   1.502  0.00  0.00     0.036 A 
ATOM     25  C   UNL d   1       9.675  -1.578   2.807  0.00  0.00     0.029 A 
ATOM     26  C   UNL d   1      10.517  -2.299   3.663  0.00  0.00     0.002 A 
ATOM     27  C   UNL d   1      11.136  -3.463   3.222  0.00  0.00     0.000 A 
ATOM     28  C   UNL d   1      10.919  -3.904   1.919  0.00  0.00     0.002 A 
ATOM     29  C   UNL d   1      10.072  -3.185   1.064  0.00  0.00     0.029 A 
ENDBRANCH  20  24
ENDBRANCH  15  16
ENDBRANCH  14  15
ENDBRANCH   4  14
TORSDOF 5
