REMARK  2 active torsions:
REMARK  status: ('A' for Active; 'I' for Inactive)
REMARK    1  A    between atoms: C_8  and  C_3 
REMARK    2  A    between atoms: O_14  and  C_4 
ROOT
ATOM      1  N   UNL d   1       2.425  -0.746  -0.021  0.00  0.00    -0.321 N 
ATOM      2  HN  UNL d   1       3.311  -1.251  -0.020  1.00  0.00     0.169 HD
ATOM      3  C   UNL d   1       2.355   0.593  -0.055  0.00  0.00     0.125 A 
ATOM      4  C   UNL d   1       1.243  -1.365   0.012  0.00  0.00     0.154 A 
ATOM      5  N   UNL d   1       1.220   1.321  -0.043  0.00  0.00    -0.341 N 
ATOM      6  HN  UNL d   1       1.244   2.340  -0.055  1.00  0.00     0.167 HD
ATOM      7  C   UNL d   1       0.002  -0.746   0.008  0.00  0.00     0.042 A 
ATOM      8  C   UNL d   1       0.059   0.649  -0.016  0.00  0.00     0.048 A 
ATOM      9  C   UNL d   1      -1.238  -1.423   0.018  0.00  0.00     0.018 A 
ATOM     10  C   UNL d   1      -1.144   1.346  -0.025  0.00  0.00     0.030 A 
ATOM     11  C   UNL d   1      -2.427  -0.701  -0.001  0.00  0.00     0.001 A 
ATOM     12  C   UNL d   1      -2.380   0.688  -0.021  0.00  0.00     0.002 A 
ENDROOT
BRANCH   3  13
ATOM     13  C   UNL d   1       3.608   1.351  -0.160  0.00  0.00     0.049 A 
ATOM     14  S   UNL d   1       5.120   0.547  -0.337  0.00  0.00    -0.098 SA
ATOM     15  C   UNL d   1       5.982   2.018  -0.436  0.00  0.00     0.050 A 
ATOM     16  C   UNL d   1       5.154   3.110  -0.322  0.00  0.00     0.009 A 
ATOM     17  C   UNL d   1       3.790   2.725  -0.160  0.00  0.00     0.023 A 
ENDBRANCH   3  13
BRANCH   4  18
ATOM     18  O   UNL d   1       1.357  -2.720   0.035  0.00  0.00    -0.345 OA
ATOM     19  H   UNL d   1       2.327  -2.814   0.019  0.00  0.00     0.219 HD
ENDBRANCH   4  18
TORSDOF 2
