REMARK  3 active torsions:
REMARK  status: ('A' for Active; 'I' for Inactive)
REMARK    1  A    between atoms: C_4  and  C_1 
REMARK       I    between atoms: C_2  and  N_3 
REMARK    2  A    between atoms: C_6  and  C_2 
REMARK    3  A    between atoms: N_5  and  C_7 
ROOT
ATOM      1  C   UNL d   1      -1.488   9.220   1.611  0.00  0.00     0.253 C 
ATOM      2  N   UNL d   1      -0.501   8.275   1.304  0.00  0.00    -0.346 N 
ATOM      3  N   UNL d   1      -0.412   5.305   1.335  0.00  0.00    -0.366 N 
ATOM      4  C   UNL d   1      -0.721   7.442   0.110  0.00  0.00     0.146 C 
ATOM      5  O   UNL d   1      -2.512   9.330   0.933  0.00  0.00    -0.267 OA
ATOM      6  C   UNL d   1      -1.298   6.052   0.417  0.00  0.00     0.144 C 
ATOM      7  C   UNL d   1       0.680   6.776   2.979  0.00  0.00     0.040 C 
ATOM      8  C   UNL d   1       0.741   7.984   2.029  0.00  0.00     0.127 C 
ATOM      9  C   UNL d   1      -0.438   5.769   2.721  0.00  0.00     0.126 C 
ENDROOT
BRANCH   3  10
ATOM     10  C   UNL d   1      -0.171   3.968   1.039  0.00  0.00     0.102 A 
ATOM     11  C   UNL d   1       0.672   3.176   1.815  0.00  0.00     0.049 A 
ATOM     12  C   UNL d   1       0.929   1.848   1.455  0.00  0.00     0.021 A 
ATOM     13  C   UNL d   1       0.352   1.321   0.302  0.00  0.00     0.063 A 
ATOM     14  C   UNL d   1      -0.463   2.163  -0.423  0.00  0.00     0.106 A 
ATOM     15  N   UNL d   1      -0.724   3.446  -0.078  0.00  0.00    -0.352 N 
ATOM     16  HN  UNL d   1      -1.336   4.017  -0.661  1.00  0.00     0.166 HD
BRANCH  13  17
ATOM     17  C   UNL d   1       0.607  -0.081  -0.151  0.00  0.00     0.418 C 
ATOM     18  F   UNL d   1      -0.037  -0.407  -1.307  0.00  0.00    -0.166 F 
ATOM     19  F   UNL d   1       0.214  -1.006   0.766  0.00  0.00    -0.166 F 
ATOM     20  F   UNL d   1       1.927  -0.323  -0.382  0.00  0.00    -0.166 F 
ENDBRANCH  13  17
ENDBRANCH   3  10
BRANCH   1  21
ATOM     21  C   UNL d   1      -1.335  10.185   2.734  0.00  0.00     0.032 A 
ATOM     22  C   UNL d   1      -0.845   9.822   3.987  0.00  0.00     0.024 A 
ATOM     23  C   UNL d   1      -0.648  10.771   5.002  0.00  0.00    -0.055 A 
ATOM     24  C   UNL d   1       0.021  10.340   6.278  0.00  0.00     0.049 C 
ATOM     25  C   UNL d   1      -1.066  12.098   4.793  0.00  0.00    -0.056 A 
ATOM     26  C   UNL d   1      -1.645  12.446   3.564  0.00  0.00     0.008 A 
ATOM     27  C   UNL d   1      -0.911  13.141   5.866  0.00  0.00     0.049 C 
ATOM     28  C   UNL d   1      -1.768  11.502   2.540  0.00  0.00     0.017 A 
ENDBRANCH   1  21
TORSDOF 3
