REMARK  2 active torsions:
REMARK  status: ('A' for Active; 'I' for Inactive)
REMARK       I    between atoms: N_2  and  C_1 
REMARK       I    between atoms: N_5  and  C_1 
REMARK    1  A    between atoms: C_6  and  N_2 
REMARK    2  A    between atoms: C_14  and  N_5 
ROOT
ATOM      1  C   UNL d   1       1.030   0.086   0.050  0.00  0.00     0.325 C 
ATOM      2  N   UNL d   1       0.389  -1.030   0.567  0.00  0.00    -0.309 N 
ATOM      3  N   UNL d   1       0.151   0.923  -0.617  0.00  0.00    -0.307 N 
ATOM      4  O   UNL d   1       2.229   0.306   0.153  0.00  0.00    -0.247 OA
ATOM      5  H   UNL d   1      -0.492  -1.273   0.140  0.00  0.00     0.170 HD
ATOM      6  H   UNL d   1      -0.824   0.856  -0.361  0.00  0.00     0.170 HD
ENDROOT
BRANCH   2   7
ATOM      7  C   UNL d   1       1.020  -2.036   1.341  0.00  0.00     0.038 A 
ATOM      8  C   UNL d   1       2.241  -1.842   1.993  0.00  0.00     0.054 A 
ATOM      9  C   UNL d   1       2.858  -2.887   2.686  0.00  0.00     0.042 A 
ATOM     10 CL   UNL d   1       4.384  -2.567   3.436  0.00  0.00    -0.084 Cl
ATOM     11  C   UNL d   1       2.258  -4.149   2.760  0.00  0.00    -0.040 A 
ATOM     12  C   UNL d   1       1.009  -4.328   2.147  0.00  0.00     0.011 A 
ATOM     13  C   UNL d   1       2.922  -5.295   3.468  0.00  0.00     0.050 C 
ATOM     14  C   UNL d   1       0.392  -3.280   1.451  0.00  0.00     0.030 A 
ENDBRANCH   2   7
BRANCH   3  15
ATOM     15  C   UNL d   1       0.543   2.044  -1.386  0.00  0.00     0.051 A 
ATOM     16  C   UNL d   1       1.844   2.275  -1.837  0.00  0.00     0.117 A 
ATOM     17  N   UNL d   1       2.221   3.346  -2.581  0.00  0.00    -0.373 N 
ATOM     18  C   UNL d   1       1.261   4.237  -2.889  0.00  0.00     0.088 A 
ATOM     19  HN  UNL d   1       3.185   3.469  -2.891  1.00  0.00     0.164 HD
ATOM     20  C   UNL d   1      -0.062   4.099  -2.502  0.00  0.00     0.019 A 
ATOM     21  C   UNL d   1      -0.425   2.982  -1.748  0.00  0.00     0.032 A 
ENDBRANCH   3  15
TORSDOF 2
