REMARK  5 active torsions:
REMARK  status: ('A' for Active; 'I' for Inactive)
REMARK    1  A    between atoms: C_5  and  C_1 
REMARK       I    between atoms: C_2  and  N_4 
REMARK    2  A    between atoms: C_3  and  C_2 
REMARK    3  A    between atoms: N_4  and  C_20 
REMARK    4  A    between atoms: C_8  and  O_13 
REMARK    5  A    between atoms: O_13  and  C_15 
ROOT
ATOM      1  N   UNL d   1       4.228  -4.906  -0.403  0.00  0.00    -0.344 N 
ATOM      2  HN  UNL d   1       4.169  -5.497  -1.233  1.00  0.00     0.167 HD
ATOM      3  C   UNL d   1       3.119  -4.475   0.239  0.00  0.00     0.148 A 
ATOM      4  C   UNL d   1       5.576  -3.688   1.219  0.00  0.00     0.050 A 
ATOM      5  C   UNL d   1       5.420  -4.516   0.108  0.00  0.00     0.119 A 
ATOM      6  C   UNL d   1       3.161  -3.637   1.340  0.00  0.00     0.059 A 
ATOM      7  C   UNL d   1       4.406  -3.241   1.833  0.00  0.00     0.035 A 
ENDROOT
BRANCH   3   8
ATOM      8  O   UNL d   1       1.850  -4.837  -0.206  0.00  0.00    -0.294 OA
BRANCH   8   9
ATOM      9  C   UNL d   1       1.731  -5.912  -1.055  0.00  0.00     0.078 A 
ATOM     10  C   UNL d   1       2.447  -7.101  -0.894  0.00  0.00     0.053 A 
ATOM     11  C   UNL d   1       2.306  -8.149  -1.814  0.00  0.00     0.050 A 
ATOM     12  C   UNL d   1       1.369  -8.020  -2.850  0.00  0.00     0.016 A 
ATOM     13  C   UNL d   1       0.605  -6.858  -2.973  0.00  0.00     0.004 A 
ATOM     14  C   UNL d   1       0.789  -5.804  -2.077  0.00  0.00     0.037 A 
BRANCH  11  15
ATOM     15  C   UNL d   1       3.171  -9.379  -1.712  0.00  0.00     0.417 C 
ATOM     16  F   UNL d   1       4.073  -9.336  -0.691  0.00  0.00    -0.166 F 
ATOM     17  F   UNL d   1       3.902  -9.595  -2.841  0.00  0.00    -0.166 F 
ATOM     18  F   UNL d   1       2.444 -10.515  -1.516  0.00  0.00    -0.166 F 
ENDBRANCH  11  15
ENDBRANCH   8   9
ENDBRANCH   3   8
BRANCH   4  19
ATOM     19  N   UNL d   1       6.879  -3.347   1.636  0.00  0.00    -0.320 N 
ATOM     20  C   UNL d   1       7.234  -2.516   2.685  0.00  0.00     0.280 C 
ATOM     21  O   UNL d   1       6.448  -1.983   3.459  0.00  0.00    -0.265 OA
ATOM     22  H   UNL d   1       7.658  -3.718   1.102  0.00  0.00     0.169 HD
BRANCH  20  23
ATOM     23  C   UNL d   1       8.666  -2.300   2.789  0.00  0.00     0.142 A 
ATOM     24  O   UNL d   1       9.526  -2.962   1.951  0.00  0.00    -0.317 OA
ATOM     25  C   UNL d   1      10.783  -2.545   2.264  0.00  0.00     0.143 A 
ATOM     26  C   UNL d   1      10.749  -1.624   3.283  0.00  0.00     0.027 A 
ATOM     27  C   UNL d   1       9.387  -1.474   3.631  0.00  0.00     0.045 A 
ENDBRANCH  20  23
ENDBRANCH   4  19
TORSDOF 5
