REMARK  5 active torsions:
REMARK  status: ('A' for Active; 'I' for Inactive)
REMARK       I    between atoms: N_2  and  C_1 
REMARK       I    between atoms: N_4  and  C_1 
REMARK    1  A    between atoms: C_5  and  N_2 
REMARK    2  A    between atoms: C_8  and  N_2 
REMARK    3  A    between atoms: C_3  and  C_5 
REMARK    4  A    between atoms: C_19  and  N_4 
REMARK    5  A    between atoms: C_13  and  C_8 
ROOT
ATOM      1  C   UNL d   1       1.032   0.269   0.274  0.00  0.00     0.319 C 
ATOM      2  N   UNL d   1       0.388   1.097  -0.629  0.00  0.00    -0.326 N 
ATOM      3  N   UNL d   1       0.252  -0.392   1.184  0.00  0.00    -0.339 N 
ATOM      4  O   UNL d   1       2.257   0.135   0.271  0.00  0.00    -0.247 OA
ATOM      5  H   UNL d   1      -0.742  -0.437   1.040  0.00  0.00     0.164 HD
ENDROOT
BRANCH   2   6
ATOM      6  C   UNL d   1      -1.063   1.198  -0.815  0.00  0.00     0.168 C 
BRANCH   6   7
ATOM      7  C   UNL d   1      -1.647   0.261  -1.867  0.00  0.00    -0.018 A 
ATOM      8  C   UNL d   1      -3.043   0.171  -2.048  0.00  0.00     0.043 A 
ATOM      9  C   UNL d   1      -3.597  -0.603  -3.075  0.00  0.00     0.048 A 
ATOM     10 CL   UNL d   1      -4.144   1.020  -1.019  0.00  0.00    -0.084 Cl
ATOM     11  C   UNL d   1      -2.764  -1.296  -3.944  0.00  0.00     0.035 A 
ATOM     12  C   UNL d   1      -1.385  -1.247  -3.780  0.00  0.00     0.024 A 
ATOM     13 CL   UNL d   1      -3.439  -2.213  -5.234  0.00  0.00    -0.084 Cl
ATOM     14  C   UNL d   1      -0.834  -0.487  -2.743  0.00  0.00     0.012 A 
ENDBRANCH   6   7
ENDBRANCH   2   6
BRANCH   2  15
ATOM     15  C   UNL d   1       1.224   1.842  -1.577  0.00  0.00     0.167 C 
BRANCH  15  16
ATOM     16  C   UNL d   1       1.576   3.240  -1.143  0.00  0.00    -0.025 A 
ATOM     17  C   UNL d   1       1.056   4.347  -1.808  0.00  0.00     0.096 A 
ATOM     18  N   UNL d   1       1.401   5.627  -1.546  0.00  0.00    -0.375 N 
ATOM     19  C   UNL d   1       2.314   5.821  -0.571  0.00  0.00     0.087 A 
ATOM     20  HN  UNL d   1       0.991   6.408  -2.058  1.00  0.00     0.164 HD
ATOM     21  C   UNL d   1       2.882   4.794   0.165  0.00  0.00     0.018 A 
ATOM     22  C   UNL d   1       2.502   3.486  -0.125  0.00  0.00     0.011 A 
ENDBRANCH  15  16
ENDBRANCH   2  15
BRANCH   3  23
ATOM     23  C   UNL d   1       0.812  -1.428   2.050  0.00  0.00     0.078 C 
ATOM     24  C   UNL d   1       0.190  -1.377   3.443  0.00  0.00     0.032 C 
ATOM     25  C   UNL d   1       0.591  -2.796   1.409  0.00  0.00     0.032 C 
ENDBRANCH   3  23
TORSDOF 5
