REMARK  7 active torsions:
REMARK  status: ('A' for Active; 'I' for Inactive)
REMARK    1  A    between atoms: C_8  and  N_1 
REMARK    2  A    between atoms: S_9  and  C_2 
REMARK    3  A    between atoms: O_18  and  C_3 
REMARK    4  A    between atoms: C_16  and  S_9 
REMARK    5  A    between atoms: C_14  and  C_16 
REMARK    6  A    between atoms: C_15  and  C_14 
REMARK    7  A    between atoms: O_24  and  C_21 
ROOT
ATOM      1  N   UNL d   1      -0.217  -1.366  -0.076  0.00  0.00    -0.286 N 
ATOM      2  C   UNL d   1       1.030  -0.810  -0.237  0.00  0.00     0.165 A 
ATOM      3  C   UNL d   1      -1.058  -0.283   0.065  0.00  0.00     0.240 A 
ATOM      4  N   UNL d   1       0.951   0.499  -0.176  0.00  0.00    -0.277 N 
ATOM      5  HN  UNL d   1       1.730   1.153  -0.256  1.00  0.00     0.189 HD
ATOM      6  N   UNL d   1      -0.366   0.830   0.016  0.00  0.00    -0.263 N 
ATOM      7  HN  UNL d   1      -0.742   1.775   0.104  1.00  0.00     0.190 HD
ENDROOT
BRANCH   2   8
ATOM      8  S   UNL d   1       2.489  -1.702  -0.494  0.00  0.00    -0.085 SA
BRANCH   8   9
ATOM      9  C   UNL d   1       3.718  -0.347  -0.517  0.00  0.00     0.166 C 
BRANCH   9  10
ATOM     10  C   UNL d   1       5.113  -0.852  -0.855  0.00  0.00     0.169 C 
ATOM     11  O   UNL d   1       5.378  -2.037  -1.054  0.00  0.00    -0.291 OA
BRANCH  10  12
ATOM     12  C   UNL d   1       6.232   0.145  -0.956  0.00  0.00     0.011 A 
ATOM     13  C   UNL d   1       6.059   1.515  -0.718  0.00  0.00     0.018 A 
ATOM     14  C   UNL d   1       7.144   2.401  -0.841  0.00  0.00     0.037 A 
ATOM     15  C   UNL d   1       8.405   1.928  -1.203  0.00  0.00     0.068 A 
ATOM     16  C   UNL d   1       8.586   0.561  -1.412  0.00  0.00     0.037 A 
ATOM     17  C   UNL d   1       7.510  -0.322  -1.298  0.00  0.00     0.018 A 
BRANCH  15  18
ATOM     18  O   UNL d   1       9.530   2.694  -1.335  0.00  0.00    -0.356 OA
ATOM     19  C   UNL d   1       9.317   4.036  -1.756  0.00  0.00     0.210 C 
ENDBRANCH  15  18
ENDBRANCH  10  12
ENDBRANCH   9  10
ENDBRANCH   8   9
ENDBRANCH   2   8
BRANCH   1  20
ATOM     20  C   UNL d   1      -0.576  -2.768  -0.009  0.00  0.00     0.104 C 
ATOM     21  C   UNL d   1      -1.570  -3.218  -1.111  0.00  0.00     0.065 C 
ATOM     22  C   UNL d   1      -2.438  -4.200  -0.388  0.00  0.00    -0.050 A 
ATOM     23  C   UNL d   1      -3.395  -5.040  -0.936  0.00  0.00     0.007 A 
ATOM     24  C   UNL d   1      -2.200  -4.188   0.987  0.00  0.00    -0.050 A 
ATOM     25  C   UNL d   1      -4.110  -5.885  -0.085  0.00  0.00     0.001 A 
ATOM     26  C   UNL d   1      -3.865  -5.878   1.297  0.00  0.00     0.001 A 
ATOM     27  C   UNL d   1      -2.909  -5.019   1.842  0.00  0.00     0.007 A 
ATOM     28  C   UNL d   1      -1.165  -3.179   1.364  0.00  0.00     0.065 C 
ENDBRANCH   1  20
BRANCH   3  29
ATOM     29  O   UNL d   1      -2.369  -0.301   0.241  0.00  0.00    -0.331 OA
ATOM     30  H   UNL d   1      -2.712  -1.206   0.223  0.00  0.00     0.221 HD
ENDBRANCH   3  29
TORSDOF 7
