REMARK  8 active torsions:
REMARK  status: ('A' for Active; 'I' for Inactive)
REMARK    1  A    between atoms: N_2  and  S_1 
REMARK    2  A    between atoms: C_9  and  S_1 
REMARK    3  A    between atoms: C_3  and  N_2 
REMARK    4  A    between atoms: C_7  and  C_3 
REMARK    5  A    between atoms: C_8  and  C_3 
REMARK    6  A    between atoms: C_4  and  C_8 
REMARK    7  A    between atoms: O_17  and  C_7 
REMARK    8  A    between atoms: O_21  and  C_18 
ROOT
ATOM      1  C   UNL d   1       1.203  -1.787   1.875  0.00  0.00     0.175 C 
ENDROOT
BRANCH   1   2
ATOM      2  N   UNL d   1       0.698  -0.438   1.452  0.00  0.00    -0.201 NA
ATOM      3  H   UNL d   1      -0.323  -0.384   1.496  0.00  0.00     0.141 HD
BRANCH   2   4
ATOM      4  S   UNL d   1       1.243   0.154  -0.036  0.00  0.00     0.242 S 
ATOM      5  O   UNL d   1       2.521  -0.441  -0.359  0.00  0.00    -0.206 OA
ATOM      6  O   UNL d   1       1.048   1.585  -0.018  0.00  0.00    -0.206 OA
BRANCH   4   7
ATOM      7  C   UNL d   1       0.030  -0.529  -1.141  0.00  0.00     0.074 A 
ATOM      8  C   UNL d   1      -1.083   0.235  -1.500  0.00  0.00     0.027 A 
ATOM      9  C   UNL d   1      -2.045  -0.306  -2.356  0.00  0.00     0.038 A 
ATOM     10  C   UNL d   1      -1.892  -1.604  -2.849  0.00  0.00     0.068 A 
ATOM     11  C   UNL d   1      -0.751  -2.342  -2.519  0.00  0.00     0.038 A 
ATOM     12  C   UNL d   1       0.216  -1.809  -1.667  0.00  0.00     0.027 A 
BRANCH  10  13
ATOM     13  O   UNL d   1      -2.764  -2.232  -3.694  0.00  0.00    -0.356 OA
ATOM     14  C   UNL d   1      -4.126  -1.835  -3.575  0.00  0.00     0.210 C 
ENDBRANCH  10  13
ENDBRANCH   4   7
ENDBRANCH   2   4
ENDBRANCH   1   2
BRANCH   1  15
ATOM     15  C   UNL d   1       2.712  -1.824   2.081  0.00  0.00     0.277 C 
ATOM     16  O   UNL d   1       3.396  -2.821   1.880  0.00  0.00    -0.263 OA
BRANCH  15  17
ATOM     17  O   UNL d   1       3.166  -0.642   2.586  0.00  0.00    -0.325 OA
ATOM     18  C   UNL d   1       4.580  -0.516   2.727  0.00  0.00     0.213 C 
ENDBRANCH  15  17
ENDBRANCH   1  15
BRANCH   1  19
ATOM     19  C   UNL d   1       0.569  -2.209   3.213  0.00  0.00     0.071 C 
BRANCH  19  20
ATOM     20  C   UNL d   1      -0.924  -2.338   3.146  0.00  0.00    -0.028 A 
ATOM     21  C   UNL d   1      -1.641  -3.467   2.803  0.00  0.00     0.096 A 
ATOM     22  N   UNL d   1      -2.974  -3.154   2.829  0.00  0.00    -0.365 N 
ATOM     23  C   UNL d   1      -3.146  -1.835   3.178  0.00  0.00     0.042 A 
ATOM     24  H   UNL d   1      -3.728  -3.794   2.620  0.00  0.00     0.165 HD
ATOM     25  C   UNL d   1      -1.879  -1.306   3.416  0.00  0.00    -0.002 A 
ATOM     26  C   UNL d   1      -4.317  -1.078   3.304  0.00  0.00     0.030 A 
ATOM     27  C   UNL d   1      -1.775   0.042   3.818  0.00  0.00     0.014 A 
ATOM     28  C   UNL d   1      -2.934   0.812   3.947  0.00  0.00     0.001 A 
ATOM     29  C   UNL d   1      -4.186   0.259   3.691  0.00  0.00     0.002 A 
ENDBRANCH  19  20
ENDBRANCH   1  19
TORSDOF 8
