REMARK  4 active torsions:
REMARK  status: ('A' for Active; 'I' for Inactive)
REMARK    1  A    between atoms: N_2  and  C_1 
REMARK    2  A    between atoms: C_10  and  C_3 
REMARK    3  A    between atoms: C_11  and  C_4 
REMARK    4  A    between atoms: C_8  and  C_12 
ROOT
ATOM      1  C   UNL d   1      -2.364  -1.900   0.719  0.00  0.00     0.043 C 
ATOM      2  C   UNL d   1      -2.548  -3.033   0.022  0.00  0.00     0.022 C 
ENDROOT
BRANCH   1   3
ATOM      3  C   UNL d   1      -1.104  -1.226   0.658  0.00  0.00     0.133 A 
ATOM      4  C   UNL d   1      -0.607  -0.074   1.267  0.00  0.00     0.162 A 
ATOM      5  C   UNL d   1       0.701   0.112   0.744  0.00  0.00     0.064 A 
ATOM      6  N   UNL d   1       1.017  -0.869  -0.100  0.00  0.00    -0.263 N 
ATOM      7  C   UNL d   1       1.691   1.190   0.995  0.00  0.00     0.073 C 
ATOM      8  O   UNL d   1      -0.081  -1.688  -0.149  0.00  0.00    -0.235 OA
ATOM      9  HN  UNL d   1       1.895  -0.987  -0.605  1.00  0.00     0.194 HD
BRANCH   4  10
ATOM     10  N   UNL d   1      -1.275   0.764   2.215  0.00  0.00    -0.111 N 
ATOM     11  O   UNL d   1      -2.414   0.444   2.575  0.00  0.00    -0.532 OA
ATOM     12  O   UNL d   1      -0.658   1.757   2.619  0.00  0.00    -0.532 OA
ENDBRANCH   4  10
ENDBRANCH   1   3
BRANCH   2  13
ATOM     13  C   UNL d   1      -3.807  -3.693  -0.007  0.00  0.00     0.016 A 
ATOM     14  C   UNL d   1      -4.887  -3.487  -0.863  0.00  0.00     0.014 A 
ATOM     15  C   UNL d   1      -5.923  -4.457  -0.622  0.00  0.00     0.020 A 
ATOM     16  C   UNL d   1      -5.607  -5.345   0.378  0.00  0.00     0.051 A 
ATOM     17  S   UNL d   1      -4.081  -5.014   1.059  0.00  0.00    -0.101 SA
BRANCH  14  18
ATOM     18  C   UNL d   1      -4.943  -2.439  -1.948  0.00  0.00     0.295 C 
ATOM     19  O   UNL d   1      -4.826  -1.105  -1.421  0.00  0.00    -0.355 OA
ATOM     20  C   UNL d   1      -6.049  -0.457  -1.761  0.00  0.00     0.197 C 
ATOM     21  C   UNL d   1      -6.526  -1.191  -2.983  0.00  0.00     0.197 C 
ATOM     22  O   UNL d   1      -6.146  -2.539  -2.734  0.00  0.00    -0.355 OA
ENDBRANCH  14  18
ENDBRANCH   2  13
TORSDOF 4
