REMARK  1 active torsions:
REMARK  status: ('A' for Active; 'I' for Inactive)
REMARK    1  A    between atoms: C_16  and  C_5 
ROOT
ATOM      1  C   UNL d   1      -0.022  -1.336  -0.075  0.00  0.00     0.066 A 
ATOM      2  C   UNL d   1      -2.042   0.626  -0.026  0.00  0.00     0.162 A 
ATOM      3  C   UNL d   1      -2.422  -0.663  -0.058  0.00  0.00     0.074 A 
ATOM      4  C   UNL d   1       0.277  -0.027  -0.043  0.00  0.00     0.104 A 
ATOM      5  C   UNL d   1      -1.455  -1.821   0.012  0.00  0.00     0.105 C 
ATOM      6  C   UNL d   1       1.038  -2.357  -0.203  0.00  0.00     0.298 A 
ATOM      7  C   UNL d   1      -3.865  -0.941  -0.167  0.00  0.00     0.258 A 
ATOM      8  O   UNL d   1      -0.690   0.964   0.038  0.00  0.00    -0.291 OA
ATOM      9  N   UNL d   1      -2.920   1.684  -0.029  0.00  0.00    -0.326 N 
ATOM     10  HN  UNL d   1      -2.585   2.648  -0.019  1.00  0.00     0.169 HD
ATOM     11  N   UNL d   1      -4.677   0.147  -0.083  0.00  0.00    -0.313 N 
ATOM     12  C   UNL d   1       1.669   0.418  -0.053  0.00  0.00     0.033 A 
ATOM     13  O   UNL d   1       2.350  -1.919  -0.117  0.00  0.00    -0.274 OA
ATOM     14  C   UNL d   1      -4.183   1.415  -0.044  0.00  0.00     0.081 A 
ATOM     15  C   UNL d   1       2.668  -0.552  -0.061  0.00  0.00     0.092 A 
ATOM     16  O   UNL d   1       0.783  -3.542  -0.371  0.00  0.00    -0.259 OA
ATOM     17  O   UNL d   1      -4.319  -2.064  -0.336  0.00  0.00    -0.267 OA
ATOM     18  C   UNL d   1       2.059   1.762  -0.029  0.00  0.00     0.017 A 
ATOM     19  C   UNL d   1      -5.204   2.517  -0.018  0.00  0.00     0.089 C 
ATOM     20  C   UNL d   1       4.024  -0.227  -0.029  0.00  0.00     0.038 A 
ATOM     21  C   UNL d   1       3.417   2.106  -0.004  0.00  0.00     0.001 A 
ATOM     22  C   UNL d   1       4.398   1.112   0.001  0.00  0.00     0.003 A 
ATOM     23  H   UNL d   1      -5.668  -0.038  -0.150  0.00  0.00     0.170 HD
ENDROOT
BRANCH   5  24
ATOM     24  C   UNL d   1      -1.678  -2.636   1.292  0.00  0.00    -0.023 A 
ATOM     25  C   UNL d   1      -2.047  -3.995   1.272  0.00  0.00     0.041 A 
ATOM     26 CL   UNL d   1      -2.313  -4.874  -0.192  0.00  0.00    -0.084 Cl
ATOM     27  C   UNL d   1      -2.219  -4.702   2.469  0.00  0.00     0.024 A 
ATOM     28  C   UNL d   1      -2.034  -4.070   3.697  0.00  0.00     0.002 A 
ATOM     29  C   UNL d   1      -1.677  -2.727   3.738  0.00  0.00     0.001 A 
ATOM     30  C   UNL d   1      -1.500  -2.017   2.550  0.00  0.00     0.010 A 
ENDBRANCH   5  24
TORSDOF 1
