REMARK  5 active torsions:
REMARK  status: ('A' for Active; 'I' for Inactive)
REMARK       I    between atoms: N_3  and  C_1 
REMARK    1  A    between atoms: C_8  and  C_1 
REMARK    2  A    between atoms: O_5  and  C_2 
REMARK    3  A    between atoms: C_4  and  N_3 
REMARK    4  A    between atoms: C_16  and  O_5 
REMARK    5  A    between atoms: C_9  and  C_10 
ROOT
ATOM      1  C   UNL d   1       2.896  -3.516   0.659  0.00  0.00     0.175 A 
ATOM      2  C   UNL d   1       2.620  -2.568  -0.337  0.00  0.00     0.087 A 
ATOM      3  N   UNL d   1       2.221  -4.689   0.795  0.00  0.00    -0.345 N 
ATOM      4  HN  UNL d   1       2.412  -5.329   1.565  1.00  0.00     0.167 HD
ATOM      5  C   UNL d   1       1.656  -2.912  -1.290  0.00  0.00     0.035 A 
ATOM      6  C   UNL d   1       1.290  -4.965  -0.135  0.00  0.00     0.090 A 
ATOM      7  C   UNL d   1       0.985  -4.131  -1.196  0.00  0.00     0.019 A 
ENDROOT
BRANCH   1   8
ATOM      8  O   UNL d   1       3.966  -3.288   1.523  0.00  0.00    -0.292 OA
BRANCH   8   9
ATOM      9  C   UNL d   1       4.757  -4.380   1.854  0.00  0.00     0.077 A 
ATOM     10  C   UNL d   1       5.103  -5.396   0.966  0.00  0.00     0.038 A 
ATOM     11  C   UNL d   1       5.950  -6.441   1.366  0.00  0.00     0.011 A 
ATOM     12  C   UNL d   1       6.519  -6.486   2.652  0.00  0.00    -0.050 A 
ATOM     13  C   UNL d   1       6.159  -5.446   3.531  0.00  0.00     0.011 A 
ATOM     14  C   UNL d   1       5.300  -4.409   3.137  0.00  0.00     0.038 A 
BRANCH  12  15
ATOM     15  C   UNL d   1       7.517  -7.601   3.026  0.00  0.00    -0.024 C 
ATOM     16  C   UNL d   1       8.101  -7.469   4.452  0.00  0.00     0.019 C 
ATOM     17  C   UNL d   1       6.849  -8.991   2.940  0.00  0.00     0.019 C 
ATOM     18  C   UNL d   1       8.713  -7.574   2.046  0.00  0.00     0.019 C 
ENDBRANCH  12  15
ENDBRANCH   8   9
ENDBRANCH   1   8
BRANCH   2  19
ATOM     19  N   UNL d   1       3.238  -1.292  -0.354  0.00  0.00    -0.319 N 
ATOM     20  C   UNL d   1       3.553  -0.593  -1.507  0.00  0.00     0.256 C 
ATOM     21  O   UNL d   1       3.411  -1.052  -2.645  0.00  0.00    -0.267 OA
ATOM     22  H   UNL d   1       3.570  -0.965   0.545  0.00  0.00     0.169 HD
BRANCH  20  23
ATOM     23  C   UNL d   1       4.158   0.774  -1.371  0.00  0.00     0.032 A 
ATOM     24  C   UNL d   1       4.591   1.321  -0.157  0.00  0.00     0.017 A 
ATOM     25  C   UNL d   1       5.208   2.579  -0.129  0.00  0.00     0.007 A 
ATOM     26  C   UNL d   1       5.419   3.305  -1.308  0.00  0.00    -0.062 A 
ATOM     27  C   UNL d   1       4.946   2.784  -2.515  0.00  0.00     0.007 A 
ATOM     28  C   UNL d   1       6.141   4.620  -1.264  0.00  0.00     0.048 C 
ATOM     29  C   UNL d   1       4.330   1.530  -2.545  0.00  0.00     0.017 A 
ENDBRANCH  20  23
ENDBRANCH   2  19
TORSDOF 5
