REMARK  5 active torsions:
REMARK  status: ('A' for Active; 'I' for Inactive)
REMARK    1  A    between atoms: C_7  and  C_1 
REMARK    2  A    between atoms: C_12  and  C_2 
REMARK    3  A    between atoms: N_8  and  C_5 
REMARK    4  A    between atoms: C_10  and  C_11 
REMARK    5  A    between atoms: C_21  and  C_13 
ROOT
ATOM      1  C   UNL d   1       1.287   0.691  -0.049  0.00  0.00     0.147 A 
ATOM      2  C   UNL d   1       1.377  -0.741  -0.045  0.00  0.00     0.053 A 
ATOM      3  N   UNL d   1      -0.001   1.091  -0.014  0.00  0.00    -0.292 N 
ATOM      4  HN  UNL d   1      -0.360   2.043  -0.075  1.00  0.00     0.187 HD
ATOM      5  C   UNL d   1       0.068  -1.187   0.127  0.00  0.00     0.135 A 
ATOM      6  N   UNL d   1      -0.702  -0.046   0.118  0.00  0.00    -0.280 N 
ATOM      7  C   UNL d   1      -2.140   0.048   0.224  0.00  0.00     0.179 C 
ENDROOT
BRANCH   5   8
ATOM      8  N   UNL d   1      -0.407  -2.442   0.372  0.00  0.00    -0.350 N 
ATOM      9  C   UNL d   1      -1.273  -2.954  -0.437  0.00  0.00     0.101 C 
ATOM     10  HN  UNL d   1      -0.083  -2.969   1.183  1.00  0.00     0.166 HD
BRANCH   9  11
ATOM     11  C   UNL d   1      -1.734  -4.346  -0.249  0.00  0.00    -0.020 A 
ATOM     12  C   UNL d   1      -0.927  -5.262   0.437  0.00  0.00     0.028 A 
ATOM     13  C   UNL d   1      -1.321  -6.603   0.560  0.00  0.00     0.048 A 
ATOM     14  C   UNL d   1      -2.552  -6.998   0.012  0.00  0.00     0.016 A 
ATOM     15  C   UNL d   1      -3.365  -6.076  -0.655  0.00  0.00     0.002 A 
ATOM     16  C   UNL d   1      -2.953  -4.750  -0.795  0.00  0.00     0.013 A 
BRANCH  13  17
ATOM     17  C   UNL d   1      -0.434  -7.617   1.240  0.00  0.00     0.417 C 
ATOM     18  F   UNL d   1       0.716  -7.091   1.744  0.00  0.00    -0.166 F 
ATOM     19  F   UNL d   1      -1.052  -8.235   2.284  0.00  0.00    -0.166 F 
ATOM     20  F   UNL d   1      -0.048  -8.613   0.394  0.00  0.00    -0.166 F 
ENDBRANCH  13  17
ENDBRANCH   9  11
ENDBRANCH   5   8
BRANCH   2  21
ATOM     21  C   UNL d   1       2.536  -1.621  -0.146  0.00  0.00    -0.020 A 
ATOM     22  C   UNL d   1       2.654  -2.766   0.658  0.00  0.00     0.012 A 
ATOM     23  C   UNL d   1       3.746  -3.628   0.525  0.00  0.00     0.001 A 
ATOM     24  C   UNL d   1       4.748  -3.347  -0.400  0.00  0.00     0.000 A 
ATOM     25  C   UNL d   1       4.651  -2.210  -1.199  0.00  0.00     0.001 A 
ATOM     26  C   UNL d   1       3.546  -1.360  -1.082  0.00  0.00     0.012 A 
ENDBRANCH   2  21
BRANCH   1  27
ATOM     27  C   UNL d   1       2.404   1.702  -0.071  0.00  0.00     0.434 C 
ATOM     28  F   UNL d   1       3.619   1.177   0.246  0.00  0.00    -0.165 F 
ATOM     29  F   UNL d   1       2.546   2.275  -1.298  0.00  0.00    -0.165 F 
ATOM     30  F   UNL d   1       2.202   2.719   0.812  0.00  0.00    -0.165 F 
ENDBRANCH   1  27
TORSDOF 5
