REMARK  7 active torsions:
REMARK  status: ('A' for Active; 'I' for Inactive)
REMARK    1  A    between atoms: N_14  and  C_3 
REMARK    2  A    between atoms: C_12  and  C_4 
REMARK    3  A    between atoms: C_13  and  C_5 
REMARK    4  A    between atoms: O_17  and  C_12 
REMARK    5  A    between atoms: O_18  and  C_13 
REMARK    6  A    between atoms: C_19  and  O_17 
REMARK    7  A    between atoms: C_20  and  O_18 
ROOT
ATOM      1  N   UNL d   1       0.244  -0.666  -0.088  0.00  0.00    -0.227 N 
ATOM      2  C   UNL d   1       0.201   0.728   0.023  0.00  0.00     0.146 A 
ATOM      3  C   UNL d   1      -0.940  -1.452  -0.116  0.00  0.00     0.120 A 
ATOM      4  C   UNL d   1       1.516   1.159   0.024  0.00  0.00     0.102 A 
ATOM      5  C   UNL d   1      -2.127  -0.816  -0.011  0.00  0.00     0.094 A 
ATOM      6  N   UNL d   1       1.527  -1.125  -0.137  0.00  0.00    -0.301 N 
ATOM      7  HN  UNL d   1       1.844  -2.093  -0.201  1.00  0.00     0.186 HD
ATOM      8  N   UNL d   1      -0.983   1.400   0.123  0.00  0.00    -0.349 N 
ATOM      9  HN  UNL d   1      -1.022   2.415   0.208  1.00  0.00     0.167 HD
ATOM     10  C   UNL d   1       2.273  -0.022  -0.082  0.00  0.00     0.129 A 
ATOM     11  C   UNL d   1      -2.058   0.670   0.103  0.00  0.00     0.111 A 
ENDROOT
BRANCH   4  12
ATOM     12  C   UNL d   1       2.031   2.503   0.159  0.00  0.00     0.298 C 
ATOM     13  O   UNL d   1       3.230   2.737   0.257  0.00  0.00    -0.259 OA
BRANCH  12  14
ATOM     14  O   UNL d   1       1.055   3.450   0.228  0.00  0.00    -0.318 OA
BRANCH  14  15
ATOM     15  C   UNL d   1       1.456   4.742   0.696  0.00  0.00     0.174 C 
ATOM     16  C   UNL d   1       1.361   4.755   2.211  0.00  0.00     0.034 C 
ENDBRANCH  14  15
ENDBRANCH  12  14
ENDBRANCH   4  12
BRANCH   3  17
ATOM     17  N   UNL d   1      -0.764  -2.828  -0.258  0.00  0.00    -0.286 NA
ATOM     18  H   UNL d   1       0.157  -3.144   0.056  0.00  0.00     0.125 HD
ATOM     19  H   UNL d   1      -1.549  -3.397   0.069  0.00  0.00     0.125 HD
ENDBRANCH   3  17
BRANCH   5  20
ATOM     20  C   UNL d   1      -3.413  -1.546  -0.065  0.00  0.00     0.298 C 
ATOM     21  O   UNL d   1      -3.528  -2.760   0.022  0.00  0.00    -0.259 OA
BRANCH  20  22
ATOM     22  O   UNL d   1      -4.420  -0.665  -0.277  0.00  0.00    -0.318 OA
BRANCH  22  23
ATOM     23  C   UNL d   1      -5.682  -1.226  -0.666  0.00  0.00     0.174 C 
ATOM     24  C   UNL d   1      -5.766  -1.176  -2.180  0.00  0.00     0.034 C 
ENDBRANCH  22  23
ENDBRANCH  20  22
ENDBRANCH   5  20
TORSDOF 7
