REMARK  5 active torsions:
REMARK  status: ('A' for Active; 'I' for Inactive)
REMARK    1  A    between atoms: C_7  and  C_1 
REMARK    2  A    between atoms: C_2  and  O_11 
REMARK    3  A    between atoms: N_8  and  N_3 
REMARK    4  A    between atoms: C_15  and  N_8 
REMARK    5  A    between atoms: O_11  and  C_16 
ROOT
ATOM      1  C   UNL d   1       0.919  -0.092   0.094  0.00  0.00     0.155 C 
ATOM      2  N   UNL d   1       0.301  -1.232  -0.052  0.00  0.00    -0.288 N 
ATOM      3  HN  UNL d   1      -0.699  -1.252  -0.251  1.00  0.00     0.188 HD
ATOM      4  C   UNL d   1       2.346  -0.099   0.330  0.00  0.00     0.121 C 
ATOM      5  N   UNL d   1       3.486  -0.185   0.535  0.00  0.00    -0.190 NA
ENDROOT
BRANCH   1   6
ATOM      6  C   UNL d   1       0.244   1.221   0.033  0.00  0.00     0.071 A 
ATOM      7  N   UNL d   1       1.034   2.315   0.182  0.00  0.00    -0.363 N 
ATOM      8  C   UNL d   1       0.430   3.522   0.135  0.00  0.00     0.088 A 
ATOM      9  HN  UNL d   1       2.041   2.229   0.322  1.00  0.00     0.165 HD
ATOM     10  C   UNL d   1      -0.931   3.692  -0.053  0.00  0.00     0.017 A 
ATOM     11  C   UNL d   1      -1.724   2.559  -0.197  0.00  0.00     0.004 A 
ATOM     12  C   UNL d   1      -1.132   1.298  -0.152  0.00  0.00     0.032 A 
ENDBRANCH   1   6
BRANCH   2  13
ATOM     13  N   UNL d   1       1.000  -2.399   0.062  0.00  0.00    -0.300 N 
ATOM     14  H   UNL d   1       1.901  -2.454   0.539  0.00  0.00     0.187 HD
BRANCH  13  15
ATOM     15  C   UNL d   1       0.305  -3.618  -0.032  0.00  0.00     0.048 A 
ATOM     16  C   UNL d   1      -0.839  -3.761  -0.825  0.00  0.00     0.034 A 
ATOM     17  C   UNL d   1      -1.503  -4.992  -0.928  0.00  0.00     0.039 A 
ATOM     18  C   UNL d   1      -1.026  -6.103  -0.238  0.00  0.00     0.078 A 
ATOM     19  C   UNL d   1       0.070  -5.949   0.614  0.00  0.00     0.039 A 
ATOM     20  C   UNL d   1       0.737  -4.724   0.708  0.00  0.00     0.034 A 
BRANCH  18  21
ATOM     21  O   UNL d   1      -1.550  -7.358  -0.263  0.00  0.00    -0.255 OA
BRANCH  21  22
ATOM     22  C   UNL d   1      -2.225  -7.815  -1.426  0.00  0.00     0.530 C 
ATOM     23  F   UNL d   1      -2.042  -7.040  -2.516  0.00  0.00    -0.144 F 
ATOM     24  F   UNL d   1      -1.770  -9.054  -1.724  0.00  0.00    -0.144 F 
ATOM     25  F   UNL d   1      -3.548  -7.906  -1.171  0.00  0.00    -0.144 F 
ENDBRANCH  21  22
ENDBRANCH  18  21
ENDBRANCH  13  15
ENDBRANCH   2  13
TORSDOF 5
