REMARK  6 active torsions:
REMARK  status: ('A' for Active; 'I' for Inactive)
REMARK    1  A    between atoms: C_7  and  N_1 
REMARK    2  A    between atoms: C_12  and  C_4 
REMARK    3  A    between atoms: O_17  and  C_5 
REMARK    4  A    between atoms: C_8  and  C_10 
REMARK    5  A    between atoms: C_9  and  C_11 
REMARK    6  A    between atoms: O_24  and  C_12 
ROOT
ATOM      1  C   UNL d   1       2.081  -1.383  -0.015  0.00  0.00     0.060 A 
ATOM      2  C   UNL d   1       3.425  -3.031  -1.205  0.00  0.00     0.051 A 
ATOM      3  C   UNL d   1       4.340  -1.881   0.755  0.00  0.00     0.051 A 
ATOM      4  C   UNL d   1       2.218  -2.335  -1.037  0.00  0.00     0.048 A 
ATOM      5  C   UNL d   1       3.135  -1.173   0.886  0.00  0.00     0.048 A 
ATOM      6  C   UNL d   1       4.476  -2.800  -0.299  0.00  0.00     0.032 A 
ENDROOT
BRANCH   1   7
ATOM      7  N   UNL d   1       0.863  -0.658   0.111  0.00  0.00    -0.234 N 
ATOM      8  N   UNL d   1      -0.294  -1.190  -0.356  0.00  0.00    -0.286 N 
ATOM      9  C   UNL d   1      -1.266  -0.392   0.130  0.00  0.00     0.128 C 
ATOM     10  HN  UNL d   1      -0.405  -2.014  -0.947  1.00  0.00     0.188 HD
ATOM     11  C   UNL d   1      -0.710   0.741   0.772  0.00  0.00     0.095 C 
ATOM     12  C   UNL d   1       0.653   0.590   0.691  0.00  0.00     0.164 C 
BRANCH   9  13
ATOM     13  C   UNL d   1      -2.701  -0.675  -0.018  0.00  0.00     0.311 C 
ATOM     14  O   UNL d   1      -3.573   0.090   0.382  0.00  0.00    -0.258 OA
BRANCH  13  15
ATOM     15  O   UNL d   1      -2.954  -1.878  -0.615  0.00  0.00    -0.321 OA
ATOM     16  C   UNL d   1      -4.340  -2.198  -0.720  0.00  0.00     0.213 C 
ENDBRANCH  13  15
ENDBRANCH   9  13
BRANCH  12  17
ATOM     17  O   UNL d   1       1.605   1.452   1.052  0.00  0.00    -0.345 OA
ATOM     18  H   UNL d   1       2.406   1.286   0.523  0.00  0.00     0.219 HD
ENDBRANCH  12  17
ENDBRANCH   1   7
BRANCH   2  19
ATOM     19  C   UNL d   1       3.621  -3.997  -2.352  0.00  0.00     0.417 C 
ATOM     20  F   UNL d   1       2.549  -4.089  -3.183  0.00  0.00    -0.166 F 
ATOM     21  F   UNL d   1       4.675  -3.643  -3.139  0.00  0.00    -0.166 F 
ATOM     22  F   UNL d   1       3.882  -5.263  -1.927  0.00  0.00    -0.166 F 
ENDBRANCH   2  19
BRANCH   3  23
ATOM     23  C   UNL d   1       5.478  -1.665   1.726  0.00  0.00     0.417 C 
ATOM     24  F   UNL d   1       5.216  -0.707   2.658  0.00  0.00    -0.166 F 
ATOM     25  F   UNL d   1       5.793  -2.791   2.420  0.00  0.00    -0.166 F 
ATOM     26  F   UNL d   1       6.621  -1.273   1.100  0.00  0.00    -0.166 F 
ENDBRANCH   3  23
TORSDOF 6
