REMARK  4 active torsions:
REMARK  status: ('A' for Active; 'I' for Inactive)
REMARK    1  A    between atoms: S_10  and  C_1 
REMARK    2  A    between atoms: C_5  and  C_4 
REMARK    3  A    between atoms: C_9  and  C_5 
REMARK    4  A    between atoms: C_8  and  S_10 
ROOT
ATOM      1  C   UNL d   1       4.290   3.609  -0.196  0.00  0.00     0.063 C 
ATOM      2  C   UNL d   1       3.441   2.579  -0.059  0.00  0.00     0.057 C 
ENDROOT
BRANCH   2   3
ATOM      3  S   UNL d   1       1.729   2.866  -0.069  0.00  0.00    -0.066 SA
BRANCH   3   4
ATOM      4  C   UNL d   1       1.045   1.347  -0.707  0.00  0.00     0.148 A 
ATOM      5  N   UNL d   1      -0.297   1.326  -0.835  0.00  0.00    -0.341 N 
ATOM      6  C   UNL d   1      -0.859   0.206  -1.337  0.00  0.00     0.008 A 
ATOM      7  HN  UNL d   1      -0.866   2.127  -0.562  1.00  0.00     0.167 HD
ATOM      8  C   UNL d   1      -2.352   0.187  -1.483  0.00  0.00     0.068 C 
ATOM      9  C   UNL d   1      -0.107  -0.885  -1.712  0.00  0.00     0.041 A 
ATOM     10  C   UNL d   1       1.254  -0.768  -1.545  0.00  0.00     0.092 A 
ATOM     11  N   UNL d   1       1.855   0.332  -1.051  0.00  0.00    -0.346 N 
ATOM     12  HN  UNL d   1       2.867   0.391  -0.944  1.00  0.00     0.167 HD
ENDBRANCH   3   4
ENDBRANCH   2   3
BRANCH   1  13
ATOM     13  C   UNL d   1       5.762   3.403  -0.162  0.00  0.00     0.182 C 
ATOM     14  O   UNL d   1       6.269   2.429   0.380  0.00  0.00    -0.288 OA
BRANCH  13  15
ATOM     15  C   UNL d   1       6.620   4.449  -0.791  0.00  0.00     0.014 A 
ATOM     16  C   UNL d   1       7.913   4.656  -0.287  0.00  0.00     0.017 A 
ATOM     17  C   UNL d   1       8.775   5.569  -0.904  0.00  0.00     0.025 A 
ATOM     18  C   UNL d   1       8.352   6.267  -2.034  0.00  0.00     0.034 A 
ATOM     19  C   UNL d   1       7.065   6.079  -2.536  0.00  0.00     0.025 A 
ATOM     20 CL   UNL d   1       9.428   7.349  -2.828  0.00  0.00    -0.084 Cl
ATOM     21  C   UNL d   1       6.197   5.174  -1.915  0.00  0.00     0.017 A 
ENDBRANCH  13  15
ENDBRANCH   1  13
TORSDOF 4
