REMARK  3 active torsions:
REMARK  status: ('A' for Active; 'I' for Inactive)
REMARK    1  A    between atoms: C_11  and  C_1 
REMARK    2  A    between atoms: C_5  and  N_8 
REMARK    3  A    between atoms: N_8  and  N_9 
ROOT
ATOM      1  N   UNL d   1      -1.539  -3.491  -0.001  0.00  0.00    -0.318 N 
ATOM      2  HN  UNL d   1      -1.700  -4.498  -0.032  1.00  0.00     0.181 HD
ATOM      3  C   UNL d   1      -0.325  -3.011   0.012  0.00  0.00     0.053 C 
ATOM      4  C   UNL d   1       0.031  -1.537   0.051  0.00  0.00     0.072 C 
ENDROOT
BRANCH   1   5
ATOM      5  N   UNL d   1      -2.587  -2.620   0.027  0.00  0.00    -0.202 NA
ATOM      6  H   UNL d   1      -2.509  -1.796  -0.576  0.00  0.00     0.153 HD
BRANCH   5   7
ATOM      7  C   UNL d   1      -3.909  -3.153  -0.085  0.00  0.00     0.071 A 
ATOM      8  C   UNL d   1      -4.351  -4.353   0.508  0.00  0.00     0.060 A 
ATOM      9  C   UNL d   1      -5.677  -4.791   0.353  0.00  0.00     0.049 A 
ATOM     10 CL   UNL d   1      -3.364  -5.334   1.535  0.00  0.00    -0.082 Cl
ATOM     11  C   UNL d   1      -6.592  -4.021  -0.356  0.00  0.00     0.037 A 
ATOM     12  C   UNL d   1      -6.206  -2.809  -0.910  0.00  0.00     0.049 A 
ATOM     13 CL   UNL d   1      -8.217  -4.557  -0.521  0.00  0.00    -0.084 Cl
ATOM     14  C   UNL d   1      -4.883  -2.383  -0.768  0.00  0.00     0.060 A 
ATOM     15 CL   UNL d   1      -4.456  -0.857  -1.476  0.00  0.00    -0.082 Cl
ENDBRANCH   5   7
ENDBRANCH   1   5
BRANCH   3  16
ATOM     16  C   UNL d   1       0.788  -3.940  -0.017  0.00  0.00     0.122 A 
ATOM     17  C   UNL d   1       0.873  -5.319  -0.069  0.00  0.00     0.043 A 
ATOM     18  N   UNL d   1       2.196  -5.709  -0.067  0.00  0.00    -0.342 N 
ATOM     19  C   UNL d   1      -0.196  -6.334  -0.107  0.00  0.00     0.071 C 
ATOM     20  C   UNL d   1       2.863  -4.579  -0.006  0.00  0.00     0.120 A 
ATOM     21  HN  UNL d   1       2.571  -6.657  -0.104  1.00  0.00     0.167 HD
ATOM     22  O   UNL d   1       2.079  -3.458   0.018  0.00  0.00    -0.294 OA
ATOM     23  C   UNL d   1       4.326  -4.391   0.051  0.00  0.00     0.098 C 
ENDBRANCH   3  16
TORSDOF 3
