REMARK  6 active torsions:
REMARK  status: ('A' for Active; 'I' for Inactive)
REMARK    1  A    between atoms: S_7  and  C_1 
REMARK    2  A    between atoms: C_9  and  N_2 
REMARK    3  A    between atoms: C_10  and  C_5 
REMARK    4  A    between atoms: C_13  and  S_7 
REMARK    5  A    between atoms: C_8  and  C_13 
REMARK       I    between atoms: N_12  and  C_8 
REMARK    6  A    between atoms: N_14  and  N_12 
ROOT
ATOM      1  C   UNL d   1       0.974  -0.707   0.050  0.00  0.00     0.152 A 
ATOM      2  N   UNL d   1      -0.333  -1.179   0.014  0.00  0.00    -0.301 N 
ATOM      3  N   UNL d   1       1.030   0.611   0.097  0.00  0.00    -0.335 N 
ATOM      4  HN  UNL d   1       1.865   1.189   0.197  1.00  0.00     0.168 HD
ATOM      5  C   UNL d   1      -0.268   1.042  -0.018  0.00  0.00     0.060 A 
ATOM      6  C   UNL d   1      -1.115  -0.041  -0.107  0.00  0.00     0.130 A 
ENDROOT
BRANCH   1   7
ATOM      7  S   UNL d   1       2.400  -1.693  -0.070  0.00  0.00    -0.084 SA
BRANCH   7   8
ATOM      8  C   UNL d   1       3.643  -0.647   0.740  0.00  0.00     0.186 C 
BRANCH   8   9
ATOM      9  C   UNL d   1       3.370  -0.523   2.229  0.00  0.00     0.241 C 
ATOM     10  O   UNL d   1       3.915  -1.234   3.072  0.00  0.00    -0.271 OA
ATOM     11  N   UNL d   1       2.453   0.470   2.556  0.00  0.00    -0.293 N 
ATOM     12  H   UNL d   1       1.917   0.932   1.812  0.00  0.00     0.183 HD
BRANCH  11  13
ATOM     13  N   UNL d   1       2.064   0.646   3.904  0.00  0.00    -0.247 NA
ATOM     14  H   UNL d   1       2.825   0.264   4.482  0.00  0.00     0.143 HD
ATOM     15  H   UNL d   1       1.277   0.018   4.088  0.00  0.00     0.143 HD
ENDBRANCH  11  13
ENDBRANCH   8   9
ENDBRANCH   7   8
ENDBRANCH   1   7
BRANCH   2  16
ATOM     16  C   UNL d   1      -0.871  -2.497   0.151  0.00  0.00     0.041 A 
ATOM     17  C   UNL d   1      -0.187  -3.500   0.848  0.00  0.00     0.030 A 
ATOM     18  C   UNL d   1      -0.777  -4.754   1.043  0.00  0.00     0.002 A 
ATOM     19  C   UNL d   1      -2.054  -5.016   0.554  0.00  0.00     0.000 A 
ATOM     20  C   UNL d   1      -2.742  -4.029  -0.143  0.00  0.00     0.002 A 
ATOM     21  C   UNL d   1      -2.156  -2.776  -0.347  0.00  0.00     0.030 A 
ENDBRANCH   2  16
BRANCH   5  22
ATOM     22  C   UNL d   1      -0.673   2.442  -0.015  0.00  0.00    -0.008 A 
ATOM     23  C   UNL d   1       0.302   3.451   0.046  0.00  0.00     0.014 A 
ATOM     24  C   UNL d   1      -0.066   4.801   0.058  0.00  0.00     0.001 A 
ATOM     25  C   UNL d   1      -1.409   5.162   0.004  0.00  0.00     0.000 A 
ATOM     26  C   UNL d   1      -2.389   4.176  -0.058  0.00  0.00     0.001 A 
ATOM     27  C   UNL d   1      -2.022   2.826  -0.068  0.00  0.00     0.014 A 
ENDBRANCH   5  22
TORSDOF 6
