REMARK  4 active torsions:
REMARK  status: ('A' for Active; 'I' for Inactive)
REMARK    1  A    between atoms: N_7  and  N_1 
REMARK    2  A    between atoms: C_9  and  N_2 
REMARK       I    between atoms: C_8  and  N_7 
REMARK    3  A    between atoms: C_13  and  C_8 
REMARK    4  A    between atoms: N_10  and  C_13 
ROOT
ATOM      1  N   UNL d   1       0.400   1.346   0.002  0.00  0.00    -0.248 N 
ATOM      2  N   UNL d   1      -1.508  -0.173  -1.122  0.00  0.00    -0.308 N 
ATOM      3  C   UNL d   1      -0.445   0.210  -1.975  0.00  0.00     0.244 C 
ATOM      4  C   UNL d   1      -0.526   0.789   0.873  0.00  0.00     0.257 C 
ATOM      5  C   UNL d   1       0.817   0.655  -1.214  0.00  0.00     0.255 C 
ATOM      6  C   UNL d   1      -1.162  -0.455   0.281  0.00  0.00     0.236 C 
ATOM      7  O   UNL d   1      -0.753   1.211   2.003  0.00  0.00    -0.270 OA
ATOM      8  O   UNL d   1      -0.448   0.179  -3.201  0.00  0.00    -0.271 OA
ENDROOT
BRANCH   1   9
ATOM      9  N   UNL d   1       1.180   2.424   0.446  0.00  0.00    -0.263 N 
ATOM     10  C   UNL d   1       2.545   2.275   0.657  0.00  0.00     0.264 C 
ATOM     11  O   UNL d   1       3.197   1.295   0.298  0.00  0.00    -0.270 OA
ATOM     12  H   UNL d   1       0.675   3.093   1.025  0.00  0.00     0.190 HD
BRANCH  10  13
ATOM     13  C   UNL d   1       3.176   3.488   1.345  0.00  0.00     0.376 C 
BRANCH  13  14
ATOM     14  N   UNL d   1       3.624   4.543   0.420  0.00  0.00     0.097 N 
ATOM     15  C   UNL d   1       2.556   5.119  -0.401  0.00  0.00     0.273 C 
ATOM     16  C   UNL d   1       3.053   6.397  -1.076  0.00  0.00     0.030 C 
ATOM     17  C   UNL d   1       4.320   6.155  -1.892  0.00  0.00     0.003 C 
ATOM     18  C   UNL d   1       5.360   5.356  -1.108  0.00  0.00     0.030 C 
ATOM     19  C   UNL d   1       4.756   4.130  -0.417  0.00  0.00     0.273 C 
ENDBRANCH  13  14
ENDBRANCH  10  13
ENDBRANCH   1   9
BRANCH   2  20
ATOM     20  C   UNL d   1      -2.860  -0.342  -1.568  0.00  0.00     0.037 A 
ATOM     21  C   UNL d   1      -3.178  -0.626  -2.905  0.00  0.00     0.033 A 
ATOM     22  C   UNL d   1      -4.507  -0.768  -3.324  0.00  0.00     0.044 A 
ATOM     23  C   UNL d   1      -5.536  -0.612  -2.411  0.00  0.00     0.116 A 
ATOM     24  C   UNL d   1      -5.261  -0.318  -1.085  0.00  0.00     0.044 A 
ATOM     25  F   UNL d   1      -6.807  -0.740  -2.811  0.00  0.00    -0.206 F 
ATOM     26  C   UNL d   1      -3.932  -0.182  -0.669  0.00  0.00     0.033 A 
ENDBRANCH   2  20
TORSDOF 4
