REMARK  4 active torsions:
REMARK  status: ('A' for Active; 'I' for Inactive)
REMARK    1  A    between atoms: N_3  and  C_1 
REMARK    2  A    between atoms: C_5  and  C_2 
REMARK       I    between atoms: C_4  and  N_3 
REMARK    3  A    between atoms: C_10  and  C_4 
REMARK    4  A    between atoms: O_12  and  C_5 
ROOT
ATOM      1  N   UNL d   1      -0.089   2.770  -0.242  0.00  0.00    -0.316 N 
ATOM      2  C   UNL d   1       0.806   3.737   0.174  0.00  0.00     0.256 C 
ATOM      3  O   UNL d   1       1.916   3.534   0.652  0.00  0.00    -0.267 OA
ATOM      4  H   UNL d   1      -1.075   2.978  -0.143  0.00  0.00     0.169 HD
ENDROOT
BRANCH   1   5
ATOM      5  C   UNL d   1       0.269   1.437  -0.210  0.00  0.00     0.093 C 
ATOM      6  C   UNL d   1       1.420   0.739  -0.529  0.00  0.00     0.073 C 
ATOM      7  C   UNL d   1       1.287  -0.632  -0.094  0.00  0.00     0.028 C 
ATOM      8  C   UNL d   1       0.046  -0.918   0.431  0.00  0.00     0.053 C 
ATOM      9  S   UNL d   1      -0.989   0.438   0.359  0.00  0.00    -0.083 SA
BRANCH   6  10
ATOM     10  C   UNL d   1       2.617   1.232  -1.217  0.00  0.00     0.295 C 
ATOM     11  O   UNL d   1       3.652   0.579  -1.262  0.00  0.00    -0.259 OA
BRANCH  10  12
ATOM     12  O   UNL d   1       2.424   2.405  -1.889  0.00  0.00    -0.322 OA
ATOM     13  C   UNL d   1       3.565   2.960  -2.546  0.00  0.00     0.213 C 
ENDBRANCH  10  12
ENDBRANCH   6  10
ENDBRANCH   1   5
BRANCH   2  14
ATOM     14  C   UNL d   1       0.313   5.133   0.093  0.00  0.00     0.032 A 
ATOM     15  C   UNL d   1       0.624   6.017   1.132  0.00  0.00     0.017 A 
ATOM     16  C   UNL d   1       0.262   7.361   1.034  0.00  0.00     0.001 A 
ATOM     17  C   UNL d   1      -0.398   7.822  -0.103  0.00  0.00     0.000 A 
ATOM     18  C   UNL d   1      -0.718   6.939  -1.138  0.00  0.00     0.001 A 
ATOM     19  C   UNL d   1      -0.369   5.591  -1.041  0.00  0.00     0.017 A 
ENDBRANCH   2  14
TORSDOF 4
