REMARK  3 active torsions:
REMARK  status: ('A' for Active; 'I' for Inactive)
REMARK    1  A    between atoms: O_4  and  C_1 
REMARK    2  A    between atoms: C_3  and  C_2 
REMARK       I    between atoms: N_13  and  C_3 
REMARK    3  A    between atoms: C_5  and  O_4 
ROOT
ATOM      1  C   UNL d   1      -0.562   1.145   0.068  0.00  0.00     0.164 A 
ATOM      2  C   UNL d   1       0.818   1.170   0.257  0.00  0.00     0.083 A 
ATOM      3  N   UNL d   1      -1.263   0.015  -0.230  0.00  0.00    -0.346 N 
ATOM      4  HN  UNL d   1      -2.269   0.044  -0.395  1.00  0.00     0.167 HD
ATOM      5  C   UNL d   1       1.490  -0.060   0.179  0.00  0.00     0.023 A 
ATOM      6  C   UNL d   1      -0.576  -1.143  -0.296  0.00  0.00     0.090 A 
ATOM      7  C   UNL d   1       0.787  -1.232  -0.092  0.00  0.00     0.018 A 
ENDROOT
BRANCH   1   8
ATOM      8  O   UNL d   1      -1.282   2.327   0.164  0.00  0.00    -0.291 OA
BRANCH   8   9
ATOM      9  C   UNL d   1      -2.567   2.258   0.662  0.00  0.00     0.099 A 
ATOM     10  C   UNL d   1      -3.553   3.063   0.078  0.00  0.00     0.069 A 
ATOM     11  C   UNL d   1      -4.856   3.060   0.581  0.00  0.00     0.050 A 
ATOM     12 CL   UNL d   1      -3.194   4.089  -1.264  0.00  0.00    -0.081 Cl
ATOM     13  C   UNL d   1      -5.167   2.257   1.677  0.00  0.00     0.035 A 
ATOM     14  C   UNL d   1      -4.189   1.470   2.281  0.00  0.00     0.026 A 
ATOM     15 CL   UNL d   1      -6.771   2.244   2.300  0.00  0.00    -0.084 Cl
ATOM     16  C   UNL d   1      -2.885   1.481   1.784  0.00  0.00     0.041 A 
ENDBRANCH   8   9
ENDBRANCH   1   8
BRANCH   2  17
ATOM     17  C   UNL d   1       1.629   2.380   0.561  0.00  0.00     0.253 C 
ATOM     18  O   UNL d   1       2.840   2.292   0.740  0.00  0.00    -0.268 OA
ATOM     19  N   UNL d   1       1.021   3.596   0.644  0.00  0.00    -0.366 N 
ATOM     20  H   UNL d   1       0.038   3.749   0.462  0.00  0.00     0.159 HD
ATOM     21  H   UNL d   1       1.607   4.400   0.826  0.00  0.00     0.159 HD
ENDBRANCH   2  17
TORSDOF 3
