REMARK  9 active torsions:
REMARK  status: ('A' for Active; 'I' for Inactive)
REMARK    1  A    between atoms: N_2  and  C_1 
REMARK    2  A    between atoms: N_4  and  C_3 
REMARK    3  A    between atoms: C_5  and  C_9 
REMARK       I    between atoms: N_13  and  C_5 
REMARK    4  A    between atoms: C_10  and  C_16 
REMARK    5  A    between atoms: C_12  and  C_19 
REMARK    6  A    between atoms: C_22  and  N_13 
REMARK    7  A    between atoms: O_29  and  C_17 
REMARK    8  A    between atoms: O_30  and  C_24 
REMARK    9  A    between atoms: C_33  and  O_30 
ROOT
ATOM      1  C   UNL d   1       1.093  -0.207   0.276  0.00  0.00     0.130 A 
ATOM      2  C   UNL d   1       0.295  -1.361   0.113  0.00  0.00     0.063 A 
ATOM      3  C   UNL d   1       0.550   1.086   0.444  0.00  0.00     0.050 A 
ATOM      4  C   UNL d   1      -1.089  -1.098  -0.002  0.00  0.00     0.033 A 
ATOM      5  C   UNL d   1      -0.830   1.274   0.441  0.00  0.00    -0.034 A 
ATOM      6  C   UNL d   1      -1.641   0.180   0.159  0.00  0.00     0.014 A 
ENDROOT
BRANCH   5   7
ATOM      7  C   UNL d   1      -1.388   2.604   0.695  0.00  0.00     0.017 C 
ATOM      8  C   UNL d   1      -2.527   2.818   1.367  0.00  0.00     0.075 C 
BRANCH   8   9
ATOM      9  C   UNL d   1      -2.964   4.223   1.601  0.00  0.00     0.245 C 
ATOM     10  N   UNL d   1      -4.091   4.312   2.394  0.00  0.00    -0.324 N 
ATOM     11  H   UNL d   1      -4.515   3.456   2.720  0.00  0.00     0.169 HD
ATOM     12  O   UNL d   1      -2.326   5.147   1.113  0.00  0.00    -0.268 OA
BRANCH  10  13
ATOM     13  C   UNL d   1      -4.680   5.507   2.865  0.00  0.00     0.035 A 
ATOM     14  C   UNL d   1      -4.205   6.780   2.537  0.00  0.00     0.032 A 
ATOM     15  C   UNL d   1      -4.782   7.927   3.084  0.00  0.00     0.039 A 
ATOM     16  C   UNL d   1      -5.845   7.828   3.974  0.00  0.00     0.068 A 
ATOM     17  C   UNL d   1      -6.355   6.562   4.277  0.00  0.00     0.039 A 
ATOM     18  C   UNL d   1      -5.777   5.411   3.727  0.00  0.00     0.032 A 
BRANCH  16  19
ATOM     19  O   UNL d   1      -6.458   8.880   4.599  0.00  0.00    -0.352 OA
BRANCH  19  20
ATOM     20  C   UNL d   1      -5.853  10.161   4.408  0.00  0.00     0.171 C 
ATOM     21  C   UNL d   1      -6.582  11.176   5.267  0.00  0.00     0.034 C 
ENDBRANCH  19  20
ENDBRANCH  16  19
ENDBRANCH  10  13
ENDBRANCH   8   9
ENDBRANCH   5   7
BRANCH   1  22
ATOM     22  N   UNL d   1       2.543  -0.265   0.237  0.00  0.00    -0.113 N 
ATOM     23  O   UNL d   1       3.081  -0.696  -0.793  0.00  0.00    -0.532 OA
ATOM     24  O   UNL d   1       3.144   0.171   1.230  0.00  0.00    -0.532 OA
ENDBRANCH   1  22
BRANCH   2  25
ATOM     25  N   UNL d   1       0.785  -2.701   0.092  0.00  0.00    -0.379 N 
ATOM     26  C   UNL d   1       1.591  -3.050   1.287  0.00  0.00     0.123 C 
ATOM     27  C   UNL d   1       1.946  -4.533   1.438  0.00  0.00     0.029 C 
ATOM     28  C   UNL d   1       0.920  -5.560   0.940  0.00  0.00     0.024 C 
ATOM     29  C   UNL d   1       0.416  -5.103  -0.431  0.00  0.00     0.029 C 
ATOM     30  C   UNL d   1      -0.182  -3.712  -0.369  0.00  0.00     0.123 C 
BRANCH  28  31
ATOM     31  C   UNL d   1      -0.193  -5.958   1.910  0.00  0.00    -0.021 A 
ATOM     32  C   UNL d   1      -0.635  -7.292   2.052  0.00  0.00     0.074 A 
ATOM     33  C   UNL d   1      -1.602  -7.627   3.015  0.00  0.00     0.037 A 
ATOM     34  C   UNL d   1      -2.160  -6.654   3.840  0.00  0.00     0.003 A 
ATOM     35  C   UNL d   1      -1.754  -5.336   3.706  0.00  0.00     0.001 A 
ATOM     36  C   UNL d   1      -0.792  -4.996   2.749  0.00  0.00     0.010 A 
BRANCH  32  37
ATOM     37  O   UNL d   1      -0.077  -8.380   1.429  0.00  0.00    -0.355 OA
ATOM     38  C   UNL d   1      -0.165  -8.391   0.009  0.00  0.00     0.210 C 
ENDBRANCH  32  37
ENDBRANCH  28  31
ENDBRANCH   2  25
TORSDOF 9
