REMARK  5 active torsions:
REMARK  status: ('A' for Active; 'I' for Inactive)
REMARK    1  A    between atoms: N_8  and  C_2 
REMARK    2  A    between atoms: C_14  and  N_3 
REMARK    3  A    between atoms: C_7  and  C_6 
REMARK    4  A    between atoms: C_21  and  C_10 
REMARK    5  A    between atoms: N_18  and  C_17 
ROOT
ATOM      1  C   UNL d   1      -2.909  -2.780   0.117  0.00  0.00     0.120 C 
ATOM      2  C   UNL d   1      -3.913  -3.724   0.003  0.00  0.00     0.157 C 
ATOM      3  N   UNL d   1      -5.099  -3.018  -0.049  0.00  0.00    -0.237 N 
ATOM      4  N   UNL d   1      -4.873  -1.682  -0.207  0.00  0.00    -0.289 N 
ATOM      5  HN  UNL d   1      -5.564  -0.965  -0.428  1.00  0.00     0.188 HD
ATOM      6  C   UNL d   1      -3.546  -1.501  -0.014  0.00  0.00     0.094 C 
ATOM      7  C   UNL d   1      -1.514  -3.070   0.194  0.00  0.00     0.106 C 
ATOM      8  N   UNL d   1      -0.394  -3.362   0.257  0.00  0.00    -0.191 NA
ENDROOT
BRANCH   2   9
ATOM      9  N   UNL d   1      -3.800  -5.117  -0.126  0.00  0.00    -0.316 N 
ATOM     10  C   UNL d   1      -4.640  -5.953  -0.843  0.00  0.00     0.098 A 
ATOM     11  C   UNL d   1      -4.237  -7.261  -0.694  0.00  0.00     0.019 A 
ATOM     12  C   UNL d   1      -3.071  -7.241   0.090  0.00  0.00     0.019 A 
ATOM     13  C   UNL d   1      -2.811  -5.924   0.404  0.00  0.00     0.098 A 
ENDBRANCH   2   9
BRANCH   6  14
ATOM     14  C   UNL d   1      -2.920  -0.178  -0.011  0.00  0.00     0.075 C 
ATOM     15  C   UNL d   1      -3.615   0.970  -0.206  0.00  0.00     0.036 C 
ATOM     16  C   UNL d   1      -1.507  -0.074   0.209  0.00  0.00     0.102 C 
ATOM     17  N   UNL d   1      -0.362   0.015   0.395  0.00  0.00    -0.191 NA
BRANCH  15  18
ATOM     18  C   UNL d   1      -3.031   2.324  -0.254  0.00  0.00    -0.035 A 
ATOM     19  C   UNL d   1      -2.626   2.874  -1.470  0.00  0.00     0.013 A 
ATOM     20  C   UNL d   1      -2.073   4.168  -1.525  0.00  0.00     0.030 A 
ATOM     21  C   UNL d   1      -1.904   4.963  -0.381  0.00  0.00     0.029 A 
ATOM     22  C   UNL d   1      -2.306   4.375   0.832  0.00  0.00     0.030 A 
ATOM     23  C   UNL d   1      -2.855   3.081   0.902  0.00  0.00     0.013 A 
BRANCH  21  24
ATOM     24  N   UNL d   1      -1.426   6.266  -0.435  0.00  0.00    -0.390 N 
ATOM     25  C   UNL d   1      -0.619   6.825   0.648  0.00  0.00     0.149 C 
ATOM     26  C   UNL d   1      -1.384   7.027  -1.680  0.00  0.00     0.149 C 
ENDBRANCH  21  24
ENDBRANCH  15  18
ENDBRANCH   6  14
BRANCH   3  27
ATOM     27  C   UNL d   1      -6.428  -3.512   0.101  0.00  0.00     0.058 A 
ATOM     28  C   UNL d   1      -6.693  -4.589   0.964  0.00  0.00     0.031 A 
ATOM     29  C   UNL d   1      -7.950  -5.197   0.965  0.00  0.00     0.002 A 
ATOM     30  C   UNL d   1      -8.950  -4.719   0.122  0.00  0.00     0.000 A 
ATOM     31  C   UNL d   1      -8.710  -3.605  -0.686  0.00  0.00     0.002 A 
ATOM     32  C   UNL d   1      -7.458  -2.982  -0.683  0.00  0.00     0.031 A 
ENDBRANCH   3  27
TORSDOF 5
