REMARK  4 active torsions:
REMARK  status: ('A' for Active; 'I' for Inactive)
REMARK       I    between atoms: C_2  and  N_1 
REMARK    1  A    between atoms: O_18  and  C_2 
REMARK       I    between atoms: C_3  and  N_7 
REMARK       I    between atoms: N_4  and  C_3 
REMARK    2  A    between atoms: C_8  and  N_4 
REMARK    3  A    between atoms: N_7  and  C_17 
REMARK    4  A    between atoms: C_22  and  O_18 
ROOT
ATOM      1  C   UNL d   1      -1.538  -0.522  -2.817  0.00  0.00     0.321 C 
ATOM      2  N   UNL d   1      -2.353  -0.400  -3.899  0.00  0.00    -0.309 N 
ATOM      3  N   UNL d   1      -1.976  -0.026  -1.635  0.00  0.00    -0.338 N 
ATOM      4  O   UNL d   1      -0.487  -1.141  -2.949  0.00  0.00    -0.247 OA
ATOM      5  H   UNL d   1      -2.037  -1.020  -4.637  0.00  0.00     0.170 HD
ATOM      6  H   UNL d   1      -2.977   0.095  -1.579  0.00  0.00     0.164 HD
ENDROOT
BRANCH   3   7
ATOM      7  C   UNL d   1      -1.254  -0.069  -0.355  0.00  0.00     0.089 C 
ATOM      8  C   UNL d   1      -0.595  -1.418   0.011  0.00  0.00     0.045 C 
ATOM      9  C   UNL d   1       0.908  -1.530  -0.277  0.00  0.00     0.130 C 
ATOM     10  N   UNL d   1       1.603  -0.300   0.071  0.00  0.00    -0.328 N 
ATOM     11  C   UNL d   1       2.725  -0.222   0.876  0.00  0.00     0.362 C 
ATOM     12  C   UNL d   1       1.095   0.890  -0.589  0.00  0.00     0.130 C 
ATOM     13  O   UNL d   1       3.263   0.834   1.190  0.00  0.00    -0.238 OA
ATOM     14  C   UNL d   1      -0.339   1.147  -0.159  0.00  0.00     0.045 C 
BRANCH  11  15
ATOM     15  O   UNL d   1       3.182  -1.444   1.268  0.00  0.00    -0.304 OA
BRANCH  15  16
ATOM     16  C   UNL d   1       4.440  -1.463   1.962  0.00  0.00     0.176 C 
ATOM     17  C   UNL d   1       4.218  -1.711   3.442  0.00  0.00     0.034 C 
ENDBRANCH  15  16
ENDBRANCH  11  15
ENDBRANCH   3   7
BRANCH   2  18
ATOM     18  C   UNL d   1      -3.333   0.537  -4.279  0.00  0.00     0.037 A 
ATOM     19  C   UNL d   1      -3.629   1.713  -3.594  0.00  0.00     0.054 A 
ATOM     20  C   UNL d   1      -4.526   2.645  -4.138  0.00  0.00     0.042 A 
ATOM     21 CL   UNL d   1      -4.849   4.080  -3.227  0.00  0.00    -0.084 Cl
ATOM     22  C   UNL d   1      -5.122   2.433  -5.393  0.00  0.00    -0.040 A 
ATOM     23  C   UNL d   1      -4.859   1.225  -6.050  0.00  0.00     0.011 A 
ATOM     24  C   UNL d   1      -6.035   3.432  -6.046  0.00  0.00     0.050 C 
ATOM     25  C   UNL d   1      -3.976   0.293  -5.500  0.00  0.00     0.030 A 
ENDBRANCH   2  18
TORSDOF 4
