REMARK  5 active torsions:
REMARK  status: ('A' for Active; 'I' for Inactive)
REMARK    1  A    between atoms: C_2  and  C_1 
REMARK    2  A    between atoms: C_8  and  C_2 
REMARK    3  A    between atoms: C_10  and  N_3 
REMARK    4  A    between atoms: C_11  and  C_8 
REMARK    5  A    between atoms: N_13  and  C_9 
ROOT
ATOM      1  C   UNL d   1      -0.523  -2.936   0.047  0.00  0.00     0.077 C 
ATOM      2  C   UNL d   1       0.525  -3.793   0.047  0.00  0.00     0.104 C 
ENDROOT
BRANCH   1   3
ATOM      3  C   UNL d   1      -0.159  -1.579   0.217  0.00  0.00     0.154 A 
ATOM      4  N   UNL d   1       0.057  -0.707  -0.859  0.00  0.00    -0.224 N 
ATOM      5  N   UNL d   1       0.330   0.514  -0.320  0.00  0.00     0.001 NA
ATOM      6  N   UNL d   1       0.316   0.371   0.993  0.00  0.00    -0.007 NA
ATOM      7  N   UNL d   1       0.028  -0.911   1.342  0.00  0.00    -0.269 N 
ATOM      8  HN  UNL d   1      -0.032  -1.286   2.289  1.00  0.00     0.185 HD
BRANCH   4   9
ATOM      9  C   UNL d   1       0.007  -0.857  -2.280  0.00  0.00     0.056 A 
ATOM     10  C   UNL d   1      -0.310  -2.062  -2.920  0.00  0.00     0.031 A 
ATOM     11  C   UNL d   1      -0.305  -2.153  -4.318  0.00  0.00     0.002 A 
ATOM     12  C   UNL d   1       0.012  -1.044  -5.095  0.00  0.00     0.000 A 
ATOM     13  C   UNL d   1       0.308   0.165  -4.476  0.00  0.00     0.002 A 
ATOM     14  C   UNL d   1       0.303   0.263  -3.083  0.00  0.00     0.031 A 
ENDBRANCH   4   9
ENDBRANCH   1   3
BRANCH   1  15
ATOM     15  C   UNL d   1      -1.985  -3.312  -0.083  0.00  0.00     0.197 C 
ATOM     16  O   UNL d   1      -2.361  -4.309  -0.684  0.00  0.00    -0.286 OA
BRANCH  15  17
ATOM     17  C   UNL d   1      -3.044  -2.492   0.596  0.00  0.00     0.015 A 
ATOM     18  C   UNL d   1      -3.104  -1.093   0.577  0.00  0.00     0.017 A 
ATOM     19  C   UNL d   1      -4.062  -0.404   1.330  0.00  0.00     0.025 A 
ATOM     20  C   UNL d   1      -5.015  -1.112   2.052  0.00  0.00     0.034 A 
ATOM     21  C   UNL d   1      -5.038  -2.503   1.998  0.00  0.00     0.025 A 
ATOM     22 CL   UNL d   1      -6.165  -0.263   3.007  0.00  0.00    -0.084 Cl
ATOM     23  C   UNL d   1      -4.057  -3.191   1.273  0.00  0.00     0.017 A 
ENDBRANCH  15  17
ENDBRANCH   1  15
BRANCH   2  24
ATOM     24  N   UNL d   1       0.734  -5.142  -0.198  0.00  0.00    -0.398 N 
ATOM     25  C   UNL d   1      -0.026  -5.932  -1.166  0.00  0.00     0.148 C 
ATOM     26  C   UNL d   1       1.870  -5.857   0.398  0.00  0.00     0.148 C 
ENDBRANCH   2  24
TORSDOF 5
