REMARK  4 active torsions:
REMARK  status: ('A' for Active; 'I' for Inactive)
REMARK    1  A    between atoms: C_4  and  C_1 
REMARK    2  A    between atoms: C_2  and  C_3 
REMARK       I    between atoms: N_6  and  C_4 
REMARK       I    between atoms: C_5  and  N_7 
REMARK    3  A    between atoms: C_12  and  C_5 
REMARK    4  A    between atoms: N_7  and  N_6 
ROOT
ATOM      1  C   UNL d   1       1.108   2.656  -0.062  0.00  0.00     0.272 C 
ATOM      2  N   UNL d   1       0.479   3.880   0.024  0.00  0.00    -0.263 N 
ATOM      3  O   UNL d   1       0.528   1.604   0.196  0.00  0.00    -0.266 OA
ATOM      4  H   UNL d   1       0.879   4.779  -0.244  0.00  0.00     0.190 HD
ENDROOT
BRANCH   1   5
ATOM      5  C   UNL d   1       2.549   2.624  -0.417  0.00  0.00     0.064 A 
ATOM      6  C   UNL d   1       3.206   3.378  -1.399  0.00  0.00     0.066 A 
ATOM      7  C   UNL d   1       4.592   3.175  -1.578  0.00  0.00     0.034 A 
ATOM      8  C   UNL d   1       5.256   2.232  -0.814  0.00  0.00     0.088 A 
ATOM      9  N   UNL d   1       4.641   1.483   0.116  0.00  0.00    -0.374 N 
ATOM     10  C   UNL d   1       3.310   1.688   0.287  0.00  0.00     0.105 A 
ATOM     11  HN  UNL d   1       5.151   0.792   0.667  1.00  0.00     0.164 HD
BRANCH   6  12
ATOM     12  C   UNL d   1       2.558   4.373  -2.319  0.00  0.00     0.418 C 
ATOM     13  F   UNL d   1       1.205   4.392  -2.300  0.00  0.00    -0.166 F 
ATOM     14  F   UNL d   1       2.954   5.643  -2.033  0.00  0.00    -0.166 F 
ATOM     15  F   UNL d   1       2.899   4.163  -3.621  0.00  0.00    -0.166 F 
ENDBRANCH   6  12
ENDBRANCH   1   5
BRANCH   2  16
ATOM     16  N   UNL d   1      -0.899   3.891   0.281  0.00  0.00    -0.263 N 
ATOM     17  C   UNL d   1      -1.586   5.077   0.126  0.00  0.00     0.270 C 
ATOM     18  O   UNL d   1      -1.048   6.120  -0.236  0.00  0.00    -0.266 OA
ATOM     19  H   UNL d   1      -1.356   2.981   0.342  0.00  0.00     0.190 HD
BRANCH  17  20
ATOM     20  C   UNL d   1      -3.048   5.032   0.418  0.00  0.00     0.033 A 
ATOM     21  C   UNL d   1      -3.561   4.165   1.392  0.00  0.00     0.017 A 
ATOM     22  C   UNL d   1      -4.927   4.170   1.683  0.00  0.00     0.001 A 
ATOM     23  C   UNL d   1      -5.782   5.039   1.007  0.00  0.00     0.000 A 
ATOM     24  C   UNL d   1      -5.275   5.910   0.043  0.00  0.00     0.001 A 
ATOM     25  C   UNL d   1      -3.907   5.913  -0.247  0.00  0.00     0.017 A 
ENDBRANCH  17  20
ENDBRANCH   2  16
TORSDOF 4
