REMARK  3 active torsions:
REMARK  status: ('A' for Active; 'I' for Inactive)
REMARK    1  A    between atoms: C_10  and  C_6 
REMARK    2  A    between atoms: O_18  and  C_7 
REMARK    3  A    between atoms: C_21  and  O_18 
ROOT
ATOM      1  C   UNL d   1      -0.839  -0.378  -0.032  0.00  0.00     0.052 A 
ATOM      2  C   UNL d   1      -1.252   0.958   0.019  0.00  0.00    -0.012 A 
ATOM      3  N   UNL d   1      -1.657  -1.430  -0.090  0.00  0.00    -0.335 N 
ATOM      4  HN  UNL d   1      -1.312  -2.390  -0.133  1.00  0.00     0.168 HD
ATOM      5  C   UNL d   1      -3.502   0.175  -0.015  0.00  0.00     0.109 A 
ATOM      6  C   UNL d   1      -2.610   1.269   0.034  0.00  0.00     0.032 A 
ATOM      7  C   UNL d   1      -2.979  -1.132  -0.088  0.00  0.00     0.165 A 
ATOM      8  C   UNL d   1       0.604  -0.445  -0.032  0.00  0.00    -0.002 A 
ATOM      9  C   UNL d   1      -0.035   1.865   0.020  0.00  0.00     0.081 A 
ATOM     10  C   UNL d   1       1.109   0.872  -0.012  0.00  0.00    -0.041 A 
ATOM     11  C   UNL d   1      -4.924   0.355  -0.006  0.00  0.00     0.105 C 
ATOM     12  N   UNL d   1      -6.071   0.536  -0.025  0.00  0.00    -0.191 NA
ATOM     13  C   UNL d   1       1.464  -1.528  -0.034  0.00  0.00     0.014 A 
ATOM     14  C   UNL d   1       2.468   1.129  -0.003  0.00  0.00     0.008 A 
ATOM     15  C   UNL d   1       2.840  -1.280  -0.018  0.00  0.00     0.001 A 
ATOM     16  C   UNL d   1       3.337   0.036  -0.005  0.00  0.00     0.001 A 
ENDROOT
BRANCH   7  17
ATOM     17  O   UNL d   1      -3.875  -2.190  -0.118  0.00  0.00    -0.335 OA
BRANCH  17  18
ATOM     18  C   UNL d   1      -3.301  -3.389  -0.652  0.00  0.00     0.173 C 
ATOM     19  C   UNL d   1      -4.318  -4.513  -0.557  0.00  0.00     0.034 C 
ENDBRANCH  17  18
ENDBRANCH   7  17
BRANCH   6  20
ATOM     20  C   UNL d   1      -3.038   2.667   0.080  0.00  0.00     0.087 A 
ATOM     21  O   UNL d   1      -2.229   3.505   0.800  0.00  0.00    -0.322 OA
ATOM     22  C   UNL d   1      -2.743   4.756   0.713  0.00  0.00     0.142 A 
ATOM     23  C   UNL d   1      -3.890   4.746  -0.043  0.00  0.00     0.027 A 
ATOM     24  C   UNL d   1      -4.086   3.400  -0.445  0.00  0.00     0.040 A 
ENDBRANCH   6  20
TORSDOF 3
