REMARK  7 active torsions:
REMARK  status: ('A' for Active; 'I' for Inactive)
REMARK    1  A    between atoms: C_2  and  N_1 
REMARK    2  A    between atoms: C_3  and  O_13 
REMARK    3  A    between atoms: C_6  and  C_3 
REMARK    4  A    between atoms: C_8  and  C_4 
REMARK    5  A    between atoms: C_19  and  C_10 
REMARK    6  A    between atoms: O_13  and  C_18 
REMARK    7  A    between atoms: C_18  and  C_19 
ROOT
ATOM      1  C   UNL d   1      -1.117  -3.281   0.802  0.00  0.00     0.066 C 
ENDROOT
BRANCH   1   2
ATOM      2  C   UNL d   1      -0.226  -2.502  -0.189  0.00  0.00     0.183 C 
BRANCH   2   3
ATOM      3  O   UNL d   1       1.073  -3.087  -0.410  0.00  0.00    -0.317 OA
BRANCH   3   4
ATOM      4  C   UNL d   1       1.109  -4.239  -1.118  0.00  0.00     0.293 C 
ATOM      5  O   UNL d   1       0.144  -4.800  -1.617  0.00  0.00    -0.259 OA
BRANCH   4   6
ATOM      6  C   UNL d   1       2.497  -4.776  -1.192  0.00  0.00     0.039 A 
ATOM      7  C   UNL d   1       2.675  -6.060  -1.734  0.00  0.00     0.020 A 
ATOM      8  C   UNL d   1       3.954  -6.609  -1.852  0.00  0.00     0.043 A 
ATOM      9  C   UNL d   1       5.055  -5.875  -1.427  0.00  0.00     0.116 A 
ATOM     10  C   UNL d   1       4.900  -4.607  -0.877  0.00  0.00     0.043 A 
ATOM     11  F   UNL d   1       6.282  -6.396  -1.552  0.00  0.00    -0.206 F 
ATOM     12  C   UNL d   1       3.620  -4.054  -0.755  0.00  0.00     0.020 A 
ENDBRANCH   4   6
ENDBRANCH   3   4
ENDBRANCH   2   3
ENDBRANCH   1   2
BRANCH   1  13
ATOM     13  C   UNL d   1      -0.669  -3.329   2.256  0.00  0.00    -0.046 A 
ATOM     14  C   UNL d   1      -1.596  -3.392   3.321  0.00  0.00    -0.028 A 
ATOM     15  C   UNL d   1      -1.138  -3.462   4.649  0.00  0.00     0.012 A 
ATOM     16  C   UNL d   1       0.224  -3.501   4.934  0.00  0.00     0.001 A 
ATOM     17  C   UNL d   1       1.142  -3.486   3.897  0.00  0.00     0.001 A 
ATOM     18  C   UNL d   1       0.699  -3.403   2.577  0.00  0.00     0.008 A 
BRANCH  14  19
ATOM     19  C   UNL d   1      -3.051  -3.478   3.123  0.00  0.00     0.035 C 
ATOM     20  C   UNL d   1      -4.000  -2.538   3.224  0.00  0.00     0.168 C 
BRANCH  20  21
ATOM     21  N   UNL d   1      -3.749  -1.142   3.488  0.00  0.00    -0.127 N 
ATOM     22  O   UNL d   1      -4.762  -0.445   3.629  0.00  0.00    -0.532 OA
ATOM     23  O   UNL d   1      -2.590  -0.717   3.534  0.00  0.00    -0.532 OA
ENDBRANCH  20  21
ENDBRANCH  14  19
ENDBRANCH   1  13
TORSDOF 7
