REMARK  3 active torsions:
REMARK  status: ('A' for Active; 'I' for Inactive)
REMARK    1  A    between atoms: C_10  and  N_1 
REMARK    2  A    between atoms: C_7  and  C_2 
REMARK    3  A    between atoms: N_9  and  C_8 
ROOT
ATOM      1  N   UNL d   1       0.133  -0.756   1.016  0.00  0.00    -0.225 N 
ATOM      2  C   UNL d   1       1.068  -0.759  -0.021  0.00  0.00     0.139 A 
ATOM      3  N   UNL d   1      -0.818  -0.046  -0.775  0.00  0.00    -0.007 NA
ATOM      4  N   UNL d   1      -1.059  -0.378   0.481  0.00  0.00     0.001 NA
ATOM      5  N   UNL d   1       0.485  -0.280  -1.103  0.00  0.00    -0.270 N 
ATOM      6  HN  UNL d   1       0.924  -0.115  -2.009  1.00  0.00     0.185 HD
ENDROOT
BRANCH   2   7
ATOM      7  C   UNL d   1       2.379  -1.263   0.124  0.00  0.00     0.068 C 
ATOM      8  C   UNL d   1       2.642  -2.559  -0.088  0.00  0.00     0.089 C 
BRANCH   8   9
ATOM      9  N   UNL d   1       3.843  -3.243   0.045  0.00  0.00    -0.390 N 
ATOM     10  C   UNL d   1       5.081  -2.656   0.572  0.00  0.00     0.122 C 
ATOM     11  C   UNL d   1       5.566  -3.484   1.760  0.00  0.00     0.020 C 
ATOM     12  C   UNL d   1       5.774  -4.942   1.360  0.00  0.00     0.003 C 
ATOM     13  C   UNL d   1       4.508  -5.515   0.722  0.00  0.00     0.020 C 
ATOM     14  C   UNL d   1       4.004  -4.633  -0.420  0.00  0.00     0.122 C 
ENDBRANCH   8   9
ENDBRANCH   2   7
BRANCH   1  15
ATOM     15  C   UNL d   1       0.235  -1.015   2.414  0.00  0.00     0.056 A 
ATOM     16  C   UNL d   1       1.461  -0.993   3.093  0.00  0.00     0.033 A 
ATOM     17  C   UNL d   1       1.504  -1.188   4.479  0.00  0.00     0.026 A 
ATOM     18  C   UNL d   1       0.330  -1.420   5.190  0.00  0.00     0.034 A 
ATOM     19  C   UNL d   1      -0.893  -1.458   4.529  0.00  0.00     0.026 A 
ATOM     20 CL   UNL d   1       0.392  -1.642   6.894  0.00  0.00    -0.084 Cl
ATOM     21  C   UNL d   1      -0.944  -1.246   3.147  0.00  0.00     0.033 A 
ENDBRANCH   1  15
TORSDOF 3
