REMARK  1 active torsions:
REMARK  status: ('A' for Active; 'I' for Inactive)
REMARK    1  A    between atoms: C_10  and  C_2 
ROOT
ATOM      1  N   UNL d   1      -0.027  -0.603  -0.057  0.00  0.00    -0.243 N 
ATOM      2  C   UNL d   1       1.260  -1.078  -0.007  0.00  0.00     0.148 A 
ATOM      3  C   UNL d   1       0.089   0.746  -0.052  0.00  0.00     0.170 A 
ATOM      4  N   UNL d   1       2.077  -0.032   0.058  0.00  0.00    -0.282 N 
ATOM      5  HN  UNL d   1       3.094  -0.079   0.124  1.00  0.00     0.188 HD
ATOM      6  N   UNL d   1       1.327   1.131   0.021  0.00  0.00    -0.278 N 
ATOM      7  HN  UNL d   1       1.675   2.090   0.046  1.00  0.00     0.189 HD
ATOM      8  C   UNL d   1      -1.295  -1.143  -0.081  0.00  0.00     0.241 A 
ATOM      9  S   UNL d   1      -1.412   1.564  -0.112  0.00  0.00    -0.083 SA
ATOM     10  C   UNL d   1      -2.317  -0.029  -0.203  0.00  0.00     0.186 A 
ATOM     11  O   UNL d   1      -1.503  -2.342  -0.024  0.00  0.00    -0.272 OA
ENDROOT
BRANCH   2  12
ATOM     12  C   UNL d   1       1.706  -2.442  -0.032  0.00  0.00     0.051 A 
ATOM     13  S   UNL d   1       3.164  -2.888   0.767  0.00  0.00    -0.098 SA
ATOM     14  C   UNL d   1       3.015  -4.522   0.294  0.00  0.00     0.050 A 
ATOM     15  C   UNL d   1       1.890  -4.736  -0.467  0.00  0.00     0.009 A 
ATOM     16  C   UNL d   1       1.146  -3.535  -0.667  0.00  0.00     0.023 A 
ENDBRANCH   2  12
TORSDOF 1
