REMARK  8 active torsions:
REMARK  status: ('A' for Active; 'I' for Inactive)
REMARK    1  A    between atoms: C_5  and  N_1 
REMARK    2  A    between atoms: N_4  and  C_7 
REMARK    3  A    between atoms: C_9  and  C_12 
REMARK    4  A    between atoms: C_10  and  C_13 
REMARK    5  A    between atoms: S_16  and  C_11 
REMARK    6  A    between atoms: C_15  and  N_18 
REMARK    7  A    between atoms: C_35  and  S_16 
REMARK    8  A    between atoms: C_17  and  C_35 
REMARK       I    between atoms: N_18  and  C_17 
ROOT
ATOM      1  C   UNL d   1       2.095  -1.755  -2.162  0.00  0.00     0.177 C 
ENDROOT
BRANCH   1   2
ATOM      2  C   UNL d   1       2.617  -2.105  -3.548  0.00  0.00     0.231 C 
ATOM      3  N   UNL d   1       1.677  -2.459  -4.497  0.00  0.00    -0.326 N 
ATOM      4  H   UNL d   1       0.706  -2.331  -4.226  0.00  0.00     0.169 HD
ATOM      5  O   UNL d   1       3.831  -2.044  -3.742  0.00  0.00    -0.272 OA
BRANCH   3   6
ATOM      6  C   UNL d   1       1.933  -2.962  -5.792  0.00  0.00     0.036 A 
ATOM      7  C   UNL d   1       3.211  -3.323  -6.228  0.00  0.00     0.045 A 
ATOM      8  C   UNL d   1       3.428  -3.869  -7.502  0.00  0.00     0.050 A 
ATOM      9  C   UNL d   1       2.336  -4.044  -8.360  0.00  0.00     0.032 A 
ATOM     10  C   UNL d   1       1.041  -3.687  -7.952  0.00  0.00     0.050 A 
ATOM     11  C   UNL d   1       0.852  -3.146  -6.663  0.00  0.00     0.045 A 
BRANCH   8  12
ATOM     12  C   UNL d   1       4.829  -4.264  -7.904  0.00  0.00     0.417 C 
ATOM     13  F   UNL d   1       4.890  -4.862  -9.126  0.00  0.00    -0.166 F 
ATOM     14  F   UNL d   1       5.675  -3.201  -7.966  0.00  0.00    -0.166 F 
ATOM     15  F   UNL d   1       5.391  -5.146  -7.032  0.00  0.00    -0.166 F 
ENDBRANCH   8  12
BRANCH  10  16
ATOM     16  C   UNL d   1      -0.137  -3.880  -8.879  0.00  0.00     0.417 C 
ATOM     17  F   UNL d   1       0.184  -4.523 -10.036  0.00  0.00    -0.166 F 
ATOM     18  F   UNL d   1      -1.131  -4.614  -8.308  0.00  0.00    -0.166 F 
ATOM     19  F   UNL d   1      -0.705  -2.701  -9.250  0.00  0.00    -0.166 F 
ENDBRANCH  10  16
ENDBRANCH   3   6
ENDBRANCH   1   2
BRANCH   1  20
ATOM     20  S   UNL d   1       0.288  -1.861  -1.954  0.00  0.00    -0.145 SA
BRANCH  20  21
ATOM     21  C   UNL d   1       0.182  -1.473  -0.154  0.00  0.00     0.149 C 
ATOM     22  C   UNL d   1       0.733  -0.095   0.116  0.00  0.00     0.245 C 
ATOM     23  N   UNL d   1      -0.305   0.811   0.032  0.00  0.00    -0.251 N 
ATOM     24  O   UNL d   1       1.919   0.093   0.344  0.00  0.00    -0.271 OA
ATOM     25  C   UNL d   1      -1.512   0.145   0.112  0.00  0.00     0.232 C 
ATOM     26  C   UNL d   1      -1.250  -1.322   0.295  0.00  0.00     0.128 C 
ATOM     27  O   UNL d   1      -2.650   0.595   0.144  0.00  0.00    -0.273 OA
BRANCH  23  28
ATOM     28  C   UNL d   1      -0.153   2.237  -0.016  0.00  0.00     0.047 A 
ATOM     29  C   UNL d   1      -1.256   3.091  -0.170  0.00  0.00     0.066 A 
ATOM     30  C   UNL d   1      -1.097   4.487  -0.130  0.00  0.00     0.111 A 
ATOM     31  C   UNL d   1       0.151   5.097   0.042  0.00  0.00    -0.029 A 
ATOM     32  C   UNL d   1       1.259   4.249   0.124  0.00  0.00     0.011 A 
ATOM     33  C   UNL d   1       0.338   6.581   0.157  0.00  0.00     0.050 C 
ATOM     34  C   UNL d   1       1.107   2.852   0.086  0.00  0.00     0.031 A 
BRANCH  30  35
ATOM     35  N   UNL d   1      -2.301   5.295  -0.280  0.00  0.00    -0.115 N 
ATOM     36  O   UNL d   1      -2.936   5.161  -1.334  0.00  0.00    -0.532 OA
ATOM     37  O   UNL d   1      -2.604   6.041   0.658  0.00  0.00    -0.532 OA
ENDBRANCH  30  35
ENDBRANCH  23  28
ENDBRANCH  20  21
ENDBRANCH   1  20
TORSDOF 8
