REMARK  4 active torsions:
REMARK  status: ('A' for Active; 'I' for Inactive)
REMARK    1  A    between atoms: C_2  and  C_1 
REMARK    2  A    between atoms: C_6  and  C_2 
REMARK    3  A    between atoms: S_8  and  C_3 
REMARK    4  A    between atoms: C_7  and  S_8 
ROOT
ATOM      1  C   UNL d   1       1.080   0.043  -0.003  0.00  0.00     0.063 C 
ATOM      2  C   UNL d   1       2.413   0.033   0.124  0.00  0.00     0.056 C 
ENDROOT
BRANCH   1   3
ATOM      3  C   UNL d   1       0.410   1.237  -0.579  0.00  0.00     0.182 C 
ATOM      4  O   UNL d   1       0.923   2.349  -0.545  0.00  0.00    -0.288 OA
BRANCH   3   5
ATOM      5  C   UNL d   1      -0.944   1.056  -1.170  0.00  0.00     0.014 A 
ATOM      6  C   UNL d   1      -1.837   2.137  -1.135  0.00  0.00     0.017 A 
ATOM      7  C   UNL d   1      -3.094   2.034  -1.735  0.00  0.00     0.020 A 
ATOM      8  C   UNL d   1      -3.455   0.853  -2.381  0.00  0.00     0.011 A 
ATOM      9  C   UNL d   1      -2.576  -0.230  -2.421  0.00  0.00     0.020 A 
ATOM     10 BR   UNL d   1      -5.137   0.726  -3.235  0.00  0.00    -0.051 Br
ATOM     11  C   UNL d   1      -1.319  -0.130  -1.815  0.00  0.00     0.017 A 
ENDBRANCH   3   5
ENDBRANCH   1   3
BRANCH   2  12
ATOM     12  S   UNL d   1       3.229  -1.327   0.826  0.00  0.00    -0.084 SA
BRANCH  12  13
ATOM     13  C   UNL d   1       4.785  -1.291  -0.059  0.00  0.00     0.073 A 
ATOM     14  N   UNL d   1       4.794  -0.822  -1.327  0.00  0.00    -0.360 N 
ATOM     15  C   UNL d   1       5.970  -0.855  -1.991  0.00  0.00     0.089 A 
ATOM     16  HN  UNL d   1       3.947  -0.459  -1.765  1.00  0.00     0.166 HD
ATOM     17  C   UNL d   1       7.148  -1.344  -1.452  0.00  0.00     0.017 A 
ATOM     18  C   UNL d   1       7.121  -1.825  -0.150  0.00  0.00     0.004 A 
ATOM     19  C   UNL d   1       5.922  -1.801   0.560  0.00  0.00     0.037 A 
ENDBRANCH  12  13
ENDBRANCH   2  12
TORSDOF 4
