REMARK  3 active torsions:
REMARK  status: ('A' for Active; 'I' for Inactive)
REMARK    1  A    between atoms: C_4  and  C_1 
REMARK       I    between atoms: N_8  and  C_4 
REMARK    2  A    between atoms: C_20  and  N_8 
REMARK    3  A    between atoms: C_19  and  C_20 
ROOT
ATOM      1  C   UNL d   1       4.603  -0.889  -0.073  0.00  0.00     0.268 C 
ATOM      2  N   UNL d   1       5.623   0.042  -0.131  0.00  0.00    -0.351 N 
ATOM      3  O   UNL d   1       3.420  -0.573  -0.037  0.00  0.00    -0.266 OA
ATOM      4  H   UNL d   1       6.576  -0.281  -0.188  0.00  0.00     0.163 HD
ENDROOT
BRANCH   1   5
ATOM      5  C   UNL d   1       5.032  -2.276  -0.070  0.00  0.00     0.102 A 
ATOM      6  N   UNL d   1       4.134  -3.331  -0.015  0.00  0.00    -0.351 N 
ATOM      7  C   UNL d   1       4.786  -4.546  -0.051  0.00  0.00     0.043 A 
ATOM      8  H   UNL d   1       3.130  -3.211   0.032  0.00  0.00     0.166 HD
ATOM      9  C   UNL d   1       4.285  -5.857  -0.030  0.00  0.00     0.032 A 
ATOM     10  C   UNL d   1       6.149  -4.270  -0.119  0.00  0.00    -0.005 A 
ATOM     11  C   UNL d   1       5.211  -6.907  -0.088  0.00  0.00     0.026 A 
ATOM     12  C   UNL d   1       6.577  -6.650  -0.160  0.00  0.00     0.035 A 
ATOM     13  C   UNL d   1       7.064  -5.340  -0.173  0.00  0.00     0.037 A 
ATOM     14 CL   UNL d   1       7.691  -7.963  -0.238  0.00  0.00    -0.084 Cl
ATOM     15  C   UNL d   1       6.290  -2.856  -0.122  0.00  0.00     0.049 A 
ENDBRANCH   1   5
BRANCH   2  16
ATOM     16  C   UNL d   1       5.403   1.471  -0.227  0.00  0.00     0.161 C 
BRANCH  16  17
ATOM     17  C   UNL d   1       6.061   2.230   0.901  0.00  0.00    -0.038 A 
ATOM     18  C   UNL d   1       5.652   1.990   2.225  0.00  0.00     0.048 A 
ATOM     19  C   UNL d   1       6.232   2.727   3.237  0.00  0.00     0.105 A 
ATOM     20  O   UNL d   1       5.944   2.612   4.561  0.00  0.00    -0.323 OA
ATOM     21  C   UNL d   1       7.181   3.688   2.987  0.00  0.00     0.105 A 
ATOM     22  C   UNL d   1       6.867   3.568   5.121  0.00  0.00     0.352 A 
ATOM     23  O   UNL d   1       7.613   4.298   4.123  0.00  0.00    -0.323 OA
ATOM     24  C   UNL d   1       7.605   3.967   1.706  0.00  0.00     0.040 A 
ATOM     25  C   UNL d   1       7.038   3.227   0.655  0.00  0.00     0.012 A 
ENDBRANCH  16  17
ENDBRANCH   2  16
TORSDOF 3
