REMARK  11 active torsions:
REMARK  status: ('A' for Active; 'I' for Inactive)
REMARK    1  A    between atoms: C_4  and  C_1 
REMARK    2  A    between atoms: C_5  and  C_1 
REMARK    3  A    between atoms: C_32  and  C_1 
REMARK    4  A    between atoms: C_2  and  C_22 
REMARK    5  A    between atoms: C_3  and  C_23 
REMARK       I    between atoms: N_20  and  C_4 
REMARK       I    between atoms: N_21  and  C_5 
REMARK    6  A    between atoms: O_29  and  C_8 
REMARK    7  A    between atoms: O_28  and  C_9 
REMARK    8  A    between atoms: N_12  and  N_21 
REMARK    9  A    between atoms: N_14  and  N_20 
REMARK   10  A    between atoms: C_33  and  C_32 
REMARK   11  A    between atoms: C_34  and  C_33 
ROOT
ATOM      1  C   UNL d   1       1.039   0.005  -0.013  0.00  0.00     0.173 C 
ENDROOT
BRANCH   1   2
ATOM      2  C   UNL d   1       0.399   0.848   1.072  0.00  0.00     0.249 C 
ATOM      3  N   UNL d   1       0.117   0.141   2.242  0.00  0.00    -0.270 N 
ATOM      4  H   UNL d   1       0.328  -0.844   2.338  0.00  0.00     0.190 HD
ATOM      5  O   UNL d   1       0.186   2.050   0.917  0.00  0.00    -0.271 OA
BRANCH   3   6
ATOM      6  N   UNL d   1      -0.442   0.815   3.283  0.00  0.00    -0.308 N 
ATOM      7  C   UNL d   1      -0.642   0.161   4.382  0.00  0.00     0.121 C 
ATOM      8  HN  UNL d   1      -0.694   1.800   3.201  1.00  0.00     0.186 HD
BRANCH   7   9
ATOM      9  C   UNL d   1      -1.249   0.845   5.546  0.00  0.00     0.017 A 
ATOM     10  C   UNL d   1      -1.480   0.168   6.745  0.00  0.00     0.099 A 
ATOM     11  C   UNL d   1      -2.037   0.856   7.832  0.00  0.00     0.069 A 
ATOM     12 CL   UNL d   1      -2.322   0.038   9.326  0.00  0.00    -0.081 Cl
ATOM     13  C   UNL d   1      -2.364   2.207   7.730  0.00  0.00     0.050 A 
ATOM     14  C   UNL d   1      -2.136   2.874   6.529  0.00  0.00     0.036 A 
ATOM     15  C   UNL d   1      -1.584   2.204   5.439  0.00  0.00     0.039 A 
ATOM     16 CL   UNL d   1      -2.533   4.542   6.392  0.00  0.00    -0.084 Cl
BRANCH  10  17
ATOM     17  O   UNL d   1      -1.160  -1.160   6.850  0.00  0.00    -0.358 OA
ATOM     18  H   UNL d   1      -1.394  -1.450   7.754  0.00  0.00     0.217 HD
ENDBRANCH  10  17
ENDBRANCH   7   9
ENDBRANCH   3   6
ENDBRANCH   1   2
BRANCH   1  19
ATOM     19  C   UNL d   1       0.683   0.425  -1.443  0.00  0.00     0.249 C 
ATOM     20  N   UNL d   1       0.362   1.756  -1.676  0.00  0.00    -0.270 N 
ATOM     21  H   UNL d   1       0.207   2.399  -0.893  0.00  0.00     0.190 HD
ATOM     22  O   UNL d   1       0.768  -0.418  -2.344  0.00  0.00    -0.271 OA
BRANCH  20  23
ATOM     23  N   UNL d   1       0.072   2.146  -2.955  0.00  0.00    -0.308 N 
ATOM     24  C   UNL d   1      -0.273   3.380  -3.159  0.00  0.00     0.121 C 
ATOM     25  HN  UNL d   1       0.127   1.484  -3.729  1.00  0.00     0.186 HD
BRANCH  24  26
ATOM     26  C   UNL d   1      -0.601   3.840  -4.538  0.00  0.00     0.017 A 
ATOM     27  C   UNL d   1      -0.952   5.168  -4.804  0.00  0.00     0.099 A 
ATOM     28  C   UNL d   1      -1.251   5.562  -6.119  0.00  0.00     0.069 A 
ATOM     29 CL   UNL d   1      -1.685   7.198  -6.464  0.00  0.00    -0.081 Cl
ATOM     30  C   UNL d   1      -1.201   4.647  -7.168  0.00  0.00     0.050 A 
ATOM     31  C   UNL d   1      -0.851   3.324  -6.897  0.00  0.00     0.036 A 
ATOM     32  C   UNL d   1      -0.554   2.920  -5.596  0.00  0.00     0.039 A 
ATOM     33 CL   UNL d   1      -0.784   2.188  -8.186  0.00  0.00    -0.084 Cl
BRANCH  27  34
ATOM     34  O   UNL d   1      -1.002   6.082  -3.784  0.00  0.00    -0.358 OA
ATOM     35  H   UNL d   1      -1.254   6.943  -4.169  0.00  0.00     0.217 HD
ENDBRANCH  27  34
ENDBRANCH  24  26
ENDBRANCH  20  23
ENDBRANCH   1  19
BRANCH   1  36
ATOM     36  C   UNL d   1       2.574  -0.031   0.130  0.00  0.00     0.024 C 
BRANCH  36  37
ATOM     37  C   UNL d   1       3.100  -0.803   1.351  0.00  0.00     0.001 C 
BRANCH  37  38
ATOM     38  C   UNL d   1       4.634  -0.826   1.359  0.00  0.00    -0.005 C 
ATOM     39  C   UNL d   1       5.202  -1.571   2.558  0.00  0.00     0.005 C 
ENDBRANCH  37  38
ENDBRANCH  36  37
ENDBRANCH   1  36
TORSDOF 11
