REMARK  1 active torsions:
REMARK  status: ('A' for Active; 'I' for Inactive)
REMARK    1  A    between atoms: C_6  and  N_1 
ROOT
ATOM      1  N   UNL d   1       2.436  -0.593  -0.007  0.00  0.00    -0.254 N 
ATOM      2  C   UNL d   1       2.385   0.812  -0.025  0.00  0.00     0.186 A 
ATOM      3  C   UNL d   1       1.290  -1.400   0.150  0.00  0.00     0.267 A 
ATOM      4  C   UNL d   1      -0.018  -0.717   0.115  0.00  0.00     0.059 A 
ATOM      5  N   UNL d   1       1.142   1.385   0.081  0.00  0.00    -0.332 N 
ATOM      6  C   UNL d   1      -0.047   0.669   0.089  0.00  0.00     0.050 A 
ATOM      7  S   UNL d   1       3.643   1.911  -0.244  0.00  0.00    -0.040 SA
ATOM      8  O   UNL d   1       1.297  -2.619   0.320  0.00  0.00    -0.267 OA
ATOM      9  C   UNL d   1      -1.216  -1.441   0.084  0.00  0.00     0.019 A 
ATOM     10  C   UNL d   1      -1.265   1.353   0.035  0.00  0.00     0.030 A 
ATOM     11  C   UNL d   1      -2.435  -0.764   0.011  0.00  0.00     0.001 A 
ATOM     12  C   UNL d   1      -2.459   0.631  -0.013  0.00  0.00     0.002 A 
ATOM     13  H   UNL d   1       1.116   2.398   0.038  0.00  0.00     0.168 HD
ENDROOT
BRANCH   1  14
ATOM     14  C   UNL d   1       3.692  -1.281  -0.150  0.00  0.00     0.051 A 
ATOM     15  C   UNL d   1       3.938  -2.164  -1.225  0.00  0.00    -0.033 A 
ATOM     16  C   UNL d   1       5.209  -2.761  -1.343  0.00  0.00     0.028 A 
ATOM     17  C   UNL d   1       2.929  -2.501  -2.290  0.00  0.00     0.050 C 
ATOM     18  C   UNL d   1       6.220  -2.475  -0.428  0.00  0.00     0.011 A 
ATOM     19  C   UNL d   1       5.978  -1.622   0.641  0.00  0.00     0.021 A 
ATOM     20 BR   UNL d   1       7.935  -3.237  -0.655  0.00  0.00    -0.051 Br
ATOM     21  C   UNL d   1       4.717  -1.040   0.785  0.00  0.00     0.032 A 
ENDBRANCH   1  14
TORSDOF 1
