REMARK  5 active torsions:
REMARK  status: ('A' for Active; 'I' for Inactive)
REMARK    1  A    between atoms: C_11  and  C_3 
REMARK    2  A    between atoms: C_12  and  N_7 
REMARK    3  A    between atoms: N_14  and  C_8 
REMARK    4  A    between atoms: O_18  and  C_11 
REMARK    5  A    between atoms: O_23  and  C_20 
ROOT
ATOM      1  C   UNL d   1      -0.230  -0.752  -0.001  0.00  0.00     0.081 A 
ATOM      2  C   UNL d   1      -0.445   0.665   0.015  0.00  0.00     0.029 A 
ATOM      3  C   UNL d   1       0.727   1.530   0.002  0.00  0.00     0.136 A 
ATOM      4  C   UNL d   1       1.106  -1.327   0.013  0.00  0.00     0.281 A 
ATOM      5  N   UNL d   1       1.928   1.012  -0.009  0.00  0.00    -0.284 N 
ATOM      6  HN  UNL d   1       2.734   1.636  -0.001  1.00  0.00     0.188 HD
ATOM      7  N   UNL d   1       2.141  -0.371  -0.033  0.00  0.00    -0.219 N 
ATOM      8  C   UNL d   1      -1.397  -1.485  -0.041  0.00  0.00     0.085 A 
ATOM      9  C   UNL d   1      -1.803   0.962   0.042  0.00  0.00    -0.005 A 
ATOM     10  S   UNL d   1      -2.758  -0.474   0.005  0.00  0.00    -0.076 SA
ATOM     11  O   UNL d   1       1.256  -2.547   0.097  0.00  0.00    -0.265 OA
ATOM     12  C   UNL d   1      -2.578   2.239   0.085  0.00  0.00     0.057 C 
ENDROOT
BRANCH   7  13
ATOM     13  C   UNL d   1       3.525  -0.743  -0.156  0.00  0.00     0.060 A 
ATOM     14  C   UNL d   1       3.919  -1.998  -0.646  0.00  0.00     0.034 A 
ATOM     15  C   UNL d   1       5.269  -2.352  -0.775  0.00  0.00     0.039 A 
ATOM     16  C   UNL d   1       6.265  -1.453  -0.414  0.00  0.00     0.068 A 
ATOM     17  C   UNL d   1       5.897  -0.193   0.056  0.00  0.00     0.039 A 
ATOM     18  C   UNL d   1       4.546   0.160   0.183  0.00  0.00     0.034 A 
BRANCH  16  19
ATOM     19  O   UNL d   1       7.610  -1.676  -0.514  0.00  0.00    -0.356 OA
ATOM     20  C   UNL d   1       8.018  -3.040  -0.550  0.00  0.00     0.210 C 
ENDBRANCH  16  19
ENDBRANCH   7  13
BRANCH   3  21
ATOM     21  C   UNL d   1       0.679   3.057  -0.072  0.00  0.00     0.312 C 
ATOM     22  O   UNL d   1       0.037   3.647  -0.923  0.00  0.00    -0.258 OA
BRANCH  21  23
ATOM     23  O   UNL d   1       1.474   3.602   0.874  0.00  0.00    -0.321 OA
ATOM     24  C   UNL d   1       1.608   5.023   0.776  0.00  0.00     0.213 C 
ENDBRANCH  21  23
ENDBRANCH   3  21
BRANCH   8  25
ATOM     25  N   UNL d   1      -1.530  -2.825  -0.111  0.00  0.00    -0.393 N 
ATOM     26  H   UNL d   1      -0.709  -3.418   0.029  0.00  0.00     0.156 HD
ATOM     27  H   UNL d   1      -2.421  -3.272   0.073  0.00  0.00     0.156 HD
ENDBRANCH   8  25
TORSDOF 5
