REMARK  1 active torsions:
REMARK  status: ('A' for Active; 'I' for Inactive)
REMARK    1  A    between atoms: O_11  and  C_3 
ROOT
ATOM      1  C   UNL d   1       0.058   0.676   0.011  0.00  0.00     0.138 A 
ATOM      2  C   UNL d   1      -0.017  -0.727  -0.011  0.00  0.00     0.122 A 
ATOM      3  C   UNL d   1       1.302   1.360   0.036  0.00  0.00     0.121 A 
ATOM      4  C   UNL d   1       1.161  -1.466  -0.055  0.00  0.00     0.048 A 
ATOM      5  C   UNL d   1       2.475   0.589   0.005  0.00  0.00     0.048 A 
ATOM      6  C   UNL d   1       2.393  -0.815  -0.046  0.00  0.00     0.044 A 
ATOM      7  O   UNL d   1      -1.082   1.460   0.023  0.00  0.00    -0.344 OA
ATOM      8  O   UNL d   1      -1.208  -1.410  -0.004  0.00  0.00    -0.345 OA
ATOM      9 BR   UNL d   1       1.148  -3.363  -0.114  0.00  0.00    -0.048 Br
ATOM     10 BR   UNL d   1       4.264   1.238   0.014  0.00  0.00    -0.048 Br
ATOM     11  C   UNL d   1      -2.249   0.734  -0.365  0.00  0.00     0.202 C 
ATOM     12  C   UNL d   1      -2.308  -0.582   0.380  0.00  0.00     0.202 C 
ENDROOT
BRANCH   3  13
ATOM     13  O   UNL d   1       1.142   2.718   0.078  0.00  0.00    -0.352 OA
ATOM     14  C   UNL d   1       2.232   3.615   0.127  0.00  0.00     0.210 C 
ENDBRANCH   3  13
TORSDOF 1
