REMARK  6 active torsions:
REMARK  status: ('A' for Active; 'I' for Inactive)
REMARK    1  A    between atoms: N_4  and  C_1 
REMARK       I    between atoms: C_7  and  N_4 
REMARK    2  A    between atoms: O_16  and  C_5 
REMARK    3  A    between atoms: C_9  and  C_7 
REMARK    4  A    between atoms: O_17  and  C_8 
REMARK    5  A    between atoms: C_10  and  C_11 
REMARK    6  A    between atoms: O_15  and  C_10 
ROOT
ATOM      1  C   UNL d   1       1.660   1.199  -0.197  0.00  0.00     0.070 A 
ATOM      2  C   UNL d   1       0.329   0.967  -0.565  0.00  0.00     0.059 A 
ATOM      3  C   UNL d   1       1.892  -1.197   0.110  0.00  0.00     0.077 A 
ATOM      4  C   UNL d   1       2.466   0.086   0.094  0.00  0.00     0.097 A 
ATOM      5  C   UNL d   1      -0.248  -0.313  -0.522  0.00  0.00     0.069 A 
ATOM      6  C   UNL d   1       0.533  -1.416  -0.175  0.00  0.00     0.092 A 
ATOM      7 CL   UNL d   1      -1.955  -0.345  -0.803  0.00  0.00    -0.081 Cl
ENDROOT
BRANCH   1   8
ATOM      8  N   UNL d   1       2.155   2.515  -0.008  0.00  0.00    -0.321 N 
ATOM      9  C   UNL d   1       1.457   3.697  -0.153  0.00  0.00     0.246 C 
ATOM     10  O   UNL d   1       0.303   3.843  -0.532  0.00  0.00    -0.268 OA
ATOM     11  H   UNL d   1       3.077   2.571   0.397  0.00  0.00     0.169 HD
BRANCH   9  12
ATOM     12  C   UNL d   1       2.263   4.886   0.220  0.00  0.00     0.081 C 
ATOM     13  C   UNL d   1       1.672   6.091   0.211  0.00  0.00     0.086 C 
BRANCH  13  14
ATOM     14  C   UNL d   1       2.470   7.276   0.550  0.00  0.00     0.165 C 
ATOM     15  O   UNL d   1       3.652   7.234   0.867  0.00  0.00    -0.647 OA
BRANCH  14  16
ATOM     16  O   UNL d   1       1.766   8.416   0.467  0.00  0.00    -0.773 OA
ATOM     17  H   UNL d   1       0.833   8.319   0.199  0.00  0.00     0.167 HD
ENDBRANCH  14  16
ENDBRANCH  13  14
ENDBRANCH   9  12
ENDBRANCH   1   8
BRANCH   4  18
ATOM     18  O   UNL d   1       3.765   0.128   0.535  0.00  0.00    -0.354 OA
ATOM     19  C   UNL d   1       4.697   0.853  -0.261  0.00  0.00     0.210 C 
ENDBRANCH   4  18
BRANCH   6  20
ATOM     20  O   UNL d   1       0.165  -2.721   0.008  0.00  0.00    -0.354 OA
ATOM     21  C   UNL d   1      -1.004  -3.212  -0.630  0.00  0.00     0.210 C 
ENDBRANCH   6  20
TORSDOF 6
