REMARK  2 active torsions:
REMARK  status: ('A' for Active; 'I' for Inactive)
REMARK    1  A    between atoms: O_11  and  C_9 
REMARK    2  A    between atoms: C_15  and  O_11 
ROOT
ATOM      1  C   UNL d   1      -0.442   1.007   0.045  0.00  0.00     0.147 A 
ATOM      2  C   UNL d   1      -0.890  -0.281   0.033  0.00  0.00     0.151 A 
ATOM      3  N   UNL d   1      -1.462   1.899   0.022  0.00  0.00    -0.305 N 
ATOM      4  HN  UNL d   1      -1.398   2.917   0.057  1.00  0.00     0.171 HD
ATOM      5  N   UNL d   1       0.895   1.316   0.055  0.00  0.00    -0.287 N 
ATOM      6  N   UNL d   1       1.345  -1.030   0.047  0.00  0.00    -0.269 N 
ATOM      7  C   UNL d   1       1.837   0.287   0.043  0.00  0.00     0.332 A 
ATOM      8  C   UNL d   1      -0.007  -1.397   0.053  0.00  0.00     0.282 A 
ATOM      9  C   UNL d   1      -2.555   1.165  -0.058  0.00  0.00     0.233 A 
ATOM     10  N   UNL d   1      -2.256  -0.179  -0.022  0.00  0.00    -0.309 N 
ATOM     11  O   UNL d   1       3.046   0.533   0.026  0.00  0.00    -0.246 OA
ATOM     12  O   UNL d   1      -0.393  -2.563   0.071  0.00  0.00    -0.265 OA
ATOM     13  C   UNL d   1       1.361   2.689   0.033  0.00  0.00     0.163 C 
ATOM     14  C   UNL d   1       2.302  -2.119   0.037  0.00  0.00     0.164 C 
ATOM     15  C   UNL d   1      -3.213  -1.254  -0.105  0.00  0.00     0.160 C 
ENDROOT
BRANCH   9  16
ATOM     16  O   UNL d   1      -3.799   1.637  -0.188  0.00  0.00    -0.279 OA
BRANCH  16  17
ATOM     17  C   UNL d   1      -3.990   2.917  -0.671  0.00  0.00     0.080 A 
ATOM     18  C   UNL d   1      -3.218   3.437  -1.709  0.00  0.00     0.045 A 
ATOM     19  C   UNL d   1      -3.383   4.758  -2.144  0.00  0.00    -0.037 A 
ATOM     20  C   UNL d   1      -2.443   5.287  -3.190  0.00  0.00     0.050 C 
ATOM     21  C   UNL d   1      -4.401   5.542  -1.570  0.00  0.00     0.046 A 
ATOM     22  C   UNL d   1      -5.235   5.009  -0.562  0.00  0.00    -0.037 A 
ATOM     23 CL   UNL d   1      -4.609   7.175  -2.120  0.00  0.00    -0.083 Cl
ATOM     24  C   UNL d   1      -5.012   3.691  -0.119  0.00  0.00     0.045 A 
ATOM     25  C   UNL d   1      -6.354   5.783   0.083  0.00  0.00     0.050 C 
ENDBRANCH  16  17
ENDBRANCH   9  16
TORSDOF 2
