REMARK  5 active torsions:
REMARK  status: ('A' for Active; 'I' for Inactive)
REMARK    1  A    between atoms: C_2  and  S_1 
REMARK    2  A    between atoms: C_3  and  S_1 
REMARK    3  A    between atoms: C_4  and  C_3 
REMARK    4  A    between atoms: C_5  and  C_4 
REMARK    5  A    between atoms: O_12  and  C_5 
ROOT
ATOM      1  S   UNL d   1       0.987  -0.123  -0.054  0.00  0.00     0.176 S 
ATOM      2  O   UNL d   1       0.369   0.811   0.868  0.00  0.00    -0.223 OA
ATOM      3  O   UNL d   1       2.430  -0.209  -0.165  0.00  0.00    -0.223 OA
ENDROOT
BRANCH   1   4
ATOM      4  C   UNL d   1       0.345   0.216  -1.679  0.00  0.00     0.059 A 
ATOM      5  C   UNL d   1      -0.880   0.876  -1.818  0.00  0.00     0.025 A 
ATOM      6  C   UNL d   1      -1.378   1.138  -3.097  0.00  0.00     0.025 A 
ATOM      7  C   UNL d   1      -0.645   0.753  -4.221  0.00  0.00     0.034 A 
ATOM      8  C   UNL d   1       0.590   0.119  -4.079  0.00  0.00     0.025 A 
ATOM      9 CL   UNL d   1      -1.268   1.064  -5.794  0.00  0.00    -0.084 Cl
ATOM     10  C   UNL d   1       1.093  -0.147  -2.804  0.00  0.00     0.025 A 
ENDBRANCH   1   4
BRANCH   1  11
ATOM     11  C   UNL d   1       0.368  -1.744   0.312  0.00  0.00     0.156 C 
BRANCH  11  12
ATOM     12  C   UNL d   1       0.886  -2.230   1.657  0.00  0.00     0.125 C 
BRANCH  12  13
ATOM     13  C   UNL d   1       0.358  -3.606   1.951  0.00  0.00     0.140 C 
ATOM     14  O   UNL d   1      -0.371  -4.241   1.206  0.00  0.00    -0.650 OA
BRANCH  13  15
ATOM     15  O   UNL d   1       0.776  -4.087   3.141  0.00  0.00    -0.776 OA
ATOM     16  H   UNL d   1       1.357  -3.483   3.643  0.00  0.00     0.167 HD
ENDBRANCH  13  15
ENDBRANCH  12  13
ENDBRANCH  11  12
ENDBRANCH   1  11
TORSDOF 5
