REMARK  3 active torsions:
REMARK  status: ('A' for Active; 'I' for Inactive)
REMARK    1  A    between atoms: C_3  and  C_1 
REMARK    2  A    between atoms: C_8  and  C_2 
REMARK       I    between atoms: N_9  and  C_3 
REMARK    3  A    between atoms: C_10  and  N_9 
ROOT
ATOM      1  C   UNL d   1       1.850  -0.622   0.018  0.00  0.00     0.063 A 
ATOM      2  C   UNL d   1       1.738   0.578  -0.817  0.00  0.00     0.070 A 
ATOM      3  C   UNL d   1       0.801  -0.976   0.785  0.00  0.00     0.111 A 
ATOM      4  C   UNL d   1       0.569   1.247  -0.860  0.00  0.00     0.091 A 
ATOM      5  N   UNL d   1      -0.421  -0.337   0.693  0.00  0.00    -0.328 N 
ATOM      6  C   UNL d   1      -0.620   0.785  -0.102  0.00  0.00     0.247 A 
ATOM      7  O   UNL d   1      -1.677   1.392  -0.212  0.00  0.00    -0.268 OA
ATOM      8  C   UNL d   1      -1.573  -0.873   1.398  0.00  0.00     0.159 C 
ENDROOT
BRANCH   1   9
ATOM      9  C   UNL d   1       3.150  -1.380   0.112  0.00  0.00     0.260 C 
ATOM     10  N   UNL d   1       3.183  -2.776   0.028  0.00  0.00    -0.318 N 
ATOM     11  C   UNL d   1       4.484  -3.415   0.205  0.00  0.00     0.159 C 
ATOM     12  O   UNL d   1       4.178  -0.717   0.269  0.00  0.00    -0.267 OA
BRANCH  10  13
ATOM     13  C   UNL d   1       2.054  -3.632   0.065  0.00  0.00     0.037 A 
ATOM     14  C   UNL d   1       1.084  -3.597  -0.943  0.00  0.00     0.031 A 
ATOM     15  C   UNL d   1      -0.074  -4.374  -0.826  0.00  0.00     0.026 A 
ATOM     16  C   UNL d   1      -0.261  -5.180   0.297  0.00  0.00     0.034 A 
ATOM     17  C   UNL d   1       0.715  -5.248   1.287  0.00  0.00     0.026 A 
ATOM     18 CL   UNL d   1      -1.715  -6.081   0.473  0.00  0.00    -0.084 Cl
ATOM     19  C   UNL d   1       1.881  -4.491   1.161  0.00  0.00     0.031 A 
ENDBRANCH  10  13
ENDBRANCH   1   9
BRANCH   2  20
ATOM     20  C   UNL d   1       2.917   1.055  -1.614  0.00  0.00     0.418 C 
ATOM     21  F   UNL d   1       3.558   0.049  -2.260  0.00  0.00    -0.166 F 
ATOM     22  F   UNL d   1       2.533   1.927  -2.590  0.00  0.00    -0.166 F 
ATOM     23  F   UNL d   1       3.821   1.724  -0.858  0.00  0.00    -0.166 F 
ENDBRANCH   2  20
TORSDOF 3
