REMARK  6 active torsions:
REMARK  status: ('A' for Active; 'I' for Inactive)
REMARK    1  A    between atoms: C_20  and  C_1 
REMARK    2  A    between atoms: O_7  and  C_3 
REMARK    3  A    between atoms: C_10  and  O_7 
REMARK    4  A    between atoms: C_8  and  C_12 
REMARK    5  A    between atoms: C_9  and  C_13 
REMARK    6  A    between atoms: C_14  and  C_10 
ROOT
ATOM      1  C   UNL d   1      -0.661   2.549  -0.322  0.00  0.00     0.077 C 
ATOM      2  C   UNL d   1       0.789   2.170  -0.325  0.00  0.00     0.262 C 
ATOM      3  C   UNL d   1      -1.586   1.643   0.056  0.00  0.00     0.108 C 
ATOM      4  N   UNL d   1       1.112   0.861   0.002  0.00  0.00    -0.312 N 
ATOM      5  C   UNL d   1      -1.230   0.231   0.240  0.00  0.00     0.027 A 
ATOM      6  C   UNL d   1       0.124  -0.134   0.222  0.00  0.00     0.057 A 
ATOM      7  C   UNL d   1       0.497  -1.484   0.357  0.00  0.00    -0.030 A 
ATOM      8  C   UNL d   1      -2.209  -0.771   0.342  0.00  0.00     0.023 A 
ATOM      9  O   UNL d   1       1.645   3.025  -0.557  0.00  0.00    -0.267 OA
ATOM     10  C   UNL d   1      -0.497  -2.466   0.470  0.00  0.00     0.016 A 
ATOM     11  C   UNL d   1      -1.851  -2.122   0.439  0.00  0.00    -0.060 A 
ATOM     12  C   UNL d   1       2.514   0.510   0.188  0.00  0.00     0.133 C 
ATOM     13  C   UNL d   1       1.944  -1.900   0.377  0.00  0.00     0.042 C 
ATOM     14  C   UNL d   1       2.827  -0.881  -0.327  0.00  0.00     0.025 C 
ATOM     15  C   UNL d   1      -2.896  -3.200   0.430  0.00  0.00     0.048 C 
ENDROOT
BRANCH   3  16
ATOM     16  O   UNL d   1      -2.873   2.034   0.477  0.00  0.00    -0.273 OA
BRANCH  16  17
ATOM     17  C   UNL d   1      -3.816   2.228  -0.481  0.00  0.00     0.298 C 
ATOM     18  O   UNL d   1      -3.836   1.754  -1.605  0.00  0.00    -0.259 OA
BRANCH  17  19
ATOM     19  C   UNL d   1      -4.817   3.205   0.040  0.00  0.00     0.041 A 
ATOM     20  C   UNL d   1      -4.871   3.590   1.391  0.00  0.00     0.034 A 
ATOM     21  C   UNL d   1      -5.736   4.614   1.813  0.00  0.00     0.049 A 
ATOM     22  C   UNL d   1      -6.574   5.226   0.868  0.00  0.00     0.032 A 
ATOM     23  C   UNL d   1      -6.543   4.844  -0.484  0.00  0.00     0.049 A 
ATOM     24  C   UNL d   1      -5.670   3.819  -0.884  0.00  0.00     0.034 A 
BRANCH  21  25
ATOM     25  C   UNL d   1      -5.768   5.049   3.262  0.00  0.00     0.417 C 
ATOM     26  F   UNL d   1      -5.981   6.386   3.405  0.00  0.00    -0.166 F 
ATOM     27  F   UNL d   1      -6.756   4.432   3.965  0.00  0.00    -0.166 F 
ATOM     28  F   UNL d   1      -4.611   4.783   3.924  0.00  0.00    -0.166 F 
ENDBRANCH  21  25
BRANCH  23  29
ATOM     29  C   UNL d   1      -7.429   5.519  -1.506  0.00  0.00     0.417 C 
ATOM     30  F   UNL d   1      -7.918   6.716  -1.081  0.00  0.00    -0.166 F 
ATOM     31  F   UNL d   1      -6.780   5.776  -2.675  0.00  0.00    -0.166 F 
ATOM     32  F   UNL d   1      -8.511   4.763  -1.831  0.00  0.00    -0.166 F 
ENDBRANCH  23  29
ENDBRANCH  17  19
ENDBRANCH  16  17
ENDBRANCH   3  16
BRANCH   1  33
ATOM     33  C   UNL d   1      -1.027   3.919  -0.727  0.00  0.00    -0.018 A 
ATOM     34  C   UNL d   1      -1.173   4.963   0.190  0.00  0.00     0.012 A 
ATOM     35  C   UNL d   1      -1.441   6.258  -0.266  0.00  0.00     0.001 A 
ATOM     36  C   UNL d   1      -1.565   6.514  -1.632  0.00  0.00     0.000 A 
ATOM     37  C   UNL d   1      -1.438   5.475  -2.550  0.00  0.00     0.001 A 
ATOM     38  C   UNL d   1      -1.175   4.181  -2.098  0.00  0.00     0.012 A 
ENDBRANCH   1  33
TORSDOF 6
