REMARK  6 active torsions:
REMARK  status: ('A' for Active; 'I' for Inactive)
REMARK    1  A    between atoms: O_6  and  C_1 
REMARK    2  A    between atoms: C_2  and  C_5 
REMARK       I    between atoms: N_11  and  C_2 
REMARK    3  A    between atoms: C_4  and  C_18 
REMARK    4  A    between atoms: C_17  and  O_6 
REMARK    5  A    between atoms: C_19  and  N_11 
REMARK    6  A    between atoms: C_18  and  C_19 
ROOT
ATOM      1  C   UNL d   1       1.483   3.276   3.966  0.00  0.00     0.032 A 
ATOM      2  C   UNL d   1       2.512   3.100   3.036  0.00  0.00     0.020 A 
ATOM      3  C   UNL d   1       0.200   2.803   3.671  0.00  0.00     0.020 A 
ATOM      4  C   UNL d   1       0.976   2.011   1.510  0.00  0.00     0.078 A 
ATOM      5  C   UNL d   1      -0.049   2.166   2.452  0.00  0.00     0.038 A 
ATOM      6  C   UNL d   1       2.264   2.435   1.833  0.00  0.00     0.038 A 
ENDROOT
BRANCH   1   7
ATOM      7  C   UNL d   1       1.708   3.981   5.257  0.00  0.00     0.251 C 
ATOM      8  O   UNL d   1       0.773   4.547   5.814  0.00  0.00    -0.268 OA
ATOM      9  N   UNL d   1       2.981   3.931   5.778  0.00  0.00    -0.357 N 
ATOM     10  H   UNL d   1       3.668   3.300   5.378  0.00  0.00     0.162 HD
BRANCH   9  11
ATOM     11  C   UNL d   1       3.296   4.558   7.049  0.00  0.00     0.128 C 
BRANCH  11  12
ATOM     12  C   UNL d   1       3.029   3.628   8.235  0.00  0.00     0.066 C 
BRANCH  12  13
ATOM     13  C   UNL d   1       3.328   4.299   9.543  0.00  0.00    -0.016 A 
ATOM     14  S   UNL d   1       4.894   4.203  10.230  0.00  0.00    -0.106 SA
ATOM     15  C   UNL d   1       4.420   5.117  11.595  0.00  0.00     0.050 A 
ATOM     16  C   UNL d   1       3.099   5.497  11.529  0.00  0.00     0.008 A 
ATOM     17  C   UNL d   1       2.469   5.031  10.340  0.00  0.00     0.015 A 
ENDBRANCH  12  13
ENDBRANCH  11  12
ENDBRANCH   9  11
ENDBRANCH   1   7
BRANCH   4  18
ATOM     18  O   UNL d   1       0.610   1.411   0.346  0.00  0.00    -0.255 OA
BRANCH  18  19
ATOM     19  C   UNL d   1       1.309   1.732  -0.853  0.00  0.00     0.530 C 
ATOM     20  F   UNL d   1       2.215   2.724  -0.729  0.00  0.00    -0.144 F 
ATOM     21  F   UNL d   1       0.410   2.118  -1.786  0.00  0.00    -0.144 F 
ATOM     22  F   UNL d   1       1.941   0.628  -1.306  0.00  0.00    -0.144 F 
ENDBRANCH  18  19
ENDBRANCH   4  18
TORSDOF 6
