REMARK  3 active torsions:
REMARK  status: ('A' for Active; 'I' for Inactive)
REMARK    1  A    between atoms: C_3  and  N_1 
REMARK    2  A    between atoms: C_2  and  C_6 
REMARK    3  A    between atoms: C_7  and  C_2 
ROOT
ATOM      1  C   UNL d   1       0.179  -1.103   0.368  0.00  0.00     0.102 A 
ATOM      2  C   UNL d   1      -1.333  -3.356   1.042  0.00  0.00     0.015 A 
ATOM      3  C   UNL d   1       0.612  -1.946   1.401  0.00  0.00     0.037 A 
ATOM      4  C   UNL d   1      -1.013  -1.371  -0.318  0.00  0.00     0.037 A 
ATOM      5  C   UNL d   1      -0.150  -3.070   1.737  0.00  0.00     0.018 A 
ATOM      6  C   UNL d   1      -1.774  -2.489   0.032  0.00  0.00     0.018 A 
ENDROOT
BRANCH   2   7
ATOM      7  C   UNL d   1      -2.111  -4.564   1.427  0.00  0.00     0.192 C 
ATOM      8  O   UNL d   1      -2.099  -4.932   2.599  0.00  0.00    -0.287 OA
BRANCH   7   9
ATOM      9  C   UNL d   1      -2.901  -5.335   0.430  0.00  0.00     0.015 A 
ATOM     10  C   UNL d   1      -4.059  -5.998   0.856  0.00  0.00     0.017 A 
ATOM     11  C   UNL d   1      -4.828  -6.727  -0.056  0.00  0.00     0.020 A 
ATOM     12  C   UNL d   1      -4.433  -6.797  -1.392  0.00  0.00     0.011 A 
ATOM     13  C   UNL d   1      -3.272  -6.158  -1.821  0.00  0.00     0.020 A 
ATOM     14 BR   UNL d   1      -5.471  -7.779  -2.630  0.00  0.00    -0.051 Br
ATOM     15  C   UNL d   1      -2.497  -5.439  -0.908  0.00  0.00     0.017 A 
ENDBRANCH   7   9
ENDBRANCH   2   7
BRANCH   1  16
ATOM     16  N   UNL d   1       0.975   0.078   0.005  0.00  0.00    -0.116 N 
ATOM     17  O   UNL d   1       2.011   0.295   0.648  0.00  0.00    -0.532 OA
ATOM     18  O   UNL d   1       0.563   0.782  -0.927  0.00  0.00    -0.532 OA
ENDBRANCH   1  16
TORSDOF 3
