REMARK  7 active torsions:
REMARK  status: ('A' for Active; 'I' for Inactive)
REMARK    1  A    between atoms: C_7  and  C_1 
REMARK    2  A    between atoms: N_13  and  C_4 
REMARK    3  A    between atoms: S_8  and  C_5 
REMARK    4  A    between atoms: C_9  and  C_7 
REMARK    5  A    between atoms: C_14  and  S_8 
REMARK    6  A    between atoms: C_10  and  C_14 
REMARK    7  A    between atoms: C_11  and  C_10 
ROOT
ATOM      1  C   UNL d   1      -0.017   1.237   0.001  0.00  0.00     0.102 A 
ATOM      2  N   UNL d   1      -0.425  -1.067   0.083  0.00  0.00    -0.330 N 
ATOM      3  HN  UNL d   1      -0.976  -1.926   0.081  1.00  0.00     0.168 HD
ATOM      4  C   UNL d   1      -0.929   0.203  -0.018  0.00  0.00     0.121 A 
ATOM      5  C   UNL d   1       0.883  -1.000   0.182  0.00  0.00     0.114 A 
ATOM      6  S   UNL d   1       1.551   0.577   0.233  0.00  0.00    -0.057 SA
ENDROOT
BRANCH   5   7
ATOM      7  S   UNL d   1       1.897  -2.422   0.262  0.00  0.00    -0.097 SA
BRANCH   7   8
ATOM      8  C   UNL d   1       0.656  -3.708   0.563  0.00  0.00     0.165 C 
BRANCH   8   9
ATOM      9  C   UNL d   1       1.337  -5.046   0.772  0.00  0.00     0.169 C 
ATOM     10  O   UNL d   1       1.333  -5.901  -0.116  0.00  0.00    -0.291 OA
BRANCH   9  11
ATOM     11  C   UNL d   1       2.014  -5.355   2.075  0.00  0.00     0.011 A 
ATOM     12  C   UNL d   1       2.076  -4.446   3.137  0.00  0.00     0.015 A 
ATOM     13  C   UNL d   1       2.754  -4.780   4.315  0.00  0.00     0.007 A 
ATOM     14  C   UNL d   1       3.368  -6.031   4.455  0.00  0.00    -0.062 A 
ATOM     15  C   UNL d   1       3.293  -6.944   3.403  0.00  0.00     0.007 A 
ATOM     16  C   UNL d   1       4.105  -6.365   5.720  0.00  0.00     0.048 C 
ATOM     17  C   UNL d   1       2.624  -6.610   2.222  0.00  0.00     0.015 A 
ENDBRANCH   9  11
ENDBRANCH   8   9
ENDBRANCH   7   8
ENDBRANCH   5   7
BRANCH   1  18
ATOM     18  C   UNL d   1      -0.262   2.663  -0.078  0.00  0.00     0.203 C 
ATOM     19  O   UNL d   1      -1.280   3.191   0.371  0.00  0.00    -0.286 OA
BRANCH  18  20
ATOM     20  C   UNL d   1       0.727   3.554  -0.750  0.00  0.00     0.015 A 
ATOM     21  C   UNL d   1       0.977   4.821  -0.211  0.00  0.00     0.016 A 
ATOM     22  C   UNL d   1       1.912   5.665  -0.817  0.00  0.00     0.007 A 
ATOM     23  C   UNL d   1       2.598   5.256  -1.968  0.00  0.00    -0.062 A 
ATOM     24  C   UNL d   1       2.315   4.003  -2.524  0.00  0.00     0.007 A 
ATOM     25  C   UNL d   1       3.608   6.165  -2.604  0.00  0.00     0.048 C 
ATOM     26  C   UNL d   1       1.378   3.159  -1.925  0.00  0.00     0.016 A 
ENDBRANCH  18  20
ENDBRANCH   1  18
BRANCH   4  27
ATOM     27  N   UNL d   1      -2.254   0.338  -0.155  0.00  0.00    -0.384 N 
ATOM     28  H   UNL d   1      -2.848  -0.464   0.028  0.00  0.00     0.157 HD
ATOM     29  H   UNL d   1      -2.699   1.235   0.033  0.00  0.00     0.157 HD
ENDBRANCH   4  27
TORSDOF 7
