REMARK  6 active torsions:
REMARK  status: ('A' for Active; 'I' for Inactive)
REMARK    1  A    between atoms: N_6  and  C_1 
REMARK    2  A    between atoms: C_2  and  C_3 
REMARK       I    between atoms: C_9  and  N_7 
REMARK    3  A    between atoms: C_18  and  C_9 
REMARK    4  A    between atoms: C_12  and  C_13 
REMARK    5  A    between atoms: O_25  and  C_18 
REMARK    6  A    between atoms: C_27  and  O_25 
ROOT
ATOM      1  N   UNL d   1       0.598   2.261  -0.040  0.00  0.00    -0.363 N 
ATOM      2  N   UNL d   1       2.412   4.436  -0.105  0.00  0.00    -0.347 N 
ATOM      3  C   UNL d   1       3.170   5.560  -0.360  0.00  0.00     0.244 C 
ATOM      4  C   UNL d   1       1.366   2.485  -1.273  0.00  0.00     0.144 C 
ATOM      5  C   UNL d   1       0.219   3.513   0.632  0.00  0.00     0.144 C 
ATOM      6  C   UNL d   1       2.670   3.213  -0.889  0.00  0.00     0.145 C 
ATOM      7  C   UNL d   1       1.514   4.246   1.052  0.00  0.00     0.145 C 
ATOM      8  O   UNL d   1       4.002   5.578  -1.278  0.00  0.00    -0.271 OA
ENDROOT
BRANCH   3   9
ATOM      9  C   UNL d   1       2.943   6.831   0.458  0.00  0.00     0.278 C 
BRANCH   9  10
ATOM     10  O   UNL d   1       3.618   6.741   1.703  0.00  0.00    -0.342 OA
BRANCH  10  11
ATOM     11  C   UNL d   1       3.713   7.885   2.446  0.00  0.00     0.069 A 
ATOM     12  C   UNL d   1       4.167   7.697   3.748  0.00  0.00     0.037 A 
ATOM     13  C   UNL d   1       4.320   8.782   4.619  0.00  0.00     0.011 A 
ATOM     14  C   UNL d   1       4.048  10.099   4.208  0.00  0.00    -0.050 A 
ATOM     15  C   UNL d   1       3.590  10.271   2.893  0.00  0.00     0.011 A 
ATOM     16  C   UNL d   1       3.425   9.179   2.021  0.00  0.00     0.037 A 
BRANCH  14  17
ATOM     17  C   UNL d   1       4.277  11.275   5.175  0.00  0.00    -0.024 C 
ATOM     18  C   UNL d   1       4.021  12.663   4.544  0.00  0.00     0.019 C 
ATOM     19  C   UNL d   1       3.340  11.144   6.394  0.00  0.00     0.019 C 
ATOM     20  C   UNL d   1       5.743  11.269   5.666  0.00  0.00     0.019 C 
ENDBRANCH  14  17
ENDBRANCH  10  11
ENDBRANCH   9  10
ENDBRANCH   3   9
BRANCH   1  21
ATOM     21  C   UNL d   1      -0.198   1.133   0.045  0.00  0.00     0.125 A 
ATOM     22  N   UNL d   1      -0.581   0.544  -1.119  0.00  0.00    -0.350 N 
ATOM     23  C   UNL d   1      -1.249  -0.636  -1.075  0.00  0.00     0.106 A 
ATOM     24  HN  UNL d   1      -0.369   0.985  -2.014  1.00  0.00     0.166 HD
ATOM     25  C   UNL d   1      -1.568  -1.304   0.092  0.00  0.00     0.065 A 
ATOM     26  C   UNL d   1      -1.198  -0.695   1.292  0.00  0.00     0.045 A 
ATOM     27  C   UNL d   1      -0.505   0.519   1.273  0.00  0.00     0.078 A 
ATOM     28 CL   UNL d   1       0.066   1.096   2.806  0.00  0.00    -0.080 Cl
BRANCH  25  29
ATOM     29  C   UNL d   1      -2.244  -2.635   0.048  0.00  0.00     0.418 C 
ATOM     30  F   UNL d   1      -2.453  -3.178   1.280  0.00  0.00    -0.166 F 
ATOM     31  F   UNL d   1      -3.469  -2.580  -0.547  0.00  0.00    -0.166 F 
ATOM     32  F   UNL d   1      -1.530  -3.560  -0.648  0.00  0.00    -0.166 F 
ENDBRANCH  25  29
ENDBRANCH   1  21
TORSDOF 6
