REMARK  14 active torsions:
REMARK  status: ('A' for Active; 'I' for Inactive)
REMARK    1  A    between atoms: C_1  and  O_13 
REMARK    2  A    between atoms: C_2  and  O_19 
REMARK    3  A    between atoms: C_3  and  O_20 
REMARK    4  A    between atoms: C_4  and  O_22 
REMARK    5  A    between atoms: C_5  and  O_23 
REMARK    6  A    between atoms: C_6  and  O_16 
REMARK    7  A    between atoms: C_9  and  O_24 
REMARK    8  A    between atoms: C_10  and  O_25 
REMARK    9  A    between atoms: C_11  and  C_18 
REMARK   10  A    between atoms: C_12  and  C_26 
REMARK   11  A    between atoms: C_17  and  O_13 
REMARK   12  A    between atoms: O_16  and  C_18 
REMARK   13  A    between atoms: C_21  and  C_17 
REMARK   14  A    between atoms: O_27  and  C_26 
ROOT
ATOM      1  N   UNL d   1      -0.536   6.700  -5.932  0.00  0.00    -0.194 NA
ATOM      2  C   UNL d   1       0.311   6.367  -6.648  0.00  0.00     0.096 C 
ATOM      3  C   UNL d   1       1.368   5.889  -7.566  0.00  0.00     0.264 C 
ENDROOT
BRANCH   3   4
ATOM      4  O   UNL d   1       2.101   4.767  -7.049  0.00  0.00    -0.334 OA
BRANCH   4   5
ATOM      5  C   UNL d   1       1.324   3.600  -6.768  0.00  0.00     0.293 C 
ATOM      6  C   UNL d   1       0.894   2.874  -8.065  0.00  0.00     0.204 C 
ATOM      7  C   UNL d   1       0.397   1.449  -7.790  0.00  0.00     0.183 C 
ATOM      8  C   UNL d   1       1.305   0.679  -6.823  0.00  0.00     0.180 C 
ATOM      9  C   UNL d   1       1.500   1.547  -5.580  0.00  0.00     0.180 C 
ATOM     10  O   UNL d   1       2.164   2.751  -5.984  0.00  0.00    -0.348 OA
BRANCH   6  11
ATOM     11  O   UNL d   1      -0.162   3.589  -8.731  0.00  0.00    -0.388 OA
ATOM     12  H   UNL d   1      -0.513   2.982  -9.414  0.00  0.00     0.210 HD
ENDBRANCH   6  11
BRANCH   7  13
ATOM     13  O   UNL d   1       0.256   0.751  -9.038  0.00  0.00    -0.390 OA
ATOM     14  H   UNL d   1       1.139   0.450  -9.322  0.00  0.00     0.210 HD
ENDBRANCH   7  13
BRANCH   8  15
ATOM     15  O   UNL d   1       0.753  -0.595  -6.491  0.00  0.00    -0.390 OA
ATOM     16  H   UNL d   1      -0.172  -0.632  -6.799  0.00  0.00     0.210 HD
ENDBRANCH   8  15
BRANCH   9  17
ATOM     17  C   UNL d   1       2.335   0.857  -4.506  0.00  0.00     0.205 C 
BRANCH  17  18
ATOM     18  O   UNL d   1       2.354   1.710  -3.353  0.00  0.00    -0.356 OA
BRANCH  18  19
ATOM     19  C   UNL d   1       3.035   1.108  -2.260  0.00  0.00     0.291 C 
ATOM     20  C   UNL d   1       3.149   2.132  -1.109  0.00  0.00     0.204 C 
ATOM     21  C   UNL d   1       3.836   1.446   0.078  0.00  0.00     0.183 C 
ATOM     22  C   UNL d   1       3.145   0.130   0.460  0.00  0.00     0.180 C 
ATOM     23  C   UNL d   1       2.937  -0.751  -0.777  0.00  0.00     0.179 C 
ATOM     24  O   UNL d   1       2.291  -0.027  -1.829  0.00  0.00    -0.348 OA
BRANCH  20  25
ATOM     25  O   UNL d   1       3.886   3.310  -1.464  0.00  0.00    -0.388 OA
ATOM     26  H   UNL d   1       4.681   3.050  -1.960  0.00  0.00     0.210 HD
ENDBRANCH  20  25
BRANCH  21  27
ATOM     27  O   UNL d   1       3.894   2.283   1.244  0.00  0.00    -0.390 OA
ATOM     28  H   UNL d   1       3.132   2.892   1.217  0.00  0.00     0.210 HD
ENDBRANCH  21  27
BRANCH  22  29
ATOM     29  O   UNL d   1       3.972  -0.575   1.395  0.00  0.00    -0.390 OA
ATOM     30  H   UNL d   1       4.496   0.100   1.871  0.00  0.00     0.210 HD
ENDBRANCH  22  29
BRANCH  23  31
ATOM     31  C   UNL d   1       2.055  -1.967  -0.474  0.00  0.00     0.198 C 
BRANCH  31  32
ATOM     32  O   UNL d   1       0.710  -1.557  -0.216  0.00  0.00    -0.398 OA
ATOM     33  H   UNL d   1       0.463  -0.985  -0.969  0.00  0.00     0.209 HD
ENDBRANCH  31  32
ENDBRANCH  23  31
ENDBRANCH  18  19
ENDBRANCH  17  18
ENDBRANCH   9  17
ENDBRANCH   4   5
ENDBRANCH   3   4
BRANCH   3  34
ATOM     34  C   UNL d   1       2.343   7.020  -7.861  0.00  0.00    -0.016 A 
ATOM     35  C   UNL d   1       3.485   7.232  -7.070  0.00  0.00     0.011 A 
ATOM     36  C   UNL d   1       4.336   8.306  -7.335  0.00  0.00     0.001 A 
ATOM     37  C   UNL d   1       4.055   9.181  -8.381  0.00  0.00     0.000 A 
ATOM     38  C   UNL d   1       2.923   8.988  -9.166  0.00  0.00     0.001 A 
ATOM     39  C   UNL d   1       2.069   7.916  -8.909  0.00  0.00     0.011 A 
ENDBRANCH   3  34
TORSDOF 14
