REMARK  6 active torsions:
REMARK  status: ('A' for Active; 'I' for Inactive)
REMARK    1  A    between atoms: C_2  and  C_1 
REMARK    2  A    between atoms: C_5  and  C_8 
REMARK    3  A    between atoms: C_13  and  C_10 
REMARK    4  A    between atoms: C_16  and  C_13 
REMARK    5  A    between atoms: O_22  and  C_16 
REMARK    6  A    between atoms: C_23  and  O_22 
ROOT
ATOM      1  C   UNL d   1       0.238  -1.210  -0.021  0.00  0.00     0.103 A 
ATOM      2  N   UNL d   1       1.426  -0.639  -0.072  0.00  0.00    -0.351 N 
ATOM      3  HN  UNL d   1       2.309  -1.148  -0.121  1.00  0.00     0.166 HD
ATOM      4  S   UNL d   1      -1.083  -0.099  -0.026  0.00  0.00    -0.080 SA
ATOM      5  C   UNL d   1       1.319   0.739  -0.051  0.00  0.00     0.026 A 
ATOM      6  C   UNL d   1       0.021   1.210  -0.059  0.00  0.00     0.077 A 
ENDROOT
BRANCH   1   7
ATOM      7  C   UNL d   1       0.010  -2.663   0.035  0.00  0.00     0.088 A 
ATOM      8  N   UNL d   1      -1.128  -3.101  -0.583  0.00  0.00    -0.361 N 
ATOM      9  C   UNL d   1      -1.357  -4.433  -0.625  0.00  0.00     0.104 A 
ATOM     10  HN  UNL d   1      -1.786  -2.442  -0.999  1.00  0.00     0.165 HD
ATOM     11  C   UNL d   1      -0.503  -5.380  -0.086  0.00  0.00     0.065 A 
ATOM     12  C   UNL d   1       0.650  -4.918   0.558  0.00  0.00     0.043 A 
ATOM     13  C   UNL d   1       0.916  -3.548   0.627  0.00  0.00     0.064 A 
ATOM     14 CL   UNL d   1       2.340  -3.070   1.477  0.00  0.00    -0.082 Cl
BRANCH  11  15
ATOM     15  C   UNL d   1      -0.828  -6.834  -0.204  0.00  0.00     0.418 C 
ATOM     16  F   UNL d   1       0.118  -7.646   0.343  0.00  0.00    -0.166 F 
ATOM     17  F   UNL d   1      -1.999  -7.157   0.408  0.00  0.00    -0.166 F 
ATOM     18  F   UNL d   1      -0.958  -7.232  -1.499  0.00  0.00    -0.166 F 
ENDBRANCH  11  15
ENDBRANCH   1   7
BRANCH   5  19
ATOM     19  C   UNL d   1       2.582   1.531  -0.065  0.00  0.00     0.168 C 
BRANCH  19  20
ATOM     20  C   UNL d   1       2.676   2.516   1.073  0.00  0.00     0.264 C 
ATOM     21  O   UNL d   1       1.823   2.732   1.923  0.00  0.00    -0.265 OA
BRANCH  20  22
ATOM     22  O   UNL d   1       3.842   3.219   0.948  0.00  0.00    -0.322 OA
BRANCH  22  23
ATOM     23  C   UNL d   1       3.913   4.423   1.722  0.00  0.00     0.174 C 
ATOM     24  C   UNL d   1       3.263   5.539   0.924  0.00  0.00     0.034 C 
ENDBRANCH  22  23
ENDBRANCH  20  22
ENDBRANCH  19  20
ENDBRANCH   5  19
TORSDOF 6
