REMARK  1 active torsions:
REMARK  status: ('A' for Active; 'I' for Inactive)
REMARK    1  A    between atoms: C_2  and  N_1 
ROOT
ATOM      1  C   UNL d   1       0.001   2.339  -0.026  0.00  0.00     0.048 A 
ATOM      2  C   UNL d   1      -0.673   3.082   0.957  0.00  0.00     0.069 A 
ATOM      3  C   UNL d   1      -0.655   4.481   0.945  0.00  0.00     0.104 A 
ATOM      4  C   UNL d   1       0.033   5.166  -0.056  0.00  0.00     0.102 A 
ATOM      5  C   UNL d   1       0.682   3.052  -1.027  0.00  0.00     0.033 A 
ATOM      6  O   UNL d   1      -1.317   5.112   1.967  0.00  0.00    -0.346 OA
ATOM      7  O   UNL d   1       0.104   6.532  -0.123  0.00  0.00    -0.346 OA
ATOM      8  C   UNL d   1       0.686   4.452  -1.052  0.00  0.00     0.042 A 
ATOM      9  C   UNL d   1      -1.504   6.505   1.700  0.00  0.00     0.202 C 
ATOM     10  C   UNL d   1      -0.239   7.129   1.132  0.00  0.00     0.202 C 
ENDROOT
BRANCH   1  11
ATOM     11  N   UNL d   1      -0.006   0.915  -0.009  0.00  0.00    -0.245 N 
ATOM     12  C   UNL d   1      -0.905   0.132   0.663  0.00  0.00     0.255 A 
ATOM     13  C   UNL d   1      -0.548  -1.268   0.409  0.00  0.00     0.080 A 
ATOM     14  O   UNL d   1      -1.881   0.419   1.335  0.00  0.00    -0.268 OA
ATOM     15  C   UNL d   1       0.519  -1.282  -0.383  0.00  0.00     0.080 A 
ATOM     16  C   UNL d   1       0.887   0.111  -0.664  0.00  0.00     0.255 A 
ATOM     17  O   UNL d   1       1.866   0.376  -1.343  0.00  0.00    -0.268 OA
ENDBRANCH   1  11
TORSDOF 1
