REMARK  6 active torsions:
REMARK  status: ('A' for Active; 'I' for Inactive)
REMARK    1  A    between atoms: C_8  and  N_1 
REMARK    2  A    between atoms: S_9  and  C_2 
REMARK    3  A    between atoms: O_18  and  C_3 
REMARK    4  A    between atoms: C_17  and  S_9 
REMARK    5  A    between atoms: C_14  and  C_17 
REMARK       I    between atoms: N_15  and  C_14 
REMARK    6  A    between atoms: C_19  and  N_15 
ROOT
ATOM      1  N   UNL d   1      -0.353  -1.442  -0.126  0.00  0.00    -0.286 N 
ATOM      2  C   UNL d   1       0.878  -0.931  -0.439  0.00  0.00     0.165 C 
ATOM      3  C   UNL d   1      -1.082  -0.348   0.279  0.00  0.00     0.240 C 
ATOM      4  N   UNL d   1       0.945   0.322  -0.056  0.00  0.00    -0.277 N 
ATOM      5  HN  UNL d   1       1.777   0.911  -0.072  1.00  0.00     0.189 HD
ATOM      6  N   UNL d   1      -0.299   0.699   0.370  0.00  0.00    -0.263 N 
ATOM      7  HN  UNL d   1      -0.568   1.627   0.698  1.00  0.00     0.190 HD
ENDROOT
BRANCH   2   8
ATOM      8  S   UNL d   1       2.089  -1.742  -1.363  0.00  0.00    -0.083 SA
BRANCH   8   9
ATOM      9  C   UNL d   1       3.515  -0.624  -1.196  0.00  0.00     0.185 C 
BRANCH   9  10
ATOM     10  C   UNL d   1       3.509   0.593  -2.122  0.00  0.00     0.231 C 
ATOM     11  N   UNL d   1       2.385   1.390  -2.046  0.00  0.00    -0.327 N 
ATOM     12  H   UNL d   1       1.687   1.122  -1.356  0.00  0.00     0.169 HD
ATOM     13  O   UNL d   1       4.515   0.849  -2.784  0.00  0.00    -0.272 OA
BRANCH  11  14
ATOM     14  C   UNL d   1       2.154   2.643  -2.643  0.00  0.00     0.034 A 
ATOM     15  C   UNL d   1       3.005   3.231  -3.576  0.00  0.00     0.029 A 
ATOM     16  C   UNL d   1       2.748   4.524  -4.045  0.00  0.00     0.002 A 
ATOM     17  C   UNL d   1       1.633   5.228  -3.594  0.00  0.00     0.000 A 
ATOM     18  C   UNL d   1       0.755   4.631  -2.694  0.00  0.00     0.002 A 
ATOM     19  C   UNL d   1       1.011   3.341  -2.227  0.00  0.00     0.029 A 
ENDBRANCH  11  14
ENDBRANCH   9  10
ENDBRANCH   8   9
ENDBRANCH   2   8
BRANCH   1  20
ATOM     20  C   UNL d   1      -0.740  -2.835  -0.060  0.00  0.00     0.104 C 
ATOM     21  C   UNL d   1      -1.850  -3.232  -1.061  0.00  0.00     0.065 C 
ATOM     22  C   UNL d   1      -2.674  -4.191  -0.263  0.00  0.00    -0.050 A 
ATOM     23  C   UNL d   1      -3.713  -4.987  -0.719  0.00  0.00     0.007 A 
ATOM     24  C   UNL d   1      -2.295  -4.212   1.080  0.00  0.00    -0.050 A 
ATOM     25  C   UNL d   1      -4.368  -5.819   0.195  0.00  0.00     0.001 A 
ATOM     26  C   UNL d   1      -3.982  -5.840   1.543  0.00  0.00     0.001 A 
ATOM     27  C   UNL d   1      -2.945  -5.030   1.995  0.00  0.00     0.007 A 
ATOM     28  C   UNL d   1      -1.188  -3.255   1.362  0.00  0.00     0.065 C 
ENDBRANCH   1  20
BRANCH   3  29
ATOM     29  O   UNL d   1      -2.371  -0.308   0.573  0.00  0.00    -0.331 OA
ATOM     30  H   UNL d   1      -2.811  -1.127   0.300  0.00  0.00     0.221 HD
ENDBRANCH   3  29
TORSDOF 6
