REMARK  4 active torsions:
REMARK  status: ('A' for Active; 'I' for Inactive)
REMARK    1  A    between atoms: C_12  and  C_7 
REMARK    2  A    between atoms: C_9  and  N_8 
REMARK    3  A    between atoms: O_15  and  N_10 
REMARK    4  A    between atoms: C_13  and  C_12 
ROOT
ATOM      1  S   UNL d   1      -0.262  -0.216   1.343  0.00  0.00    -0.038 SA
ATOM      2  C   UNL d   1      -0.655   1.143   0.347  0.00  0.00     0.166 A 
ATOM      3  N   UNL d   1      -0.555   0.869  -0.939  0.00  0.00    -0.279 N 
ATOM      4  HN  UNL d   1      -0.718   1.558  -1.673  1.00  0.00     0.189 HD
ATOM      5  N   UNL d   1      -0.206  -0.444  -1.194  0.00  0.00    -0.296 N 
ATOM      6  HN  UNL d   1      -0.090  -0.831  -2.131  1.00  0.00     0.187 HD
ATOM      7  C   UNL d   1      -0.042  -1.135  -0.087  0.00  0.00     0.074 A 
ATOM      8  N   UNL d   1      -1.042   2.350   0.815  0.00  0.00    -0.330 N 
ATOM      9  H   UNL d   1      -1.261   3.045   0.113  0.00  0.00     0.168 HD
ENDROOT
BRANCH   7  10
ATOM     10  C   UNL d   1       0.222  -2.606  -0.027  0.00  0.00     0.105 C 
BRANCH  10  11
ATOM     11  C   UNL d   1       1.686  -2.989  -0.001  0.00  0.00    -0.052 A 
ATOM     12  C   UNL d   1       2.213  -3.708   1.086  0.00  0.00     0.010 A 
ATOM     13  C   UNL d   1       3.538  -4.146   1.068  0.00  0.00     0.043 A 
ATOM     14  C   UNL d   1       4.340  -3.865  -0.031  0.00  0.00     0.116 A 
ATOM     15  C   UNL d   1       3.846  -3.140  -1.108  0.00  0.00     0.043 A 
ATOM     16  F   UNL d   1       5.604  -4.308  -0.056  0.00  0.00    -0.206 F 
ATOM     17  C   UNL d   1       2.521  -2.700  -1.094  0.00  0.00     0.010 A 
ENDBRANCH  10  11
ENDBRANCH   7  10
BRANCH   8  18
ATOM     18  C   UNL d   1      -1.228   2.774   2.093  0.00  0.00     0.206 C 
ATOM     19  N   UNL d   1      -1.637   3.955   2.420  0.00  0.00    -0.265 N 
ATOM     20  HN  UNL d   1      -1.867   4.706   1.769  1.00  0.00     0.194 HD
BRANCH  19  21
ATOM     21  O   UNL d   1      -1.712   4.033   3.818  0.00  0.00    -0.289 OA
ATOM     22  H   UNL d   1      -2.009   4.950   3.962  0.00  0.00     0.244 HD
ENDBRANCH  19  21
ENDBRANCH   8  18
TORSDOF 4
