REMARK  4 active torsions:
REMARK  status: ('A' for Active; 'I' for Inactive)
REMARK    1  A    between atoms: C_9  and  S_1 
REMARK    2  A    between atoms: N_14  and  S_1 
REMARK    3  A    between atoms: C_2  and  C_4 
REMARK       I    between atoms: C_4  and  N_7 
REMARK    4  A    between atoms: N_7  and  C_17 
ROOT
ATOM      1  C   UNL d   1      -1.628   5.844   2.547  0.00  0.00     0.259 C 
ATOM      2  N   UNL d   1      -0.291   5.753   2.205  0.00  0.00    -0.323 N 
ATOM      3  O   UNL d   1      -2.381   6.767   2.256  0.00  0.00    -0.267 OA
ATOM      4  H   UNL d   1       0.185   4.900   2.485  0.00  0.00     0.169 HD
ENDROOT
BRANCH   2   5
ATOM      5  C   UNL d   1       0.488   6.712   1.526  0.00  0.00     0.035 A 
ATOM      6  C   UNL d   1       0.033   7.991   1.191  0.00  0.00     0.031 A 
ATOM      7  C   UNL d   1       0.885   8.916   0.576  0.00  0.00     0.027 A 
ATOM      8  C   UNL d   1       2.199   8.553   0.279  0.00  0.00     0.074 A 
ATOM      9  C   UNL d   1       2.659   7.269   0.573  0.00  0.00     0.027 A 
ATOM     10  C   UNL d   1       1.805   6.355   1.199  0.00  0.00     0.031 A 
BRANCH   8  11
ATOM     11  S   UNL d   1       3.299   9.751  -0.412  0.00  0.00     0.239 S 
ATOM     12  O   UNL d   1       4.541   9.103  -0.775  0.00  0.00    -0.206 OA
ATOM     13  O   UNL d   1       3.257  10.943   0.398  0.00  0.00    -0.206 OA
BRANCH  11  14
ATOM     14  N   UNL d   1       2.566  10.143  -1.869  0.00  0.00    -0.225 NA
ATOM     15  H   UNL d   1       3.150   9.826  -2.643  0.00  0.00     0.136 HD
ATOM     16  H   UNL d   1       2.371  11.146  -1.891  0.00  0.00     0.136 HD
ENDBRANCH  11  14
ENDBRANCH   8  11
ENDBRANCH   2   5
BRANCH   1  17
ATOM     17  C   UNL d   1      -2.201   4.679   3.292  0.00  0.00     0.066 A 
ATOM     18  C   UNL d   1      -1.448   3.655   3.855  0.00  0.00     0.092 A 
ATOM     19  O   UNL d   1      -0.077   3.586   3.867  0.00  0.00    -0.339 OA
ATOM     20  C   UNL d   1      -2.052   2.560   4.458  0.00  0.00    -0.021 A 
ATOM     21  C   UNL d   1       0.257   2.388   4.629  0.00  0.00     0.064 C 
ATOM     22  C   UNL d   1       0.894   2.811   5.958  0.00  0.00     0.046 C 
ATOM     23  C   UNL d   1       1.270   1.608   3.791  0.00  0.00     0.046 C 
ATOM     24  C   UNL d   1      -1.029   1.569   4.867  0.00  0.00     0.079 C 
ATOM     25  C   UNL d   1      -3.430   2.458   4.558  0.00  0.00     0.010 A 
ATOM     26  C   UNL d   1      -4.207   3.492   4.038  0.00  0.00     0.002 A 
ATOM     27  C   UNL d   1      -3.600   4.589   3.407  0.00  0.00     0.020 A 
ENDBRANCH   1  17
TORSDOF 4
