REMARK  1 active torsions:
REMARK  status: ('A' for Active; 'I' for Inactive)
REMARK    1  A    between atoms: C_11  and  N_2 
ROOT
ATOM      1  C   UNL d   1       3.061   0.319  -0.637  0.00  0.00     0.036 A 
ATOM      2  N   UNL d   1       4.203  -0.355  -1.232  0.00  0.00    -0.248 NA
ATOM      3  C   UNL d   1       1.923  -0.278  -0.094  0.00  0.00     0.016 A 
ATOM      4  C   UNL d   1       3.175   1.709  -0.694  0.00  0.00    -0.012 A 
ATOM      5  N   UNL d   1       1.141   1.946   0.499  0.00  0.00    -0.359 N 
ATOM      6  HN  UNL d   1       0.450   2.538   0.959  1.00  0.00     0.166 HD
ATOM      7  C   UNL d   1       0.965   0.605   0.449  0.00  0.00     0.044 A 
ATOM      8  C   UNL d   1       2.242   2.496  -0.065  0.00  0.00     0.013 A 
ATOM      9  C   UNL d   1       4.633   0.735  -2.170  0.00  0.00     0.106 C 
ATOM     10  C   UNL d   1       4.389   2.080  -1.460  0.00  0.00     0.057 C 
ATOM     11  C   UNL d   1       1.671  -1.665  -0.123  0.00  0.00     0.058 A 
ATOM     12  C   UNL d   1      -0.227   0.077   0.929  0.00  0.00     0.033 A 
ATOM     13  C   UNL d   1       0.459  -2.153   0.348  0.00  0.00     0.117 A 
ATOM     14  C   UNL d   1      -0.496  -1.294   0.871  0.00  0.00     0.044 A 
ATOM     15  F   UNL d   1       0.197  -3.463   0.275  0.00  0.00    -0.206 F 
ATOM     16  C   UNL d   1       2.415   3.978   0.045  0.00  0.00     0.068 C 
ENDROOT
BRANCH   2  17
ATOM     17  C   UNL d   1       5.366  -0.710  -0.457  0.00  0.00     0.015 A 
ATOM     18  C   UNL d   1       5.564  -0.264   0.861  0.00  0.00     0.026 A 
ATOM     19  C   UNL d   1       6.799  -0.438   1.496  0.00  0.00     0.026 A 
ATOM     20  C   UNL d   1       7.835  -1.089   0.833  0.00  0.00     0.034 A 
ATOM     21  C   UNL d   1       7.635  -1.608  -0.443  0.00  0.00     0.026 A 
ATOM     22 CL   UNL d   1       9.377  -1.228   1.582  0.00  0.00    -0.084 Cl
ATOM     23  C   UNL d   1       6.402  -1.430  -1.079  0.00  0.00     0.026 A 
ENDBRANCH   2  17
TORSDOF 1
