REMARK  2 active torsions:
REMARK  status: ('A' for Active; 'I' for Inactive)
REMARK       I    between atoms: N_2  and  C_1 
REMARK    1  A    between atoms: C_3  and  C_1 
REMARK    2  A    between atoms: C_5  and  N_2 
ROOT
ATOM      1  C   UNL d   1       1.172  -0.081  -0.037  0.00  0.00     0.229 C 
ATOM      2  N   UNL d   1       0.583   1.009  -0.656  0.00  0.00    -0.327 N 
ATOM      3  O   UNL d   1       2.383  -0.298  -0.023  0.00  0.00    -0.272 OA
ATOM      4  H   UNL d   1      -0.382   1.209  -0.430  0.00  0.00     0.169 HD
ENDROOT
BRANCH   2   5
ATOM      5  C   UNL d   1       1.238   1.945  -1.490  0.00  0.00     0.034 A 
ATOM      6  C   UNL d   1       2.509   1.729  -2.032  0.00  0.00     0.031 A 
ATOM      7  C   UNL d   1       3.113   2.688  -2.850  0.00  0.00     0.021 A 
ATOM      8  C   UNL d   1       2.444   3.873  -3.135  0.00  0.00     0.011 A 
ATOM      9  C   UNL d   1       1.170   4.099  -2.619  0.00  0.00     0.021 A 
ATOM     10 BR   UNL d   1       3.269   5.175  -4.227  0.00  0.00    -0.051 Br
ATOM     11  C   UNL d   1       0.565   3.131  -1.806  0.00  0.00     0.031 A 
ENDBRANCH   2   5
BRANCH   1  12
ATOM     12  C   UNL d   1       0.199  -1.044   0.674  0.00  0.00     0.030 C 
ATOM     13  C   UNL d   1      -0.805  -1.615  -0.337  0.00  0.00     0.025 C 
ATOM     14  C   UNL d   1       1.010  -2.212   1.271  0.00  0.00     0.025 C 
ATOM     15  C   UNL d   1      -0.543  -0.334   1.814  0.00  0.00     0.025 C 
ENDBRANCH   1  12
TORSDOF 2
