REMARK  3 active torsions:
REMARK  status: ('A' for Active; 'I' for Inactive)
REMARK    1  A    between atoms: C_8  and  C_1 
REMARK       I    between atoms: C_4  and  N_7 
REMARK    2  A    between atoms: C_9  and  C_4 
REMARK    3  A    between atoms: N_7  and  C_15 
ROOT
ATOM      1  C   UNL d   1       4.558   0.783  -0.357  0.00  0.00    -0.002 A 
ATOM      2  C   UNL d   1       5.045   1.200   0.889  0.00  0.00     0.016 A 
ATOM      3  C   UNL d   1       5.484   0.562  -1.380  0.00  0.00     0.016 A 
ATOM      4  C   UNL d   1       7.321   1.329   0.028  0.00  0.00     0.034 A 
ATOM      5  C   UNL d   1       6.847   0.833  -1.188  0.00  0.00     0.030 A 
ATOM      6  C   UNL d   1       6.410   1.465   1.083  0.00  0.00     0.030 A 
ENDROOT
BRANCH   1   7
ATOM      7  C   UNL d   1       3.125   0.663  -0.613  0.00  0.00     0.087 A 
ATOM      8  O   UNL d   1       2.322   1.431   0.186  0.00  0.00    -0.309 OA
ATOM      9  C   UNL d   1       1.049   1.302  -0.267  0.00  0.00     0.086 A 
ATOM     10  C   UNL d   1      -0.060   1.968   0.250  0.00  0.00     0.040 A 
ATOM     11  C   UNL d   1       1.004   0.423  -1.342  0.00  0.00     0.002 A 
ATOM     12  C   UNL d   1      -1.287   1.718  -0.375  0.00  0.00     0.026 A 
ATOM     13  C   UNL d   1      -1.371   0.835  -1.454  0.00  0.00     0.035 A 
ATOM     14  C   UNL d   1      -0.239   0.173  -1.953  0.00  0.00     0.038 A 
ATOM     15 CL   UNL d   1      -2.902   0.559  -2.196  0.00  0.00    -0.084 Cl
ATOM     16  C   UNL d   1       2.349   0.007  -1.551  0.00  0.00     0.052 A 
ENDBRANCH   1   7
BRANCH   4  17
ATOM     17  N   UNL d   1       8.660   1.741   0.253  0.00  0.00    -0.327 N 
ATOM     18  C   UNL d   1       9.670   1.822  -0.693  0.00  0.00     0.229 C 
ATOM     19  O   UNL d   1       9.544   1.507  -1.876  0.00  0.00    -0.272 OA
ATOM     20  H   UNL d   1       8.863   2.089   1.181  0.00  0.00     0.169 HD
BRANCH  18  21
ATOM     21  C   UNL d   1      11.017   2.389  -0.180  0.00  0.00     0.030 C 
ATOM     22  C   UNL d   1      11.562   1.550   0.983  0.00  0.00     0.025 C 
ATOM     23  C   UNL d   1      12.040   2.340  -1.336  0.00  0.00     0.025 C 
ATOM     24  C   UNL d   1      10.857   3.852   0.260  0.00  0.00     0.025 C 
ENDBRANCH  18  21
ENDBRANCH   4  17
TORSDOF 3
