REMARK  3 active torsions:
REMARK  status: ('A' for Active; 'I' for Inactive)
REMARK    1  A    between atoms: C_4  and  C_1 
REMARK    2  A    between atoms: S_8  and  C_3 
REMARK    3  A    between atoms: O_9  and  C_4 
ROOT
ATOM      1  C   UNL d   1       0.128   1.230  -0.006  0.00  0.00     0.079 A 
ATOM      2  S   UNL d   1      -1.030  -0.028  -0.017  0.00  0.00    -0.077 SA
ATOM      3  C   UNL d   1       0.170  -1.252  -0.009  0.00  0.00     0.041 A 
ATOM      4  C   UNL d   1       1.412   0.720   0.004  0.00  0.00     0.028 A 
ATOM      5  C   UNL d   1       1.436  -0.708   0.003  0.00  0.00     0.027 A 
ENDROOT
BRANCH   1   6
ATOM      6  C   UNL d   1      -0.250   2.632  -0.008  0.00  0.00     0.183 C 
ATOM      7  O   UNL d   1       0.534   3.571  -0.001  0.00  0.00    -0.646 OA
BRANCH   6   8
ATOM      8  O   UNL d   1      -1.594   2.827  -0.019  0.00  0.00    -0.772 OA
ATOM      9  H   UNL d   1      -2.081   1.979  -0.024  0.00  0.00     0.167 HD
ENDBRANCH   6   8
ENDBRANCH   1   6
BRANCH   3  10
ATOM     10  S   UNL d   1      -0.314  -2.941  -0.016  0.00  0.00    -0.127 SA
ATOM     11  C   UNL d   1       1.254  -3.829  -0.004  0.00  0.00     0.096 C 
ENDBRANCH   3  10
TORSDOF 3
