REMARK  7 active torsions:
REMARK  status: ('A' for Active; 'I' for Inactive)
REMARK    1  A    between atoms: C_18  and  N_1 
REMARK    2  A    between atoms: C_2  and  N_13 
REMARK    3  A    between atoms: C_19  and  N_3 
REMARK    4  A    between atoms: C_17  and  C_4 
REMARK    5  A    between atoms: S_15  and  C_7 
REMARK       I    between atoms: N_13  and  C_16 
REMARK    6  A    between atoms: C_21  and  S_15 
REMARK    7  A    between atoms: C_16  and  C_21 
ROOT
ATOM      1  N   UNL d   1      -0.108  -0.175   1.352  0.00  0.00    -0.275 N 
ATOM      2  C   UNL d   1       0.937  -0.285   0.421  0.00  0.00     0.139 C 
ATOM      3  N   UNL d   1       0.535  -1.051  -0.580  0.00  0.00    -0.282 N 
ATOM      4  HN  UNL d   1       1.121  -1.380  -1.348  1.00  0.00     0.188 HD
ATOM      5  C   UNL d   1      -1.186  -0.769   0.701  0.00  0.00     0.168 C 
ATOM      6  N   UNL d   1      -0.791  -1.328  -0.417  0.00  0.00    -0.278 N 
ATOM      7  HN  UNL d   1      -1.373  -1.873  -1.054  1.00  0.00     0.189 HD
ENDROOT
BRANCH   5   8
ATOM      8  S   UNL d   1      -2.807  -0.889   1.315  0.00  0.00    -0.083 SA
BRANCH   8   9
ATOM      9  C   UNL d   1      -3.587  -2.003   0.122  0.00  0.00     0.185 C 
BRANCH   9  10
ATOM     10  C   UNL d   1      -5.081  -2.082   0.402  0.00  0.00     0.233 C 
ATOM     11  N   UNL d   1      -5.746  -0.886   0.165  0.00  0.00    -0.311 N 
ATOM     12  H   UNL d   1      -5.205  -0.087  -0.150  0.00  0.00     0.170 HD
ATOM     13  O   UNL d   1      -5.616  -3.144   0.713  0.00  0.00    -0.272 OA
BRANCH  11  14
ATOM     14  C   UNL d   1      -7.129  -0.763   0.225  0.00  0.00     0.132 C 
ATOM     15  N   UNL d   1      -7.857   0.230  -0.438  0.00  0.00    -0.240 N 
ATOM     16  N   UNL d   1      -9.157   0.241  -0.031  0.00  0.00    -0.297 N 
ATOM     17  C   UNL d   1      -9.302  -0.884   0.673  0.00  0.00     0.026 C 
ATOM     18  HN  UNL d   1      -9.863   0.951  -0.222  1.00  0.00     0.187 HD
ATOM     19  C   UNL d   1      -8.062  -1.528   0.888  0.00  0.00     0.076 C 
ATOM     20  C   UNL d   1     -10.643  -1.329   1.120  0.00  0.00     0.070 C 
BRANCH  15  21
ATOM     21  C   UNL d   1      -7.437   1.088  -1.495  0.00  0.00     0.058 A 
ATOM     22  C   UNL d   1      -6.341   0.757  -2.306  0.00  0.00     0.031 A 
ATOM     23  C   UNL d   1      -5.950   1.600  -3.346  0.00  0.00     0.002 A 
ATOM     24  C   UNL d   1      -6.662   2.768  -3.601  0.00  0.00     0.000 A 
ATOM     25  C   UNL d   1      -7.779   3.087  -2.825  0.00  0.00     0.002 A 
ATOM     26  C   UNL d   1      -8.172   2.247  -1.780  0.00  0.00     0.031 A 
ENDBRANCH  15  21
ENDBRANCH  11  14
ENDBRANCH   9  10
ENDBRANCH   8   9
ENDBRANCH   5   8
BRANCH   1  27
ATOM     27  C   UNL d   1      -0.039   0.386   2.667  0.00  0.00     0.043 A 
ATOM     28  C   UNL d   1      -1.123   1.075   3.227  0.00  0.00     0.030 A 
ATOM     29  C   UNL d   1      -1.038   1.608   4.516  0.00  0.00     0.002 A 
ATOM     30  C   UNL d   1       0.137   1.481   5.250  0.00  0.00     0.000 A 
ATOM     31  C   UNL d   1       1.224   0.807   4.702  0.00  0.00     0.002 A 
ATOM     32  C   UNL d   1       1.135   0.249   3.424  0.00  0.00     0.030 A 
ENDBRANCH   1  27
BRANCH   2  33
ATOM     33  C   UNL d   1       2.239   0.401   0.441  0.00  0.00     0.010 A 
ATOM     34  C   UNL d   1       3.382  -0.256  -0.039  0.00  0.00     0.017 A 
ATOM     35  C   UNL d   1       4.630   0.382  -0.040  0.00  0.00     0.025 A 
ATOM     36  C   UNL d   1       4.741   1.686   0.436  0.00  0.00     0.034 A 
ATOM     37  C   UNL d   1       3.614   2.364   0.892  0.00  0.00     0.025 A 
ATOM     38 CL   UNL d   1       6.272   2.469   0.452  0.00  0.00    -0.084 Cl
ATOM     39  C   UNL d   1       2.368   1.729   0.876  0.00  0.00     0.017 A 
ENDBRANCH   2  33
TORSDOF 7
