REMARK  5 active torsions:
REMARK  status: ('A' for Active; 'I' for Inactive)
REMARK    1  A    between atoms: C_4  and  N_1 
REMARK    2  A    between atoms: C_2  and  C_6 
REMARK    3  A    between atoms: C_3  and  C_2 
REMARK    4  A    between atoms: C_9  and  C_2 
REMARK    5  A    between atoms: C_15  and  C_2 
REMARK       I    between atoms: N_14  and  C_3 
ROOT
ATOM      1  C   UNL d   1      -2.302   4.543   1.568  0.00  0.00     0.094 C 
ENDROOT
BRANCH   1   2
ATOM      2  C   UNL d   1      -1.376   3.375   1.091  0.00  0.00    -0.036 A 
ATOM      3  C   UNL d   1       0.028   3.495   1.113  0.00  0.00     0.011 A 
ATOM      4  C   UNL d   1       0.854   2.460   0.654  0.00  0.00     0.037 A 
ATOM      5  C   UNL d   1       0.284   1.268   0.200  0.00  0.00     0.102 A 
ATOM      6  C   UNL d   1      -1.102   1.097   0.215  0.00  0.00     0.037 A 
ATOM      7  C   UNL d   1      -1.917   2.143   0.660  0.00  0.00     0.011 A 
BRANCH   5   8
ATOM      8  N   UNL d   1       1.146   0.186  -0.294  0.00  0.00    -0.116 N 
ATOM      9  O   UNL d   1       0.602  -0.870  -0.648  0.00  0.00    -0.532 OA
ATOM     10  O   UNL d   1       2.368   0.391  -0.325  0.00  0.00    -0.532 OA
ENDBRANCH   5   8
ENDBRANCH   1   2
BRANCH   1  11
ATOM     11  C   UNL d   1      -3.729   4.413   0.909  0.00  0.00     0.233 C 
ATOM     12  O   UNL d   1      -3.908   4.278  -0.301  0.00  0.00    -0.272 OA
ATOM     13  N   UNL d   1      -4.836   4.448   1.706  0.00  0.00    -0.369 N 
ATOM     14  H   UNL d   1      -4.806   4.504   2.715  0.00  0.00     0.159 HD
ATOM     15  H   UNL d   1      -5.733   4.331   1.253  0.00  0.00     0.159 HD
ENDBRANCH   1  11
BRANCH   1  16
ATOM     16  C   UNL d   1      -2.404   4.556   3.138  0.00  0.00    -0.036 A 
ATOM     17  C   UNL d   1      -2.583   5.753   3.865  0.00  0.00     0.009 A 
ATOM     18  C   UNL d   1      -2.717   5.759   5.258  0.00  0.00     0.001 A 
ATOM     19  C   UNL d   1      -2.685   4.565   5.965  0.00  0.00     0.000 A 
ATOM     20  C   UNL d   1      -2.526   3.368   5.278  0.00  0.00     0.001 A 
ATOM     21  C   UNL d   1      -2.394   3.360   3.885  0.00  0.00     0.009 A 
ENDBRANCH   1  16
BRANCH   1  22
ATOM     22  C   UNL d   1      -1.745   5.934   1.072  0.00  0.00     0.025 C 
ATOM     23  C   UNL d   1      -1.478   6.106  -0.423  0.00  0.00     0.007 C 
ENDBRANCH   1  22
TORSDOF 5
