REMARK  8 active torsions:
REMARK  status: ('A' for Active; 'I' for Inactive)
REMARK    1  A    between atoms: C_2  and  C_1 
REMARK       I    between atoms: C_3  and  N_6 
REMARK    2  A    between atoms: C_7  and  C_3 
REMARK    3  A    between atoms: C_4  and  C_7 
REMARK    4  A    between atoms: C_9  and  C_4 
REMARK    5  A    between atoms: C_5  and  C_9 
REMARK    6  A    between atoms: O_18  and  C_5 
REMARK    7  A    between atoms: N_6  and  C_16 
REMARK    8  A    between atoms: C_16  and  C_17 
ROOT
ATOM      1  C   UNL d   1       0.376  -6.455  -3.628  0.00  0.00     0.218 C 
ATOM      2  N   UNL d   1       1.515  -7.244  -3.674  0.00  0.00    -0.357 N 
ATOM      3  O   UNL d   1       0.050  -5.802  -2.646  0.00  0.00    -0.274 OA
ATOM      4  H   UNL d   1       1.659  -7.845  -4.474  0.00  0.00     0.162 HD
ENDROOT
BRANCH   1   5
ATOM      5  C   UNL d   1      -0.466  -6.550  -4.894  0.00  0.00     0.112 C 
BRANCH   5   6
ATOM      6  C   UNL d   1      -1.554  -5.457  -5.147  0.00  0.00    -0.023 C 
ATOM      7  C   UNL d   1      -2.754  -5.555  -4.154  0.00  0.00     0.010 C 
ATOM      8  C   UNL d   1      -3.686  -6.748  -4.350  0.00  0.00     0.001 C 
ATOM      9  C   UNL d   1      -4.142  -6.897  -5.795  0.00  0.00     0.000 C 
ATOM     10  C   UNL d   1      -2.958  -6.916  -6.750  0.00  0.00     0.001 C 
ATOM     11  C   UNL d   1      -2.104  -5.655  -6.592  0.00  0.00     0.010 C 
BRANCH   6  12
ATOM     12  C   UNL d   1      -1.001  -4.009  -4.989  0.00  0.00     0.119 C 
BRANCH  12  13
ATOM     13  C   UNL d   1       0.239  -3.636  -5.775  0.00  0.00     0.140 C 
ATOM     14  O   UNL d   1       0.802  -4.333  -6.596  0.00  0.00    -0.650 OA
BRANCH  13  15
ATOM     15  O   UNL d   1       0.662  -2.383  -5.474  0.00  0.00    -0.776 OA
ATOM     16  H   UNL d   1       0.130  -1.944  -4.783  0.00  0.00     0.167 HD
ENDBRANCH  13  15
ENDBRANCH  12  13
ENDBRANCH   6  12
ENDBRANCH   5   6
ENDBRANCH   1   5
BRANCH   2  17
ATOM     17  C   UNL d   1       2.248  -7.550  -2.463  0.00  0.00     0.161 C 
BRANCH  17  18
ATOM     18  C   UNL d   1       3.688  -7.964  -2.674  0.00  0.00    -0.041 A 
ATOM     19  C   UNL d   1       4.507  -7.374  -3.644  0.00  0.00     0.009 A 
ATOM     20  C   UNL d   1       5.866  -7.708  -3.736  0.00  0.00     0.017 A 
ATOM     21  C   UNL d   1       6.441  -8.628  -2.848  0.00  0.00     0.047 A 
ATOM     22  C   UNL d   1       5.627  -9.213  -1.870  0.00  0.00     0.017 A 
ATOM     23  C   UNL d   1       4.271  -8.883  -1.785  0.00  0.00     0.009 A 
BRANCH  21  24
ATOM     24  C   UNL d   1       7.915  -8.952  -2.931  0.00  0.00     0.417 C 
ATOM     25  F   UNL d   1       8.315  -9.906  -2.042  0.00  0.00    -0.166 F 
ATOM     26  F   UNL d   1       8.703  -7.868  -2.688  0.00  0.00    -0.166 F 
ATOM     27  F   UNL d   1       8.281  -9.414  -4.159  0.00  0.00    -0.166 F 
ENDBRANCH  21  24
ENDBRANCH  17  18
ENDBRANCH   2  17
TORSDOF 8
