REMARK  4 active torsions:
REMARK  status: ('A' for Active; 'I' for Inactive)
REMARK    1  A    between atoms: N_2  and  C_1 
REMARK    2  A    between atoms: N_6  and  C_1 
REMARK    3  A    between atoms: C_3  and  N_2 
REMARK    4  A    between atoms: C_9  and  N_6 
ROOT
ATOM      1  C   UNL d   1       0.998  -0.041   0.119  0.00  0.00     0.177 C 
ATOM      2  S   UNL d   1       2.501   0.333   0.759  0.00  0.00    -0.040 SA
ENDROOT
BRANCH   1   3
ATOM      3  N   UNL d   1       0.442   0.517  -0.995  0.00  0.00    -0.319 N 
ATOM      4  H   UNL d   1      -0.481   0.912  -0.877  0.00  0.00     0.169 HD
BRANCH   3   5
ATOM      5  C   UNL d   1       1.069   0.958  -2.162  0.00  0.00     0.107 A 
ATOM      6  N   UNL d   1       0.420   1.945  -2.810  0.00  0.00    -0.346 N 
ATOM      7  C   UNL d   1       0.970   2.407  -3.958  0.00  0.00     0.007 A 
ATOM      8  HN  UNL d   1      -0.453   2.329  -2.450  1.00  0.00     0.167 HD
ATOM      9  C   UNL d   1       0.293   3.567  -4.623  0.00  0.00     0.068 C 
ATOM     10  C   UNL d   1       2.125   1.863  -4.512  0.00  0.00     0.031 A 
ATOM     11  C   UNL d   1       2.750   0.797  -3.865  0.00  0.00    -0.057 A 
ATOM     12  C   UNL d   1       2.206   0.340  -2.665  0.00  0.00     0.055 A 
ATOM     13  C   UNL d   1       3.981   0.170  -4.446  0.00  0.00     0.048 C 
ENDBRANCH   3   5
ENDBRANCH   1   3
BRANCH   1  14
ATOM     14  N   UNL d   1       0.209  -0.896   0.841  0.00  0.00    -0.333 N 
ATOM     15  H   UNL d   1       0.560  -1.061   1.780  0.00  0.00     0.168 HD
BRANCH  14  16
ATOM     16  C   UNL d   1      -0.851  -1.728   0.424  0.00  0.00     0.037 A 
ATOM     17  C   UNL d   1      -1.256  -1.881  -0.905  0.00  0.00     0.071 A 
ATOM     18  C   UNL d   1      -2.291  -2.754  -1.221  0.00  0.00     0.118 A 
ATOM     19  F   UNL d   1      -2.668  -2.887  -2.501  0.00  0.00    -0.206 F 
ATOM     20  C   UNL d   1      -2.932  -3.500  -0.244  0.00  0.00     0.042 A 
ATOM     21  C   UNL d   1      -2.516  -3.383   1.080  0.00  0.00     0.005 A 
ATOM     22  C   UNL d   1      -1.480  -2.506   1.409  0.00  0.00     0.029 A 
ENDBRANCH  14  16
ENDBRANCH   1  14
TORSDOF 4
