REMARK  3 active torsions:
REMARK  status: ('A' for Active; 'I' for Inactive)
REMARK    1  A    between atoms: N_4  and  C_3 
REMARK    2  A    between atoms: C_7  and  C_6 
REMARK    3  A    between atoms: O_13  and  C_9 
ROOT
ATOM      1  N   UNL d   1      -0.103  -3.075  -0.325  0.00  0.00    -0.351 N 
ATOM      2  HN  UNL d   1       0.639  -3.604  -0.784  1.00  0.00     0.166 HD
ATOM      3  C   UNL d   1      -1.159  -3.661   0.149  0.00  0.00     0.104 C 
ENDROOT
BRANCH   1   4
ATOM      4  C   UNL d   1      -0.029  -1.681  -0.178  0.00  0.00     0.105 A 
ATOM      5  N   UNL d   1      -1.191  -0.994  -0.143  0.00  0.00    -0.346 N 
ATOM      6  C   UNL d   1      -1.124   0.354  -0.046  0.00  0.00     0.007 A 
ATOM      7  HN  UNL d   1      -2.089  -1.474  -0.188  1.00  0.00     0.167 HD
ATOM      8  C   UNL d   1       0.083   1.046   0.008  0.00  0.00     0.031 A 
ATOM      9  C   UNL d   1      -2.423   1.100  -0.013  0.00  0.00     0.068 C 
ATOM     10  C   UNL d   1       1.278   0.328  -0.040  0.00  0.00    -0.057 A 
ATOM     11  C   UNL d   1       2.605   1.022   0.007  0.00  0.00     0.048 C 
ATOM     12  C   UNL d   1       1.212  -1.064  -0.136  0.00  0.00     0.055 A 
ENDBRANCH   1   4
BRANCH   3  13
ATOM     13  C   UNL d   1      -1.370  -5.116   0.004  0.00  0.00     0.012 A 
ATOM     14  C   UNL d   1      -0.463  -5.941  -0.670  0.00  0.00     0.077 A 
ATOM     15  C   UNL d   1      -0.713  -7.306  -0.793  0.00  0.00     0.037 A 
ATOM     16  C   UNL d   1      -1.874  -7.853  -0.244  0.00  0.00     0.003 A 
ATOM     17  C   UNL d   1      -2.783  -7.035   0.428  0.00  0.00     0.001 A 
ATOM     18  C   UNL d   1      -2.534  -5.667   0.554  0.00  0.00     0.015 A 
BRANCH  14  19
ATOM     19  O   UNL d   1       0.689  -5.471  -1.240  0.00  0.00    -0.360 OA
ATOM     20  H   UNL d   1       0.699  -4.498  -1.093  0.00  0.00     0.217 HD
ENDBRANCH  14  19
ENDBRANCH   3  13
TORSDOF 3
