REMARK  4 active torsions:
REMARK  status: ('A' for Active; 'I' for Inactive)
REMARK    1  A    between atoms: N_2  and  C_1 
REMARK       I    between atoms: C_7  and  N_4 
REMARK    2  A    between atoms: C_9  and  C_7 
REMARK    3  A    between atoms: C_12  and  C_11 
REMARK    4  A    between atoms: O_20  and  C_12 
ROOT
ATOM      1  N   UNL d   1      -0.586   3.150  -0.004  0.00  0.00    -0.377 N 
ATOM      2  N   UNL d   1      -0.193   6.002   0.072  0.00  0.00    -0.346 N 
ATOM      3  C   UNL d   1       0.369   7.149   0.596  0.00  0.00     0.243 C 
ATOM      4  C   UNL d   1      -1.069   3.940   1.162  0.00  0.00     0.143 C 
ATOM      5  C   UNL d   1       0.626   3.755  -0.610  0.00  0.00     0.143 C 
ATOM      6  C   UNL d   1       0.282   5.192  -1.067  0.00  0.00     0.146 C 
ATOM      7  C   UNL d   1      -1.349   5.401   0.754  0.00  0.00     0.146 C 
ATOM      8  O   UNL d   1      -0.074   7.702   1.607  0.00  0.00    -0.268 OA
ENDROOT
BRANCH   1   9
ATOM      9  C   UNL d   1      -0.588   1.742   0.117  0.00  0.00     0.044 A 
ATOM     10  C   UNL d   1      -0.666   0.883  -1.026  0.00  0.00     0.017 A 
ATOM     11  C   UNL d   1      -0.762  -0.512  -0.795  0.00  0.00     0.044 A 
ATOM     12  C   UNL d   1      -0.700   1.321  -2.376  0.00  0.00     0.016 A 
ATOM     13  C   UNL d   1      -0.869  -1.383  -1.871  0.00  0.00     0.030 A 
ATOM     14  N   UNL d   1      -0.780  -1.060   0.426  0.00  0.00    -0.359 N 
ATOM     15  C   UNL d   1      -0.868  -0.934  -3.190  0.00  0.00     0.002 A 
ATOM     16  C   UNL d   1      -0.777   0.424  -3.445  0.00  0.00     0.001 A 
ATOM     17  C   UNL d   1      -0.702  -0.247   1.495  0.00  0.00     0.007 A 
ATOM     18  HN  UNL d   1      -0.852  -2.071   0.544  1.00  0.00     0.166 HD
ATOM     19  C   UNL d   1      -0.596   1.132   1.380  0.00  0.00     0.054 A 
ATOM     20  C   UNL d   1      -0.763  -0.887   2.849  0.00  0.00     0.068 C 
ENDBRANCH   1   9
BRANCH   3  21
ATOM     21  C   UNL d   1       1.552   7.731  -0.082  0.00  0.00     0.081 C 
ATOM     22  C   UNL d   1       2.115   8.843   0.409  0.00  0.00     0.086 C 
BRANCH  22  23
ATOM     23  C   UNL d   1       3.296   9.391  -0.278  0.00  0.00     0.165 C 
ATOM     24  O   UNL d   1       3.809   8.888  -1.264  0.00  0.00    -0.647 OA
BRANCH  23  25
ATOM     25  O   UNL d   1       3.758  10.510   0.307  0.00  0.00    -0.773 OA
ATOM     26  H   UNL d   1       3.260  10.815   1.086  0.00  0.00     0.167 HD
ENDBRANCH  23  25
ENDBRANCH  22  23
ENDBRANCH   3  21
TORSDOF 4
