REMARK  4 active torsions:
REMARK  status: ('A' for Active; 'I' for Inactive)
REMARK    1  A    between atoms: C_8  and  N_1 
REMARK    2  A    between atoms: C_7  and  C_2 
REMARK    3  A    between atoms: N_10  and  C_9 
REMARK    4  A    between atoms: C_18  and  C_15 
ROOT
ATOM      1  N   UNL d   1      -0.153  -1.324  -0.082  0.00  0.00    -0.225 N 
ATOM      2  C   UNL d   1       1.056  -0.664   0.134  0.00  0.00     0.139 C 
ATOM      3  N   UNL d   1      -0.511   0.781  -0.185  0.00  0.00    -0.007 NA
ATOM      4  N   UNL d   1      -1.083  -0.392  -0.403  0.00  0.00     0.001 NA
ATOM      5  N   UNL d   1       0.806   0.633   0.156  0.00  0.00    -0.270 N 
ATOM      6  HN  UNL d   1       1.465   1.378   0.383  1.00  0.00     0.185 HD
ENDROOT
BRANCH   1   7
ATOM      7  C   UNL d   1      -0.487  -2.701  -0.007  0.00  0.00     0.056 A 
ATOM      8  C   UNL d   1       0.216  -3.571   0.836  0.00  0.00     0.032 A 
ATOM      9  C   UNL d   1      -0.085  -4.935   0.843  0.00  0.00     0.009 A 
ATOM     10  C   UNL d   1      -1.089  -5.445   0.013  0.00  0.00    -0.058 A 
ATOM     11  C   UNL d   1      -1.820  -4.563  -0.794  0.00  0.00     0.009 A 
ATOM     12  C   UNL d   1      -1.539  -3.194  -0.790  0.00  0.00     0.032 A 
BRANCH  10  13
ATOM     13  C   UNL d   1      -1.351  -6.929  -0.041  0.00  0.00     0.034 C 
ATOM     14  C   UNL d   1      -0.457  -7.616  -1.063  0.00  0.00     0.010 C 
ENDBRANCH  10  13
ENDBRANCH   1   7
BRANCH   2  15
ATOM     15  C   UNL d   1       2.292  -1.358   0.151  0.00  0.00     0.068 C 
ATOM     16  C   UNL d   1       3.378  -0.842   0.744  0.00  0.00     0.088 C 
BRANCH  16  17
ATOM     17  N   UNL d   1       4.658  -1.368   0.844  0.00  0.00    -0.398 N 
ATOM     18  C   UNL d   1       5.117  -2.582   0.170  0.00  0.00     0.148 C 
ATOM     19  C   UNL d   1       5.709  -0.678   1.596  0.00  0.00     0.148 C 
ENDBRANCH  16  17
ENDBRANCH   2  15
TORSDOF 4
