REMARK  5 active torsions:
REMARK  status: ('A' for Active; 'I' for Inactive)
REMARK    1  A    between atoms: C_7  and  C_1 
REMARK    2  A    between atoms: N_16  and  C_7 
REMARK    3  A    between atoms: C_13  and  C_8 
REMARK    4  A    between atoms: N_9  and  C_10 
REMARK    5  A    between atoms: O_21  and  N_11 
ROOT
ATOM      1  C   UNL d   1      -2.756  -4.029   0.482  0.00  0.00     0.204 A 
ATOM      2  O   UNL d   1      -4.020  -3.677   0.872  0.00  0.00    -0.270 OA
ATOM      3  N   UNL d   1      -2.335  -3.353  -0.570  0.00  0.00    -0.275 N 
ATOM      4  HN  UNL d   1      -1.427  -3.433  -1.027  1.00  0.00     0.189 HD
ATOM      5  N   UNL d   1      -3.375  -2.512  -0.927  0.00  0.00    -0.277 N 
ATOM      6  HN  UNL d   1      -3.387  -1.853  -1.704  1.00  0.00     0.189 HD
ATOM      7  C   UNL d   1      -4.348  -2.732  -0.064  0.00  0.00     0.174 A 
ENDROOT
BRANCH   7   8
ATOM      8  C   UNL d   1      -5.696  -2.179   0.004  0.00  0.00     0.017 A 
ATOM      9  C   UNL d   1      -6.579  -2.528   1.041  0.00  0.00     0.018 A 
ATOM     10  C   UNL d   1      -7.891  -2.045   1.063  0.00  0.00     0.037 A 
ATOM     11  C   UNL d   1      -8.332  -1.198   0.040  0.00  0.00     0.102 A 
ATOM     12  C   UNL d   1      -7.460  -0.814  -0.988  0.00  0.00     0.037 A 
ATOM     13  C   UNL d   1      -6.148  -1.304  -0.998  0.00  0.00     0.018 A 
BRANCH  11  14
ATOM     14  N   UNL d   1      -9.722  -0.726   0.037  0.00  0.00    -0.116 N 
ATOM     15  O   UNL d   1     -10.463  -1.107   0.955  0.00  0.00    -0.532 OA
ATOM     16  O   UNL d   1     -10.074   0.022  -0.887  0.00  0.00    -0.532 OA
ENDBRANCH  11  14
ENDBRANCH   7   8
BRANCH   1  17
ATOM     17  C   UNL d   1      -2.009  -5.052   1.197  0.00  0.00     0.151 C 
ATOM     18  N   UNL d   1      -2.582  -5.578   2.251  0.00  0.00    -0.254 N 
ATOM     19  HN  UNL d   1      -3.513  -5.328   2.583  1.00  0.00     0.195 HD
BRANCH  18  20
ATOM     20  O   UNL d   1      -1.751  -6.532   2.866  0.00  0.00    -0.288 OA
ATOM     21  H   UNL d   1      -2.334  -6.895   3.560  0.00  0.00     0.244 HD
ENDBRANCH  18  20
BRANCH  17  22
ATOM     22  N   UNL d   1      -0.746  -5.452   0.807  0.00  0.00    -0.283 NA
ATOM     23  H   UNL d   1      -0.193  -4.749   0.332  0.00  0.00     0.125 HD
ATOM     24  H   UNL d   1      -0.269  -5.944   1.556  0.00  0.00     0.125 HD
ENDBRANCH  17  22
ENDBRANCH   1  17
TORSDOF 5
