REMARK  8 active torsions:
REMARK  status: ('A' for Active; 'I' for Inactive)
REMARK    1  A    between atoms: S_10  and  C_2 
REMARK    2  A    between atoms: N_11  and  C_3 
REMARK    3  A    between atoms: C_9  and  O_12 
REMARK    4  A    between atoms: C_15  and  S_10 
REMARK    5  A    between atoms: O_12  and  C_16 
REMARK    6  A    between atoms: C_17  and  C_15 
REMARK    7  A    between atoms: C_16  and  C_18 
REMARK    8  A    between atoms: C_18  and  C_17 
ROOT
ATOM      1  S   UNL d   1       4.668   3.522  -2.924  0.00  0.00    -0.103 SA
ENDROOT
BRANCH   1   2
ATOM      2  C   UNL d   1       3.010   4.048  -2.781  0.00  0.00     0.130 A 
ATOM      3  S   UNL d   1       2.248   4.979  -4.001  0.00  0.00    -0.027 SA
ATOM      4  C   UNL d   1       0.833   4.962  -3.030  0.00  0.00     0.159 A 
ATOM      5  N   UNL d   1       0.975   4.313  -1.895  0.00  0.00    -0.279 N 
ATOM      6  N   UNL d   1       2.243   3.777  -1.748  0.00  0.00    -0.286 N 
ATOM      7  HN  UNL d   1       0.234   4.215  -1.202  1.00  0.00     0.189 HD
ATOM      8  HN  UNL d   1       2.546   3.238  -0.937  1.00  0.00     0.188 HD
BRANCH   4   9
ATOM      9  N   UNL d   1      -0.294   5.582  -3.426  0.00  0.00    -0.379 N 
ATOM     10  H   UNL d   1      -0.224   6.309  -4.125  0.00  0.00     0.158 HD
ATOM     11  H   UNL d   1      -0.990   5.756  -2.708  0.00  0.00     0.158 HD
ENDBRANCH   4   9
ENDBRANCH   1   2
BRANCH   1  12
ATOM     12  C   UNL d   1       4.907   2.596  -1.376  0.00  0.00     0.081 C 
BRANCH  12  13
ATOM     13  C   UNL d   1       6.341   2.069  -1.358  0.00  0.00     0.013 C 
BRANCH  13  14
ATOM     14  C   UNL d   1       6.661   1.275  -0.085  0.00  0.00     0.027 C 
BRANCH  14  15
ATOM     15  C   UNL d   1       8.115   0.801  -0.076  0.00  0.00     0.171 C 
BRANCH  15  16
ATOM     16  O   UNL d   1       8.953   1.951  -0.162  0.00  0.00    -0.361 OA
BRANCH  16  17
ATOM     17  C   UNL d   1      10.334   1.638  -0.323  0.00  0.00     0.259 C 
ATOM     18  O   UNL d   1      10.600   0.867  -1.496  0.00  0.00    -0.361 OA
ATOM     19  C   UNL d   1      10.204   1.527  -2.697  0.00  0.00     0.171 C 
ATOM     20  C   UNL d   1      10.915   2.861  -2.875  0.00  0.00     0.026 C 
ATOM     21  C   UNL d   1      10.772   3.738  -1.638  0.00  0.00     0.007 C 
ATOM     22  C   UNL d   1      11.122   2.949  -0.377  0.00  0.00     0.061 C 
ENDBRANCH  16  17
ENDBRANCH  15  16
ENDBRANCH  14  15
ENDBRANCH  13  14
ENDBRANCH  12  13
ENDBRANCH   1  12
TORSDOF 8
