REMARK  8 active torsions:
REMARK  status: ('A' for Active; 'I' for Inactive)
REMARK    1  A    between atoms: N_2  and  C_1 
REMARK    2  A    between atoms: S_5  and  C_1 
REMARK    3  A    between atoms: C_6  and  N_2 
REMARK    4  A    between atoms: C_4  and  C_9 
REMARK    5  A    between atoms: O_10  and  C_4 
REMARK    6  A    between atoms: C_9  and  S_5 
REMARK    7  A    between atoms: C_8  and  C_6 
REMARK    8  A    between atoms: C_14  and  O_10 
ROOT
ATOM      1  N   UNL d   1       0.372  -1.058  -0.315  0.00  0.00    -0.367 N 
ATOM      2  H   UNL d   1      -0.457  -0.878   0.247  0.00  0.00     0.161 HD
ENDROOT
BRANCH   1   3
ATOM      3  C   UNL d   1       1.171   0.042  -0.485  0.00  0.00     0.135 C 
ATOM      4  S   UNL d   1       2.575   0.126  -1.378  0.00  0.00    -0.053 SA
BRANCH   3   5
ATOM      5  S   UNL d   1       0.568   1.408   0.437  0.00  0.00    -0.091 SA
BRANCH   5   6
ATOM      6  C   UNL d   1      -0.795   1.973  -0.613  0.00  0.00     0.192 C 
BRANCH   6   7
ATOM      7  C   UNL d   1      -2.024   1.103  -0.483  0.00  0.00     0.268 C 
ATOM      8  O   UNL d   1      -2.088   0.017   0.089  0.00  0.00    -0.264 OA
BRANCH   7   9
ATOM      9  O   UNL d   1      -3.049   1.670  -1.184  0.00  0.00    -0.321 OA
BRANCH   9  10
ATOM     10  C   UNL d   1      -4.148   0.795  -1.473  0.00  0.00     0.174 C 
ATOM     11  C   UNL d   1      -3.846   0.095  -2.786  0.00  0.00     0.034 C 
ENDBRANCH   9  10
ENDBRANCH   7   9
ENDBRANCH   6   7
ENDBRANCH   5   6
ENDBRANCH   3   5
ENDBRANCH   1   3
BRANCH   1  12
ATOM     12  C   UNL d   1       0.833  -2.448  -0.278  0.00  0.00     0.112 C 
ATOM     13  C   UNL d   1      -0.157  -3.374  -0.984  0.00  0.00     0.037 C 
BRANCH  12  14
ATOM     14  C   UNL d   1       1.065  -2.841   1.174  0.00  0.00    -0.036 A 
ATOM     15  C   UNL d   1       0.018  -2.828   2.113  0.00  0.00     0.009 A 
ATOM     16  C   UNL d   1       0.265  -3.076   3.464  0.00  0.00     0.001 A 
ATOM     17  C   UNL d   1       1.560  -3.351   3.896  0.00  0.00     0.000 A 
ATOM     18  C   UNL d   1       2.605  -3.392   2.975  0.00  0.00     0.001 A 
ATOM     19  C   UNL d   1       2.361  -3.138   1.623  0.00  0.00     0.009 A 
ENDBRANCH  12  14
ENDBRANCH   1  12
TORSDOF 8
