REMARK  2 active torsions:
REMARK  status: ('A' for Active; 'I' for Inactive)
REMARK       I    between atoms: C_2  and  N_1 
REMARK    1  A    between atoms: C_6  and  C_2 
REMARK    2  A    between atoms: N_5  and  C_6 
ROOT
ATOM      1  N   UNL d   1       1.462   1.066  -0.114  0.00  0.00    -0.316 N 
ATOM      2  C   UNL d   1       1.856   2.367  -0.346  0.00  0.00     0.252 C 
ATOM      3  C   UNL d   1       0.136   0.600  -0.183  0.00  0.00     0.043 A 
ATOM      4  C   UNL d   1       2.338  -0.069   0.215  0.00  0.00     0.137 C 
ATOM      5  C   UNL d   1       0.097  -0.781   0.002  0.00  0.00    -0.030 A 
ATOM      6  O   UNL d   1       1.181   3.184  -0.987  0.00  0.00    -0.271 OA
ATOM      7  C   UNL d   1       1.474  -1.341   0.167  0.00  0.00     0.061 C 
ATOM      8  C   UNL d   1      -1.032   1.330  -0.334  0.00  0.00     0.030 A 
ATOM      9  C   UNL d   1      -1.107  -1.471   0.002  0.00  0.00     0.009 A 
ATOM     10  C   UNL d   1      -2.253   0.649  -0.314  0.00  0.00     0.002 A 
ATOM     11  C   UNL d   1      -2.289  -0.744  -0.155  0.00  0.00     0.001 A 
ENDROOT
BRANCH   2  12
ATOM     12  C   UNL d   1       3.143   2.852   0.325  0.00  0.00     0.375 C 
BRANCH  12  13
ATOM     13  N   UNL d   1       4.403   2.261  -0.179  0.00  0.00     0.101 N 
ATOM     14  C   UNL d   1       4.561   2.349  -1.649  0.00  0.00     0.299 C 
ATOM     15  C   UNL d   1       4.837   3.762  -2.185  0.00  0.00     0.198 C 
ATOM     16  O   UNL d   1       5.984   4.342  -1.551  0.00  0.00    -0.388 OA
ATOM     17  C   UNL d   1       5.815   4.381  -0.132  0.00  0.00     0.198 C 
ATOM     18  C   UNL d   1       5.557   2.971   0.440  0.00  0.00     0.299 C 
ENDBRANCH  12  13
ENDBRANCH   2  12
TORSDOF 2
