REMARK  3 active torsions:
REMARK  status: ('A' for Active; 'I' for Inactive)
REMARK    1  A    between atoms: C_8  and  N_1 
REMARK    2  A    between atoms: C_16  and  C_6 
REMARK    3  A    between atoms: C_7  and  C_9 
ROOT
ATOM      1  C   UNL d   1      -0.454  -2.647   0.099  0.00  0.00     0.132 A 
ATOM      2  C   UNL d   1      -0.804  -5.394  -0.082  0.00  0.00     0.063 A 
ATOM      3  N   UNL d   1      -1.607  -3.134  -0.411  0.00  0.00    -0.350 N 
ATOM      4  HN  UNL d   1      -2.347  -2.505  -0.722  1.00  0.00     0.166 HD
ATOM      5  C   UNL d   1      -1.756  -4.478  -0.500  0.00  0.00     0.106 A 
ATOM      6  C   UNL d   1       0.366  -4.885   0.478  0.00  0.00     0.021 A 
ATOM      7  C   UNL d   1       0.543  -3.506   0.566  0.00  0.00     0.051 A 
ENDROOT
BRANCH   1   8
ATOM      8  N   UNL d   1      -0.220  -1.261   0.106  0.00  0.00    -0.181 N 
ATOM      9  N   UNL d   1       1.041  -0.778   0.338  0.00  0.00    -0.270 N 
ATOM     10  C   UNL d   1       0.914   0.478   0.053  0.00  0.00     0.147 A 
ATOM     11  HN  UNL d   1       1.870  -1.281   0.654  1.00  0.00     0.189 HD
ATOM     12  O   UNL d   1      -0.314   0.887  -0.314  0.00  0.00    -0.245 OA
ATOM     13  C   UNL d   1      -1.071  -0.257  -0.299  0.00  0.00     0.394 A 
ATOM     14  O   UNL d   1      -2.251  -0.268  -0.608  0.00  0.00    -0.236 OA
BRANCH  10  15
ATOM     15  C   UNL d   1       2.016   1.487   0.026  0.00  0.00     0.054 C 
ATOM     16  C   UNL d   1       2.666   1.610   1.399  0.00  0.00     0.018 C 
ATOM     17  C   UNL d   1       3.035   1.062  -1.029  0.00  0.00     0.018 C 
ENDBRANCH  10  15
ENDBRANCH   1   8
BRANCH   2  18
ATOM     18  C   UNL d   1      -1.019  -6.867  -0.235  0.00  0.00     0.418 C 
ATOM     19  F   UNL d   1      -2.203  -7.192  -0.822  0.00  0.00    -0.166 F 
ATOM     20  F   UNL d   1      -0.052  -7.454  -0.996  0.00  0.00    -0.166 F 
ATOM     21  F   UNL d   1      -1.000  -7.521   0.958  0.00  0.00    -0.166 F 
ENDBRANCH   2  18
TORSDOF 3
