REMARK  2 active torsions:
REMARK  status: ('A' for Active; 'I' for Inactive)
REMARK    1  A    between atoms: C_8  and  C_7 
REMARK    2  A    between atoms: S_14  and  C_10 
ROOT
ATOM      1  C   UNL d   1      -0.510   1.119   0.175  0.00  0.00     0.058 A 
ATOM      2  C   UNL d   1      -1.335  -0.111   0.236  0.00  0.00     0.273 A 
ATOM      3  N   UNL d   1       0.931  -0.682   0.033  0.00  0.00    -0.300 N 
ATOM      4  HN  UNL d   1       1.769  -1.259  -0.039  1.00  0.00     0.187 HD
ATOM      5  N   UNL d   1      -0.377  -1.122   0.168  0.00  0.00    -0.261 N 
ATOM      6  C   UNL d   1       0.871   0.622   0.017  0.00  0.00     0.038 A 
ATOM      7  C   UNL d   1      -0.870   2.400   0.311  0.00  0.00     0.038 C 
ATOM      8  O   UNL d   1      -2.543  -0.203   0.324  0.00  0.00    -0.266 OA
ATOM      9  C   UNL d   1      -0.664  -2.524   0.334  0.00  0.00     0.181 C 
ATOM     10  C   UNL d   1       2.068   1.504  -0.119  0.00  0.00     0.070 C 
ENDROOT
BRANCH   7  11
ATOM     11  C   UNL d   1      -2.207   2.783   0.595  0.00  0.00     0.007 A 
ATOM     12  S   UNL d   1      -2.706   2.977   2.228  0.00  0.00    -0.084 SA
ATOM     13  C   UNL d   1      -4.295   3.405   1.778  0.00  0.00     0.041 A 
ATOM     14  C   UNL d   1      -4.445   3.434   0.410  0.00  0.00     0.027 A 
ATOM     15  C   UNL d   1      -3.242   3.077  -0.273  0.00  0.00     0.021 A 
BRANCH  13  16
ATOM     16  S   UNL d   1      -5.511   3.805   2.981  0.00  0.00    -0.127 SA
ATOM     17  C   UNL d   1      -6.808   2.618   2.564  0.00  0.00     0.096 C 
ENDBRANCH  13  16
ENDBRANCH   7  11
TORSDOF 2
