REMARK  4 active torsions:
REMARK  status: ('A' for Active; 'I' for Inactive)
REMARK    1  A    between atoms: C_6  and  C_1 
REMARK    2  A    between atoms: C_5  and  C_2 
REMARK    3  A    between atoms: O_9  and  C_5 
REMARK    4  A    between atoms: C_10  and  O_9 
ROOT
ATOM      1  C   UNL d   1      -1.489  -0.334   0.020  0.00  0.00     0.087 A 
ATOM      2  C   UNL d   1      -0.186  -0.906   0.126  0.00  0.00     0.100 A 
ATOM      3  N   UNL d   1      -1.414   0.909  -0.486  0.00  0.00    -0.259 N 
ATOM      4  HN  UNL d   1      -2.196   1.520  -0.721  1.00  0.00     0.195 HD
ATOM      5  O   UNL d   1      -0.079   1.196  -0.625  0.00  0.00    -0.241 OA
ATOM      6  C   UNL d   1       0.659   0.122  -0.252  0.00  0.00     0.091 A 
ATOM      7  C   UNL d   1       2.123   0.326  -0.280  0.00  0.00     0.080 C 
ENDROOT
BRANCH   2   8
ATOM      8  C   UNL d   1       0.222  -2.225   0.562  0.00  0.00     0.303 C 
ATOM      9  O   UNL d   1      -0.442  -2.941   1.306  0.00  0.00    -0.259 OA
BRANCH   8  10
ATOM     10  O   UNL d   1       1.404  -2.613  -0.067  0.00  0.00    -0.272 OA
BRANCH  10  11
ATOM     11  C   UNL d   1       2.326  -3.396   0.662  0.00  0.00     0.107 A 
ATOM     12  C   UNL d   1       2.747  -2.993   1.933  0.00  0.00     0.076 A 
ATOM     13  N   UNL d   1       2.211  -1.913   2.546  0.00  0.00    -0.363 N 
ATOM     14  C   UNL d   1       3.786  -3.741   2.527  0.00  0.00    -0.007 A 
ATOM     15  C   UNL d   1       2.647  -1.591   3.782  0.00  0.00     0.088 A 
ATOM     16  HN  UNL d   1       1.493  -1.354   2.084  1.00  0.00     0.165 HD
ATOM     17  C   UNL d   1       3.640  -2.280   4.447  0.00  0.00     0.018 A 
ATOM     18  C   UNL d   1       4.224  -3.364   3.804  0.00  0.00     0.015 A 
ATOM     19  C   UNL d   1       4.379  -4.817   1.838  0.00  0.00     0.014 A 
ATOM     20  C   UNL d   1       3.951  -5.165   0.557  0.00  0.00     0.004 A 
ATOM     21  C   UNL d   1       2.919  -4.450  -0.038  0.00  0.00     0.040 A 
ENDBRANCH  10  11
ENDBRANCH   8  10
ENDBRANCH   2   8
BRANCH   1  22
ATOM     22  C   UNL d   1      -2.804  -0.893   0.329  0.00  0.00     0.037 A 
ATOM     23  C   UNL d   1      -3.648  -0.258   1.265  0.00  0.00     0.048 A 
ATOM     24 CL   UNL d   1      -3.143   1.104   2.215  0.00  0.00    -0.083 Cl
ATOM     25  C   UNL d   1      -4.954  -0.715   1.486  0.00  0.00     0.025 A 
ATOM     26  C   UNL d   1      -5.434  -1.825   0.800  0.00  0.00     0.003 A 
ATOM     27  C   UNL d   1      -4.607  -2.481  -0.109  0.00  0.00     0.025 A 
ATOM     28  C   UNL d   1      -3.307  -2.015  -0.354  0.00  0.00     0.048 A 
ATOM     29 CL   UNL d   1      -2.402  -2.856  -1.570  0.00  0.00    -0.083 Cl
ENDBRANCH   1  22
TORSDOF 4
