REMARK  5 active torsions:
REMARK  status: ('A' for Active; 'I' for Inactive)
REMARK    1  A    between atoms: C_5  and  C_1 
REMARK    2  A    between atoms: C_6  and  C_1 
REMARK    3  A    between atoms: N_8  and  N_2 
REMARK    4  A    between atoms: C_4  and  C_7 
REMARK    5  A    between atoms: C_16  and  N_8 
ROOT
ATOM      1  N   UNL d   1       1.232  -2.178  -0.746  0.00  0.00    -0.300 N 
ATOM      2  H   UNL d   1       1.898  -2.388   0.010  0.00  0.00     0.187 HD
ENDROOT
BRANCH   1   3
ATOM      3  N   UNL d   1       0.537  -1.005  -0.662  0.00  0.00    -0.294 N 
ATOM      4  C   UNL d   1       1.109   0.004  -0.062  0.00  0.00     0.139 C 
ATOM      5  HN  UNL d   1      -0.401  -0.921  -1.055  1.00  0.00     0.187 HD
BRANCH   4   6
ATOM      6  C   UNL d   1       0.237   1.223   0.140  0.00  0.00     0.177 C 
ATOM      7  O   UNL d   1       0.696   2.335  -0.086  0.00  0.00    -0.291 OA
ATOM      8  C   UNL d   1      -1.145   0.997   0.681  0.00  0.00     0.098 C 
ENDBRANCH   4   6
BRANCH   4   9
ATOM      9  C   UNL d   1       2.532  -0.046   0.457  0.00  0.00     0.177 C 
ATOM     10  O   UNL d   1       2.871  -1.013   1.136  0.00  0.00    -0.291 OA
ATOM     11  C   UNL d   1       3.488   1.027   0.025  0.00  0.00     0.098 C 
ENDBRANCH   4   9
ENDBRANCH   1   3
BRANCH   1  12
ATOM     12  C   UNL d   1       0.505  -3.322  -1.153  0.00  0.00     0.048 A 
ATOM     13  C   UNL d   1      -0.620  -3.230  -1.982  0.00  0.00     0.031 A 
ATOM     14  C   UNL d   1      -1.286  -4.377  -2.428  0.00  0.00     0.018 A 
ATOM     15  C   UNL d   1      -0.833  -5.652  -2.062  0.00  0.00     0.048 A 
ATOM     16  C   UNL d   1       0.299  -5.750  -1.242  0.00  0.00     0.018 A 
ATOM     17  C   UNL d   1       0.966  -4.598  -0.805  0.00  0.00     0.031 A 
BRANCH  15  18
ATOM     18  C   UNL d   1      -1.547  -6.882  -2.569  0.00  0.00     0.417 C 
ATOM     19  F   UNL d   1      -1.012  -8.050  -2.116  0.00  0.00    -0.166 F 
ATOM     20  F   UNL d   1      -2.861  -6.911  -2.210  0.00  0.00    -0.166 F 
ATOM     21  F   UNL d   1      -1.531  -6.970  -3.928  0.00  0.00    -0.166 F 
ENDBRANCH  15  18
ENDBRANCH   1  12
TORSDOF 5
