REMARK  5 active torsions:
REMARK  status: ('A' for Active; 'I' for Inactive)
REMARK    1  A    between atoms: C_5  and  C_1 
REMARK    2  A    between atoms: C_7  and  C_2 
REMARK       I    between atoms: N_9  and  C_7 
REMARK    3  A    between atoms: C_14  and  N_9 
REMARK    4  A    between atoms: C_10  and  C_14 
REMARK    5  A    between atoms: O_16  and  C_10 
ROOT
ATOM      1  C   UNL d   1      -1.364  -0.571   0.219  0.00  0.00     0.085 A 
ATOM      2  C   UNL d   1      -0.093  -1.232   0.090  0.00  0.00     0.092 A 
ATOM      3  N   UNL d   1      -1.176   0.756   0.311  0.00  0.00    -0.259 N 
ATOM      4  HN  UNL d   1      -1.898   1.461   0.461  1.00  0.00     0.195 HD
ATOM      5  O   UNL d   1       0.163   0.985   0.167  0.00  0.00    -0.241 OA
ATOM      6  C   UNL d   1       0.820  -0.192   0.034  0.00  0.00     0.090 A 
ATOM      7  C   UNL d   1       2.279  -0.048  -0.147  0.00  0.00     0.080 C 
ENDROOT
BRANCH   2   8
ATOM      8  C   UNL d   1       0.196  -2.651  -0.007  0.00  0.00     0.257 C 
ATOM      9  N   UNL d   1       1.388  -3.046   0.549  0.00  0.00    -0.347 N 
ATOM     10  H   UNL d   1       1.949  -2.398   1.092  0.00  0.00     0.163 HD
ATOM     11  O   UNL d   1      -0.577  -3.457  -0.509  0.00  0.00    -0.267 OA
BRANCH   9  12
ATOM     12  C   UNL d   1       1.834  -4.426   0.514  0.00  0.00     0.232 C 
BRANCH  12  13
ATOM     13  C   UNL d   1       3.258  -4.523   1.047  0.00  0.00     0.158 C 
ATOM     14  O   UNL d   1       3.897  -3.562   1.457  0.00  0.00    -0.649 OA
BRANCH  13  15
ATOM     15  O   UNL d   1       3.756  -5.779   1.040  0.00  0.00    -0.775 OA
ATOM     16  H   UNL d   1       3.147  -6.460   0.692  0.00  0.00     0.167 HD
ENDBRANCH  13  15
ENDBRANCH  12  13
ENDBRANCH   9  12
ENDBRANCH   2   8
BRANCH   1  17
ATOM     17  C   UNL d   1      -2.724  -1.114   0.377  0.00  0.00     0.015 A 
ATOM     18  C   UNL d   1      -3.863  -0.497  -0.182  0.00  0.00     0.046 A 
ATOM     19 CL   UNL d   1      -3.784   0.821  -1.306  0.00  0.00    -0.083 Cl
ATOM     20  C   UNL d   1      -5.151  -0.956   0.131  0.00  0.00     0.025 A 
ATOM     21  C   UNL d   1      -5.326  -2.051   0.973  0.00  0.00     0.002 A 
ATOM     22  C   UNL d   1      -4.213  -2.702   1.492  0.00  0.00     0.001 A 
ATOM     23  C   UNL d   1      -2.926  -2.234   1.205  0.00  0.00     0.015 A 
ENDBRANCH   1  17
TORSDOF 5
