REMARK  2 active torsions:
REMARK  status: ('A' for Active; 'I' for Inactive)
REMARK    1  A    between atoms: C_12  and  C_3 
REMARK       I    between atoms: C_7  and  N_4 
REMARK    2  A    between atoms: C_5  and  N_11 
REMARK       I    between atoms: N_11  and  C_7 
ROOT
ATOM      1  N   UNL d   1      -2.195  -2.675  -1.464  0.00  0.00    -0.322 N 
ATOM      2  C   UNL d   1      -3.016  -1.716  -0.711  0.00  0.00     0.229 A 
ATOM      3  N   UNL d   1      -3.826  -2.441   0.271  0.00  0.00    -0.308 N 
ATOM      4  C   UNL d   1      -0.839  -2.378  -1.390  0.00  0.00     0.256 A 
ATOM      5  C   UNL d   1      -5.174  -2.671  -0.101  0.00  0.00     0.325 C 
ATOM      6  C   UNL d   1      -1.972  -0.797  -0.123  0.00  0.00    -0.000 A 
ATOM      7  N   UNL d   1      -5.806  -3.622   0.682  0.00  0.00    -0.304 N 
ATOM      8  C   UNL d   1      -0.705  -1.174  -0.575  0.00  0.00     0.042 A 
ATOM      9  O   UNL d   1       0.099  -3.046  -1.776  0.00  0.00    -0.267 OA
ATOM     10  O   UNL d   1      -5.706  -2.144  -1.069  0.00  0.00    -0.247 OA
ATOM     11  C   UNL d   1      -2.594  -4.064  -1.451  0.00  0.00     0.130 C 
ATOM     12  C   UNL d   1      -3.053  -3.473   0.978  0.00  0.00     0.132 C 
ATOM     13  C   UNL d   1      -2.602  -4.570  -0.002  0.00  0.00     0.040 C 
ATOM     14  C   UNL d   1      -2.089   0.271   0.749  0.00  0.00     0.012 A 
ATOM     15  C   UNL d   1       0.466  -0.560  -0.167  0.00  0.00     0.018 A 
ATOM     16  C   UNL d   1      -0.920   0.923   1.168  0.00  0.00     0.001 A 
ATOM     17  C   UNL d   1       0.350   0.508   0.719  0.00  0.00     0.001 A 
ATOM     18  H   UNL d   1      -5.463  -3.702   1.626  0.00  0.00     0.171 HD
ENDROOT
BRANCH   7  19
ATOM     19  C   UNL d   1      -6.305  -4.796   0.124  0.00  0.00     0.097 A 
ATOM     20  C   UNL d   1      -7.040  -5.103  -1.065  0.00  0.00     0.097 A 
ATOM     21  N   UNL d   1      -7.177  -6.436  -1.192  0.00  0.00    -0.258 N 
ATOM     22  O   UNL d   1      -6.618  -7.000  -0.075  0.00  0.00    -0.240 OA
ATOM     23  HN  UNL d   1      -7.612  -6.932  -1.970  1.00  0.00     0.195 HD
ATOM     24  C   UNL d   1      -6.142  -6.025   0.734  0.00  0.00     0.101 A 
ATOM     25  C   UNL d   1      -5.526  -6.488   1.992  0.00  0.00     0.081 C 
BRANCH  20  26
ATOM     26  C   UNL d   1      -7.788  -4.263  -1.998  0.00  0.00     0.038 A 
ATOM     27  C   UNL d   1      -7.525  -4.296  -3.380  0.00  0.00     0.048 A 
ATOM     28 CL   UNL d   1      -6.108  -5.046  -4.037  0.00  0.00    -0.083 Cl
ATOM     29  C   UNL d   1      -8.427  -3.733  -4.295  0.00  0.00     0.025 A 
ATOM     30  C   UNL d   1      -9.591  -3.115  -3.846  0.00  0.00     0.003 A 
ATOM     31  C   UNL d   1      -9.842  -3.029  -2.480  0.00  0.00     0.025 A 
ATOM     32  C   UNL d   1      -8.950  -3.596  -1.560  0.00  0.00     0.048 A 
ATOM     33 CL   UNL d   1      -9.408  -3.506   0.111  0.00  0.00    -0.083 Cl
ENDBRANCH  20  26
ENDBRANCH   7  19
TORSDOF 2
