REMARK  3 active torsions:
REMARK  status: ('A' for Active; 'I' for Inactive)
REMARK    1  A    between atoms: C_2  and  S_1 
REMARK    2  A    between atoms: O_5  and  S_1 
REMARK    3  A    between atoms: C_7  and  O_5 
ROOT
ATOM      1  S   UNL d   1       1.022   0.105  -0.103  0.00  0.00     0.309 S 
ATOM      2  O   UNL d   1       2.448   0.358  -0.065  0.00  0.00    -0.192 OA
ATOM      3  O   UNL d   1       0.190   0.567  -1.196  0.00  0.00    -0.192 OA
ENDROOT
BRANCH   1   4
ATOM      4  C   UNL d   1       0.348   0.902   1.343  0.00  0.00     0.128 A 
ATOM      5  S   UNL d   1       1.278   0.806   2.776  0.00  0.00    -0.073 SA
ATOM      6  C   UNL d   1       0.186   1.798   3.649  0.00  0.00     0.042 A 
ATOM      7  C   UNL d   1       0.410   2.182   5.017  0.00  0.00     0.117 A 
ATOM      8  C   UNL d   1      -0.897   2.151   2.866  0.00  0.00     0.024 A 
ATOM      9  O   UNL d   1      -0.495   2.942   5.720  0.00  0.00    -0.237 OA
ATOM     10  C   UNL d   1       1.471   1.918   5.862  0.00  0.00     0.059 A 
ATOM     11  N   UNL d   1      -0.040   3.163   7.007  0.00  0.00    -0.272 N 
ATOM     12  C   UNL d   1       1.137   2.543   7.075  0.00  0.00     0.117 A 
ATOM     13  HN  UNL d   1      -0.506   3.689   7.747  1.00  0.00     0.194 HD
ATOM     14  C   UNL d   1      -0.806   1.633   1.541  0.00  0.00     0.035 A 
ENDBRANCH   1   4
BRANCH   1  15
ATOM     15  O   UNL d   1       0.713  -1.462   0.217  0.00  0.00    -0.226 OA
BRANCH  15  16
ATOM     16  C   UNL d   1       0.902  -2.411  -0.772  0.00  0.00     0.117 A 
ATOM     17  C   UNL d   1      -0.079  -3.403  -0.908  0.00  0.00     0.077 A 
ATOM     18  N   UNL d   1      -1.185  -3.417  -0.127  0.00  0.00    -0.363 N 
ATOM     19  C   UNL d   1       0.129  -4.395  -1.896  0.00  0.00    -0.007 A 
ATOM     20  C   UNL d   1      -2.089  -4.409  -0.305  0.00  0.00     0.088 A 
ATOM     21  HN  UNL d   1      -1.333  -2.697   0.580  1.00  0.00     0.165 HD
ATOM     22  C   UNL d   1      -1.959  -5.414  -1.243  0.00  0.00     0.018 A 
ATOM     23  C   UNL d   1      -0.831  -5.403  -2.051  0.00  0.00     0.015 A 
ATOM     24  C   UNL d   1       1.279  -4.378  -2.702  0.00  0.00     0.014 A 
ATOM     25  C   UNL d   1       2.242  -3.390  -2.533  0.00  0.00     0.004 A 
ATOM     26  C   UNL d   1       2.060  -2.413  -1.562  0.00  0.00     0.040 A 
ENDBRANCH  15  16
ENDBRANCH   1  15
TORSDOF 3
