REMARK  4 active torsions:
REMARK  status: ('A' for Active; 'I' for Inactive)
REMARK    1  A    between atoms: N_5  and  C_1 
REMARK    2  A    between atoms: N_6  and  C_1 
REMARK    3  A    between atoms: C_12  and  N_5 
REMARK    4  A    between atoms: C_13  and  N_6 
ROOT
ATOM      1  C   UNL d   1       1.137   0.029   0.089  0.00  0.00     0.176 C 
ATOM      2  S   UNL d   1       2.660  -0.140  -0.591  0.00  0.00    -0.041 SA
ENDROOT
BRANCH   1   3
ATOM      3  N   UNL d   1       0.554  -0.837   0.976  0.00  0.00    -0.333 N 
ATOM      4  H   UNL d   1      -0.409  -1.062   0.751  0.00  0.00     0.168 HD
BRANCH   3   5
ATOM      5  C   UNL d   1       1.155  -1.580   2.008  0.00  0.00     0.037 A 
ATOM      6  C   UNL d   1       2.308  -1.144   2.669  0.00  0.00     0.069 A 
ATOM      7  C   UNL d   1       2.830  -1.883   3.728  0.00  0.00     0.104 A 
ATOM      8  O   UNL d   1       3.959  -1.385   4.328  0.00  0.00    -0.346 OA
ATOM      9  C   UNL d   1       2.196  -3.055   4.150  0.00  0.00     0.102 A 
ATOM     10  C   UNL d   1       4.614  -2.387   5.110  0.00  0.00     0.202 C 
ATOM     11  C   UNL d   1       3.614  -3.128   5.982  0.00  0.00     0.202 C 
ATOM     12  O   UNL d   1       2.650  -3.827   5.187  0.00  0.00    -0.346 OA
ATOM     13  C   UNL d   1       1.042  -3.489   3.502  0.00  0.00     0.042 A 
ATOM     14  C   UNL d   1       0.510  -2.743   2.448  0.00  0.00     0.032 A 
ENDBRANCH   3   5
ENDBRANCH   1   3
BRANCH   1  15
ATOM     15  N   UNL d   1       0.349   1.044  -0.384  0.00  0.00    -0.333 N 
ATOM     16  H   UNL d   1       0.730   1.485  -1.216  0.00  0.00     0.168 HD
BRANCH  15  17
ATOM     17  C   UNL d   1      -0.768   1.690   0.192  0.00  0.00     0.035 A 
ATOM     18  C   UNL d   1      -1.428   2.640  -0.604  0.00  0.00     0.043 A 
ATOM     19  C   UNL d   1      -2.526   3.356  -0.085  0.00  0.00    -0.006 A 
ATOM     20  C   UNL d   1      -3.389   4.361  -0.602  0.00  0.00     0.030 A 
ATOM     21  C   UNL d   1      -2.932   3.103   1.224  0.00  0.00     0.042 A 
ATOM     22  C   UNL d   1      -4.293   4.686   0.383  0.00  0.00     0.089 A 
ATOM     23  N   UNL d   1      -4.009   3.921   1.482  0.00  0.00    -0.365 N 
ATOM     24  H   UNL d   1      -4.508   3.951   2.361  0.00  0.00     0.165 HD
ATOM     25  C   UNL d   1      -2.283   2.181   2.046  0.00  0.00     0.033 A 
ATOM     26  C   UNL d   1      -1.189   1.489   1.508  0.00  0.00     0.032 A 
ENDBRANCH  15  17
ENDBRANCH   1  15
TORSDOF 4
