REMARK  3 active torsions:
REMARK  status: ('A' for Active; 'I' for Inactive)
REMARK    1  A    between atoms: C_9  and  C_3 
REMARK    2  A    between atoms: C_10  and  C_5 
REMARK    3  A    between atoms: O_16  and  C_13 
ROOT
ATOM      1  N   UNL d   1      -0.449   1.628  -0.754  0.00  0.00    -0.358 N 
ATOM      2  HN  UNL d   1      -0.258   2.213  -1.568  1.00  0.00     0.166 HD
ATOM      3  C   UNL d   1      -1.605   1.712  -0.167  0.00  0.00     0.021 C 
ATOM      4  S   UNL d   1      -1.162  -1.507  -0.415  0.00  0.00    -0.118 SA
ATOM      5  C   UNL d   1      -2.375  -0.569   0.616  0.00  0.00     0.091 C 
ATOM      6  C   UNL d   1      -1.983   0.855   1.031  0.00  0.00     0.078 C 
ATOM      7  C   UNL d   1       0.547   0.743  -0.291  0.00  0.00     0.049 A 
ATOM      8  C   UNL d   1       0.370  -0.643  -0.105  0.00  0.00     0.028 A 
ATOM      9  C   UNL d   1       1.821   1.292  -0.084  0.00  0.00     0.031 A 
ATOM     10  C   UNL d   1       1.465  -1.439   0.271  0.00  0.00     0.021 A 
ATOM     11  C   UNL d   1       2.901   0.494   0.302  0.00  0.00     0.002 A 
ATOM     12  C   UNL d   1       2.723  -0.873   0.478  0.00  0.00     0.002 A 
ENDROOT
BRANCH   3  13
ATOM     13  C   UNL d   1      -2.632   2.646  -0.738  0.00  0.00    -0.013 A 
ATOM     14  C   UNL d   1      -2.614   2.890  -2.119  0.00  0.00     0.016 A 
ATOM     15  C   UNL d   1      -3.623   3.652  -2.713  0.00  0.00     0.037 A 
ATOM     16  C   UNL d   1      -4.640   4.179  -1.927  0.00  0.00     0.065 A 
ATOM     17  C   UNL d   1      -4.643   3.994  -0.549  0.00  0.00     0.037 A 
ATOM     18  C   UNL d   1      -3.632   3.232   0.047  0.00  0.00     0.016 A 
BRANCH  16  19
ATOM     19  O   UNL d   1      -5.631   4.876  -2.551  0.00  0.00    -0.361 OA
ATOM     20  H   UNL d   1      -6.319   5.088  -1.899  0.00  0.00     0.217 HD
ENDBRANCH  16  19
ENDBRANCH   3  13
BRANCH   5  21
ATOM     21  C   UNL d   1      -3.775  -0.619   0.004  0.00  0.00    -0.044 A 
ATOM     22  C   UNL d   1      -4.000  -0.427  -1.370  0.00  0.00     0.008 A 
ATOM     23  C   UNL d   1      -5.290  -0.453  -1.901  0.00  0.00     0.001 A 
ATOM     24  C   UNL d   1      -6.381  -0.663  -1.064  0.00  0.00     0.000 A 
ATOM     25  C   UNL d   1      -6.183  -0.845   0.302  0.00  0.00     0.001 A 
ATOM     26  C   UNL d   1      -4.891  -0.821   0.834  0.00  0.00     0.008 A 
ENDBRANCH   5  21
TORSDOF 3
