REMARK  6 active torsions:
REMARK  status: ('A' for Active; 'I' for Inactive)
REMARK    1  A    between atoms: C_10  and  N_1 
REMARK    2  A    between atoms: C_11  and  C_2 
REMARK    3  A    between atoms: S_8  and  C_5 
REMARK    4  A    between atoms: C_14  and  S_8 
REMARK    5  A    between atoms: C_9  and  C_14 
REMARK       I    between atoms: N_13  and  C_9 
REMARK    6  A    between atoms: N_15  and  N_13 
ROOT
ATOM      1  N   UNL d   1      -0.343  -1.318  -0.056  0.00  0.00    -0.275 N 
ATOM      2  C   UNL d   1       0.904  -0.676  -0.053  0.00  0.00     0.139 A 
ATOM      3  N   UNL d   1       0.711   0.634  -0.063  0.00  0.00    -0.282 N 
ATOM      4  HN  UNL d   1       1.445   1.341  -0.021  1.00  0.00     0.188 HD
ATOM      5  C   UNL d   1      -1.248  -0.271  -0.151  0.00  0.00     0.168 A 
ATOM      6  N   UNL d   1      -0.625   0.884  -0.140  0.00  0.00    -0.278 N 
ATOM      7  HN  UNL d   1      -1.063   1.805  -0.180  1.00  0.00     0.189 HD
ENDROOT
BRANCH   5   8
ATOM      8  S   UNL d   1      -2.979  -0.401  -0.118  0.00  0.00    -0.083 SA
BRANCH   8   9
ATOM      9  C   UNL d   1      -3.445   1.142  -0.955  0.00  0.00     0.186 C 
BRANCH   9  10
ATOM     10  C   UNL d   1      -2.945   1.147  -2.391  0.00  0.00     0.241 C 
ATOM     11  O   UNL d   1      -3.442   0.451  -3.276  0.00  0.00    -0.271 OA
ATOM     12  N   UNL d   1      -1.876   2.012  -2.614  0.00  0.00    -0.293 N 
ATOM     13  H   UNL d   1      -1.330   2.353  -1.817  0.00  0.00     0.183 HD
BRANCH  12  14
ATOM     14  N   UNL d   1      -1.315   2.095  -3.908  0.00  0.00    -0.247 NA
ATOM     15  H   UNL d   1      -1.996   1.680  -4.558  0.00  0.00     0.143 HD
ATOM     16  H   UNL d   1      -0.511   1.464  -3.945  0.00  0.00     0.143 HD
ENDBRANCH  12  14
ENDBRANCH   9  10
ENDBRANCH   8   9
ENDBRANCH   5   8
BRANCH   1  17
ATOM     17  C   UNL d   1      -0.602  -2.719   0.016  0.00  0.00     0.043 A 
ATOM     18  C   UNL d   1       0.182  -3.538   0.843  0.00  0.00     0.030 A 
ATOM     19  C   UNL d   1      -0.016  -4.920   0.856  0.00  0.00     0.002 A 
ATOM     20  C   UNL d   1      -1.007  -5.492   0.062  0.00  0.00     0.000 A 
ATOM     21  C   UNL d   1      -1.805  -4.684  -0.744  0.00  0.00     0.002 A 
ATOM     22  C   UNL d   1      -1.603  -3.301  -0.772  0.00  0.00     0.030 A 
ENDBRANCH   1  17
BRANCH   2  23
ATOM     23  C   UNL d   1       2.240  -1.287  -0.116  0.00  0.00     0.010 A 
ATOM     24  C   UNL d   1       2.526  -2.388  -0.936  0.00  0.00     0.015 A 
ATOM     25  C   UNL d   1       3.803  -2.954  -0.954  0.00  0.00     0.001 A 
ATOM     26  C   UNL d   1       4.823  -2.400  -0.184  0.00  0.00     0.000 A 
ATOM     27  C   UNL d   1       4.568  -1.276   0.598  0.00  0.00     0.001 A 
ATOM     28  C   UNL d   1       3.285  -0.723   0.630  0.00  0.00     0.015 A 
ENDBRANCH   2  23
TORSDOF 6
