REMARK  3 active torsions:
REMARK  status: ('A' for Active; 'I' for Inactive)
REMARK    1  A    between atoms: C_7  and  C_1 
REMARK       I    between atoms: N_11  and  C_7 
REMARK    2  A    between atoms: C_15  and  N_11 
REMARK    3  A    between atoms: C_16  and  C_15 
ROOT
ATOM      1  C   UNL d   1      -1.304  -2.697   0.092  0.00  0.00     0.254 C 
ATOM      2  N   UNL d   1      -0.347  -3.688   0.129  0.00  0.00    -0.353 N 
ATOM      3  O   UNL d   1      -1.007  -1.502   0.106  0.00  0.00    -0.268 OA
ATOM      4  H   UNL d   1      -0.615  -4.662   0.015  0.00  0.00     0.163 HD
ENDROOT
BRANCH   1   5
ATOM      5  C   UNL d   1      -2.730  -3.067   0.018  0.00  0.00     0.061 A 
ATOM      6  C   UNL d   1      -3.229  -4.394   0.007  0.00  0.00     0.082 A 
ATOM      7  N   UNL d   1      -2.527  -5.543   0.056  0.00  0.00    -0.310 N 
ATOM      8  C   UNL d   1      -4.725  -4.638  -0.071  0.00  0.00     0.068 A 
ATOM      9  S   UNL d   1      -3.631  -6.785   0.020  0.00  0.00     0.068 SA
ATOM     10  HN  UNL d   1      -1.513  -5.633   0.107  1.00  0.00     0.176 HD
ATOM     11  N   UNL d   1      -5.054  -5.939  -0.068  0.00  0.00    -0.310 N 
ATOM     12  HN  UNL d   1      -5.994  -6.330  -0.112  1.00  0.00     0.176 HD
ATOM     13  C   UNL d   1      -5.647  -3.564  -0.139  0.00  0.00     0.032 A 
ATOM     14  C   UNL d   1      -5.097  -2.275  -0.131  0.00  0.00     0.003 A 
ATOM     15  C   UNL d   1      -3.706  -2.039  -0.056  0.00  0.00     0.019 A 
ENDBRANCH   1   5
BRANCH   2  16
ATOM     16  C   UNL d   1       1.044  -3.305   0.072  0.00  0.00     0.161 C 
BRANCH  16  17
ATOM     17  C   UNL d   1       2.023  -4.440   0.208  0.00  0.00    -0.041 A 
ATOM     18  C   UNL d   1       3.022  -4.617  -0.760  0.00  0.00     0.009 A 
ATOM     19  C   UNL d   1       4.025  -5.574  -0.587  0.00  0.00     0.007 A 
ATOM     20  C   UNL d   1       4.052  -6.372   0.560  0.00  0.00    -0.062 A 
ATOM     21  C   UNL d   1       3.046  -6.213   1.520  0.00  0.00     0.007 A 
ATOM     22  C   UNL d   1       5.164  -7.361   0.752  0.00  0.00     0.048 C 
ATOM     23  C   UNL d   1       2.041  -5.255   1.347  0.00  0.00     0.009 A 
ENDBRANCH  16  17
ENDBRANCH   2  16
TORSDOF 3
