REMARK  7 active torsions:
REMARK  status: ('A' for Active; 'I' for Inactive)
REMARK    1  A    between atoms: C_4  and  S_1 
REMARK    2  A    between atoms: N_6  and  S_1 
REMARK    3  A    between atoms: C_2  and  C_8 
REMARK    4  A    between atoms: C_3  and  C_7 
REMARK    5  A    between atoms: C_5  and  C_4 
REMARK       I    between atoms: N_11  and  C_5 
REMARK    6  A    between atoms: C_14  and  N_6 
REMARK    7  A    between atoms: C_15  and  N_11 
ROOT
ATOM      1  S   UNL d   1       0.538  -0.302  -0.156  0.00  0.00     0.222 S 
ATOM      2  O   UNL d   1       0.110   0.346   1.065  0.00  0.00    -0.211 OA
ATOM      3  O   UNL d   1       1.907  -0.742  -0.305  0.00  0.00    -0.211 OA
ENDROOT
BRANCH   1   4
ATOM      4  C   UNL d   1       0.118   0.738  -1.506  0.00  0.00     0.260 C 
BRANCH   4   5
ATOM      5  C   UNL d   1       0.739   2.097  -1.553  0.00  0.00     0.237 C 
ATOM      6  N   UNL d   1       1.641   2.514  -0.591  0.00  0.00    -0.326 N 
ATOM      7  H   UNL d   1       1.878   1.891   0.175  0.00  0.00     0.169 HD
ATOM      8  O   UNL d   1       0.411   2.783  -2.531  0.00  0.00    -0.272 OA
BRANCH   6   9
ATOM      9  C   UNL d   1       2.419   3.703  -0.652  0.00  0.00     0.035 A 
ATOM     10  C   UNL d   1       2.239   4.693  -1.622  0.00  0.00     0.045 A 
ATOM     11  C   UNL d   1       3.160   5.740  -1.788  0.00  0.00     0.050 A 
ATOM     12  C   UNL d   1       4.223   5.854  -0.886  0.00  0.00     0.016 A 
ATOM     13  C   UNL d   1       4.362   4.927   0.147  0.00  0.00     0.003 A 
ATOM     14  C   UNL d   1       3.471   3.854   0.260  0.00  0.00     0.029 A 
BRANCH  11  15
ATOM     15  C   UNL d   1       3.042   6.671  -2.970  0.00  0.00     0.417 C 
ATOM     16  F   UNL d   1       1.988   6.397  -3.788  0.00  0.00    -0.166 F 
ATOM     17  F   UNL d   1       2.903   7.975  -2.607  0.00  0.00    -0.166 F 
ATOM     18  F   UNL d   1       4.147   6.622  -3.769  0.00  0.00    -0.166 F 
ENDBRANCH  11  15
ENDBRANCH   6   9
ENDBRANCH   4   5
ENDBRANCH   1   4
BRANCH   1  19
ATOM     19  N   UNL d   1      -0.494  -1.624  -0.378  0.00  0.00    -0.185 NA
ATOM     20  H   UNL d   1      -0.630  -2.106   0.515  0.00  0.00     0.146 HD
BRANCH  19  21
ATOM     21  C   UNL d   1      -0.274  -2.489  -1.493  0.00  0.00     0.023 A 
ATOM     22  C   UNL d   1       0.643  -3.539  -1.428  0.00  0.00     0.040 A 
ATOM     23  C   UNL d   1       0.815  -4.395  -2.532  0.00  0.00     0.049 A 
ATOM     24  C   UNL d   1       0.071  -4.160  -3.701  0.00  0.00     0.016 A 
ATOM     25  C   UNL d   1      -0.830  -3.100  -3.767  0.00  0.00     0.003 A 
ATOM     26  C   UNL d   1      -1.003  -2.267  -2.662  0.00  0.00     0.024 A 
BRANCH  23  27
ATOM     27  C   UNL d   1       1.762  -5.569  -2.482  0.00  0.00     0.417 C 
ATOM     28  F   UNL d   1       2.412  -5.698  -1.293  0.00  0.00    -0.166 F 
ATOM     29  F   UNL d   1       1.121  -6.755  -2.686  0.00  0.00    -0.166 F 
ATOM     30  F   UNL d   1       2.730  -5.500  -3.437  0.00  0.00    -0.166 F 
ENDBRANCH  23  27
ENDBRANCH  19  21
ENDBRANCH   1  19
TORSDOF 7
