REMARK  2 active torsions:
REMARK  status: ('A' for Active; 'I' for Inactive)
REMARK    1  A    between atoms: C_8  and  C_4 
REMARK    2  A    between atoms: C_10  and  C_7 
ROOT
ATOM      1  N   UNL d   1       1.492   0.368  -0.081  0.00  0.00    -0.337 N 
ATOM      2  HN  UNL d   1       2.320   0.961  -0.131  1.00  0.00     0.167 HD
ATOM      3  N   UNL d   1       0.193  -1.460  -0.004  0.00  0.00    -0.307 N 
ATOM      4  C   UNL d   1       1.442  -0.930  -0.050  0.00  0.00     0.119 A 
ATOM      5  C   UNL d   1       0.167   0.766  -0.031  0.00  0.00     0.103 A 
ATOM      6  C   UNL d   1      -0.711  -0.445  -0.012  0.00  0.00     0.273 A 
ATOM      7  C   UNL d   1      -0.216   2.048   0.013  0.00  0.00     0.046 C 
ATOM      8  O   UNL d   1      -1.920  -0.544  -0.018  0.00  0.00    -0.266 OA
ATOM      9  H   UNL d   1      -0.080  -2.427  -0.037  0.00  0.00     0.170 HD
ENDROOT
BRANCH   7  10
ATOM     10  C   UNL d   1      -1.600   2.509   0.092  0.00  0.00    -0.034 A 
ATOM     11  C   UNL d   1      -2.200   2.720   1.337  0.00  0.00     0.012 A 
ATOM     12  C   UNL d   1      -3.532   3.134   1.414  0.00  0.00     0.007 A 
ATOM     13  C   UNL d   1      -4.279   3.344   0.248  0.00  0.00    -0.062 A 
ATOM     14  C   UNL d   1      -3.670   3.144  -0.996  0.00  0.00     0.007 A 
ATOM     15  C   UNL d   1      -5.721   3.745   0.347  0.00  0.00     0.048 C 
ATOM     16  C   UNL d   1      -2.338   2.730  -1.074  0.00  0.00     0.012 A 
ENDBRANCH   7  10
BRANCH   4  17
ATOM     17  C   UNL d   1       2.620  -1.814  -0.072  0.00  0.00     0.008 A 
ATOM     18  C   UNL d   1       3.803  -1.342  -0.651  0.00  0.00     0.015 A 
ATOM     19  C   UNL d   1       4.942  -2.149  -0.670  0.00  0.00     0.001 A 
ATOM     20  C   UNL d   1       4.904  -3.422  -0.100  0.00  0.00     0.000 A 
ATOM     21  C   UNL d   1       3.728  -3.892   0.485  0.00  0.00     0.001 A 
ATOM     22  C   UNL d   1       2.584  -3.092   0.499  0.00  0.00     0.015 A 
ENDBRANCH   4  17
TORSDOF 2
