REMARK  2 active torsions:
REMARK  status: ('A' for Active; 'I' for Inactive)
REMARK    1  A    between atoms: C_4  and  N_1 
REMARK    2  A    between atoms: S_10  and  C_7 
ROOT
ATOM      1  C   UNL d   1       0.034   2.194   0.000  0.00  0.00     0.062 A 
ATOM      2  C   UNL d   1      -0.840   2.882   0.868  0.00  0.00     0.027 A 
ATOM      3  C   UNL d   1       0.958   2.923  -0.769  0.00  0.00     0.031 A 
ATOM      4  C   UNL d   1      -0.797   4.286   0.900  0.00  0.00     0.021 A 
ATOM      5  C   UNL d   1       0.980   4.317  -0.730  0.00  0.00     0.002 A 
ATOM      6  C   UNL d   1       0.100   4.999   0.102  0.00  0.00     0.002 A 
ENDROOT
BRANCH   1   7
ATOM      7  N   UNL d   1       0.005   0.792  -0.145  0.00  0.00    -0.244 N 
ATOM      8  C   UNL d   1      -1.091   0.081  -0.539  0.00  0.00     0.255 A 
ATOM      9  C   UNL d   1      -0.670  -1.325  -0.638  0.00  0.00     0.080 A 
ATOM     10  O   UNL d   1      -2.202   0.448  -0.872  0.00  0.00    -0.268 OA
ATOM     11  C   UNL d   1       0.637  -1.381  -0.387  0.00  0.00     0.080 A 
ATOM     12  C   UNL d   1       1.102  -0.015  -0.117  0.00  0.00     0.255 A 
ATOM     13  O   UNL d   1       2.269   0.247   0.118  0.00  0.00    -0.268 OA
ENDBRANCH   1   7
BRANCH   2  14
ATOM     14  S   UNL d   1      -1.961   2.116   2.048  0.00  0.00    -0.132 SA
ATOM     15  C   UNL d   1      -0.832   1.004   2.933  0.00  0.00     0.095 C 
ENDBRANCH   2  14
TORSDOF 2
