REMARK  2 active torsions:
REMARK  status: ('A' for Active; 'I' for Inactive)
REMARK    1  A    between atoms: C_8  and  N_1 
REMARK    2  A    between atoms: C_9  and  C_11 
ROOT
ATOM      1  N   UNL d   1       2.429  -0.685   0.004  0.00  0.00    -0.268 N 
ATOM      2  C   UNL d   1       1.257  -1.450  -0.042  0.00  0.00     0.266 A 
ATOM      3  C   UNL d   1      -0.014  -0.707  -0.009  0.00  0.00     0.062 A 
ATOM      4  N   UNL d   1       1.260   1.367   0.052  0.00  0.00    -0.344 N 
ATOM      5  HN  UNL d   1       1.278   2.386   0.083  1.00  0.00     0.167 HD
ATOM      6  C   UNL d   1       2.370   0.697   0.036  0.00  0.00     0.087 A 
ATOM      7  C   UNL d   1       0.035   0.684   0.028  0.00  0.00     0.067 A 
ATOM      8  C   UNL d   1      -1.183   1.385   0.026  0.00  0.00     0.040 A 
ATOM      9  C   UNL d   1      -1.233  -1.399  -0.017  0.00  0.00     0.038 A 
ATOM     10  C   UNL d   1      -2.408   0.709   0.010  0.00  0.00     0.040 A 
ATOM     11  O   UNL d   1       1.209  -2.677  -0.080  0.00  0.00    -0.267 OA
ATOM     12  C   UNL d   1      -2.424  -0.682  -0.004  0.00  0.00     0.013 A 
ATOM     13 BR   UNL d   1      -1.225   3.286   0.032  0.00  0.00    -0.049 Br
ATOM     14  C   UNL d   1       3.648   1.510  -0.022  0.00  0.00     0.089 C 
ATOM     15 BR   UNL d   1      -4.074  -1.605  -0.009  0.00  0.00    -0.051 Br
ENDROOT
BRANCH   1  16
ATOM     16  C   UNL d   1       3.668  -1.393  -0.011  0.00  0.00     0.044 A 
ATOM     17  C   UNL d   1       4.584  -1.259   1.041  0.00  0.00     0.046 A 
ATOM     18  C   UNL d   1       5.801  -1.960   1.029  0.00  0.00     0.050 A 
ATOM     19  C   UNL d   1       6.089  -2.806  -0.053  0.00  0.00     0.016 A 
ATOM     20  C   UNL d   1       5.171  -2.962  -1.091  0.00  0.00     0.003 A 
ATOM     21  C   UNL d   1       3.963  -2.268  -1.065  0.00  0.00     0.030 A 
BRANCH  18  22
ATOM     22  C   UNL d   1       6.789  -1.824   2.162  0.00  0.00     0.417 C 
ATOM     23  F   UNL d   1       6.375  -0.972   3.141  0.00  0.00    -0.166 F 
ATOM     24  F   UNL d   1       7.044  -3.009   2.780  0.00  0.00    -0.166 F 
ATOM     25  F   UNL d   1       7.995  -1.351   1.743  0.00  0.00    -0.166 F 
ENDBRANCH  18  22
ENDBRANCH   1  16
TORSDOF 2
