REMARK  6 active torsions:
REMARK  status: ('A' for Active; 'I' for Inactive)
REMARK    1  A    between atoms: C_1  and  O_7 
REMARK    2  A    between atoms: C_2  and  O_8 
REMARK    3  A    between atoms: C_4  and  O_10 
REMARK    4  A    between atoms: C_5  and  O_9 
REMARK    5  A    between atoms: C_6  and  C_11 
REMARK    6  A    between atoms: O_12  and  C_11 
ROOT
ATOM      1  C   UNL d   1      -0.916   0.851  -0.378  0.00  0.00     0.204 C 
ATOM      2  C   UNL d   1       0.587   0.614  -0.557  0.00  0.00     0.183 C 
ATOM      3  O   UNL d   1      -1.231  -1.476   0.206  0.00  0.00    -0.349 OA
ATOM      4  C   UNL d   1      -1.687  -0.446  -0.684  0.00  0.00     0.290 C 
ATOM      5  C   UNL d   1       1.057  -0.592   0.266  0.00  0.00     0.180 C 
ATOM      6  C   UNL d   1       0.153  -1.808   0.010  0.00  0.00     0.179 C 
ENDROOT
BRANCH   6   7
ATOM      7  C   UNL d   1       0.510  -2.972   0.948  0.00  0.00     0.198 C 
BRANCH   7   8
ATOM      8  O   UNL d   1       1.832  -3.458   0.747  0.00  0.00    -0.398 OA
ATOM      9  H   UNL d   1       2.403  -2.683   0.554  0.00  0.00     0.209 HD
ENDBRANCH   7   8
ENDBRANCH   6   7
BRANCH   5  10
ATOM     10  O   UNL d   1       2.420  -0.901  -0.057  0.00  0.00    -0.390 OA
ATOM     11  H   UNL d   1       2.851  -0.038  -0.230  0.00  0.00     0.210 HD
ENDBRANCH   5  10
BRANCH   4  12
ATOM     12  O   UNL d   1      -1.523  -0.797  -2.055  0.00  0.00    -0.363 OA
ATOM     13  C   UNL d   1      -2.356  -1.882  -2.438  0.00  0.00     0.204 C 
ENDBRANCH   4  12
BRANCH   2  14
ATOM     14  O   UNL d   1       1.335   1.765  -0.131  0.00  0.00    -0.390 OA
ATOM     15  H   UNL d   1       0.811   2.169   0.592  0.00  0.00     0.210 HD
ENDBRANCH   2  14
BRANCH   1  16
ATOM     16  O   UNL d   1      -1.145   1.296   0.976  0.00  0.00    -0.388 OA
ATOM     17  H   UNL d   1      -1.383   0.508   1.505  0.00  0.00     0.210 HD
ENDBRANCH   1  16
TORSDOF 6
