REMARK  8 active torsions:
REMARK  status: ('A' for Active; 'I' for Inactive)
REMARK    1  A    between atoms: C_2  and  C_1 
REMARK       I    between atoms: N_6  and  C_2 
REMARK    2  A    between atoms: C_5  and  C_3 
REMARK    3  A    between atoms: C_4  and  C_7 
REMARK    4  A    between atoms: C_7  and  N_6 
REMARK    5  A    between atoms: O_16  and  C_11 
REMARK    6  A    between atoms: O_21  and  C_13 
REMARK    7  A    between atoms: O_22  and  C_14 
REMARK    8  A    between atoms: C_20  and  O_16 
ROOT
ATOM      1  C   UNL d   1       0.241   1.248   1.094  0.00  0.00     0.062 A 
ATOM      2  C   UNL d   1      -0.533   0.678   0.075  0.00  0.00     0.069 A 
ATOM      3  C   UNL d   1       0.435   0.481   2.245  0.00  0.00     0.108 A 
ATOM      4  N   UNL d   1      -0.140  -0.721   2.488  0.00  0.00    -0.346 N 
ATOM      5  HN  UNL d   1       0.052  -1.240   3.345  1.00  0.00     0.167 HD
ATOM      6  C   UNL d   1      -0.974  -1.198   1.549  0.00  0.00     0.148 A 
ATOM      7  C   UNL d   1      -1.175  -0.556   0.339  0.00  0.00     0.073 A 
ENDROOT
BRANCH   1   8
ATOM      8  C   UNL d   1       0.955   2.557   1.097  0.00  0.00     0.255 C 
ATOM      9  N   UNL d   1       0.402   3.691   0.510  0.00  0.00    -0.348 N 
ATOM     10  C   UNL d   1      -1.035   3.940   0.467  0.00  0.00     0.153 C 
ATOM     11  O   UNL d   1       2.036   2.575   1.690  0.00  0.00    -0.267 OA
BRANCH   9  12
ATOM     12  C   UNL d   1       1.237   4.906   0.476  0.00  0.00     0.169 C 
BRANCH  12  13
ATOM     13  C   UNL d   1       2.203   5.150  -0.688  0.00  0.00     0.026 A 
ATOM     14  C   UNL d   1       2.436   6.500  -1.074  0.00  0.00     0.078 A 
ATOM     15  C   UNL d   1       3.521   6.835  -1.895  0.00  0.00     0.037 A 
ATOM     16  C   UNL d   1       4.402   5.854  -2.327  0.00  0.00     0.005 A 
ATOM     17  C   UNL d   1       4.158   4.523  -2.012  0.00  0.00     0.037 A 
ATOM     18  C   UNL d   1       3.060   4.157  -1.217  0.00  0.00     0.078 A 
BRANCH  14  19
ATOM     19  O   UNL d   1       1.550   7.438  -0.594  0.00  0.00    -0.355 OA
ATOM     20  C   UNL d   1       1.899   8.809  -0.751  0.00  0.00     0.210 C 
ENDBRANCH  14  19
BRANCH  18  21
ATOM     21  O   UNL d   1       2.764   2.849  -0.955  0.00  0.00    -0.355 OA
ATOM     22  C   UNL d   1       3.772   1.874  -1.179  0.00  0.00     0.210 C 
ENDBRANCH  18  21
ENDBRANCH  12  13
ENDBRANCH   9  12
ENDBRANCH   1   8
BRANCH   2  23
ATOM     23  C   UNL d   1      -0.744   1.247  -1.301  0.00  0.00     0.418 C 
ATOM     24  F   UNL d   1       0.016   2.305  -1.655  0.00  0.00    -0.166 F 
ATOM     25  F   UNL d   1      -0.524   0.309  -2.268  0.00  0.00    -0.166 F 
ATOM     26  F   UNL d   1      -2.041   1.640  -1.477  0.00  0.00    -0.166 F 
ENDBRANCH   2  23
BRANCH   6  27
ATOM     27  O   UNL d   1      -1.642  -2.401   1.741  0.00  0.00    -0.294 OA
BRANCH  27  28
ATOM     28  C   UNL d   1      -1.838  -2.848   3.029  0.00  0.00     0.077 A 
ATOM     29  C   UNL d   1      -2.172  -2.013   4.099  0.00  0.00     0.037 A 
ATOM     30  C   UNL d   1      -2.359  -2.546   5.375  0.00  0.00     0.003 A 
ATOM     31  C   UNL d   1      -2.255  -3.921   5.578  0.00  0.00     0.000 A 
ATOM     32  C   UNL d   1      -1.974  -4.765   4.503  0.00  0.00     0.003 A 
ATOM     33  C   UNL d   1      -1.772  -4.229   3.228  0.00  0.00     0.037 A 
ENDBRANCH  27  28
ENDBRANCH   6  27
TORSDOF 8
