REMARK  2 active torsions:
REMARK  status: ('A' for Active; 'I' for Inactive)
REMARK    1  A    between atoms: C_5  and  N_2 
REMARK    2  A    between atoms: C_12  and  C_4 
ROOT
ATOM      1  C   UNL d   1       0.802   1.206  -0.220  0.00  0.00     0.181 C 
ATOM      2  N   UNL d   1       1.355   0.038   0.336  0.00  0.00    -0.313 N 
ATOM      3  N   UNL d   1      -0.540   1.127  -0.526  0.00  0.00    -0.303 N 
ATOM      4  C   UNL d   1       0.680  -1.218  -0.050  0.00  0.00     0.134 C 
ATOM      5  C   UNL d   1      -1.399   0.089  -0.268  0.00  0.00     0.226 C 
ATOM      6  C   UNL d   1      -0.792  -1.132   0.349  0.00  0.00     0.134 C 
ATOM      7  S   UNL d   1       1.603   2.624  -0.624  0.00  0.00    -0.040 SA
ATOM      8  O   UNL d   1      -2.604   0.194  -0.479  0.00  0.00    -0.273 OA
ATOM      9  H   UNL d   1      -0.970   1.963  -0.905  0.00  0.00     0.171 HD
ENDROOT
BRANCH   2  10
ATOM     10  C   UNL d   1       2.601   0.067   1.046  0.00  0.00     0.059 A 
ATOM     11  C   UNL d   1       2.788   0.894   2.179  0.00  0.00     0.062 A 
ATOM     12  C   UNL d   1       4.011   0.921   2.859  0.00  0.00     0.050 A 
ATOM     13 CL   UNL d   1       1.493   1.802   2.894  0.00  0.00    -0.082 Cl
ATOM     14  C   UNL d   1       5.045   0.088   2.447  0.00  0.00     0.035 A 
ATOM     15  C   UNL d   1       4.877  -0.752   1.352  0.00  0.00     0.026 A 
ATOM     16 CL   UNL d   1       6.529   0.074   3.318  0.00  0.00    -0.084 Cl
ATOM     17  C   UNL d   1       3.671  -0.746   0.643  0.00  0.00     0.033 A 
ENDBRANCH   2  10
BRANCH   4  18
ATOM     18  C   UNL d   1       1.245  -2.547   0.430  0.00  0.00    -0.035 A 
ATOM     19  C   UNL d   1       1.358  -2.868   1.794  0.00  0.00     0.009 A 
ATOM     20  C   UNL d   1       1.878  -4.099   2.187  0.00  0.00     0.001 A 
ATOM     21  C   UNL d   1       2.280  -5.033   1.233  0.00  0.00     0.000 A 
ATOM     22  C   UNL d   1       2.157  -4.739  -0.122  0.00  0.00     0.001 A 
ATOM     23  C   UNL d   1       1.642  -3.506  -0.521  0.00  0.00     0.009 A 
ENDBRANCH   4  18
TORSDOF 2
