REMARK  4 active torsions:
REMARK  status: ('A' for Active; 'I' for Inactive)
REMARK    1  A    between atoms: C_2  and  C_1 
REMARK    2  A    between atoms: C_3  and  C_1 
REMARK    3  A    between atoms: S_7  and  C_4 
REMARK    4  A    between atoms: C_9  and  S_7 
ROOT
ATOM      1  C   UNL d   1       0.294   1.243   0.449  0.00  0.00     0.062 C 
ATOM      2  C   UNL d   1       0.911   2.359   0.861  0.00  0.00     0.054 C 
ENDROOT
BRANCH   1   3
ATOM      3  C   UNL d   1       1.093   0.037   0.109  0.00  0.00     0.182 C 
ATOM      4  O   UNL d   1       2.264  -0.076   0.444  0.00  0.00    -0.288 OA
BRANCH   3   5
ATOM      5  C   UNL d   1       0.406  -1.066  -0.617  0.00  0.00     0.015 A 
ATOM      6  C   UNL d   1       0.845  -2.378  -0.392  0.00  0.00     0.034 A 
ATOM      7  C   UNL d   1       0.238  -3.436  -1.067  0.00  0.00     0.011 A 
ATOM      8 BR   UNL d   1       0.819  -5.207  -0.751  0.00  0.00    -0.051 Br
ATOM      9  C   UNL d   1      -0.792  -3.201  -1.976  0.00  0.00     0.019 A 
ATOM     10  C   UNL d   1      -1.220  -1.894  -2.215  0.00  0.00     0.002 A 
ATOM     11  C   UNL d   1      -0.622  -0.827  -1.539  0.00  0.00     0.015 A 
ENDBRANCH   3   5
ENDBRANCH   1   3
BRANCH   2  12
ATOM     12  S   UNL d   1      -0.005   3.775   1.246  0.00  0.00    -0.102 SA
BRANCH  12  13
ATOM     13  C   UNL d   1       0.571   4.176   2.889  0.00  0.00     0.004 A 
ATOM     14  C   UNL d   1       0.552   5.525   3.272  0.00  0.00     0.020 A 
ATOM     15  C   UNL d   1       0.899   5.908   4.571  0.00  0.00     0.025 A 
ATOM     16  C   UNL d   1       1.269   4.940   5.500  0.00  0.00     0.034 A 
ATOM     17  C   UNL d   1       1.297   3.595   5.137  0.00  0.00     0.025 A 
ATOM     18 CL   UNL d   1       1.676   5.404   7.105  0.00  0.00    -0.084 Cl
ATOM     19  C   UNL d   1       0.944   3.213   3.837  0.00  0.00     0.020 A 
ENDBRANCH  12  13
ENDBRANCH   2  12
TORSDOF 4
