REMARK  1 active torsions:
REMARK  status: ('A' for Active; 'I' for Inactive)
REMARK    1  A    between atoms: C_13  and  C_12 
ROOT
ATOM      1  N   UNL d   1      -0.831   0.924  -0.006  0.00  0.00    -0.196 N 
ATOM      2  C   UNL d   1       0.059  -0.120   0.041  0.00  0.00     0.177 A 
ATOM      3  N   UNL d   1       1.342  -0.035   0.075  0.00  0.00    -0.300 N 
ATOM      4  HN  UNL d   1       1.950  -0.854   0.110  1.00  0.00     0.171 HD
ATOM      5  N   UNL d   1      -0.431   2.242  -0.009  0.00  0.00    -0.288 N 
ATOM      6  HN  UNL d   1      -1.098   3.014  -0.037  1.00  0.00     0.187 HD
ATOM      7  C   UNL d   1      -2.182   0.603  -0.049  0.00  0.00     0.285 A 
ATOM      8  C   UNL d   1      -2.329  -0.886  -0.024  0.00  0.00     0.081 A 
ATOM      9  S   UNL d   1      -0.777  -1.641   0.049  0.00  0.00    -0.046 SA
ATOM     10  C   UNL d   1       1.824   1.252   0.059  0.00  0.00     0.271 A 
ATOM     11  C   UNL d   1       0.856   2.436   0.026  0.00  0.00     0.090 A 
ATOM     12  C   UNL d   1      -3.542  -1.451  -0.088  0.00  0.00     0.061 C 
ATOM     13  O   UNL d   1      -3.132   1.372  -0.102  0.00  0.00    -0.265 OA
ATOM     14  O   UNL d   1       3.021   1.506   0.067  0.00  0.00    -0.266 OA
ATOM     15  C   UNL d   1       1.412   3.829   0.039  0.00  0.00     0.076 C 
ENDROOT
BRANCH  12  16
ATOM     16  C   UNL d   1      -3.780  -2.853  -0.047  0.00  0.00     0.077 A 
ATOM     17  O   UNL d   1      -2.973  -3.757   0.604  0.00  0.00    -0.316 OA
ATOM     18  C   UNL d   1      -3.501  -5.000   0.461  0.00  0.00     0.050 A 
ATOM     19  C   UNL d   1      -2.762  -6.105   1.102  0.00  0.00     0.076 C 
ATOM     20  C   UNL d   1      -4.657  -4.935  -0.279  0.00  0.00     0.035 A 
ATOM     21  C   UNL d   1      -4.842  -3.566  -0.591  0.00  0.00     0.040 A 
ENDBRANCH  12  16
TORSDOF 1
