REMARK  5 active torsions:
REMARK  status: ('A' for Active; 'I' for Inactive)
REMARK    1  A    between atoms: C_3  and  C_1 
REMARK    2  A    between atoms: C_8  and  C_2 
REMARK    3  A    between atoms: O_7  and  C_3 
REMARK    4  A    between atoms: C_14  and  O_7 
REMARK       I    between atoms: C_10  and  N_11 
REMARK    5  A    between atoms: N_11  and  C_15 
ROOT
ATOM      1  C   UNL d   1      -2.800  -0.778  -0.219  0.00  0.00     0.302 C 
ATOM      2  O   UNL d   1      -3.737  -0.009  -0.049  0.00  0.00    -0.259 OA
ENDROOT
BRANCH   1   3
ATOM      3  C   UNL d   1      -1.428  -0.330  -0.272  0.00  0.00     0.089 A 
ATOM      4  C   UNL d   1      -0.929   0.876  -0.743  0.00  0.00     0.101 A 
ATOM      5  O   UNL d   1       0.416   0.909  -0.490  0.00  0.00    -0.241 OA
ATOM      6  N   UNL d   1       0.827  -0.282   0.068  0.00  0.00    -0.271 N 
ATOM      7  C   UNL d   1      -0.278  -1.016   0.179  0.00  0.00     0.134 A 
ATOM      8  HN  UNL d   1       1.775  -0.545   0.338  1.00  0.00     0.194 HD
BRANCH   4   9
ATOM      9  C   UNL d   1      -1.476   2.093  -1.463  0.00  0.00     0.001 C 
ATOM     10  C   UNL d   1      -2.053   3.101  -0.456  0.00  0.00     0.021 C 
ATOM     11  C   UNL d   1      -0.345   2.787  -2.260  0.00  0.00     0.021 C 
ATOM     12  C   UNL d   1      -2.563   1.709  -2.485  0.00  0.00     0.021 C 
ENDBRANCH   4   9
ENDBRANCH   1   3
BRANCH   1  13
ATOM     13  O   UNL d   1      -2.908  -2.170  -0.342  0.00  0.00    -0.275 OA
BRANCH  13  14
ATOM     14  C   UNL d   1      -4.153  -2.824  -0.207  0.00  0.00     0.079 A 
ATOM     15  C   UNL d   1      -5.368  -2.286  -0.621  0.00  0.00     0.039 A 
ATOM     16  C   UNL d   1      -6.560  -2.980  -0.364  0.00  0.00     0.032 A 
ATOM     17  C   UNL d   1      -6.542  -4.223   0.283  0.00  0.00     0.034 A 
ATOM     18  C   UNL d   1      -5.307  -4.788   0.604  0.00  0.00     0.032 A 
ATOM     19  C   UNL d   1      -4.115  -4.095   0.362  0.00  0.00     0.039 A 
BRANCH  17  20
ATOM     20  N   UNL d   1      -7.787  -4.820   0.601  0.00  0.00    -0.328 N 
ATOM     21  C   UNL d   1      -7.986  -5.980   1.325  0.00  0.00     0.218 C 
ATOM     22  O   UNL d   1      -7.117  -6.738   1.755  0.00  0.00    -0.274 OA
ATOM     23  C   UNL d   1      -9.439  -6.285   1.603  0.00  0.00     0.117 C 
ATOM     24  H   UNL d   1      -8.611  -4.295   0.329  0.00  0.00     0.169 HD
ENDBRANCH  17  20
ENDBRANCH  13  14
ENDBRANCH   1  13
TORSDOF 5
