REMARK  3 active torsions:
REMARK  status: ('A' for Active; 'I' for Inactive)
REMARK    1  A    between atoms: C_3  and  C_1 
REMARK       I    between atoms: N_11  and  C_3 
REMARK    2  A    between atoms: N_12  and  C_8 
REMARK    3  A    between atoms: C_13  and  N_11 
ROOT
ATOM      1  C   UNL d   1      -1.134  -3.845   1.400  0.00  0.00     0.258 C 
ATOM      2  N   UNL d   1      -0.305  -3.657   0.316  0.00  0.00    -0.320 N 
ATOM      3  O   UNL d   1      -0.813  -3.715   2.578  0.00  0.00    -0.267 OA
ATOM      4  H   UNL d   1      -0.641  -3.910  -0.613  0.00  0.00     0.169 HD
ENDROOT
BRANCH   2   5
ATOM      5  C   UNL d   1       1.077  -3.358   0.371  0.00  0.00     0.079 A 
ATOM      6  C   UNL d   1       1.928  -3.762  -0.689  0.00  0.00     0.130 A 
ATOM      7  N   UNL d   1       3.233  -3.395  -0.705  0.00  0.00    -0.351 N 
ATOM      8  C   UNL d   1       3.706  -2.641   0.315  0.00  0.00     0.090 A 
ATOM      9  HN  UNL d   1       3.845  -3.682  -1.469  1.00  0.00     0.166 HD
ATOM     10  C   UNL d   1       2.944  -2.225   1.387  0.00  0.00     0.019 A 
ATOM     11  C   UNL d   1       1.608  -2.599   1.417  0.00  0.00     0.035 A 
BRANCH   6  12
ATOM     12  N   UNL d   1       1.433  -4.515  -1.771  0.00  0.00    -0.361 N 
ATOM     13  C   UNL d   1       0.829  -5.834  -1.467  0.00  0.00     0.150 C 
ATOM     14  C   UNL d   1       1.838  -6.989  -1.532  0.00  0.00     0.187 C 
ATOM     15  O   UNL d   1       2.570  -6.995  -2.764  0.00  0.00    -0.388 OA
ATOM     16  C   UNL d   1       3.292  -5.759  -2.899  0.00  0.00     0.187 C 
ATOM     17  C   UNL d   1       2.324  -4.566  -2.955  0.00  0.00     0.150 C 
ENDBRANCH   6  12
ENDBRANCH   2   5
BRANCH   1  18
ATOM     18  C   UNL d   1      -2.494  -4.353   1.115  0.00  0.00     0.061 A 
ATOM     19  C   UNL d   1      -3.142  -4.229  -0.140  0.00  0.00     0.082 A 
ATOM     20  N   UNL d   1      -2.660  -3.676  -1.265  0.00  0.00    -0.310 N 
ATOM     21  C   UNL d   1      -4.543  -4.772  -0.323  0.00  0.00     0.068 A 
ATOM     22  S   UNL d   1      -3.859  -3.770  -2.409  0.00  0.00     0.068 SA
ATOM     23  HN  UNL d   1      -1.731  -3.275  -1.393  1.00  0.00     0.176 HD
ATOM     24  N   UNL d   1      -5.035  -4.568  -1.554  0.00  0.00    -0.310 N 
ATOM     25  HN  UNL d   1      -5.953  -4.849  -1.898  1.00  0.00     0.176 HD
ATOM     26  C   UNL d   1      -5.222  -5.426   0.734  0.00  0.00     0.032 A 
ATOM     27  C   UNL d   1      -4.523  -5.538   1.946  0.00  0.00     0.003 A 
ATOM     28  C   UNL d   1      -3.221  -5.020   2.130  0.00  0.00     0.019 A 
ENDBRANCH   1  18
TORSDOF 3
