REMARK  8 active torsions:
REMARK  status: ('A' for Active; 'I' for Inactive)
REMARK    1  A    between atoms: C_5  and  C_1 
REMARK    2  A    between atoms: C_2  and  C_5 
REMARK    3  A    between atoms: C_3  and  O_12 
REMARK       I    between atoms: N_20  and  C_3 
REMARK    4  A    between atoms: C_4  and  O_13 
REMARK       I    between atoms: N_21  and  C_4 
REMARK    5  A    between atoms: O_12  and  C_6 
REMARK    6  A    between atoms: O_13  and  C_7 
REMARK    7  A    between atoms: C_18  and  N_20 
REMARK    8  A    between atoms: C_19  and  N_21 
ROOT
ATOM      1  C   UNL d   1      -0.096  -3.463   0.388  0.00  0.00     0.007 C 
ATOM      2  C   UNL d   1       0.642  -3.989  -0.875  0.00  0.00     0.025 C 
ATOM      3  C   UNL d   1      -1.579  -3.912   0.230  0.00  0.00     0.025 C 
ENDROOT
BRANCH   1   4
ATOM      4  C   UNL d   1       0.522  -4.126   1.662  0.00  0.00    -0.044 C 
ATOM      5  C   UNL d   1      -0.267  -4.533   2.763  0.00  0.00     0.017 C 
ATOM      6  C   UNL d   1       0.304  -5.074   3.930  0.00  0.00    -0.027 C 
ATOM      7  C   UNL d   1      -0.542  -5.748   4.973  0.00  0.00     0.051 C 
ATOM      8  C   UNL d   1       1.694  -5.119   4.030  0.00  0.00     0.092 C 
ATOM      9  C   UNL d   1       2.490  -4.960   2.896  0.00  0.00    -0.027 C 
ATOM     10  C   UNL d   1       1.900  -4.425   1.737  0.00  0.00     0.017 C 
ATOM     11  C   UNL d   1       3.902  -5.465   2.839  0.00  0.00     0.051 C 
BRANCH   8  12
ATOM     12  O   UNL d   1       2.249  -4.677   5.278  0.00  0.00    -0.260 OA
BRANCH  12  13
ATOM     13  C   UNL d   1       3.019  -5.517   6.044  0.00  0.00     0.370 C 
ATOM     14  N   UNL d   1       3.924  -4.898   6.877  0.00  0.00    -0.302 N 
ATOM     15  H   UNL d   1       4.567  -5.569   7.260  0.00  0.00     0.171 HD
ATOM     16  O   UNL d   1       3.001  -6.748   5.962  0.00  0.00    -0.238 OA
BRANCH  14  17
ATOM     17  C   UNL d   1       4.179  -3.533   7.167  0.00  0.00     0.040 A 
ATOM     18  C   UNL d   1       3.292  -2.481   6.930  0.00  0.00     0.053 A 
ATOM     19  C   UNL d   1       3.647  -1.169   7.300  0.00  0.00     0.037 A 
ATOM     20 CL   UNL d   1       2.529   0.116   7.063  0.00  0.00    -0.084 Cl
ATOM     21  C   UNL d   1       4.883  -0.885   7.882  0.00  0.00     0.048 A 
ATOM     22  C   UNL d   1       5.765  -1.937   8.106  0.00  0.00     0.037 A 
ATOM     23  C   UNL d   1       5.415  -3.251   7.765  0.00  0.00     0.053 A 
ATOM     24 CL   UNL d   1       7.304  -1.622   8.803  0.00  0.00    -0.084 Cl
ENDBRANCH  14  17
ENDBRANCH  12  13
ENDBRANCH   8  12
ENDBRANCH   1   4
BRANCH   1  25
ATOM     25  C   UNL d   1      -0.083  -1.899   0.372  0.00  0.00    -0.044 C 
ATOM     26  C   UNL d   1       0.396  -1.110   1.433  0.00  0.00     0.017 C 
ATOM     27  C   UNL d   1       0.236   0.301   1.458  0.00  0.00    -0.027 C 
ATOM     28  C   UNL d   1       0.901   1.090   2.549  0.00  0.00     0.051 C 
ATOM     29  C   UNL d   1      -0.452   0.918   0.405  0.00  0.00     0.092 C 
ATOM     30  C   UNL d   1      -0.762   0.198  -0.753  0.00  0.00    -0.027 C 
ATOM     31  C   UNL d   1      -0.594  -1.198  -0.746  0.00  0.00     0.017 C 
ATOM     32  C   UNL d   1      -1.215   0.908  -1.997  0.00  0.00     0.051 C 
BRANCH  29  33
ATOM     33  O   UNL d   1      -1.159   2.161   0.560  0.00  0.00    -0.260 OA
BRANCH  33  34
ATOM     34  C   UNL d   1      -0.633   3.397   0.905  0.00  0.00     0.370 C 
ATOM     35  N   UNL d   1      -1.544   4.406   1.155  0.00  0.00    -0.302 N 
ATOM     36  H   UNL d   1      -1.051   5.250   1.419  0.00  0.00     0.171 HD
ATOM     37  O   UNL d   1       0.569   3.636   0.991  0.00  0.00    -0.238 OA
BRANCH  35  38
ATOM     38  C   UNL d   1      -2.951   4.492   1.111  0.00  0.00     0.040 A 
ATOM     39  C   UNL d   1      -3.814   3.450   0.773  0.00  0.00     0.053 A 
ATOM     40  C   UNL d   1      -5.200   3.658   0.755  0.00  0.00     0.037 A 
ATOM     41 CL   UNL d   1      -6.253   2.361   0.329  0.00  0.00    -0.084 Cl
ATOM     42  C   UNL d   1      -5.752   4.896   1.076  0.00  0.00     0.048 A 
ATOM     43  C   UNL d   1      -4.900   5.934   1.418  0.00  0.00     0.037 A 
ATOM     44  C   UNL d   1      -3.513   5.740   1.435  0.00  0.00     0.053 A 
ATOM     45 CL   UNL d   1      -5.551   7.481   1.809  0.00  0.00    -0.084 Cl
ENDBRANCH  35  38
ENDBRANCH  33  34
ENDBRANCH  29  33
ENDBRANCH   1  25
TORSDOF 8
