REMARK  6 active torsions:
REMARK  status: ('A' for Active; 'I' for Inactive)
REMARK    1  A    between atoms: C_2  and  S_1 
REMARK    2  A    between atoms: N_8  and  S_1 
REMARK    3  A    between atoms: C_7  and  C_3 
REMARK    4  A    between atoms: O_19  and  C_7 
REMARK    5  A    between atoms: C_17  and  N_8 
REMARK    6  A    between atoms: C_18  and  C_17 
ROOT
ATOM      1  S   UNL d   1       1.081  -0.063  -0.014  0.00  0.00     0.264 S 
ATOM      2  O   UNL d   1       0.913   0.803   1.130  0.00  0.00    -0.204 OA
ATOM      3  O   UNL d   1       2.351  -0.218  -0.689  0.00  0.00    -0.204 OA
ENDROOT
BRANCH   1   4
ATOM      4  C   UNL d   1       0.000   0.660  -1.254  0.00  0.00     0.186 A 
ATOM      5  C   UNL d   1       0.092   1.890  -1.889  0.00  0.00     0.071 A 
ATOM      6  C   UNL d   1      -0.990   2.014  -2.800  0.00  0.00     0.072 A 
ATOM      7  C   UNL d   1      -1.710   0.836  -2.663  0.00  0.00     0.067 A 
ATOM      8  O   UNL d   1      -1.126   0.023  -1.733  0.00  0.00    -0.301 OA
ATOM      9  C   UNL d   1      -2.935   0.305  -3.315  0.00  0.00     0.078 C 
BRANCH   6  10
ATOM     10  C   UNL d   1      -1.286   3.119  -3.692  0.00  0.00     0.295 C 
ATOM     11  O   UNL d   1      -2.249   3.135  -4.455  0.00  0.00    -0.259 OA
BRANCH  10  12
ATOM     12  O   UNL d   1      -0.370   4.132  -3.590  0.00  0.00    -0.322 OA
ATOM     13  C   UNL d   1      -0.616   5.245  -4.453  0.00  0.00     0.213 C 
ENDBRANCH  10  12
ENDBRANCH   6  10
ENDBRANCH   1   4
BRANCH   1  14
ATOM     14  N   UNL d   1       0.481  -1.585   0.405  0.00  0.00    -0.210 NA
ATOM     15  H   UNL d   1      -0.532  -1.561   0.516  0.00  0.00     0.140 HD
BRANCH  14  16
ATOM     16  C   UNL d   1       0.966  -2.697  -0.425  0.00  0.00     0.143 C 
BRANCH  16  17
ATOM     17  C   UNL d   1       0.423  -4.036   0.024  0.00  0.00    -0.044 A 
ATOM     18  C   UNL d   1       0.661  -4.488   1.334  0.00  0.00     0.018 A 
ATOM     19  C   UNL d   1       0.212  -5.747   1.695  0.00  0.00    -0.022 A 
ATOM     20  C   UNL d   1       0.315  -6.451   2.992  0.00  0.00     0.068 C 
ATOM     21  C   UNL d   1      -0.487  -6.538   0.799  0.00  0.00     0.075 A 
ATOM     22  C   UNL d   1      -0.125  -7.847   2.547  0.00  0.00     0.180 C 
ATOM     23  O   UNL d   1      -0.882  -7.743   1.318  0.00  0.00    -0.350 OA
ATOM     24  C   UNL d   1      -0.748  -6.124  -0.489  0.00  0.00     0.038 A 
ATOM     25  C   UNL d   1      -0.273  -4.869  -0.882  0.00  0.00     0.011 A 
ENDBRANCH  16  17
ENDBRANCH  14  16
ENDBRANCH   1  14
TORSDOF 6
