REMARK  5 active torsions:
REMARK  status: ('A' for Active; 'I' for Inactive)
REMARK    1  A    between atoms: C_3  and  N_1 
REMARK    2  A    between atoms: O_6  and  C_2 
REMARK    3  A    between atoms: C_7  and  C_3 
REMARK    4  A    between atoms: C_8  and  C_3 
REMARK    5  A    between atoms: C_9  and  O_6 
ROOT
ATOM      1  C   UNL d   1       0.706   2.112   0.604  0.00  0.00     0.289 C 
ENDROOT
BRANCH   1   2
ATOM      2  N   UNL d   1       0.317   0.999  -0.292  0.00  0.00     0.106 N 
ATOM      3  C   UNL d   1      -1.140   0.708  -0.229  0.00  0.00     0.307 C 
ATOM      4  C   UNL d   1      -0.791  -0.802  -0.266  0.00  0.00     0.185 C 
ATOM      5  C   UNL d   1       0.560  -0.328   0.338  0.00  0.00     0.307 C 
BRANCH   4   6
ATOM      6  O   UNL d   1      -0.700  -1.449  -1.560  0.00  0.00    -0.342 OA
BRANCH   6   7
ATOM      7  C   UNL d   1      -1.848  -1.721  -2.261  0.00  0.00     0.069 A 
ATOM      8  C   UNL d   1      -3.146  -1.557  -1.777  0.00  0.00     0.038 A 
ATOM      9  C   UNL d   1      -4.239  -1.879  -2.589  0.00  0.00     0.026 A 
ATOM     10  C   UNL d   1      -4.032  -2.366  -3.878  0.00  0.00     0.034 A 
ATOM     11  C   UNL d   1      -2.739  -2.533  -4.367  0.00  0.00     0.026 A 
ATOM     12 CL   UNL d   1      -5.380  -2.765  -4.868  0.00  0.00    -0.084 Cl
ATOM     13  C   UNL d   1      -1.649  -2.210  -3.555  0.00  0.00     0.038 A 
ENDBRANCH   6   7
ENDBRANCH   4   6
ENDBRANCH   1   2
BRANCH   1  14
ATOM     14  C   UNL d   1       2.224   2.334   0.576  0.00  0.00    -0.021 A 
ATOM     15  C   UNL d   1       2.891   2.620  -0.629  0.00  0.00     0.010 A 
ATOM     16  C   UNL d   1       4.258   2.901  -0.644  0.00  0.00     0.001 A 
ATOM     17  C   UNL d   1       4.985   2.884   0.543  0.00  0.00     0.000 A 
ATOM     18  C   UNL d   1       4.347   2.577   1.744  0.00  0.00     0.001 A 
ATOM     19  C   UNL d   1       2.976   2.305   1.762  0.00  0.00     0.010 A 
ENDBRANCH   1  14
BRANCH   1  20
ATOM     20  C   UNL d   1      -0.025   3.426   0.284  0.00  0.00    -0.021 A 
ATOM     21  C   UNL d   1      -0.304   4.336   1.319  0.00  0.00     0.010 A 
ATOM     22  C   UNL d   1      -0.975   5.532   1.055  0.00  0.00     0.001 A 
ATOM     23  C   UNL d   1      -1.372   5.838  -0.246  0.00  0.00     0.000 A 
ATOM     24  C   UNL d   1      -1.085   4.959  -1.287  0.00  0.00     0.001 A 
ATOM     25  C   UNL d   1      -0.407   3.768  -1.024  0.00  0.00     0.010 A 
ENDBRANCH   1  20
TORSDOF 5
