REMARK  9 active torsions:
REMARK  status: ('A' for Active; 'I' for Inactive)
REMARK    1  A    between atoms: C_2  and  C_1 
REMARK    2  A    between atoms: C_4  and  C_1 
REMARK    3  A    between atoms: C_3  and  C_2 
REMARK    4  A    between atoms: O_11  and  C_4 
REMARK    5  A    between atoms: C_10  and  C_5 
REMARK    6  A    between atoms: O_8  and  C_6 
REMARK    7  A    between atoms: C_12  and  O_8 
REMARK    8  A    between atoms: C_16  and  O_11 
REMARK    9  A    between atoms: C_14  and  C_12 
ROOT
ATOM      1  C   UNL d   1      -0.059  -1.607  -0.325  0.00  0.00     0.201 C 
ATOM      2  O   UNL d   1       0.445  -2.662  -0.689  0.00  0.00    -0.286 OA
ENDROOT
BRANCH   1   3
ATOM      3  C   UNL d   1       0.781  -0.553   0.358  0.00  0.00     0.091 C 
ATOM      4  C   UNL d   1       0.646   0.790   0.243  0.00  0.00     0.033 C 
BRANCH   3   5
ATOM      5  C   UNL d   1       1.936  -0.959   1.215  0.00  0.00     0.297 C 
ATOM      6  O   UNL d   1       2.840  -0.203   1.548  0.00  0.00    -0.259 OA
BRANCH   5   7
ATOM      7  O   UNL d   1       1.835  -2.254   1.604  0.00  0.00    -0.318 OA
BRANCH   7   8
ATOM      8  C   UNL d   1       2.982  -2.789   2.280  0.00  0.00     0.174 C 
ATOM      9  C   UNL d   1       4.029  -3.217   1.266  0.00  0.00     0.034 C 
ENDBRANCH   7   8
ENDBRANCH   5   7
ENDBRANCH   3   5
BRANCH   4  10
ATOM     10  C   UNL d   1      -0.319   1.565  -0.545  0.00  0.00    -0.035 A 
ATOM     11  C   UNL d   1      -1.086   2.542   0.101  0.00  0.00     0.011 A 
ATOM     12  C   UNL d   1      -2.074   3.241  -0.596  0.00  0.00     0.001 A 
ATOM     13  C   UNL d   1      -2.287   2.978  -1.947  0.00  0.00     0.000 A 
ATOM     14  C   UNL d   1      -1.492   2.044  -2.608  0.00  0.00     0.001 A 
ATOM     15  C   UNL d   1      -0.496   1.354  -1.916  0.00  0.00     0.011 A 
ENDBRANCH   4  10
ENDBRANCH   1   3
BRANCH   1  16
ATOM     16  C   UNL d   1      -1.511  -1.366  -0.556  0.00  0.00     0.048 A 
ATOM     17  C   UNL d   1      -2.121  -1.702  -1.782  0.00  0.00     0.083 A 
ATOM     18  C   UNL d   1      -3.427  -1.251  -2.030  0.00  0.00     0.038 A 
ATOM     19  C   UNL d   1      -4.144  -0.557  -1.054  0.00  0.00     0.003 A 
ATOM     20  C   UNL d   1      -3.578  -0.327   0.194  0.00  0.00     0.001 A 
ATOM     21  C   UNL d   1      -2.270  -0.739   0.449  0.00  0.00     0.018 A 
BRANCH  17  22
ATOM     22  O   UNL d   1      -1.398  -2.405  -2.720  0.00  0.00    -0.346 OA
BRANCH  22  23
ATOM     23  C   UNL d   1      -2.184  -3.175  -3.640  0.00  0.00     0.214 C 
BRANCH  23  24
ATOM     24  C   UNL d   1      -1.436  -4.330  -4.270  0.00  0.00    -0.034 A 
ATOM     25  C   UNL d   1      -0.369  -4.970  -3.628  0.00  0.00     0.009 A 
ATOM     26  C   UNL d   1       0.224  -6.101  -4.198  0.00  0.00     0.001 A 
ATOM     27  C   UNL d   1      -0.246  -6.609  -5.408  0.00  0.00     0.000 A 
ATOM     28  C   UNL d   1      -1.311  -5.985  -6.056  0.00  0.00     0.001 A 
ATOM     29  C   UNL d   1      -1.903  -4.857  -5.488  0.00  0.00     0.009 A 
ENDBRANCH  23  24
ENDBRANCH  22  23
ENDBRANCH  17  22
ENDBRANCH   1  16
TORSDOF 9
