REMARK  7 active torsions:
REMARK  status: ('A' for Active; 'I' for Inactive)
REMARK       I    between atoms: N_6  and  C_1 
REMARK    1  A    between atoms: O_11  and  C_1 
REMARK    2  A    between atoms: C_9  and  N_6 
REMARK    3  A    between atoms: O_13  and  C_7 
REMARK    4  A    between atoms: C_15  and  O_11 
REMARK    5  A    between atoms: C_17  and  O_13 
REMARK    6  A    between atoms: O_16  and  C_18 
REMARK    7  A    between atoms: C_18  and  C_17 
ROOT
ATOM      1  C   UNL d   1      -1.731   2.563  -2.945  0.00  0.00    -0.091 C 
ATOM      2  C   UNL d   1      -1.432   3.586  -3.503  0.00  0.00     0.014 C 
ATOM      3  C   UNL d   1      -2.172   1.346  -2.250  0.00  0.00     0.273 C 
ENDROOT
BRANCH   3   4
ATOM      4  O   UNL d   1      -1.099   0.399  -2.158  0.00  0.00    -0.292 OA
BRANCH   4   5
ATOM      5  C   UNL d   1      -0.844  -0.091  -0.925  0.00  0.00     0.366 C 
ATOM      6  N   UNL d   1       0.056  -1.124  -0.864  0.00  0.00    -0.301 N 
ATOM      7  H   UNL d   1       0.209  -1.420   0.092  0.00  0.00     0.171 HD
ATOM      8  O   UNL d   1      -1.364   0.315   0.111  0.00  0.00    -0.238 OA
BRANCH   6   9
ATOM      9  C   UNL d   1       0.761  -1.811  -1.866  0.00  0.00     0.052 A 
ATOM     10  C   UNL d   1       0.681  -1.563  -3.230  0.00  0.00     0.119 A 
ATOM     11  N   UNL d   1       1.423  -2.205  -4.164  0.00  0.00    -0.345 N 
ATOM     12  C   UNL d   1       2.273  -3.156  -3.730  0.00  0.00     0.141 A 
ATOM     13  HN  UNL d   1       1.341  -1.978  -5.155  1.00  0.00     0.167 HD
ATOM     14  C   UNL d   1       2.389  -3.525  -2.403  0.00  0.00     0.058 A 
ATOM     15  C   UNL d   1       1.627  -2.833  -1.460  0.00  0.00     0.035 A 
BRANCH  12  16
ATOM     16  O   UNL d   1       3.091  -3.798  -4.637  0.00  0.00    -0.334 OA
BRANCH  16  17
ATOM     17  C   UNL d   1       3.211  -3.050  -5.856  0.00  0.00     0.203 C 
BRANCH  17  18
ATOM     18  C   UNL d   1       4.133  -3.786  -6.822  0.00  0.00     0.193 C 
BRANCH  18  19
ATOM     19  O   UNL d   1       3.464  -4.947  -7.323  0.00  0.00    -0.394 OA
ATOM     20  C   UNL d   1       4.251  -5.633  -8.284  0.00  0.00     0.201 C 
ENDBRANCH  18  19
ENDBRANCH  17  18
ENDBRANCH  16  17
ENDBRANCH  12  16
ENDBRANCH   6   9
ENDBRANCH   4   5
ENDBRANCH   3   4
TORSDOF 7
