REMARK  7 active torsions:
REMARK  status: ('A' for Active; 'I' for Inactive)
REMARK    1  A    between atoms: C_4  and  C_1 
REMARK    2  A    between atoms: C_5  and  C_1 
REMARK    3  A    between atoms: C_6  and  C_1 
REMARK    4  A    between atoms: C_2  and  C_4 
REMARK    5  A    between atoms: O_12  and  C_2 
REMARK    6  A    between atoms: C_3  and  C_5 
REMARK    7  A    between atoms: O_13  and  C_3 
ROOT
ATOM      1  C   UNL d   1       0.993  -0.058  -0.097  0.00  0.00     0.038 C 
ENDROOT
BRANCH   1   2
ATOM      2  C   UNL d   1       0.491   0.734  -1.324  0.00  0.00     0.119 C 
BRANCH   2   3
ATOM      3  C   UNL d   1      -0.988   1.038  -1.274  0.00  0.00     0.140 C 
ATOM      4  O   UNL d   1      -1.710   0.847  -0.307  0.00  0.00    -0.650 OA
BRANCH   3   5
ATOM      5  O   UNL d   1      -1.437   1.607  -2.414  0.00  0.00    -0.776 OA
ATOM      6  H   UNL d   1      -0.760   1.686  -3.114  0.00  0.00     0.167 HD
ENDBRANCH   3   5
ENDBRANCH   2   3
ENDBRANCH   1   2
BRANCH   1   7
ATOM      7  C   UNL d   1       0.398  -1.472   0.030  0.00  0.00     0.119 C 
BRANCH   7   8
ATOM      8  C   UNL d   1       0.701  -2.345  -1.160  0.00  0.00     0.140 C 
ATOM      9  O   UNL d   1       0.078  -2.295  -2.210  0.00  0.00    -0.650 OA
BRANCH   8  10
ATOM     10  O   UNL d   1       1.772  -3.150  -0.993  0.00  0.00    -0.776 OA
ATOM     11  H   UNL d   1       2.233  -3.032  -0.139  0.00  0.00     0.167 HD
ENDBRANCH   8  10
ENDBRANCH   7   8
ENDBRANCH   1   7
BRANCH   1  12
ATOM     12  C   UNL d   1       2.518  -0.116  -0.012  0.00  0.00    -0.053 A 
ATOM     13  C   UNL d   1       3.137  -0.131   1.250  0.00  0.00     0.009 A 
ATOM     14  C   UNL d   1       4.529  -0.198   1.364  0.00  0.00     0.024 A 
ATOM     15  C   UNL d   1       5.316  -0.251   0.217  0.00  0.00     0.034 A 
ATOM     16  C   UNL d   1       4.723  -0.252  -1.041  0.00  0.00     0.024 A 
ATOM     17 CL   UNL d   1       7.029  -0.323   0.355  0.00  0.00    -0.084 Cl
ATOM     18  C   UNL d   1       3.332  -0.191  -1.155  0.00  0.00     0.009 A 
ENDBRANCH   1  12
TORSDOF 7
