REMARK  3 active torsions:
REMARK  status: ('A' for Active; 'I' for Inactive)
REMARK       I    between atoms: C_2  and  N_1 
REMARK       I    between atoms: C_5  and  N_1 
REMARK       I    between atoms: N_9  and  C_2 
REMARK    1  A    between atoms: C_4  and  C_12 
REMARK    2  A    between atoms: C_13  and  C_5 
REMARK    3  A    between atoms: C_8  and  N_9 
ROOT
ATOM      1  N   UNL d   1       1.147  -0.148  -0.008  0.00  0.00    -0.275 N 
ATOM      2  C   UNL d   1       0.205   0.283   0.894  0.00  0.00     0.327 C 
ATOM      3  C   UNL d   1       2.404  -0.659   0.246  0.00  0.00     0.259 C 
ATOM      4  N   UNL d   1       0.476   0.034   2.219  0.00  0.00    -0.305 N 
ATOM      5  O   UNL d   1      -0.781   0.880   0.465  0.00  0.00    -0.247 OA
ATOM      6  O   UNL d   1       2.872  -0.759   1.379  0.00  0.00    -0.267 OA
ATOM      7  H   UNL d   1       0.875   0.073  -0.953  0.00  0.00     0.173 HD
ATOM      8  H   UNL d   1       1.474   0.064   2.429  0.00  0.00     0.171 HD
ENDROOT
BRANCH   3   9
ATOM      9  C   UNL d   1       3.232  -1.056  -0.932  0.00  0.00     0.032 A 
ATOM     10  C   UNL d   1       4.603  -1.242  -0.722  0.00  0.00     0.018 A 
ATOM     11  C   UNL d   1       5.439  -1.654  -1.763  0.00  0.00     0.015 A 
ATOM     12  C   UNL d   1       4.919  -1.898  -3.039  0.00  0.00    -0.008 A 
ATOM     13  C   UNL d   1       3.551  -1.684  -3.258  0.00  0.00     0.015 A 
ATOM     14  C   UNL d   1       2.707  -1.277  -2.213  0.00  0.00     0.018 A 
BRANCH  12  15
ATOM     15  C   UNL d   1       5.765  -2.383  -4.125  0.00  0.00     0.063 A 
ATOM     16  N   UNL d   1       5.443  -2.140  -5.456  0.00  0.00    -0.292 N 
ATOM     17  N   UNL d   1       6.322  -2.679  -6.286  0.00  0.00    -0.061 NA
ATOM     18  HN  UNL d   1       4.625  -1.610  -5.758  1.00  0.00     0.183 HD
ATOM     19  S   UNL d   1       7.542  -3.503  -5.493  0.00  0.00    -0.010 SA
ATOM     20  C   UNL d   1       6.908  -3.143  -3.940  0.00  0.00     0.096 A 
ENDBRANCH  12  15
ENDBRANCH   3   9
BRANCH   4  21
ATOM     21  C   UNL d   1      -0.405   0.469   3.241  0.00  0.00     0.080 A 
ATOM     22  C   UNL d   1      -1.763   0.100   3.274  0.00  0.00     0.062 A 
ATOM     23 CL   UNL d   1      -2.423  -1.111   2.225  0.00  0.00    -0.082 Cl
ATOM     24  C   UNL d   1      -2.615   0.622   4.253  0.00  0.00     0.026 A 
ATOM     25  C   UNL d   1      -2.125   1.497   5.221  0.00  0.00     0.003 A 
ATOM     26  C   UNL d   1      -0.770   1.821   5.236  0.00  0.00     0.026 A 
ATOM     27  C   UNL d   1       0.089   1.295   4.265  0.00  0.00     0.062 A 
ATOM     28 CL   UNL d   1       1.758   1.748   4.328  0.00  0.00    -0.082 Cl
ENDBRANCH   4  21
TORSDOF 3
