REMARK  3 active torsions:
REMARK  status: ('A' for Active; 'I' for Inactive)
REMARK       I    between atoms: C_2  and  N_1 
REMARK    1  A    between atoms: C_13  and  C_2 
REMARK    2  A    between atoms: O_15  and  C_7 
REMARK    3  A    between atoms: O_14  and  C_8 
ROOT
ATOM      1  N   UNL d   1       2.385   0.600   0.232  0.00  0.00    -0.347 N 
ATOM      2  C   UNL d   1       3.523   1.309   0.624  0.00  0.00     0.224 C 
ATOM      3  C   UNL d   1      -0.065   0.708  -0.174  0.00  0.00    -0.031 A 
ATOM      4  C   UNL d   1       1.285   1.357  -0.371  0.00  0.00     0.165 C 
ATOM      5  C   UNL d   1      -0.160  -0.685  -0.230  0.00  0.00    -0.046 A 
ATOM      6  C   UNL d   1      -1.221   1.474   0.018  0.00  0.00     0.049 A 
ATOM      7  C   UNL d   1      -2.479   0.868   0.182  0.00  0.00     0.102 A 
ATOM      8  C   UNL d   1      -2.569  -0.536   0.114  0.00  0.00     0.102 A 
ATOM      9  C   UNL d   1      -1.409  -1.297  -0.103  0.00  0.00     0.047 A 
ATOM     10  C   UNL d   1       2.214  -0.844   0.433  0.00  0.00     0.130 C 
ATOM     11  O   UNL d   1       3.603   2.528   0.411  0.00  0.00    -0.273 OA
ATOM     12  C   UNL d   1       1.108  -1.467  -0.426  0.00  0.00     0.059 C 
ENDROOT
BRANCH   2  13
ATOM     13  C   UNL d   1       4.669   0.521   1.320  0.00  0.00     0.078 C 
ATOM     14  C   UNL d   1       4.394  -0.139   2.697  0.00  0.00     0.014 C 
ATOM     15  C   UNL d   1       5.764   0.352   3.180  0.00  0.00     0.002 C 
ATOM     16  C   UNL d   1       5.756   1.373   2.037  0.00  0.00     0.014 C 
ENDBRANCH   2  13
BRANCH   7  17
ATOM     17  O   UNL d   1      -3.623   1.587   0.398  0.00  0.00    -0.353 OA
ATOM     18  C   UNL d   1      -3.523   3.000   0.524  0.00  0.00     0.210 C 
ENDBRANCH   7  17
BRANCH   8  19
ATOM     19  O   UNL d   1      -3.681  -1.331   0.236  0.00  0.00    -0.353 OA
ATOM     20  C   UNL d   1      -4.928  -0.727   0.540  0.00  0.00     0.210 C 
ENDBRANCH   8  19
TORSDOF 3
