REMARK  5 active torsions:
REMARK  status: ('A' for Active; 'I' for Inactive)
REMARK    1  A    between atoms: C_4  and  C_1 
REMARK    2  A    between atoms: C_2  and  C_3 
REMARK    3  A    between atoms: N_10  and  C_6 
REMARK       I    between atoms: C_7  and  N_10 
REMARK    4  A    between atoms: C_11  and  C_7 
REMARK    5  A    between atoms: C_12  and  C_11 
ROOT
ATOM      1  C   UNL d   1      -0.132  -0.554   3.680  0.00  0.00     0.050 A 
ATOM      2  C   UNL d   1       0.211  -0.461   1.271  0.00  0.00     0.050 A 
ATOM      3  C   UNL d   1      -0.097   0.174   2.480  0.00  0.00     0.032 A 
ATOM      4  C   UNL d   1       0.480  -2.579   2.456  0.00  0.00     0.036 A 
ATOM      5  C   UNL d   1       0.157  -1.932   3.654  0.00  0.00     0.045 A 
ATOM      6  C   UNL d   1       0.468  -1.841   1.272  0.00  0.00     0.045 A 
ENDROOT
BRANCH   4   7
ATOM      7  N   UNL d   1       0.851  -3.942   2.518  0.00  0.00    -0.324 N 
ATOM      8  C   UNL d   1       1.322  -4.707   1.462  0.00  0.00     0.245 C 
ATOM      9  O   UNL d   1       1.429  -4.354   0.297  0.00  0.00    -0.268 OA
ATOM     10  H   UNL d   1       0.836  -4.370   3.433  0.00  0.00     0.169 HD
BRANCH   8  11
ATOM     11  C   UNL d   1       1.730  -6.078   1.876  0.00  0.00     0.075 C 
BRANCH  11  12
ATOM     12  C   UNL d   1       2.273  -6.880   0.948  0.00  0.00     0.024 C 
ATOM     13  C   UNL d   1       2.644  -8.231   1.207  0.00  0.00     0.004 A 
ATOM     14  S   UNL d   1       3.380  -9.136  -0.069  0.00  0.00    -0.102 SA
ATOM     15  C   UNL d   1       2.508  -9.024   2.336  0.00  0.00     0.019 A 
ATOM     16  C   UNL d   1       3.446 -10.559   0.868  0.00  0.00     0.050 A 
ATOM     17  C   UNL d   1       2.955 -10.363   2.136  0.00  0.00     0.008 A 
ENDBRANCH  11  12
ENDBRANCH   8  11
ENDBRANCH   4   7
BRANCH   2  18
ATOM     18  C   UNL d   1       0.298   0.302  -0.030  0.00  0.00     0.417 C 
ATOM     19  F   UNL d   1       0.305   1.653   0.142  0.00  0.00    -0.166 F 
ATOM     20  F   UNL d   1      -0.742   0.036  -0.864  0.00  0.00    -0.166 F 
ATOM     21  F   UNL d   1       1.430   0.015  -0.730  0.00  0.00    -0.166 F 
ENDBRANCH   2  18
BRANCH   1  22
ATOM     22  C   UNL d   1      -0.446   0.128   4.992  0.00  0.00     0.417 C 
ATOM     23  F   UNL d   1      -0.609   1.475   4.881  0.00  0.00    -0.166 F 
ATOM     24  F   UNL d   1      -1.589  -0.343   5.560  0.00  0.00    -0.166 F 
ATOM     25  F   UNL d   1       0.535  -0.055   5.917  0.00  0.00    -0.166 F 
ENDBRANCH   1  22
TORSDOF 5
