REMARK  3 active torsions:
REMARK  status: ('A' for Active; 'I' for Inactive)
REMARK    1  A    between atoms: C_8  and  C_3 
REMARK    2  A    between atoms: C_4  and  C_7 
REMARK    3  A    between atoms: C_7  and  C_8 
ROOT
ATOM      1  C   UNL d   1      -4.036  -1.400   0.015  0.00  0.00     0.043 C 
ENDROOT
BRANCH   1   2
ATOM      2  C   UNL d   1      -5.547  -1.347  -0.026  0.00  0.00    -0.058 A 
ATOM      3  C   UNL d   1      -6.222  -1.326  -1.258  0.00  0.00     0.010 A 
ATOM      4  C   UNL d   1      -7.617  -1.290  -1.300  0.00  0.00     0.043 A 
ATOM      5  C   UNL d   1      -8.339  -1.268  -0.114  0.00  0.00     0.116 A 
ATOM      6  C   UNL d   1      -7.691  -1.277   1.116  0.00  0.00     0.043 A 
ATOM      7  F   UNL d   1      -9.677  -1.240  -0.155  0.00  0.00    -0.206 F 
ATOM      8  C   UNL d   1      -6.295  -1.313   1.161  0.00  0.00     0.010 A 
ENDBRANCH   1   2
BRANCH   1   9
ATOM      9  C   UNL d   1      -3.405  -0.004   0.017  0.00  0.00     0.043 C 
BRANCH   9  10
ATOM     10  C   UNL d   1      -1.893  -0.056  -0.027  0.00  0.00    -0.058 A 
ATOM     11  C   UNL d   1      -1.221  -0.071  -1.260  0.00  0.00     0.010 A 
ATOM     12  C   UNL d   1       0.174  -0.107  -1.306  0.00  0.00     0.043 A 
ATOM     13  C   UNL d   1       0.898  -0.134  -0.122  0.00  0.00     0.116 A 
ATOM     14  F   UNL d   1       2.238  -0.162  -0.167  0.00  0.00    -0.206 F 
ATOM     15  C   UNL d   1       0.254  -0.130   1.110  0.00  0.00     0.043 A 
ATOM     16  C   UNL d   1      -1.142  -0.095   1.158  0.00  0.00     0.010 A 
ENDBRANCH   9  10
ENDBRANCH   1   9
TORSDOF 3
