REMARK  6 active torsions:
REMARK  status: ('A' for Active; 'I' for Inactive)
REMARK    1  A    between atoms: C_11  and  C_3 
REMARK    2  A    between atoms: S_10  and  C_6 
REMARK    3  A    between atoms: C_7  and  C_9 
REMARK    4  A    between atoms: C_9  and  C_12 
REMARK    5  A    between atoms: O_16  and  C_9 
REMARK    6  A    between atoms: C_12  and  S_10 
ROOT
ATOM      1  N   UNL d   1       1.423  -0.588   0.062  0.00  0.00    -0.329 N 
ATOM      2  HN  UNL d   1       2.354  -1.002   0.046  1.00  0.00     0.168 HD
ATOM      3  C   UNL d   1       1.133   0.791   0.050  0.00  0.00     0.123 A 
ATOM      4  N   UNL d   1      -0.154   1.168   0.095  0.00  0.00    -0.310 N 
ATOM      5  HN  UNL d   1      -0.502   2.127   0.104  1.00  0.00     0.176 HD
ATOM      6  C   UNL d   1       0.286  -1.248   0.100  0.00  0.00     0.130 A 
ATOM      7  S   UNL d   1      -1.076  -0.209   0.136  0.00  0.00     0.013 SA
ENDROOT
BRANCH   6   8
ATOM      8  S   UNL d   1       0.123  -2.980   0.087  0.00  0.00    -0.101 SA
BRANCH   8   9
ATOM      9  C   UNL d   1       1.841  -3.558   0.255  0.00  0.00     0.122 C 
BRANCH   9  10
ATOM     10  C   UNL d   1       1.860  -5.090   0.373  0.00  0.00     0.235 C 
BRANCH  10  11
ATOM     11  C   UNL d   1       3.301  -5.631   0.361  0.00  0.00     0.413 C 
ATOM     12  F   UNL d   1       4.221  -4.656   0.198  0.00  0.00    -0.168 F 
ATOM     13  F   UNL d   1       3.585  -6.248   1.534  0.00  0.00    -0.168 F 
ATOM     14  F   UNL d   1       3.480  -6.535  -0.626  0.00  0.00    -0.168 F 
ENDBRANCH  10  11
BRANCH  10  15
ATOM     15  O   UNL d   1       1.137  -5.498   1.560  0.00  0.00    -0.386 OA
ATOM     16  H   UNL d   1       1.749  -5.453   2.319  0.00  0.00     0.210 HD
ENDBRANCH  10  15
ENDBRANCH   9  10
ENDBRANCH   8   9
ENDBRANCH   6   8
BRANCH   3  17
ATOM     17  C   UNL d   1       2.204   1.792  -0.032  0.00  0.00     0.009 A 
ATOM     18  C   UNL d   1       3.552   1.411  -0.076  0.00  0.00     0.015 A 
ATOM     19  C   UNL d   1       4.562   2.374  -0.175  0.00  0.00     0.001 A 
ATOM     20  C   UNL d   1       4.240   3.730  -0.225  0.00  0.00     0.000 A 
ATOM     21  C   UNL d   1       2.907   4.127  -0.177  0.00  0.00     0.001 A 
ATOM     22  C   UNL d   1       1.897   3.167  -0.081  0.00  0.00     0.015 A 
ENDBRANCH   3  17
TORSDOF 6
