REMARK  6 active torsions:
REMARK  status: ('A' for Active; 'I' for Inactive)
REMARK    1  A    between atoms: C_2  and  S_1 
REMARK    2  A    between atoms: N_6  and  S_1 
REMARK    3  A    between atoms: S_3  and  C_4 
REMARK    4  A    between atoms: C_16  and  S_3 
REMARK    5  A    between atoms: C_17  and  N_9 
REMARK    6  A    between atoms: C_21  and  C_20 
ROOT
ATOM      1  S   UNL d   1       0.957  -0.055  -0.040  0.00  0.00     0.250 S 
ATOM      2  O   UNL d   1       1.220   0.773  -1.196  0.00  0.00    -0.205 OA
ATOM      3  O   UNL d   1       1.957  -0.976   0.460  0.00  0.00    -0.205 OA
ENDROOT
BRANCH   1   4
ATOM      4  C   UNL d   1      -0.347  -1.133  -0.591  0.00  0.00     0.116 A 
ATOM      5  S   UNL d   1      -1.768  -1.244   0.349  0.00  0.00    -0.065 SA
ATOM      6  C   UNL d   1      -2.502  -2.325  -0.761  0.00  0.00     0.106 A 
ATOM      7  C   UNL d   1      -1.644  -2.645  -1.796  0.00  0.00     0.033 A 
ATOM      8  C   UNL d   1      -0.402  -1.964  -1.693  0.00  0.00     0.034 A 
BRANCH   6   9
ATOM      9  S   UNL d   1      -4.165  -2.858  -0.410  0.00  0.00     0.213 S 
ATOM     10  O   UNL d   1      -4.828  -1.758   0.256  0.00  0.00    -0.217 OA
ATOM     11  O   UNL d   1      -4.652  -3.383  -1.676  0.00  0.00    -0.217 OA
BRANCH   9  12
ATOM     12  C   UNL d   1      -4.001  -4.211   0.720  0.00  0.00     0.064 A 
ATOM     13  C   UNL d   1      -4.032  -3.965   2.096  0.00  0.00     0.024 A 
ATOM     14  C   UNL d   1      -3.916  -5.033   2.985  0.00  0.00     0.002 A 
ATOM     15  C   UNL d   1      -3.784  -6.336   2.499  0.00  0.00     0.000 A 
ATOM     16  C   UNL d   1      -3.773  -6.577   1.124  0.00  0.00     0.002 A 
ATOM     17  C   UNL d   1      -3.886  -5.514   0.229  0.00  0.00     0.024 A 
ENDBRANCH   9  12
ENDBRANCH   6   9
ENDBRANCH   1   4
BRANCH   1  18
ATOM     18  N   UNL d   1       0.445   0.929   1.249  0.00  0.00    -0.203 NA
ATOM     19  C   UNL d   1      -0.314   2.171   0.870  0.00  0.00     0.127 C 
ATOM     20  C   UNL d   1       0.605   3.293   0.325  0.00  0.00     0.138 C 
ATOM     21  N   UNL d   1       1.732   3.528   1.244  0.00  0.00    -0.379 N 
ATOM     22  C   UNL d   1       2.486   2.335   1.664  0.00  0.00     0.138 C 
ATOM     23  C   UNL d   1       1.524   1.280   2.235  0.00  0.00     0.127 C 
BRANCH  21  24
ATOM     24  C   UNL d   1       2.033   4.795   1.696  0.00  0.00     0.030 A 
ATOM     25  C   UNL d   1       1.870   5.924   0.879  0.00  0.00     0.030 A 
ATOM     26  C   UNL d   1       2.131   7.223   1.341  0.00  0.00     0.017 A 
ATOM     27  C   UNL d   1       2.565   7.429   2.650  0.00  0.00     0.009 A 
ATOM     28  C   UNL d   1       2.748   6.312   3.473  0.00  0.00     0.017 A 
ATOM     29  C   UNL d   1       2.489   5.021   2.998  0.00  0.00     0.030 A 
BRANCH  27  30
ATOM     30  C   UNL d   1       2.844   8.774   3.234  0.00  0.00     0.155 C 
ATOM     31  O   UNL d   1       3.221   8.854   4.406  0.00  0.00    -0.293 OA
ATOM     32  C   UNL d   1       2.679  10.031   2.421  0.00  0.00     0.096 C 
ENDBRANCH  27  30
ENDBRANCH  21  24
ENDBRANCH   1  18
TORSDOF 6
