REMARK  3 active torsions:
REMARK  status: ('A' for Active; 'I' for Inactive)
REMARK    1  A    between atoms: C_2  and  C_1 
REMARK    2  A    between atoms: C_4  and  C_1 
REMARK    3  A    between atoms: C_5  and  C_1 
ROOT
ATOM      1  C   UNL d   1       0.998  -0.114  -0.064  0.00  0.00    -0.000 C 
ENDROOT
BRANCH   1   2
ATOM      2  C   UNL d   1       0.368  -1.306  -0.087  0.00  0.00     0.098 C 
ATOM      3  N   UNL d   1       0.800  -2.597  -0.023  0.00  0.00    -0.389 N 
ATOM      4  C   UNL d   1       2.041  -3.211   0.281  0.00  0.00     0.123 C 
ATOM      5  C   UNL d   1       0.101  -3.803  -0.301  0.00  0.00     0.123 C 
ATOM      6  C   UNL d   1       1.316  -4.562   0.229  0.00  0.00     0.040 C 
ENDBRANCH   1   2
BRANCH   1   7
ATOM      7  C   UNL d   1       0.100   1.061  -0.108  0.00  0.00    -0.024 A 
ATOM      8  C   UNL d   1      -0.300   1.679   1.085  0.00  0.00     0.012 A 
ATOM      9  C   UNL d   1      -1.200   2.746   1.057  0.00  0.00     0.001 A 
ATOM     10  C   UNL d   1      -1.703   3.201  -0.161  0.00  0.00     0.000 A 
ATOM     11  C   UNL d   1      -1.303   2.597  -1.353  0.00  0.00     0.001 A 
ATOM     12  C   UNL d   1      -0.403   1.531  -1.328  0.00  0.00     0.012 A 
ENDBRANCH   1   7
BRANCH   1  13
ATOM     13  C   UNL d   1       2.468   0.022  -0.045  0.00  0.00    -0.024 A 
ATOM     14  C   UNL d   1       3.181   0.055  -1.251  0.00  0.00     0.012 A 
ATOM     15  C   UNL d   1       4.558   0.285  -1.256  0.00  0.00     0.001 A 
ATOM     16  C   UNL d   1       5.235   0.481  -0.051  0.00  0.00     0.000 A 
ATOM     17  C   UNL d   1       4.535   0.437   1.154  0.00  0.00     0.001 A 
ATOM     18  C   UNL d   1       3.157   0.210   1.159  0.00  0.00     0.012 A 
ENDBRANCH   1  13
TORSDOF 3
