REMARK  6 active torsions:
REMARK  status: ('A' for Active; 'I' for Inactive)
REMARK    1  A    between atoms: C_4  and  C_1 
REMARK    2  A    between atoms: N_2  and  C_3 
REMARK    3  A    between atoms: C_5  and  C_4 
REMARK    4  A    between atoms: C_6  and  C_4 
REMARK    5  A    between atoms: O_16  and  C_5 
REMARK    6  A    between atoms: O_15  and  C_6 
ROOT
ATOM      1  C   UNL d   1       2.418  -0.029  -0.052  0.00  0.00    -0.002 A 
ATOM      2  C   UNL d   1       1.694  -0.040   1.166  0.00  0.00     0.112 A 
ATOM      3  C   UNL d   1       0.299  -0.210   1.208  0.00  0.00     0.060 A 
ATOM      4  C   UNL d   1       1.653  -0.107  -1.235  0.00  0.00     0.013 A 
ATOM      5  C   UNL d   1      -0.405  -0.338   0.019  0.00  0.00     0.036 A 
ATOM      6  C   UNL d   1       0.262  -0.269  -1.199  0.00  0.00     0.024 A 
ATOM      7 CL   UNL d   1      -2.108  -0.573   0.052  0.00  0.00    -0.084 Cl
ENDROOT
BRANCH   1   8
ATOM      8  C   UNL d   1       3.947   0.110  -0.128  0.00  0.00     0.220 C 
BRANCH   8   9
ATOM      9  C   UNL d   1       4.550  -0.534  -1.363  0.00  0.00     0.276 C 
ATOM     10  O   UNL d   1       4.643   0.003  -2.460  0.00  0.00    -0.264 OA
BRANCH   9  11
ATOM     11  O   UNL d   1       4.937  -1.815  -1.094  0.00  0.00    -0.326 OA
ATOM     12  C   UNL d   1       5.573  -2.482  -2.186  0.00  0.00     0.213 C 
ENDBRANCH   9  11
ENDBRANCH   8   9
BRANCH   8  13
ATOM     13  C   UNL d   1       4.431   1.539   0.002  0.00  0.00     0.276 C 
ATOM     14  O   UNL d   1       3.718   2.505   0.238  0.00  0.00    -0.264 OA
BRANCH  13  15
ATOM     15  O   UNL d   1       5.793   1.584  -0.090  0.00  0.00    -0.326 OA
ATOM     16  C   UNL d   1       6.364   2.889   0.025  0.00  0.00     0.213 C 
ENDBRANCH  13  15
ENDBRANCH   8  13
ENDBRANCH   1   8
BRANCH   2  17
ATOM     17  N   UNL d   1       2.346   0.139   2.459  0.00  0.00    -0.115 N 
ATOM     18  O   UNL d   1       3.282  -0.623   2.732  0.00  0.00    -0.532 OA
ATOM     19  O   UNL d   1       1.893   1.014   3.205  0.00  0.00    -0.532 OA
ENDBRANCH   2  17
TORSDOF 6
