REMARK  4 active torsions:
REMARK  status: ('A' for Active; 'I' for Inactive)
REMARK    1  A    between atoms: C_3  and  C_1 
REMARK       I    between atoms: C_2  and  N_4 
REMARK       I    between atoms: N_7  and  C_2 
REMARK    2  A    between atoms: N_4  and  C_11 
REMARK    3  A    between atoms: C_18  and  N_7 
REMARK    4  A    between atoms: C_17  and  C_18 
ROOT
ATOM      1  C   UNL d   1      -1.948  -0.863  -3.934  0.00  0.00     0.320 C 
ATOM      2  N   UNL d   1      -2.336  -1.403  -5.121  0.00  0.00    -0.309 N 
ATOM      3  N   UNL d   1      -1.414  -1.703  -3.001  0.00  0.00    -0.339 N 
ATOM      4  O   UNL d   1      -2.040   0.347  -3.767  0.00  0.00    -0.247 OA
ATOM      5  H   UNL d   1      -2.463  -0.684  -5.824  0.00  0.00     0.170 HD
ATOM      6  H   UNL d   1      -1.050  -2.591  -3.305  0.00  0.00     0.164 HD
ENDROOT
BRANCH   2   7
ATOM      7  C   UNL d   1      -2.546  -2.732  -5.517  0.00  0.00     0.037 A 
ATOM      8  C   UNL d   1      -2.756  -3.776  -4.615  0.00  0.00     0.045 A 
ATOM      9  C   UNL d   1      -2.813  -5.106  -5.052  0.00  0.00     0.050 A 
ATOM     10  C   UNL d   1      -2.759  -5.371  -6.425  0.00  0.00     0.016 A 
ATOM     11  C   UNL d   1      -2.649  -4.323  -7.341  0.00  0.00     0.003 A 
ATOM     12  C   UNL d   1      -2.542  -3.010  -6.886  0.00  0.00     0.029 A 
BRANCH   9  13
ATOM     13  C   UNL d   1      -2.868  -6.238  -4.054  0.00  0.00     0.417 C 
ATOM     14  F   UNL d   1      -2.961  -5.817  -2.762  0.00  0.00    -0.166 F 
ATOM     15  F   UNL d   1      -1.753  -7.017  -4.108  0.00  0.00    -0.166 F 
ATOM     16  F   UNL d   1      -3.922  -7.072  -4.256  0.00  0.00    -0.166 F 
ENDBRANCH   9  13
ENDBRANCH   2   7
BRANCH   3  17
ATOM     17  C   UNL d   1      -1.033  -1.225  -1.700  0.00  0.00     0.162 C 
BRANCH  17  18
ATOM     18  C   UNL d   1       0.141  -1.962  -1.103  0.00  0.00    -0.040 A 
ATOM     19  C   UNL d   1       0.063  -2.407   0.227  0.00  0.00     0.018 A 
ATOM     20  C   UNL d   1       1.232  -2.773   0.861  0.00  0.00    -0.022 A 
ATOM     21  C   UNL d   1       1.476  -3.142   2.275  0.00  0.00     0.068 C 
ATOM     22  C   UNL d   1       2.447  -2.764   0.189  0.00  0.00     0.075 A 
ATOM     23  C   UNL d   1       2.948  -2.740   2.324  0.00  0.00     0.180 C 
ATOM     24  O   UNL d   1       3.518  -3.002   1.016  0.00  0.00    -0.350 OA
ATOM     25  C   UNL d   1       2.540  -2.454  -1.150  0.00  0.00     0.038 A 
ATOM     26  C   UNL d   1       1.375  -2.033  -1.796  0.00  0.00     0.011 A 
ENDBRANCH  17  18
ENDBRANCH   3  17
TORSDOF 4
