REMARK  2 active torsions:
REMARK  status: ('A' for Active; 'I' for Inactive)
REMARK    1  A    between atoms: C_6  and  C_1 
REMARK       I    between atoms: N_11  and  C_6 
REMARK    2  A    between atoms: N_12  and  N_11 
ROOT
ATOM      1  C   UNL d   1      -2.043  -1.119   0.010  0.00  0.00     0.075 A 
ATOM      2  S   UNL d   1      -2.032   0.601   0.037  0.00  0.00    -0.083 SA
ATOM      3  C   UNL d   1      -0.772  -1.663   0.013  0.00  0.00     0.044 A 
ATOM      4  C   UNL d   1       0.231  -0.647   0.018  0.00  0.00     0.023 A 
ATOM      5  C   UNL d   1      -0.291   0.616   0.023  0.00  0.00     0.023 A 
ATOM      6  S   UNL d   1       1.976  -0.631   0.011  0.00  0.00    -0.101 SA
ATOM      7  C   UNL d   1       0.707   1.636   0.013  0.00  0.00     0.027 A 
ATOM      8  C   UNL d   1       1.967   1.083   0.003  0.00  0.00     0.052 A 
ENDROOT
BRANCH   1   9
ATOM      9  C   UNL d   1      -3.295  -1.871  -0.023  0.00  0.00     0.272 C 
ATOM     10  O   UNL d   1      -3.342  -3.099  -0.097  0.00  0.00    -0.266 OA
ATOM     11  N   UNL d   1      -4.464  -1.109   0.029  0.00  0.00    -0.289 N 
ATOM     12  H   UNL d   1      -4.395  -0.106   0.186  0.00  0.00     0.183 HD
BRANCH  11  13
ATOM     13  N   UNL d   1      -5.731  -1.733   0.060  0.00  0.00    -0.247 NA
ATOM     14  H   UNL d   1      -5.567  -2.738   0.216  0.00  0.00     0.143 HD
ATOM     15  H   UNL d   1      -6.124  -1.691  -0.884  0.00  0.00     0.143 HD
ENDBRANCH  11  13
ENDBRANCH   1   9
TORSDOF 2
