REMARK  1 active torsions:
REMARK  status: ('A' for Active; 'I' for Inactive)
REMARK    1  A    between atoms: C_6  and  C_1 
ROOT
ATOM      1  C   UNL d   1      -2.598   0.436  -0.015  0.00  0.00     0.117 A 
ATOM      2  N   UNL d   1      -1.791   0.304   1.022  0.00  0.00    -0.340 N 
ATOM      3  HN  UNL d   1      -2.043   0.397   2.006  1.00  0.00     0.167 HD
ATOM      4  N   UNL d   1      -1.878   0.271  -1.181  0.00  0.00    -0.340 N 
ATOM      5  C   UNL d   1      -0.550   0.018   0.519  0.00  0.00     0.061 A 
ATOM      6  C   UNL d   1      -0.571   0.005  -0.867  0.00  0.00     0.060 A 
ATOM      7  C   UNL d   1       0.648  -0.249   1.196  0.00  0.00     0.038 A 
ATOM      8  C   UNL d   1       0.559  -0.246  -1.645  0.00  0.00     0.032 A 
ATOM      9  C   UNL d   1       1.807  -0.516   0.449  0.00  0.00    -0.060 A 
ATOM     10  C   UNL d   1       1.751  -0.505  -0.954  0.00  0.00     0.009 A 
ATOM     11  C   UNL d   1       3.104  -0.809   1.146  0.00  0.00     0.048 C 
ATOM     12  H   UNL d   1      -2.261   0.309  -2.113  0.00  0.00     0.167 HD
ENDROOT
BRANCH   1  13
ATOM     13  C   UNL d   1      -4.047   0.712   0.022  0.00  0.00     0.019 A 
ATOM     14  C   UNL d   1      -4.887   0.238   1.080  0.00  0.00    -0.012 A 
ATOM     15  C   UNL d   1      -6.268   0.569   1.054  0.00  0.00    -0.025 A 
ATOM     16  C   UNL d   1      -4.445  -0.558   2.168  0.00  0.00     0.013 A 
ATOM     17  C   UNL d   1      -7.125   0.128   2.078  0.00  0.00     0.012 A 
ATOM     18  C   UNL d   1      -6.788   1.338   0.004  0.00  0.00     0.012 A 
ATOM     19  C   UNL d   1      -6.648  -0.643   3.135  0.00  0.00     0.001 A 
ATOM     20  C   UNL d   1      -5.307  -0.988   3.180  0.00  0.00     0.001 A 
ATOM     21  C   UNL d   1      -5.969   1.791  -1.024  0.00  0.00     0.002 A 
ATOM     22  C   UNL d   1      -4.612   1.484  -1.013  0.00  0.00     0.016 A 
ENDBRANCH   1  13
TORSDOF 1
