REMARK  4 active torsions:
REMARK  status: ('A' for Active; 'I' for Inactive)
REMARK    1  A    between atoms: C_10  and  C_3 
REMARK    2  A    between atoms: C_13  and  N_4 
REMARK    3  A    between atoms: C_11  and  N_5 
REMARK    4  A    between atoms: C_16  and  C_10 
ROOT
ATOM      1  C   UNL d   1       0.022  -0.262  -0.310  0.00  0.00     0.242 C 
ATOM      2  S   UNL d   1      -0.683  -0.706   1.332  0.00  0.00    -0.039 SA
ATOM      3  C   UNL d   1      -2.214  -0.222   0.686  0.00  0.00     0.141 C 
ATOM      4  N   UNL d   1       1.174  -1.071  -0.629  0.00  0.00    -0.270 N 
ATOM      5  N   UNL d   1      -1.140  -0.357  -1.228  0.00  0.00    -0.242 N 
ATOM      6  N   UNL d   1      -2.367  -0.127  -0.593  0.00  0.00    -0.284 N 
ATOM      7  HN  UNL d   1      -3.246   0.083  -1.068  1.00  0.00     0.188 HD
ATOM      8  S   UNL d   1       0.631   1.456  -0.122  0.00  0.00    -0.092 SA
ATOM      9  C   UNL d   1       2.382  -0.551  -0.160  0.00  0.00     0.237 C 
ATOM     10  C   UNL d   1       2.290   0.897   0.256  0.00  0.00     0.182 C 
ATOM     11  O   UNL d   1       3.447  -1.163  -0.061  0.00  0.00    -0.272 OA
ENDROOT
BRANCH   4  12
ATOM     12  C   UNL d   1       1.119  -2.357  -1.246  0.00  0.00     0.041 A 
ATOM     13  C   UNL d   1       0.063  -3.254  -1.054  0.00  0.00     0.030 A 
ATOM     14  C   UNL d   1       0.069  -4.509  -1.676  0.00  0.00     0.002 A 
ATOM     15  C   UNL d   1       1.108  -4.867  -2.532  0.00  0.00     0.000 A 
ATOM     16  C   UNL d   1       2.152  -3.978  -2.755  0.00  0.00     0.002 A 
ATOM     17  C   UNL d   1       2.163  -2.743  -2.105  0.00  0.00     0.030 A 
ENDBRANCH   4  12
BRANCH   5  18
ATOM     18  C   UNL d   1      -1.134  -0.149  -2.615  0.00  0.00     0.055 A 
ATOM     19  C   UNL d   1      -2.247  -0.552  -3.378  0.00  0.00     0.032 A 
ATOM     20  C   UNL d   1      -2.348  -0.297  -4.752  0.00  0.00     0.009 A 
ATOM     21  C   UNL d   1      -1.341   0.408  -5.410  0.00  0.00    -0.062 A 
ATOM     22  C   UNL d   1      -0.197   0.753  -4.691  0.00  0.00     0.009 A 
ATOM     23  C   UNL d   1      -1.472   0.758  -6.862  0.00  0.00     0.048 C 
ATOM     24  C   UNL d   1      -0.090   0.463  -3.321  0.00  0.00     0.032 A 
ENDBRANCH   5  18
BRANCH   3  25
ATOM     25  C   UNL d   1      -3.176   0.113   1.792  0.00  0.00     0.216 C 
ATOM     26  O   UNL d   1      -2.738   0.495   2.873  0.00  0.00    -0.284 OA
BRANCH  25  27
ATOM     27  C   UNL d   1      -4.656   0.066   1.606  0.00  0.00     0.017 A 
ATOM     28  C   UNL d   1      -5.284  -0.171   0.379  0.00  0.00     0.015 A 
ATOM     29  C   UNL d   1      -6.681  -0.156   0.288  0.00  0.00     0.001 A 
ATOM     30  C   UNL d   1      -7.461   0.089   1.417  0.00  0.00     0.000 A 
ATOM     31  C   UNL d   1      -6.849   0.320   2.644  0.00  0.00     0.001 A 
ATOM     32  C   UNL d   1      -5.455   0.310   2.737  0.00  0.00     0.015 A 
ENDBRANCH  25  27
ENDBRANCH   3  25
TORSDOF 4
