REMARK  7 active torsions:
REMARK  status: ('A' for Active; 'I' for Inactive)
REMARK    1  A    between atoms: C_12  and  C_3 
REMARK    2  A    between atoms: N_23  and  C_8 
REMARK    3  A    between atoms: C_13  and  C_11 
REMARK    4  A    between atoms: O_26  and  C_15 
REMARK    5  A    between atoms: O_27  and  C_18 
REMARK    6  A    between atoms: O_29  and  C_20 
REMARK    7  A    between atoms: O_28  and  C_21 
ROOT
ATOM      1  C   UNL d   1      -0.410   0.491  -0.018  0.00  0.00     0.043 A 
ATOM      2  C   UNL d   1      -0.012  -0.821  -0.164  0.00  0.00     0.090 A 
ATOM      3  C   UNL d   1      -2.471  -0.674  -0.083  0.00  0.00     0.024 A 
ATOM      4  C   UNL d   1      -1.872   0.588   0.007  0.00  0.00    -0.028 A 
ATOM      5  S   UNL d   1      -1.290  -1.901  -0.337  0.00  0.00    -0.070 SA
ATOM      6  N   UNL d   1       1.232  -1.295  -0.187  0.00  0.00    -0.335 N 
ATOM      7  HN  UNL d   1       1.448  -2.285  -0.309  1.00  0.00     0.168 HD
ATOM      8  C   UNL d   1       0.660   1.410   0.088  0.00  0.00     0.093 A 
ATOM      9  N   UNL d   1       1.934   0.960   0.083  0.00  0.00    -0.332 N 
ATOM     10  HN  UNL d   1       2.711   1.615   0.168  1.00  0.00     0.168 HD
ATOM     11  C   UNL d   1       2.170  -0.362  -0.035  0.00  0.00     0.117 A 
ATOM     12  C   UNL d   1      -2.595   1.890   0.159  0.00  0.00     0.050 C 
ENDROOT
BRANCH   3  13
ATOM     13  C   UNL d   1      -3.879  -1.128  -0.049  0.00  0.00    -0.016 A 
ATOM     14  C   UNL d   1      -4.228  -2.305   0.649  0.00  0.00     0.052 A 
ATOM     15  C   UNL d   1      -5.513  -2.869   0.587  0.00  0.00     0.102 A 
ATOM     16  C   UNL d   1      -6.505  -2.195  -0.139  0.00  0.00     0.101 A 
ATOM     17  C   UNL d   1      -6.180  -0.992  -0.786  0.00  0.00     0.040 A 
ATOM     18  C   UNL d   1      -4.881  -0.471  -0.759  0.00  0.00     0.016 A 
BRANCH  15  19
ATOM     19  O   UNL d   1      -5.833  -4.045   1.212  0.00  0.00    -0.353 OA
ATOM     20  C   UNL d   1      -4.780  -4.831   1.758  0.00  0.00     0.210 C 
ENDBRANCH  15  19
BRANCH  16  21
ATOM     21  O   UNL d   1      -7.816  -2.548  -0.329  0.00  0.00    -0.353 OA
ATOM     22  C   UNL d   1      -8.252  -3.825   0.114  0.00  0.00     0.210 C 
ENDBRANCH  16  21
ENDBRANCH   3  13
BRANCH   8  23
ATOM     23  N   UNL d   1       0.505   2.787   0.204  0.00  0.00    -0.288 NA
ATOM     24  H   UNL d   1      -0.281   3.172  -0.298  0.00  0.00     0.125 HD
ATOM     25  H   UNL d   1       1.393   3.250   0.034  0.00  0.00     0.125 HD
ENDBRANCH   8  23
BRANCH  11  26
ATOM     26  C   UNL d   1       3.563  -0.856   0.017  0.00  0.00     0.013 A 
ATOM     27  C   UNL d   1       4.669   0.004   0.138  0.00  0.00     0.052 A 
ATOM     28  C   UNL d   1       5.973  -0.504   0.200  0.00  0.00     0.071 A 
ATOM     29  C   UNL d   1       6.191  -1.886   0.141  0.00  0.00     0.073 A 
ATOM     30  C   UNL d   1       5.121  -2.762   0.021  0.00  0.00     0.071 A 
ATOM     31  C   UNL d   1       3.826  -2.242  -0.041  0.00  0.00     0.052 A 
BRANCH  28  32
ATOM     32  O   UNL d   1       7.120   0.235   0.320  0.00  0.00    -0.356 OA
ATOM     33  C   UNL d   1       6.971   1.647   0.406  0.00  0.00     0.210 C 
ENDBRANCH  28  32
BRANCH  30  34
ATOM     34  O   UNL d   1       5.184  -4.125  -0.046  0.00  0.00    -0.356 OA
ATOM     35  C   UNL d   1       6.472  -4.718   0.043  0.00  0.00     0.210 C 
ENDBRANCH  30  34
ENDBRANCH  11  26
TORSDOF 7
