REMARK  4 active torsions:
REMARK  status: ('A' for Active; 'I' for Inactive)
REMARK    1  A    between atoms: N_4  and  S_1 
REMARK    2  A    between atoms: S_2  and  N_3 
REMARK    3  A    between atoms: N_3  and  C_6 
REMARK    4  A    between atoms: C_5  and  N_4 
ROOT
ATOM      1  C   UNL d   1       1.034  -0.286   2.704  0.00  0.00     0.049 A 
ATOM      2  C   UNL d   1       2.192  -1.026   3.008  0.00  0.00     0.064 A 
ATOM      3  C   UNL d   1      -0.019  -0.279   3.626  0.00  0.00     0.027 A 
ATOM      4  C   UNL d   1       2.328  -1.627   4.267  0.00  0.00     0.032 A 
ATOM      5  C   UNL d   1       1.292  -1.564   5.195  0.00  0.00     0.002 A 
ATOM      6  C   UNL d   1       0.106  -0.919   4.862  0.00  0.00     0.002 A 
ENDROOT
BRANCH   1   7
ATOM      7  N   UNL d   1       0.900   0.466   1.481  0.00  0.00    -0.184 NA
ATOM      8  H   UNL d   1       1.587   0.197   0.764  0.00  0.00     0.146 HD
BRANCH   7   9
ATOM      9  S   UNL d   1       0.984   2.160   1.637  0.00  0.00     0.210 S 
ATOM     10  O   UNL d   1       1.486   2.666   0.378  0.00  0.00    -0.211 OA
ATOM     11  O   UNL d   1       1.625   2.495   2.890  0.00  0.00    -0.211 OA
ATOM     12  C   UNL d   1      -0.729   2.660   1.712  0.00  0.00     0.180 C 
ENDBRANCH   7   9
ENDBRANCH   1   7
BRANCH   2  13
ATOM     13  N   UNL d   1       3.228  -1.294   2.062  0.00  0.00    -0.283 N 
ATOM     14  H   UNL d   1       3.615  -2.239   2.116  0.00  0.00     0.178 HD
BRANCH  13  15
ATOM     15  S   UNL d   1       4.461  -0.208   1.766  0.00  0.00     0.227 S 
ATOM     16  O   UNL d   1       5.605  -1.040   1.464  0.00  0.00    -0.206 OA
ATOM     17  O   UNL d   1       3.960   0.746   0.801  0.00  0.00    -0.206 OA
ATOM     18  C   UNL d   1       4.785   0.621   3.313  0.00  0.00     0.186 C 
ENDBRANCH  13  15
ENDBRANCH   2  13
TORSDOF 4
