REMARK  5 active torsions:
REMARK  status: ('A' for Active; 'I' for Inactive)
REMARK    1  A    between atoms: C_6  and  C_1 
REMARK    2  A    between atoms: C_12  and  C_3 
REMARK    3  A    between atoms: C_7  and  C_4 
REMARK       I    between atoms: N_9  and  C_7 
REMARK       I    between atoms: C_8  and  N_10 
REMARK    4  A    between atoms: C_11  and  C_8 
REMARK    5  A    between atoms: N_10  and  N_9 
ROOT
ATOM      1  C   UNL d   1       0.102   1.226  -0.021  0.00  0.00     0.100 A 
ATOM      2  S   UNL d   1      -1.084  -0.035  -0.029  0.00  0.00    -0.079 SA
ATOM      3  C   UNL d   1       1.393   0.707  -0.106  0.00  0.00    -0.003 A 
ATOM      4  C   UNL d   1       0.080  -1.271  -0.097  0.00  0.00     0.075 A 
ATOM      5  C   UNL d   1       1.352  -0.734  -0.143  0.00  0.00     0.038 A 
ENDROOT
BRANCH   4   6
ATOM      6  C   UNL d   1      -0.255  -2.689  -0.116  0.00  0.00     0.277 C 
ATOM      7  N   UNL d   1      -1.592  -3.040  -0.037  0.00  0.00    -0.263 N 
ATOM      8  H   UNL d   1      -2.345  -2.371   0.108  0.00  0.00     0.190 HD
ATOM      9  O   UNL d   1       0.607  -3.573  -0.199  0.00  0.00    -0.265 OA
BRANCH   7  10
ATOM     10  N   UNL d   1      -1.931  -4.406  -0.039  0.00  0.00    -0.263 N 
ATOM     11  C   UNL d   1      -3.179  -4.782   0.419  0.00  0.00     0.270 C 
ATOM     12  O   UNL d   1      -4.020  -3.955   0.769  0.00  0.00    -0.266 OA
ATOM     13  H   UNL d   1      -1.148  -5.048  -0.144  0.00  0.00     0.190 HD
BRANCH  11  14
ATOM     14  C   UNL d   1      -3.474  -6.250   0.487  0.00  0.00     0.033 A 
ATOM     15  C   UNL d   1      -2.670  -7.223  -0.121  0.00  0.00     0.017 A 
ATOM     16  C   UNL d   1      -3.007  -8.581  -0.030  0.00  0.00     0.007 A 
ATOM     17  C   UNL d   1      -4.155  -8.989   0.663  0.00  0.00    -0.062 A 
ATOM     18  C   UNL d   1      -4.968  -8.018   1.255  0.00  0.00     0.007 A 
ATOM     19  C   UNL d   1      -4.502 -10.446   0.752  0.00  0.00     0.048 C 
ATOM     20  C   UNL d   1      -4.629  -6.662   1.168  0.00  0.00     0.017 A 
ENDBRANCH  11  14
ENDBRANCH   7  10
ENDBRANCH   4   6
BRANCH   1  21
ATOM     21  C   UNL d   1      -0.385   2.642   0.087  0.00  0.00     0.424 C 
ATOM     22  F   UNL d   1      -1.714   2.736   0.365  0.00  0.00    -0.166 F 
ATOM     23  F   UNL d   1       0.255   3.333   1.065  0.00  0.00    -0.166 F 
ATOM     24  F   UNL d   1      -0.203   3.332  -1.071  0.00  0.00    -0.166 F 
ENDBRANCH   1  21
BRANCH   3  25
ATOM     25  C   UNL d   1       2.637   1.502  -0.106  0.00  0.00    -0.025 A 
ATOM     26  C   UNL d   1       3.778   0.999   0.545  0.00  0.00     0.012 A 
ATOM     27  C   UNL d   1       4.989   1.702   0.537  0.00  0.00     0.001 A 
ATOM     28  C   UNL d   1       5.077   2.931  -0.105  0.00  0.00     0.000 A 
ATOM     29  C   UNL d   1       3.962   3.443  -0.761  0.00  0.00     0.001 A 
ATOM     30  C   UNL d   1       2.760   2.724  -0.779  0.00  0.00     0.012 A 
ENDBRANCH   3  25
TORSDOF 5
