REMARK  4 active torsions:
REMARK  status: ('A' for Active; 'I' for Inactive)
REMARK    1  A    between atoms: C_9  and  C_3 
REMARK    2  A    between atoms: O_11  and  C_4 
REMARK    3  A    between atoms: S_10  and  C_5 
REMARK    4  A    between atoms: C_12  and  C_9 
ROOT
ATOM      1  N   UNL d   1       0.488   0.771  -0.830  0.00  0.00    -0.317 N 
ATOM      2  HN  UNL d   1       0.822   1.298  -1.637  1.00  0.00     0.170 HD
ATOM      3  C   UNL d   1      -0.679  -1.129   0.091  0.00  0.00     0.019 A 
ATOM      4  C   UNL d   1      -0.225  -0.352  -0.962  0.00  0.00     0.150 A 
ATOM      5  C   UNL d   1       0.735   1.158   0.423  0.00  0.00     0.143 A 
ATOM      6  N   UNL d   1       0.313   0.523   1.525  0.00  0.00    -0.340 N 
ATOM      7  HN  UNL d   1       0.515   0.885   2.457  1.00  0.00     0.167 HD
ATOM      8  C   UNL d   1      -0.392  -0.615   1.351  0.00  0.00     0.018 A 
ATOM      9  C   UNL d   1      -0.858  -1.281   2.616  0.00  0.00     0.069 C 
ENDROOT
BRANCH   3  10
ATOM     10  C   UNL d   1      -1.427  -2.418  -0.113  0.00  0.00     0.083 C 
BRANCH  10  11
ATOM     11  C   UNL d   1      -2.938  -2.352  -0.037  0.00  0.00    -0.054 A 
ATOM     12  C   UNL d   1      -3.660  -1.152   0.022  0.00  0.00     0.008 A 
ATOM     13  C   UNL d   1      -5.048  -1.162   0.180  0.00  0.00     0.007 A 
ATOM     14  C   UNL d   1      -5.749  -2.369   0.264  0.00  0.00    -0.062 A 
ATOM     15  C   UNL d   1      -5.043  -3.569   0.150  0.00  0.00     0.007 A 
ATOM     16  C   UNL d   1      -7.226  -2.360   0.519  0.00  0.00     0.048 C 
ATOM     17  C   UNL d   1      -3.654  -3.560  -0.003  0.00  0.00     0.008 A 
ENDBRANCH  10  11
ENDBRANCH   3  10
BRANCH   4  18
ATOM     18  O   UNL d   1      -0.485  -0.674  -2.261  0.00  0.00    -0.346 OA
ATOM     19  H   UNL d   1      -1.351  -1.108  -2.301  0.00  0.00     0.219 HD
ENDBRANCH   4  18
BRANCH   5  20
ATOM     20  S   UNL d   1       1.686   2.632   0.635  0.00  0.00    -0.107 SA
ATOM     21  H   UNL d   1       1.866   2.801  -0.680  0.00  0.00     0.110 HD
ENDBRANCH   5  20
TORSDOF 4
