REMARK  4 active torsions:
REMARK  status: ('A' for Active; 'I' for Inactive)
REMARK    1  A    between atoms: C_2  and  C_1 
REMARK    2  A    between atoms: C_15  and  C_7 
REMARK    3  A    between atoms: S_14  and  C_15 
REMARK    4  A    between atoms: C_16  and  S_14 
ROOT
ATOM      1  C   UNL d   1       0.516  -0.997  -0.006  0.00  0.00     0.186 A 
ATOM      2  N   UNL d   1       1.179   0.085   0.352  0.00  0.00    -0.322 N 
ATOM      3  HN  UNL d   1       2.102   0.153   0.781  1.00  0.00     0.169 HD
ATOM      4  C   UNL d   1       0.316   1.097   0.004  0.00  0.00     0.113 A 
ATOM      5  N   UNL d   1      -0.872   0.684  -0.458  0.00  0.00    -0.246 N 
ATOM      6  HN  UNL d   1      -1.678   1.247  -0.726  1.00  0.00     0.196 HD
ATOM      7  O   UNL d   1      -0.737  -0.703  -0.482  0.00  0.00    -0.217 OA
ENDROOT
BRANCH   4   8
ATOM      8  C   UNL d   1       0.694   2.535   0.070  0.00  0.00     0.158 C 
BRANCH   8   9
ATOM      9  S   UNL d   1       1.516   3.023  -1.494  0.00  0.00    -0.122 SA
BRANCH   9  10
ATOM     10  C   UNL d   1       1.863   4.761  -1.292  0.00  0.00     0.001 A 
ATOM     11  C   UNL d   1       1.608   5.510  -0.137  0.00  0.00     0.020 A 
ATOM     12  C   UNL d   1       1.931   6.872  -0.086  0.00  0.00     0.025 A 
ATOM     13  C   UNL d   1       2.512   7.493  -1.189  0.00  0.00     0.034 A 
ATOM     14  C   UNL d   1       2.773   6.765  -2.344  0.00  0.00     0.025 A 
ATOM     15 CL   UNL d   1       2.910   9.164  -1.121  0.00  0.00    -0.084 Cl
ATOM     16  C   UNL d   1       2.450   5.407  -2.391  0.00  0.00     0.020 A 
ENDBRANCH   9  10
ENDBRANCH   8   9
ENDBRANCH   4   8
BRANCH   1  17
ATOM     17  C   UNL d   1       1.070  -2.365   0.059  0.00  0.00     0.073 A 
ATOM     18  C   UNL d   1       0.472  -3.506  -0.420  0.00  0.00     0.089 A 
ATOM     19  O   UNL d   1       1.305  -4.561  -0.205  0.00  0.00    -0.242 OA
ATOM     20  C   UNL d   1      -0.801  -3.808  -1.101  0.00  0.00     0.080 C 
ATOM     21  N   UNL d   1       2.454  -4.124   0.428  0.00  0.00    -0.265 N 
ATOM     22  C   UNL d   1       2.306  -2.801   0.586  0.00  0.00     0.045 A 
ATOM     23  HN  UNL d   1       3.251  -4.692   0.716  1.00  0.00     0.194 HD
ATOM     24  C   UNL d   1       3.363  -2.009   1.257  0.00  0.00     0.071 C 
ENDBRANCH   1  17
TORSDOF 4
