REMARK  8 active torsions:
REMARK  status: ('A' for Active; 'I' for Inactive)
REMARK    1  A    between atoms: C_6  and  C_1 
REMARK    2  A    between atoms: N_17  and  C_2 
REMARK    3  A    between atoms: C_15  and  C_5 
REMARK       I    between atoms: N_14  and  C_6 
REMARK    4  A    between atoms: O_20  and  C_7 
REMARK    5  A    between atoms: O_22  and  C_8 
REMARK    6  A    between atoms: O_21  and  C_9 
REMARK    7  A    between atoms: N_10  and  N_14 
REMARK    8  A    between atoms: C_16  and  C_19 
ROOT
ATOM      1  C   UNL d   1       0.495   2.971   0.383  0.00  0.00     0.272 C 
ATOM      2  N   UNL d   1      -0.355   4.032   0.108  0.00  0.00    -0.266 N 
ATOM      3  O   UNL d   1       0.106   1.868   0.767  0.00  0.00    -0.266 OA
ATOM      4  H   UNL d   1      -0.009   4.921  -0.223  0.00  0.00     0.190 HD
ENDROOT
BRANCH   2   5
ATOM      5  N   UNL d   1      -1.699   3.854   0.221  0.00  0.00    -0.308 N 
ATOM      6  C   UNL d   1      -2.461   4.865  -0.037  0.00  0.00     0.118 C 
ATOM      7  HN  UNL d   1      -2.092   2.954   0.499  1.00  0.00     0.186 HD
BRANCH   6   8
ATOM      8  C   UNL d   1      -3.928   4.702   0.031  0.00  0.00    -0.014 A 
ATOM      9  C   UNL d   1      -4.462   3.449   0.320  0.00  0.00     0.052 A 
ATOM     10  C   UNL d   1      -5.845   3.253   0.395  0.00  0.00     0.105 A 
ATOM     11  C   UNL d   1      -6.724   4.335   0.157  0.00  0.00     0.135 A 
ATOM     12  C   UNL d   1      -6.170   5.597  -0.182  0.00  0.00     0.105 A 
ATOM     13  C   UNL d   1      -4.775   5.770  -0.225  0.00  0.00     0.052 A 
BRANCH  10  14
ATOM     14  O   UNL d   1      -6.343   1.992   0.619  0.00  0.00    -0.353 OA
ATOM     15  C   UNL d   1      -5.557   1.160   1.476  0.00  0.00     0.210 C 
ENDBRANCH  10  14
BRANCH  11  16
ATOM     16  O   UNL d   1      -8.090   4.282   0.232  0.00  0.00    -0.351 OA
ATOM     17  C   UNL d   1      -8.759   3.136   0.733  0.00  0.00     0.210 C 
ENDBRANCH  11  16
BRANCH  12  18
ATOM     18  O   UNL d   1      -6.809   6.763  -0.520  0.00  0.00    -0.353 OA
ATOM     19  C   UNL d   1      -8.224   6.855  -0.499  0.00  0.00     0.210 C 
ENDBRANCH  12  18
ENDBRANCH   6   8
ENDBRANCH   2   5
BRANCH   1  20
ATOM     20  C   UNL d   1       1.930   3.261   0.188  0.00  0.00     0.068 A 
ATOM     21  C   UNL d   1       2.924   2.307   0.362  0.00  0.00     0.084 A 
ATOM     22  S   UNL d   1       4.492   2.946   0.126  0.00  0.00    -0.071 SA
ATOM     23  C   UNL d   1       3.898   4.501  -0.255  0.00  0.00     0.018 A 
ATOM     24  C   UNL d   1       2.518   4.519  -0.186  0.00  0.00     0.039 A 
BRANCH  21  25
ATOM     25  N   UNL d   1       2.768   1.004   0.682  0.00  0.00    -0.393 N 
ATOM     26  H   UNL d   1       1.848   0.677   0.977  0.00  0.00     0.156 HD
ATOM     27  H   UNL d   1       3.551   0.459   1.020  0.00  0.00     0.156 HD
ENDBRANCH  21  25
BRANCH  23  28
ATOM     28  C   UNL d   1       4.796   5.620  -0.578  0.00  0.00    -0.019 A 
ATOM     29  C   UNL d   1       4.457   6.919  -0.168  0.00  0.00     0.013 A 
ATOM     30  C   UNL d   1       5.252   8.016  -0.509  0.00  0.00     0.001 A 
ATOM     31  C   UNL d   1       6.407   7.827  -1.260  0.00  0.00     0.000 A 
ATOM     32  C   UNL d   1       6.769   6.545  -1.667  0.00  0.00     0.001 A 
ATOM     33  C   UNL d   1       5.968   5.447  -1.329  0.00  0.00     0.013 A 
ENDBRANCH  23  28
ENDBRANCH   1  20
TORSDOF 8
