REMARK  3 active torsions:
REMARK  status: ('A' for Active; 'I' for Inactive)
REMARK    1  A    between atoms: C_9  and  C_4 
REMARK    2  A    between atoms: O_17  and  C_8 
REMARK    3  A    between atoms: O_18  and  C_11 
ROOT
ATOM      1  C   UNL d   1      -3.115   3.295  -2.614  0.00  0.00     0.124 A 
ATOM      2  C   UNL d   1      -3.110   1.278  -1.198  0.00  0.00    -0.010 A 
ATOM      3  C   UNL d   1      -2.547   2.052  -2.244  0.00  0.00     0.080 A 
ATOM      4  C   UNL d   1      -4.299   3.707  -1.962  0.00  0.00     0.103 A 
ATOM      5  C   UNL d   1      -4.301   1.686  -0.600  0.00  0.00     0.016 A 
ATOM      6  C   UNL d   1      -4.885   2.887  -0.984  0.00  0.00     0.040 A 
ATOM      7 CL   UNL d   1      -1.206   1.342  -3.102  0.00  0.00    -0.080 Cl
ENDROOT
BRANCH   2   8
ATOM      8  C   UNL d   1      -2.446   0.071  -0.668  0.00  0.00     0.037 C 
ATOM      9  C   UNL d   1      -1.552   0.077   0.338  0.00  0.00     0.115 C 
ATOM     10  C   UNL d   1      -1.218   1.284   1.114  0.00  0.00     0.302 C 
ATOM     11  C   UNL d   1      -0.848  -1.176   0.647  0.00  0.00     0.302 C 
ATOM     12  O   UNL d   1       0.034   1.318   1.603  0.00  0.00    -0.280 OA
ATOM     13  O   UNL d   1      -2.004   2.194   1.333  0.00  0.00    -0.259 OA
ATOM     14  C   UNL d   1       0.944   0.273   1.278  0.00  0.00     0.175 C 
ATOM     15  O   UNL d   1       0.341  -1.021   1.276  0.00  0.00    -0.280 OA
ATOM     16  C   UNL d   1       1.630   0.551  -0.063  0.00  0.00     0.080 C 
ATOM     17  C   UNL d   1       1.996   0.282   2.388  0.00  0.00     0.080 C 
ATOM     18  O   UNL d   1      -1.286  -2.281   0.342  0.00  0.00    -0.259 OA
ENDBRANCH   2   8
BRANCH   1  19
ATOM     19  O   UNL d   1      -2.673   4.095  -3.636  0.00  0.00    -0.351 OA
ATOM     20  C   UNL d   1      -1.279   4.257  -3.865  0.00  0.00     0.210 C 
ENDBRANCH   1  19
BRANCH   4  21
ATOM     21  O   UNL d   1      -5.030   4.854  -2.140  0.00  0.00    -0.353 OA
ATOM     22  C   UNL d   1      -4.589   5.835  -3.063  0.00  0.00     0.210 C 
ENDBRANCH   4  21
TORSDOF 3
