REMARK  2 active torsions:
REMARK  status: ('A' for Active; 'I' for Inactive)
REMARK    1  A    between atoms: C_8  and  C_1 
REMARK    2  A    between atoms: C_12  and  N_10 
ROOT
ATOM      1  C   UNL d   1      -0.156  -1.076  -0.056  0.00  0.00     0.177 A 
ATOM      2  O   UNL d   1      -1.086  -0.072  -0.125  0.00  0.00    -0.259 OA
ATOM      3  C   UNL d   1      -0.303   1.049  -0.127  0.00  0.00     0.245 A 
ATOM      4  N   UNL d   1       1.078  -0.615  -0.045  0.00  0.00    -0.276 N 
ATOM      5  HN  UNL d   1       1.935  -1.166  -0.000  1.00  0.00     0.189 HD
ATOM      6  N   UNL d   1       0.981   0.758  -0.107  0.00  0.00    -0.263 N 
ATOM      7  HN  UNL d   1       1.755   1.421  -0.133  1.00  0.00     0.190 HD
ATOM      8  N   UNL d   1      -0.865   2.269  -0.202  0.00  0.00    -0.321 N 
ATOM      9  H   UNL d   1      -0.197   3.028  -0.274  0.00  0.00     0.169 HD
ENDROOT
BRANCH   1  10
ATOM     10  C   UNL d   1      -0.667  -2.445  -0.009  0.00  0.00     0.028 A 
ATOM     11  C   UNL d   1      -0.009  -3.478   0.726  0.00  0.00    -0.011 A 
ATOM     12  C   UNL d   1      -0.543  -4.793   0.674  0.00  0.00    -0.025 A 
ATOM     13  C   UNL d   1       1.146  -3.284   1.526  0.00  0.00     0.013 A 
ATOM     14  C   UNL d   1       0.082  -5.839   1.374  0.00  0.00     0.012 A 
ATOM     15  C   UNL d   1      -1.700  -5.054  -0.074  0.00  0.00     0.012 A 
ATOM     16  C   UNL d   1       1.222  -5.613   2.141  0.00  0.00     0.001 A 
ATOM     17  C   UNL d   1       1.752  -4.334   2.222  0.00  0.00     0.001 A 
ATOM     18  C   UNL d   1      -2.347  -4.039  -0.770  0.00  0.00     0.002 A 
ATOM     19  C   UNL d   1      -1.835  -2.746  -0.737  0.00  0.00     0.017 A 
ENDBRANCH   1  10
BRANCH   8  20
ATOM     20  C   UNL d   1      -2.158   2.699   0.151  0.00  0.00     0.035 A 
ATOM     21  C   UNL d   1      -3.148   1.871   0.693  0.00  0.00     0.029 A 
ATOM     22  C   UNL d   1      -4.421   2.368   0.996  0.00  0.00     0.002 A 
ATOM     23  C   UNL d   1      -4.732   3.701   0.747  0.00  0.00     0.000 A 
ATOM     24  C   UNL d   1      -3.773   4.536   0.185  0.00  0.00     0.002 A 
ATOM     25  C   UNL d   1      -2.503   4.035  -0.116  0.00  0.00     0.029 A 
ENDBRANCH   8  20
TORSDOF 2
