REMARK  5 active torsions:
REMARK  status: ('A' for Active; 'I' for Inactive)
REMARK    1  A    between atoms: C_2  and  C_1 
REMARK    2  A    between atoms: O_3  and  C_1 
REMARK    3  A    between atoms: C_6  and  C_1 
REMARK    4  A    between atoms: O_8  and  C_2 
REMARK    5  A    between atoms: C_4  and  O_3 
ROOT
ATOM      1  C   UNL d   1       0.908   0.061   0.124  0.00  0.00     0.262 C 
ENDROOT
BRANCH   1   2
ATOM      2  C   UNL d   1       0.402  -0.588   1.428  0.00  0.00     0.175 C 
ATOM      3  O   UNL d   1       0.079   0.036   2.432  0.00  0.00    -0.648 OA
BRANCH   2   4
ATOM      4  O   UNL d   1       0.348  -1.943   1.387  0.00  0.00    -0.774 OA
ATOM      5  H   UNL d   1       0.590  -2.332   0.526  0.00  0.00     0.167 HD
ENDBRANCH   2   4
ENDBRANCH   1   2
BRANCH   1   6
ATOM      6  O   UNL d   1       0.454   1.414  -0.006  0.00  0.00    -0.301 OA
BRANCH   6   7
ATOM      7  C   UNL d   1      -0.860   1.524  -0.325  0.00  0.00     0.256 C 
ATOM      8  O   UNL d   1      -1.601   0.580  -0.567  0.00  0.00    -0.266 OA
ATOM      9  C   UNL d   1      -1.284   2.960  -0.357  0.00  0.00     0.126 C 
ENDBRANCH   6   7
ENDBRANCH   1   6
BRANCH   1  10
ATOM     10  C   UNL d   1       2.424   0.105   0.069  0.00  0.00    -0.019 A 
ATOM     11  C   UNL d   1       3.121  -0.542  -0.965  0.00  0.00     0.010 A 
ATOM     12  C   UNL d   1       4.513  -0.449  -1.047  0.00  0.00     0.001 A 
ATOM     13  C   UNL d   1       5.222   0.287  -0.101  0.00  0.00     0.000 A 
ATOM     14  C   UNL d   1       4.545   0.928   0.934  0.00  0.00     0.001 A 
ATOM     15  C   UNL d   1       3.155   0.837   1.020  0.00  0.00     0.010 A 
ENDBRANCH   1  10
TORSDOF 5
