REMARK  5 active torsions:
REMARK  status: ('A' for Active; 'I' for Inactive)
REMARK    1  A    between atoms: C_2  and  C_1 
REMARK    2  A    between atoms: O_8  and  C_1 
REMARK    3  A    between atoms: C_6  and  C_2 
REMARK    4  A    between atoms: N_4  and  C_6 
REMARK    5  A    between atoms: C_5  and  N_4 
ROOT
ATOM      1  N   UNL d   1       0.658   2.685   2.554  0.00  0.00    -0.292 NA
ATOM      2  H   UNL d   1      -0.274   2.428   2.874  0.00  0.00     0.127 HD
ENDROOT
BRANCH   1   3
ATOM      3  C   UNL d   1       1.323   1.660   1.748  0.00  0.00     0.103 C 
BRANCH   3   4
ATOM      4  C   UNL d   1       0.353   1.085   0.723  0.00  0.00     0.124 C 
BRANCH   4   5
ATOM      5  C   UNL d   1       1.063   0.083  -0.149  0.00  0.00     0.140 C 
ATOM      6  O   UNL d   1       2.229  -0.254  -0.030  0.00  0.00    -0.650 OA
BRANCH   5   7
ATOM      7  O   UNL d   1       0.257  -0.438  -1.104  0.00  0.00    -0.776 OA
ATOM      8  H   UNL d   1      -0.652  -0.083  -1.097  0.00  0.00     0.167 HD
ENDBRANCH   5   7
ENDBRANCH   4   5
ENDBRANCH   3   4
ENDBRANCH   1   3
BRANCH   1   9
ATOM      9  C   UNL d   1       1.375   3.320   3.577  0.00  0.00     0.008 A 
ATOM     10  C   UNL d   1       2.763   3.219   3.737  0.00  0.00     0.025 A 
ATOM     11  C   UNL d   1       3.433   3.928   4.741  0.00  0.00     0.025 A 
ATOM     12  C   UNL d   1       2.722   4.780   5.578  0.00  0.00     0.034 A 
ATOM     13  C   UNL d   1       1.350   4.931   5.416  0.00  0.00     0.025 A 
ATOM     14 CL   UNL d   1       3.546   5.660   6.805  0.00  0.00    -0.084 Cl
ATOM     15  C   UNL d   1       0.686   4.211   4.416  0.00  0.00     0.025 A 
ENDBRANCH   1   9
TORSDOF 5
