REMARK  1 active torsions:
REMARK  status: ('A' for Active; 'I' for Inactive)
REMARK    1  A    between atoms: C_11  and  C_6 
ROOT
ATOM      1  N   UNL d   1       2.825   0.835  -0.006  0.00  0.00    -0.358 N 
ATOM      2  HN  UNL d   1       3.299   1.738   0.016  1.00  0.00     0.166 HD
ATOM      3  C   UNL d   1       0.737  -0.427  -0.003  0.00  0.00    -0.003 A 
ATOM      4  C   UNL d   1       1.461   0.769   0.005  0.00  0.00     0.021 A 
ATOM      5  C   UNL d   1      -0.742  -0.431   0.017  0.00  0.00    -0.018 A 
ATOM      6  C   UNL d   1       3.540  -0.314  -0.046  0.00  0.00     0.042 A 
ATOM      7  C   UNL d   1       1.511  -1.598  -0.022  0.00  0.00     0.016 A 
ATOM      8  C   UNL d   1      -1.449   0.787   0.005  0.00  0.00    -0.047 A 
ATOM      9  C   UNL d   1       2.906  -1.544  -0.037  0.00  0.00     0.031 A 
ATOM     10  C   UNL d   1       0.775   2.101   0.083  0.00  0.00     0.062 C 
ATOM     11  C   UNL d   1      -0.743   2.113  -0.075  0.00  0.00     0.045 C 
ATOM     12  C   UNL d   1      -1.502  -1.618   0.038  0.00  0.00     0.013 A 
ATOM     13  C   UNL d   1      -2.859   0.794   0.010  0.00  0.00     0.008 A 
ATOM     14  C   UNL d   1      -2.901  -1.602   0.043  0.00  0.00     0.001 A 
ATOM     15  C   UNL d   1      -3.580  -0.395   0.031  0.00  0.00     0.001 A 
ENDROOT
BRANCH   6  16
ATOM     16  C   UNL d   1       5.009  -0.167  -0.102  0.00  0.00    -0.009 A 
ATOM     17  C   UNL d   1       5.657   0.908   0.533  0.00  0.00     0.013 A 
ATOM     18  C   UNL d   1       7.045   1.068   0.459  0.00  0.00     0.001 A 
ATOM     19  C   UNL d   1       7.815   0.155  -0.257  0.00  0.00     0.000 A 
ATOM     20  C   UNL d   1       7.200  -0.920  -0.889  0.00  0.00     0.001 A 
ATOM     21  C   UNL d   1       5.814  -1.078  -0.812  0.00  0.00     0.013 A 
ENDBRANCH   6  16
TORSDOF 1
