REMARK  3 active torsions:
REMARK  status: ('A' for Active; 'I' for Inactive)
REMARK    1  A    between atoms: N_13  and  C_2 
REMARK    2  A    between atoms: N_14  and  N_13 
REMARK    3  A    between atoms: C_16  and  C_18 
ROOT
ATOM      1  N   UNL d   1      -1.061   0.860  -0.026  0.00  0.00    -0.067 N 
ATOM      2  C   UNL d   1       0.207   1.473  -0.032  0.00  0.00     0.168 A 
ATOM      3  C   UNL d   1      -1.205  -0.541  -0.008  0.00  0.00     0.706 A 
ATOM      4  C   UNL d   1       1.274   0.657  -0.019  0.00  0.00     0.013 A 
ATOM      5  N   UNL d   1      -0.128  -1.386  -0.004  0.00  0.00    -0.193 N 
ATOM      6  HN  UNL d   1      -0.228  -2.401   0.003  1.00  0.00     0.184 HD
ATOM      7  N   UNL d   1      -2.487  -0.836   0.002  0.00  0.00    -0.184 N 
ATOM      8  HN  UNL d   1      -2.921  -1.759   0.017  1.00  0.00     0.185 HD
ATOM      9  C   UNL d   1       1.027  -0.801  -0.009  0.00  0.00     0.036 A 
ATOM     10  N   UNL d   1      -2.294   1.444  -0.031  0.00  0.00    -0.273 N 
ATOM     11  HN  UNL d   1      -2.537   2.434  -0.045  1.00  0.00     0.189 HD
ATOM     12  C   UNL d   1      -3.097   0.380  -0.011  0.00  0.00     0.215 A 
ATOM     13  C   UNL d   1       2.738   0.909  -0.020  0.00  0.00     0.045 A 
ATOM     14  C   UNL d   1       2.319  -1.556  -0.016  0.00  0.00     0.058 A 
ATOM     15  C   UNL d   1       3.397  -0.471   0.011  0.00  0.00     0.011 A 
ENDROOT
BRANCH   2  16
ATOM     16  N   UNL d   1       0.273   2.864  -0.048  0.00  0.00    -0.283 N 
ATOM     17  H   UNL d   1      -0.634   3.342  -0.062  0.00  0.00     0.188 HD
BRANCH  16  18
ATOM     18  N   UNL d   1       1.458   3.508   0.005  0.00  0.00    -0.309 N 
ATOM     19  C   UNL d   1       1.480   4.800   0.014  0.00  0.00     0.126 C 
ATOM     20  HN  UNL d   1       2.329   2.979   0.039  1.00  0.00     0.186 HD
BRANCH  19  21
ATOM     21  C   UNL d   1       2.772   5.444   0.079  0.00  0.00     0.021 A 
ATOM     22  S   UNL d   1       2.890   7.146   0.096  0.00  0.00    -0.101 SA
ATOM     23  C   UNL d   1       4.601   7.087   0.178  0.00  0.00     0.050 A 
ATOM     24  C   UNL d   1       5.076   5.795   0.194  0.00  0.00     0.008 A 
ATOM     25  C   UNL d   1       4.018   4.846   0.137  0.00  0.00     0.021 A 
ENDBRANCH  19  21
ENDBRANCH  16  18
ENDBRANCH   2  16
TORSDOF 3
