REMARK  8 active torsions:
REMARK  status: ('A' for Active; 'I' for Inactive)
REMARK    1  A    between atoms: C_2  and  C_1 
REMARK    2  A    between atoms: C_5  and  C_8 
REMARK    3  A    between atoms: C_13  and  C_10 
REMARK    4  A    between atoms: O_21  and  C_11 
REMARK    5  A    between atoms: C_16  and  C_13 
REMARK    6  A    between atoms: O_22  and  C_16 
REMARK    7  A    between atoms: C_23  and  O_21 
REMARK    8  A    between atoms: C_24  and  O_22 
ROOT
ATOM      1  C   UNL d   1       0.057  -2.626   0.061  0.00  0.00     0.100 A 
ATOM      2  N   UNL d   1      -0.585  -3.177  -1.014  0.00  0.00    -0.361 N 
ATOM      3  HN  UNL d   1      -0.922  -2.592  -1.778  1.00  0.00     0.165 HD
ATOM      4  C   UNL d   1      -0.312  -5.365  -0.044  0.00  0.00     0.066 A 
ATOM      5  C   UNL d   1       0.504  -3.407   1.141  0.00  0.00     0.099 A 
ATOM      6  C   UNL d   1       0.321  -4.793   1.066  0.00  0.00     0.056 A 
ATOM      7  C   UNL d   1      -0.760  -4.514  -1.038  0.00  0.00     0.104 A 
ENDROOT
BRANCH   1   8
ATOM      8  C   UNL d   1       0.241  -1.158  -0.058  0.00  0.00     0.104 A 
ATOM      9  N   UNL d   1      -0.584  -0.339  -0.688  0.00  0.00    -0.351 N 
ATOM     10  C   UNL d   1      -0.108   0.965  -0.672  0.00  0.00     0.026 A 
ATOM     11  HN  UNL d   1      -1.458  -0.627  -1.128  1.00  0.00     0.166 HD
ATOM     12  C   UNL d   1       1.102   1.125  -0.030  0.00  0.00     0.077 A 
ATOM     13  S   UNL d   1       1.677  -0.383   0.523  0.00  0.00    -0.080 SA
BRANCH  10  14
ATOM     14  C   UNL d   1      -0.893   2.026  -1.368  0.00  0.00     0.168 C 
BRANCH  14  15
ATOM     15  C   UNL d   1      -1.458   3.059  -0.423  0.00  0.00     0.264 C 
ATOM     16  O   UNL d   1      -1.257   3.136   0.782  0.00  0.00    -0.265 OA
BRANCH  15  17
ATOM     17  O   UNL d   1      -2.269   3.899  -1.132  0.00  0.00    -0.322 OA
BRANCH  17  18
ATOM     18  C   UNL d   1      -3.160   4.703  -0.347  0.00  0.00     0.174 C 
ATOM     19  C   UNL d   1      -4.432   3.906  -0.126  0.00  0.00     0.034 C 
ENDBRANCH  17  18
ENDBRANCH  15  17
ENDBRANCH  14  15
ENDBRANCH  10  14
ENDBRANCH   1   8
BRANCH   5  20
ATOM     20  O   UNL d   1       1.063  -2.774   2.215  0.00  0.00    -0.349 OA
BRANCH  20  21
ATOM     21  C   UNL d   1       1.653  -3.558   3.249  0.00  0.00     0.171 C 
ATOM     22  C   UNL d   1       2.299  -2.602   4.236  0.00  0.00     0.034 C 
ENDBRANCH  20  21
ENDBRANCH   5  20
BRANCH   4  23
ATOM     23  C   UNL d   1      -0.515  -6.842  -0.186  0.00  0.00     0.418 C 
ATOM     24  F   UNL d   1       0.025  -7.561   0.837  0.00  0.00    -0.166 F 
ATOM     25  F   UNL d   1      -1.830  -7.189  -0.233  0.00  0.00    -0.166 F 
ATOM     26  F   UNL d   1       0.045  -7.337  -1.323  0.00  0.00    -0.166 F 
ENDBRANCH   4  23
TORSDOF 8
