REMARK  5 active torsions:
REMARK  status: ('A' for Active; 'I' for Inactive)
REMARK       I    between atoms: C_2  and  N_1 
REMARK    1  A    between atoms: C_11  and  C_2 
REMARK    2  A    between atoms: O_16  and  C_7 
REMARK    3  A    between atoms: O_15  and  C_8 
REMARK    4  A    between atoms: O_14  and  C_11 
REMARK    5  A    between atoms: C_17  and  O_14 
ROOT
ATOM      1  N   UNL d   1       2.370   0.726   0.274  0.00  0.00    -0.346 N 
ATOM      2  C   UNL d   1       3.515   1.365   0.735  0.00  0.00     0.244 C 
ATOM      3  C   UNL d   1      -0.076   0.717  -0.148  0.00  0.00    -0.031 A 
ATOM      4  C   UNL d   1       1.249   1.405  -0.377  0.00  0.00     0.165 C 
ATOM      5  C   UNL d   1      -0.130  -0.680  -0.137  0.00  0.00    -0.046 A 
ATOM      6  C   UNL d   1      -1.258   1.453   0.004  0.00  0.00     0.049 A 
ATOM      7  C   UNL d   1      -2.498   0.819   0.187  0.00  0.00     0.102 A 
ATOM      8  C   UNL d   1      -2.550  -0.588   0.175  0.00  0.00     0.102 A 
ATOM      9  C   UNL d   1      -1.362  -1.323   0.007  0.00  0.00     0.047 A 
ATOM     10  C   UNL d   1       2.275  -0.728   0.484  0.00  0.00     0.131 C 
ATOM     11  O   UNL d   1       4.424   0.733   1.287  0.00  0.00    -0.271 OA
ATOM     12  C   UNL d   1       1.162  -1.429  -0.304  0.00  0.00     0.059 C 
ENDROOT
BRANCH   2  13
ATOM     13  C   UNL d   1       3.640   2.888   0.588  0.00  0.00     0.278 C 
BRANCH  13  14
ATOM     14  O   UNL d   1       4.004   3.249  -0.738  0.00  0.00    -0.342 OA
BRANCH  14  15
ATOM     15  C   UNL d   1       4.391   4.552  -0.922  0.00  0.00     0.069 A 
ATOM     16  C   UNL d   1       4.058   5.622  -0.086  0.00  0.00     0.037 A 
ATOM     17  C   UNL d   1       4.484   6.918  -0.397  0.00  0.00     0.003 A 
ATOM     18  C   UNL d   1       5.244   7.154  -1.540  0.00  0.00     0.000 A 
ATOM     19  C   UNL d   1       5.580   6.092  -2.377  0.00  0.00     0.003 A 
ATOM     20  C   UNL d   1       5.149   4.798  -2.068  0.00  0.00     0.037 A 
ENDBRANCH  14  15
ENDBRANCH  13  14
ENDBRANCH   2  13
BRANCH   7  21
ATOM     21  O   UNL d   1      -3.661   1.519   0.369  0.00  0.00    -0.353 OA
ATOM     22  C   UNL d   1      -3.589   2.936   0.455  0.00  0.00     0.210 C 
ENDBRANCH   7  21
BRANCH   8  23
ATOM     23  O   UNL d   1      -3.644  -1.405   0.313  0.00  0.00    -0.353 OA
ATOM     24  C   UNL d   1      -4.924  -0.818   0.501  0.00  0.00     0.210 C 
ENDBRANCH   8  23
TORSDOF 5
