REMARK  3 active torsions:
REMARK  status: ('A' for Active; 'I' for Inactive)
REMARK    1  A    between atoms: C_2  and  C_1 
REMARK    2  A    between atoms: N_6  and  C_3 
REMARK       I    between atoms: C_8  and  N_6 
REMARK       I    between atoms: N_12  and  C_8 
REMARK    3  A    between atoms: C_16  and  N_12 
ROOT
ATOM      1  C   UNL d   1      -4.014  -1.033   0.175  0.00  0.00     0.032 A 
ATOM      2  C   UNL d   1      -4.418  -1.056  -1.157  0.00  0.00     0.090 A 
ATOM      3  S   UNL d   1      -5.835  -2.005  -1.352  0.00  0.00    -0.083 SA
ATOM      4  C   UNL d   1      -4.906  -1.816   0.998  0.00  0.00     0.024 A 
ATOM      5  C   UNL d   1      -5.932  -2.389   0.293  0.00  0.00     0.053 A 
ENDROOT
BRANCH   2   6
ATOM      6  N   UNL d   1      -3.800  -0.516  -2.283  0.00  0.00    -0.302 N 
ATOM      7  C   UNL d   1      -4.157  -0.589  -3.619  0.00  0.00     0.325 C 
ATOM      8  N   UNL d   1      -5.497  -0.687  -3.898  0.00  0.00    -0.309 N 
ATOM      9  O   UNL d   1      -3.279  -0.472  -4.473  0.00  0.00    -0.247 OA
ATOM     10  H   UNL d   1      -6.099  -0.426  -3.130  0.00  0.00     0.170 HD
ATOM     11  H   UNL d   1      -2.849  -0.188  -2.139  0.00  0.00     0.171 HD
BRANCH   8  12
ATOM     12  C   UNL d   1      -6.119  -0.927  -5.143  0.00  0.00     0.037 A 
ATOM     13  C   UNL d   1      -7.471  -0.589  -5.270  0.00  0.00     0.053 A 
ATOM     14  C   UNL d   1      -8.145  -0.804  -6.477  0.00  0.00     0.036 A 
ATOM     15 CL   UNL d   1      -9.789  -0.318  -6.637  0.00  0.00    -0.084 Cl
ATOM     16  C   UNL d   1      -7.494  -1.397  -7.554  0.00  0.00     0.024 A 
ATOM     17  C   UNL d   1      -6.157  -1.770  -7.423  0.00  0.00     0.004 A 
ATOM     18  C   UNL d   1      -5.469  -1.526  -6.226  0.00  0.00     0.029 A 
ENDBRANCH   8  12
ENDBRANCH   2   6
BRANCH   1  19
ATOM     19  C   UNL d   1      -2.812  -0.312   0.775  0.00  0.00     0.088 A 
ATOM     20  N   UNL d   1      -2.013   0.509   0.128  0.00  0.00    -0.349 N 
ATOM     21  C   UNL d   1      -1.069   1.056   1.014  0.00  0.00     0.050 A 
ATOM     22  HN  UNL d   1      -2.070   0.717  -0.869  1.00  0.00     0.166 HD
ATOM     23  C   UNL d   1      -0.072   2.015   0.721  0.00  0.00     0.031 A 
ATOM     24  C   UNL d   1      -1.145   0.594   2.326  0.00  0.00     0.033 A 
ATOM     25  C   UNL d   1       0.793   2.470   1.732  0.00  0.00     0.002 A 
ATOM     26  C   UNL d   1       0.689   1.982   3.030  0.00  0.00     0.002 A 
ATOM     27  C   UNL d   1      -0.281   1.035   3.346  0.00  0.00     0.021 A 
ATOM     28  S   UNL d   1      -2.422  -0.530   2.448  0.00  0.00    -0.069 SA
ENDBRANCH   1  19
TORSDOF 3
