REMARK  4 active torsions:
REMARK  status: ('A' for Active; 'I' for Inactive)
REMARK    1  A    between atoms: C_2  and  S_1 
REMARK    2  A    between atoms: N_8  and  S_1 
REMARK    3  A    between atoms: C_14  and  N_8 
REMARK       I    between atoms: C_11  and  N_12 
REMARK    4  A    between atoms: N_12  and  C_15 
ROOT
ATOM      1  N   UNL d   1       0.239  -1.403  -0.896  0.00  0.00    -0.181 NA
ATOM      2  H   UNL d   1       0.929  -1.699  -0.204  0.00  0.00     0.146 HD
ENDROOT
BRANCH   1   3
ATOM      3  S   UNL d   1      -0.268   0.162  -0.477  0.00  0.00     0.250 S 
ATOM      4  O   UNL d   1      -0.732   0.086   0.892  0.00  0.00    -0.205 OA
ATOM      5  O   UNL d   1       0.768   1.097  -0.852  0.00  0.00    -0.205 OA
BRANCH   3   6
ATOM      6  C   UNL d   1      -1.642   0.594  -1.389  0.00  0.00     0.130 A 
ATOM      7  C   UNL d   1      -1.693   1.324  -2.554  0.00  0.00     0.097 A 
ATOM      8  O   UNL d   1      -2.992   1.424  -2.948  0.00  0.00    -0.241 OA
ATOM      9  C   UNL d   1      -0.714   1.993  -3.429  0.00  0.00     0.081 C 
ATOM     10  N   UNL d   1      -3.804   0.750  -2.058  0.00  0.00    -0.264 N 
ATOM     11  C   UNL d   1      -2.987   0.251  -1.120  0.00  0.00     0.054 A 
ATOM     12  HN  UNL d   1      -4.818   0.652  -2.104  1.00  0.00     0.194 HD
ATOM     13  C   UNL d   1      -3.558  -0.545  -0.007  0.00  0.00     0.072 C 
ENDBRANCH   3   6
ENDBRANCH   1   3
BRANCH   1  14
ATOM     14  C   UNL d   1       0.675  -1.592  -2.242  0.00  0.00     0.023 A 
ATOM     15  C   UNL d   1       1.987  -1.312  -2.621  0.00  0.00     0.026 A 
ATOM     16  C   UNL d   1       2.374  -1.472  -3.957  0.00  0.00     0.031 A 
ATOM     17  C   UNL d   1       1.453  -1.902  -4.924  0.00  0.00     0.034 A 
ATOM     18  C   UNL d   1       0.141  -2.166  -4.527  0.00  0.00     0.031 A 
ATOM     19  C   UNL d   1      -0.249  -2.007  -3.195  0.00  0.00     0.026 A 
BRANCH  17  20
ATOM     20  N   UNL d   1       1.913  -2.032  -6.253  0.00  0.00    -0.328 N 
ATOM     21  C   UNL d   1       1.172  -2.420  -7.357  0.00  0.00     0.218 C 
ATOM     22  O   UNL d   1      -0.013  -2.738  -7.370  0.00  0.00    -0.274 OA
ATOM     23  C   UNL d   1       1.963  -2.420  -8.642  0.00  0.00     0.117 C 
ATOM     24  H   UNL d   1       2.888  -1.809  -6.410  0.00  0.00     0.169 HD
ENDBRANCH  17  20
ENDBRANCH   1  14
TORSDOF 4
