REMARK  5 active torsions:
REMARK  status: ('A' for Active; 'I' for Inactive)
REMARK    1  A    between atoms: C_6  and  N_1 
REMARK    2  A    between atoms: C_8  and  C_3 
REMARK    3  A    between atoms: C_10  and  C_6 
REMARK    4  A    between atoms: O_11  and  C_8 
REMARK    5  A    between atoms: C_12  and  C_10 
ROOT
ATOM      1  N   UNL d   1       0.891   0.439   0.043  0.00  0.00    -0.298 N 
ATOM      2  C   UNL d   1      -0.043   0.559  -0.967  0.00  0.00     0.148 A 
ATOM      3  C   UNL d   1      -0.821  -0.924   0.916  0.00  0.00     0.097 A 
ATOM      4  C   UNL d   1       0.525  -0.340   1.129  0.00  0.00     0.268 A 
ATOM      5  S   UNL d   1      -1.476  -0.387  -0.575  0.00  0.00    -0.053 SA
ATOM      6  S   UNL d   1       0.067   1.440  -2.379  0.00  0.00    -0.052 SA
ATOM      7  O   UNL d   1       1.191  -0.535   2.137  0.00  0.00    -0.266 OA
ENDROOT
BRANCH   1   8
ATOM      8  C   UNL d   1       2.200   1.107   0.072  0.00  0.00     0.138 C 
BRANCH   8   9
ATOM      9  C   UNL d   1       3.367   0.119  -0.068  0.00  0.00     0.059 C 
BRANCH   9  10
ATOM     10  C   UNL d   1       4.714   0.794   0.024  0.00  0.00    -0.057 A 
ATOM     11  C   UNL d   1       5.293   1.055   1.275  0.00  0.00     0.007 A 
ATOM     12  C   UNL d   1       6.553   1.650   1.363  0.00  0.00     0.001 A 
ATOM     13  C   UNL d   1       7.244   1.995   0.204  0.00  0.00     0.000 A 
ATOM     14  C   UNL d   1       6.672   1.755  -1.044  0.00  0.00     0.001 A 
ATOM     15  C   UNL d   1       5.411   1.161  -1.135  0.00  0.00     0.007 A 
ENDBRANCH   9  10
ENDBRANCH   8   9
ENDBRANCH   1   8
BRANCH   3  16
ATOM     16  C   UNL d   1      -1.398  -1.753   1.796  0.00  0.00     0.158 C 
BRANCH  16  17
ATOM     17  O   UNL d   1      -2.643  -2.296   1.607  0.00  0.00    -0.366 OA
ATOM     18  C   UNL d   1      -3.041  -3.156   2.670  0.00  0.00     0.209 C 
ENDBRANCH  16  17
ENDBRANCH   3  16
TORSDOF 5
