REMARK  7 active torsions:
REMARK  status: ('A' for Active; 'I' for Inactive)
REMARK    1  A    between atoms: C_5  and  C_1 
REMARK    2  A    between atoms: C_7  and  C_1 
REMARK    3  A    between atoms: C_3  and  C_2 
REMARK    4  A    between atoms: C_10  and  C_3 
REMARK    5  A    between atoms: C_4  and  C_5 
REMARK    6  A    between atoms: C_6  and  C_4 
REMARK    7  A    between atoms: O_16  and  C_13 
ROOT
ATOM      1  C   UNL d   1       0.997  -0.024   0.379  0.00  0.00    -0.037 C 
ATOM      2  C   UNL d   1       0.201  -0.872   1.057  0.00  0.00     0.064 C 
ENDROOT
BRANCH   1   3
ATOM      3  C   UNL d   1       2.430  -0.248  -0.041  0.00  0.00     0.123 C 
BRANCH   3   4
ATOM      4  C   UNL d   1       3.412   0.817   0.431  0.00  0.00     0.163 C 
ATOM      5  O   UNL d   1       3.626   1.818  -0.260  0.00  0.00    -0.292 OA
BRANCH   4   6
ATOM      6  C   UNL d   1       4.142   0.681   1.734  0.00  0.00     0.010 A 
ATOM      7  C   UNL d   1       3.903  -0.332   2.671  0.00  0.00     0.018 A 
ATOM      8  C   UNL d   1       4.613  -0.360   3.887  0.00  0.00     0.037 A 
ATOM      9  C   UNL d   1       5.567   0.618   4.170  0.00  0.00     0.068 A 
ATOM     10  C   UNL d   1       5.837   1.602   3.222  0.00  0.00     0.037 A 
ATOM     11  C   UNL d   1       5.125   1.640   2.022  0.00  0.00     0.018 A 
BRANCH   9  12
ATOM     12  O   UNL d   1       6.330   0.683   5.302  0.00  0.00    -0.356 OA
ATOM     13  C   UNL d   1       5.699   0.243   6.498  0.00  0.00     0.210 C 
ENDBRANCH   9  12
ENDBRANCH   4   6
ENDBRANCH   3   4
ENDBRANCH   1   3
BRANCH   1  14
ATOM     14  C   UNL d   1       0.343   1.258   0.036  0.00  0.00    -0.029 A 
ATOM     15  C   UNL d   1       0.434   2.338   0.926  0.00  0.00     0.012 A 
ATOM     16  C   UNL d   1      -0.325   3.492   0.722  0.00  0.00     0.001 A 
ATOM     17  C   UNL d   1      -1.186   3.576  -0.369  0.00  0.00     0.000 A 
ATOM     18  C   UNL d   1      -1.279   2.513  -1.267  0.00  0.00     0.001 A 
ATOM     19  C   UNL d   1      -0.517   1.356  -1.067  0.00  0.00     0.012 A 
ENDBRANCH   1  14
BRANCH   2  20
ATOM     20  C   UNL d   1       0.575  -2.204   1.601  0.00  0.00     0.182 C 
ATOM     21  O   UNL d   1       1.477  -2.884   1.134  0.00  0.00    -0.288 OA
BRANCH  20  22
ATOM     22  C   UNL d   1      -0.223  -2.690   2.762  0.00  0.00     0.014 A 
ATOM     23  C   UNL d   1      -0.311  -4.069   2.982  0.00  0.00     0.015 A 
ATOM     24  C   UNL d   1      -1.044  -4.556   4.065  0.00  0.00     0.001 A 
ATOM     25  C   UNL d   1      -1.682  -3.672   4.934  0.00  0.00     0.000 A 
ATOM     26  C   UNL d   1      -1.585  -2.297   4.728  0.00  0.00     0.001 A 
ATOM     27  C   UNL d   1      -0.851  -1.804   3.649  0.00  0.00     0.015 A 
ENDBRANCH  20  22
ENDBRANCH   2  20
TORSDOF 7
