REMARK  6 active torsions:
REMARK  status: ('A' for Active; 'I' for Inactive)
REMARK    1  A    between atoms: C_3  and  C_6 
REMARK    2  A    between atoms: C_9  and  C_4 
REMARK    3  A    between atoms: C_6  and  O_11 
REMARK    4  A    between atoms: C_8  and  C_15 
REMARK    5  A    between atoms: C_15  and  C_10 
REMARK    6  A    between atoms: O_11  and  C_14 
ROOT
ATOM      1  C   UNL d   1      -0.996  -3.384   0.981  0.00  0.00    -0.022 A 
ATOM      2  C   UNL d   1       0.398  -3.635   1.006  0.00  0.00     0.075 A 
ATOM      3  C   UNL d   1      -1.855  -4.492   1.034  0.00  0.00     0.010 A 
ATOM      4  C   UNL d   1       0.867  -4.947   1.189  0.00  0.00     0.037 A 
ATOM      5  C   UNL d   1      -1.376  -5.795   1.163  0.00  0.00     0.001 A 
ATOM      6  C   UNL d   1      -0.015  -6.023   1.261  0.00  0.00     0.003 A 
ENDROOT
BRANCH   1   7
ATOM      7  C   UNL d   1      -1.512  -1.958   0.846  0.00  0.00     0.076 C 
BRANCH   7   8
ATOM      8  C   UNL d   1      -2.948  -1.550   1.260  0.00  0.00     0.162 C 
ATOM      9  O   UNL d   1      -3.195  -1.824   2.645  0.00  0.00    -0.274 OA
ATOM     10  N   UNL d   1      -4.318  -2.672   2.761  0.00  0.00    -0.270 N 
ATOM     11  C   UNL d   1      -4.795  -2.874   1.576  0.00  0.00     0.045 C 
ATOM     12  HN  UNL d   1      -4.689  -3.058   3.629  1.00  0.00     0.194 HD
ATOM     13  C   UNL d   1      -4.107  -2.134   0.481  0.00  0.00     0.094 C 
BRANCH  11  14
ATOM     14  C   UNL d   1      -5.931  -3.800   1.323  0.00  0.00    -0.011 A 
ATOM     15  C   UNL d   1      -6.542  -4.435   2.413  0.00  0.00     0.015 A 
ATOM     16  C   UNL d   1      -7.573  -5.358   2.214  0.00  0.00     0.024 A 
ATOM     17  C   UNL d   1      -7.990  -5.653   0.917  0.00  0.00     0.034 A 
ATOM     18  C   UNL d   1      -7.390  -5.029  -0.174  0.00  0.00     0.024 A 
ATOM     19 CL   UNL d   1      -9.246  -6.801   0.662  0.00  0.00    -0.084 Cl
ATOM     20  C   UNL d   1      -6.361  -4.101   0.025  0.00  0.00     0.015 A 
ENDBRANCH  11  14
ENDBRANCH   7   8
ENDBRANCH   1   7
BRANCH   2  21
ATOM     21  O   UNL d   1       1.234  -2.553   0.825  0.00  0.00    -0.346 OA
BRANCH  21  22
ATOM     22  C   UNL d   1       2.632  -2.842   0.705  0.00  0.00     0.217 C 
BRANCH  22  23
ATOM     23  C   UNL d   1       3.391  -1.627   0.222  0.00  0.00     0.009 A 
ATOM     24  C   UNL d   1       3.689  -0.567   1.097  0.00  0.00     0.044 A 
ATOM     25 CL   UNL d   1       3.207  -0.586   2.758  0.00  0.00    -0.084 Cl
ATOM     26  C   UNL d   1       4.416   0.549   0.661  0.00  0.00     0.024 A 
ATOM     27  C   UNL d   1       4.859   0.631  -0.655  0.00  0.00     0.003 A 
ATOM     28  C   UNL d   1       4.573  -0.404  -1.538  0.00  0.00     0.024 A 
ATOM     29  C   UNL d   1       3.842  -1.520  -1.109  0.00  0.00     0.044 A 
ATOM     30 CL   UNL d   1       3.553  -2.748  -2.294  0.00  0.00    -0.084 Cl
ENDBRANCH  22  23
ENDBRANCH  21  22
ENDBRANCH   2  21
TORSDOF 6
