REMARK  2 active torsions:
REMARK  status: ('A' for Active; 'I' for Inactive)
REMARK    1  A    between atoms: C_16  and  N_3 
REMARK    2  A    between atoms: C_12  and  C_8 
ROOT
ATOM      1  C   UNL d   1       1.474  -0.605  -0.145  0.00  0.00     0.137 A 
ATOM      2  C   UNL d   1       1.503   0.770  -0.059  0.00  0.00     0.025 A 
ATOM      3  N   UNL d   1       2.781  -1.047  -0.004  0.00  0.00    -0.239 N 
ATOM      4  N   UNL d   1       3.626   0.004   0.213  0.00  0.00    -0.296 N 
ATOM      5  HN  UNL d   1       4.623  -0.037   0.426  1.00  0.00     0.187 HD
ATOM      6  C   UNL d   1      -0.985   0.693  -0.206  0.00  0.00     0.024 A 
ATOM      7  N   UNL d   1       0.321  -1.320  -0.228  0.00  0.00    -0.343 N 
ATOM      8  C   UNL d   1       0.239   1.591  -0.047  0.00  0.00     0.098 A 
ATOM      9  C   UNL d   1      -0.915  -0.661  -0.263  0.00  0.00     0.022 A 
ATOM     10  C   UNL d   1       2.869   1.101   0.087  0.00  0.00     0.033 A 
ATOM     11  C   UNL d   1      -2.299   1.373  -0.290  0.00  0.00     0.159 C 
ATOM     12  C   UNL d   1      -2.171  -1.501  -0.312  0.00  0.00     0.067 C 
ATOM     13  C   UNL d   1      -3.345  -0.854   0.460  0.00  0.00    -0.036 C 
ATOM     14  C   UNL d   1      -3.564   0.593  -0.017  0.00  0.00     0.092 C 
ATOM     15  O   UNL d   1      -2.360   2.560  -0.610  0.00  0.00    -0.293 OA
ATOM     16  C   UNL d   1       3.496   2.442   0.179  0.00  0.00     0.070 C 
ATOM     17  C   UNL d   1      -3.072  -0.883   1.979  0.00  0.00     0.015 C 
ATOM     18  C   UNL d   1      -4.637  -1.649   0.198  0.00  0.00     0.015 C 
ATOM     19  H   UNL d   1       0.293  -2.334  -0.130  0.00  0.00     0.167 HD
ENDROOT
BRANCH   8  20
ATOM     20  C   UNL d   1       0.248   2.278   1.323  0.00  0.00    -0.023 A 
ATOM     21  C   UNL d   1       0.195   3.674   1.469  0.00  0.00     0.041 A 
ATOM     22 CL   UNL d   1       0.099   4.753   0.121  0.00  0.00    -0.084 Cl
ATOM     23  C   UNL d   1       0.244   4.260   2.740  0.00  0.00     0.024 A 
ATOM     24  C   UNL d   1       0.335   3.467   3.885  0.00  0.00     0.002 A 
ATOM     25  C   UNL d   1       0.359   2.085   3.767  0.00  0.00     0.001 A 
ATOM     26  C   UNL d   1       0.305   1.497   2.503  0.00  0.00     0.010 A 
ENDBRANCH   8  20
BRANCH   3  27
ATOM     27  C   UNL d   1       3.301  -2.364  -0.048  0.00  0.00     0.058 A 
ATOM     28  C   UNL d   1       2.712  -3.345  -0.855  0.00  0.00     0.031 A 
ATOM     29  C   UNL d   1       3.272  -4.623  -0.911  0.00  0.00     0.002 A 
ATOM     30  C   UNL d   1       4.399  -4.933  -0.149  0.00  0.00     0.000 A 
ATOM     31  C   UNL d   1       4.986  -3.961   0.659  0.00  0.00     0.002 A 
ATOM     32  C   UNL d   1       4.452  -2.672   0.695  0.00  0.00     0.031 A 
ENDBRANCH   3  27
TORSDOF 2
