REMARK  2 active torsions:
REMARK  status: ('A' for Active; 'I' for Inactive)
REMARK       I    between atoms: C_3  and  N_1 
REMARK    1  A    between atoms: N_2  and  C_5 
REMARK    2  A    between atoms: C_5  and  C_3 
ROOT
ATOM      1  N   UNL d   1      -1.159   1.417   0.164  0.00  0.00    -0.316 N 
ATOM      2  C   UNL d   1      -1.142   2.619  -0.551  0.00  0.00     0.237 C 
ATOM      3  C   UNL d   1      -0.053   0.577   0.515  0.00  0.00     0.043 A 
ATOM      4  O   UNL d   1      -2.185   3.278  -0.705  0.00  0.00    -0.272 OA
ATOM      5  C   UNL d   1      -0.264  -0.813   0.663  0.00  0.00    -0.031 A 
ATOM      6  C   UNL d   1      -2.474   0.891   0.552  0.00  0.00     0.132 C 
ATOM      7  C   UNL d   1       1.229   1.072   0.772  0.00  0.00     0.030 A 
ATOM      8  C   UNL d   1      -2.676  -0.496  -0.023  0.00  0.00     0.025 C 
ATOM      9  C   UNL d   1      -1.633  -1.439   0.552  0.00  0.00     0.042 C 
ATOM     10  C   UNL d   1       0.815  -1.665   0.961  0.00  0.00     0.009 A 
ATOM     11  C   UNL d   1       2.299   0.218   1.062  0.00  0.00     0.002 A 
ATOM     12  C   UNL d   1       2.095  -1.153   1.138  0.00  0.00     0.001 A 
ENDROOT
BRANCH   2  13
ATOM     13  C   UNL d   1       0.136   3.189  -1.187  0.00  0.00     0.199 C 
BRANCH  13  14
ATOM     14  N   UNL d   1       0.882   2.234  -2.017  0.00  0.00    -0.274 NA
ATOM     15  C   UNL d   1       2.176   2.614  -2.426  0.00  0.00     0.017 A 
ATOM     16  C   UNL d   1       2.500   2.134  -3.698  0.00  0.00    -0.036 A 
ATOM     17  C   UNL d   1       3.127   3.317  -1.701  0.00  0.00     0.024 A 
ATOM     18  C   UNL d   1       3.742   2.353  -4.275  0.00  0.00     0.009 A 
ATOM     19  C   UNL d   1       1.354   1.352  -4.241  0.00  0.00     0.055 C 
ATOM     20  C   UNL d   1       4.688   3.075  -3.549  0.00  0.00     0.001 A 
ATOM     21  C   UNL d   1       4.384   3.551  -2.268  0.00  0.00     0.002 A 
ATOM     22  C   UNL d   1       0.240   1.748  -3.255  0.00  0.00     0.101 C 
ENDBRANCH  13  14
ENDBRANCH   2  13
TORSDOF 2
