REMARK  7 active torsions:
REMARK  status: ('A' for Active; 'I' for Inactive)
REMARK    1  A    between atoms: C_10  and  N_2 
REMARK    2  A    between atoms: C_5  and  N_6 
REMARK    3  A    between atoms: N_6  and  C_21 
REMARK    4  A    between atoms: C_7  and  C_11 
REMARK    5  A    between atoms: C_21  and  C_12 
REMARK    6  A    between atoms: O_20  and  C_13 
REMARK    7  A    between atoms: C_23  and  O_20 
ROOT
ATOM      1  N   UNL d   1       1.037   0.892   0.492  0.00  0.00    -0.197 NA
ATOM      2  C   UNL d   1       2.119   0.485   0.552  0.00  0.00     0.060 C 
ATOM      3  C   UNL d   1       3.497  -0.017   0.631  0.00  0.00     0.143 C 
ENDROOT
BRANCH   3   4
ATOM      4  C   UNL d   1       4.436   1.094   1.115  0.00  0.00     0.136 C 
BRANCH   4   5
ATOM      5  N   UNL d   1       5.821   0.625   1.294  0.00  0.00    -0.384 N 
ATOM      6  C   UNL d   1       6.340   0.633   2.659  0.00  0.00     0.149 C 
BRANCH   5   7
ATOM      7  C   UNL d   1       6.566   0.122   0.238  0.00  0.00     0.029 A 
ATOM      8  C   UNL d   1       6.339   0.539  -1.086  0.00  0.00     0.030 A 
ATOM      9  C   UNL d   1       7.036  -0.008  -2.170  0.00  0.00     0.015 A 
ATOM     10  C   UNL d   1       7.999  -0.987  -1.945  0.00  0.00    -0.021 A 
ATOM     11  C   UNL d   1       8.286  -1.390  -0.645  0.00  0.00     0.015 A 
ATOM     12  C   UNL d   1       7.572  -0.841   0.427  0.00  0.00     0.030 A 
BRANCH  10  13
ATOM     13  C   UNL d   1       8.675  -1.605  -3.100  0.00  0.00     0.099 C 
ATOM     14  N   UNL d   1       9.640  -2.455  -2.955  0.00  0.00    -0.365 N 
ATOM     15  HN  UNL d   1       9.963  -2.714  -2.023  1.00  0.00     0.165 HD
BRANCH  14  16
ATOM     16  C   UNL d   1      10.239  -3.017  -4.095  0.00  0.00     0.032 A 
ATOM     17  C   UNL d   1      10.448  -2.313  -5.285  0.00  0.00     0.032 A 
ATOM     18  C   UNL d   1      11.068  -2.918  -6.383  0.00  0.00     0.039 A 
ATOM     19  C   UNL d   1      11.518  -4.235  -6.300  0.00  0.00     0.068 A 
ATOM     20  C   UNL d   1      11.340  -4.936  -5.106  0.00  0.00     0.039 A 
ATOM     21  C   UNL d   1      10.705  -4.332  -4.015  0.00  0.00     0.032 A 
BRANCH  19  22
ATOM     22  O   UNL d   1      12.145  -4.928  -7.299  0.00  0.00    -0.352 OA
BRANCH  22  23
ATOM     23  C   UNL d   1      12.330  -4.235  -8.533  0.00  0.00     0.171 C 
ATOM     24  C   UNL d   1      13.036  -5.161  -9.505  0.00  0.00     0.034 C 
ENDBRANCH  22  23
ENDBRANCH  19  22
ENDBRANCH  14  16
ENDBRANCH  10  13
ENDBRANCH   5   7
ENDBRANCH   4   5
ENDBRANCH   3   4
TORSDOF 7
