REMARK  5 active torsions:
REMARK  status: ('A' for Active; 'I' for Inactive)
REMARK    1  A    between atoms: C_3  and  O_10 
REMARK    2  A    between atoms: C_4  and  C_9 
REMARK    3  A    between atoms: O_13  and  C_9 
REMARK    4  A    between atoms: C_14  and  O_10 
REMARK    5  A    between atoms: C_15  and  O_13 
ROOT
ATOM      1  C   UNL d   1       3.693   0.048  -1.106  0.00  0.00     0.269 C 
ATOM      2  C   UNL d   1       3.981  -1.120  -1.971  0.00  0.00     0.094 C 
ATOM      3  N   UNL d   1       4.231  -2.023  -2.657  0.00  0.00    -0.194 NA
ENDROOT
BRANCH   1   4
ATOM      4  C   UNL d   1       2.198   0.101  -0.758  0.00  0.00     0.200 C 
ATOM      5  C   UNL d   1       1.775   1.325   0.066  0.00  0.00     0.198 C 
ATOM      6  C   UNL d   1       0.506   0.842   0.750  0.00  0.00     0.212 C 
ATOM      7  C   UNL d   1       0.605  -0.674   0.711  0.00  0.00     0.295 C 
ATOM      8  O   UNL d   1      -0.656   1.186  -0.004  0.00  0.00    -0.343 OA
ATOM      9  O   UNL d   1       1.822  -1.028   0.052  0.00  0.00    -0.347 OA
ATOM     10  O   UNL d   1      -0.518  -1.128  -0.036  0.00  0.00    -0.323 OA
ATOM     11  C   UNL d   1      -1.409  -0.020  -0.121  0.00  0.00     0.160 C 
ATOM     12  C   UNL d   1      -2.103  -0.022  -1.474  0.00  0.00     0.078 C 
ATOM     13  C   UNL d   1      -2.427  -0.110   1.016  0.00  0.00     0.078 C 
BRANCH   5  14
ATOM     14  O   UNL d   1       2.772   1.625   1.064  0.00  0.00    -0.311 OA
BRANCH  14  15
ATOM     15  C   UNL d   1       2.667   2.861   1.628  0.00  0.00     0.255 C 
ATOM     16  O   UNL d   1       1.784   3.667   1.375  0.00  0.00    -0.266 OA
ATOM     17  C   UNL d   1       3.759   3.104   2.623  0.00  0.00     0.126 C 
ENDBRANCH  14  15
ENDBRANCH   5  14
ENDBRANCH   1   4
BRANCH   1  18
ATOM     18  O   UNL d   1       4.048   1.257  -1.819  0.00  0.00    -0.299 OA
BRANCH  18  19
ATOM     19  C   UNL d   1       5.001   2.031  -1.242  0.00  0.00     0.256 C 
ATOM     20  O   UNL d   1       5.552   1.800  -0.178  0.00  0.00    -0.266 OA
ATOM     21  C   UNL d   1       5.285   3.248  -2.070  0.00  0.00     0.126 C 
ENDBRANCH  18  19
ENDBRANCH   1  18
TORSDOF 5
