REMARK  4 active torsions:
REMARK  status: ('A' for Active; 'I' for Inactive)
REMARK    1  A    between atoms: C_7  and  C_1 
REMARK    2  A    between atoms: C_8  and  C_3 
REMARK       I    between atoms: N_9  and  C_7 
REMARK    3  A    between atoms: C_17  and  N_9 
REMARK    4  A    between atoms: O_25  and  C_18 
ROOT
ATOM      1  C   UNL d   1      -0.223  -1.058  -0.245  0.00  0.00     0.097 A 
ATOM      2  S   UNL d   1       1.314  -0.327  -0.436  0.00  0.00    -0.064 SA
ATOM      3  C   UNL d   1       0.624   1.237  -0.192  0.00  0.00     0.085 A 
ATOM      4  N   UNL d   1      -0.687   1.227  -0.049  0.00  0.00    -0.352 N 
ATOM      5  HN  UNL d   1      -1.263   2.062   0.055  1.00  0.00     0.166 HD
ATOM      6  C   UNL d   1      -1.178  -0.070  -0.059  0.00  0.00     0.029 A 
ATOM      7  C   UNL d   1      -2.640  -0.271   0.143  0.00  0.00     0.070 C 
ENDROOT
BRANCH   1   8
ATOM      8  C   UNL d   1      -0.434  -2.501  -0.244  0.00  0.00     0.265 C 
ATOM      9  N   UNL d   1       0.659  -3.276  -0.596  0.00  0.00    -0.322 N 
ATOM     10  H   UNL d   1       1.490  -2.774  -0.883  0.00  0.00     0.169 HD
ATOM     11  O   UNL d   1      -1.531  -2.965   0.051  0.00  0.00    -0.267 OA
BRANCH   9  12
ATOM     12  C   UNL d   1       0.754  -4.688  -0.560  0.00  0.00     0.035 A 
ATOM     13  C   UNL d   1      -0.274  -5.524  -0.119  0.00  0.00     0.032 A 
ATOM     14  C   UNL d   1      -0.099  -6.911  -0.044  0.00  0.00     0.039 A 
ATOM     15  C   UNL d   1       1.113  -7.488  -0.409  0.00  0.00     0.068 A 
ATOM     16  C   UNL d   1       2.133  -6.664  -0.885  0.00  0.00     0.039 A 
ATOM     17  C   UNL d   1       1.960  -5.275  -0.958  0.00  0.00     0.032 A 
BRANCH  15  18
ATOM     18  O   UNL d   1       1.412  -8.820  -0.345  0.00  0.00    -0.356 OA
ATOM     19  C   UNL d   1       0.457  -9.654   0.302  0.00  0.00     0.210 C 
ENDBRANCH  15  18
ENDBRANCH   9  12
ENDBRANCH   1   8
BRANCH   3  20
ATOM     20  C   UNL d   1       1.443   2.468  -0.171  0.00  0.00    -0.002 A 
ATOM     21  C   UNL d   1       0.800   3.718  -0.300  0.00  0.00     0.024 A 
ATOM     22  C   UNL d   1       1.559   4.879  -0.286  0.00  0.00    -0.022 A 
ATOM     23  C   UNL d   1       1.135   6.297  -0.344  0.00  0.00     0.068 C 
ATOM     24  C   UNL d   1       2.932   4.826  -0.126  0.00  0.00     0.075 A 
ATOM     25  C   UNL d   1       2.498   6.938  -0.614  0.00  0.00     0.180 C 
ATOM     26  O   UNL d   1       3.536   6.057  -0.123  0.00  0.00    -0.350 OA
ATOM     27  C   UNL d   1       3.599   3.633   0.034  0.00  0.00     0.038 A 
ATOM     28  C   UNL d   1       2.848   2.451   0.007  0.00  0.00     0.017 A 
ENDBRANCH   3  20
TORSDOF 4
