REMARK  7 active torsions:
REMARK  status: ('A' for Active; 'I' for Inactive)
REMARK    1  A    between atoms: N_3  and  C_1 
REMARK    2  A    between atoms: N_4  and  C_1 
REMARK    3  A    between atoms: N_2  and  C_6 
REMARK    4  A    between atoms: C_18  and  N_4 
REMARK    5  A    between atoms: C_5  and  C_12 
REMARK    6  A    between atoms: O_19  and  C_5 
REMARK    7  A    between atoms: C_22  and  O_19 
ROOT
ATOM      1  C   UNL d   1       0.794   0.004   0.014  0.00  0.00     0.174 C 
ATOM      2  S   UNL d   1       0.764   1.542  -0.644  0.00  0.00    -0.041 SA
ENDROOT
BRANCH   1   3
ATOM      3  N   UNL d   1       0.217  -0.298   1.243  0.00  0.00    -0.358 N 
ATOM      4  C   UNL d   1       0.583   0.379   2.481  0.00  0.00     0.126 C 
ATOM      5  C   UNL d   1      -0.623   1.030   3.145  0.00  0.00     0.034 C 
ATOM      6  C   UNL d   1      -1.837   0.099   3.234  0.00  0.00     0.088 C 
ATOM      7  C   UNL d   1      -2.109  -0.644   1.919  0.00  0.00     0.034 C 
ATOM      8  C   UNL d   1      -0.851  -1.286   1.332  0.00  0.00     0.126 C 
BRANCH   6   9
ATOM      9  C   UNL d   1      -1.706  -0.925   4.345  0.00  0.00     0.263 C 
ATOM     10  O   UNL d   1      -0.679  -1.533   4.622  0.00  0.00    -0.265 OA
BRANCH   9  11
ATOM     11  O   UNL d   1      -2.934  -1.165   4.875  0.00  0.00    -0.322 OA
BRANCH  11  12
ATOM     12  C   UNL d   1      -3.075  -2.395   5.596  0.00  0.00     0.174 C 
ATOM     13  C   UNL d   1      -3.452  -3.479   4.603  0.00  0.00     0.034 C 
ENDBRANCH  11  12
ENDBRANCH   9  11
ENDBRANCH   6   9
ENDBRANCH   1   3
BRANCH   1  14
ATOM     14  N   UNL d   1       1.435  -1.104  -0.510  0.00  0.00    -0.333 N 
ATOM     15  H   UNL d   1       1.893  -1.656   0.205  0.00  0.00     0.168 HD
BRANCH  14  16
ATOM     16  C   UNL d   1       1.753  -1.409  -1.843  0.00  0.00     0.034 A 
ATOM     17  C   UNL d   1       2.889  -2.191  -2.083  0.00  0.00     0.032 A 
ATOM     18  C   UNL d   1       3.170  -2.655  -3.371  0.00  0.00     0.038 A 
ATOM     19  C   UNL d   1       2.283  -2.366  -4.414  0.00  0.00     0.103 A 
ATOM     20  C   UNL d   1       1.154  -1.568  -4.186  0.00  0.00     0.038 A 
ATOM     21  C   UNL d   1       0.899  -1.083  -2.900  0.00  0.00     0.032 A 
BRANCH  19  22
ATOM     22  N   UNL d   1       2.508  -2.949  -5.742  0.00  0.00    -0.116 N 
ATOM     23  O   UNL d   1       3.519  -3.648  -5.900  0.00  0.00    -0.532 OA
ATOM     24  O   UNL d   1       1.664  -2.725  -6.621  0.00  0.00    -0.532 OA
ENDBRANCH  19  22
ENDBRANCH  14  16
ENDBRANCH   1  14
TORSDOF 7
