REMARK  5 active torsions:
REMARK  status: ('A' for Active; 'I' for Inactive)
REMARK    1  A    between atoms: O_10  and  C_2 
REMARK    2  A    between atoms: C_12  and  O_10 
REMARK    3  A    between atoms: C_11  and  C_16 
REMARK    4  A    between atoms: C_16  and  C_12 
REMARK    5  A    between atoms: O_23  and  C_16 
ROOT
ATOM      1  C   UNL d   1       0.066  -0.703   0.541  0.00  0.00     0.036 A 
ATOM      2  C   UNL d   1       1.385  -1.349   0.437  0.00  0.00     0.151 C 
ATOM      3  N   UNL d   1       2.525  -0.763   0.466  0.00  0.00    -0.358 N 
ATOM      4  HN  UNL d   1       3.400  -1.284   0.418  1.00  0.00     0.162 HD
ATOM      5  C   UNL d   1       0.090   0.675   0.786  0.00  0.00     0.025 A 
ATOM      6  N   UNL d   1       1.290   1.339   1.042  0.00  0.00    -0.276 NA
ATOM      7  C   UNL d   1      -1.145  -1.395   0.418  0.00  0.00     0.019 A 
ATOM      8  C   UNL d   1      -1.127   1.348   0.949  0.00  0.00     0.048 A 
ATOM      9  C   UNL d   1       2.498   0.691   0.572  0.00  0.00     0.216 C 
ATOM     10  C   UNL d   1      -2.336   0.662   0.822  0.00  0.00     0.035 A 
ATOM     11  C   UNL d   1      -2.352  -0.705   0.557  0.00  0.00     0.025 A 
ATOM     12 CL   UNL d   1      -3.821   1.510   1.016  0.00  0.00    -0.084 Cl
ATOM     13  H   UNL d   1       1.264   2.334   0.840  0.00  0.00     0.129 HD
ENDROOT
BRANCH   2  14
ATOM     14  O   UNL d   1       1.270  -2.695   0.287  0.00  0.00    -0.332 OA
BRANCH  14  15
ATOM     15  C   UNL d   1       2.512  -3.423   0.150  0.00  0.00     0.214 C 
BRANCH  15  16
ATOM     16  C   UNL d   1       2.221  -4.925  -0.025  0.00  0.00     0.175 C 
BRANCH  16  17
ATOM     17  C   UNL d   1       1.465  -5.608   1.106  0.00  0.00    -0.027 A 
ATOM     18  C   UNL d   1       0.683  -6.749   0.837  0.00  0.00     0.013 A 
ATOM     19  C   UNL d   1      -0.016  -7.402   1.853  0.00  0.00     0.043 A 
ATOM     20  C   UNL d   1       0.080  -6.934   3.155  0.00  0.00     0.116 A 
ATOM     21  C   UNL d   1       0.869  -5.833   3.459  0.00  0.00     0.043 A 
ATOM     22  F   UNL d   1      -0.590  -7.557   4.132  0.00  0.00    -0.206 F 
ATOM     23  C   UNL d   1       1.564  -5.176   2.440  0.00  0.00     0.013 A 
ENDBRANCH  16  17
BRANCH  16  24
ATOM     24  O   UNL d   1       1.490  -5.087  -1.250  0.00  0.00    -0.389 OA
ATOM     25  H   UNL d   1       0.627  -4.664  -1.095  0.00  0.00     0.210 HD
ENDBRANCH  16  24
ENDBRANCH  15  16
ENDBRANCH  14  15
ENDBRANCH   2  14
TORSDOF 5
