REMARK  9 active torsions:
REMARK  status: ('A' for Active; 'I' for Inactive)
REMARK    1  A    between atoms: C_2  and  N_1 
REMARK    2  A    between atoms: C_3  and  C_6 
REMARK    3  A    between atoms: C_5  and  N_17 
REMARK    4  A    between atoms: N_9  and  C_5 
REMARK    5  A    between atoms: N_18  and  C_7 
REMARK    6  A    between atoms: C_19  and  N_9 
REMARK    7  A    between atoms: N_17  and  C_20 
REMARK    8  A    between atoms: C_21  and  N_18 
REMARK    9  A    between atoms: C_20  and  C_21 
ROOT
ATOM      1  N   UNL d   1      -1.071  -1.055   1.332  0.00  0.00    -0.386 N 
ATOM      2  H   UNL d   1      -1.734  -1.014   0.548  0.00  0.00     0.159 HD
ENDROOT
BRANCH   1   3
ATOM      3  C   UNL d   1      -1.675  -0.901   2.584  0.00  0.00     0.061 A 
ATOM      4  C   UNL d   1      -2.995  -0.418   2.760  0.00  0.00     0.130 A 
ATOM      5  C   UNL d   1      -3.530  -0.206   4.052  0.00  0.00     0.054 A 
ATOM      6  C   UNL d   1      -2.766  -0.469   5.197  0.00  0.00     0.050 A 
ATOM      7  C   UNL d   1      -1.460  -0.936   5.032  0.00  0.00     0.018 A 
ATOM      8  C   UNL d   1      -0.925  -1.125   3.754  0.00  0.00     0.032 A 
BRANCH   4   9
ATOM      9  N   UNL d   1      -3.893  -0.168   1.612  0.00  0.00    -0.113 N 
ATOM     10  O   UNL d   1      -5.038   0.236   1.855  0.00  0.00    -0.532 OA
ATOM     11  O   UNL d   1      -3.470  -0.400   0.466  0.00  0.00    -0.532 OA
ENDBRANCH   4   9
BRANCH   6  12
ATOM     12  C   UNL d   1      -3.318  -0.258   6.585  0.00  0.00     0.417 C 
ATOM     13  F   UNL d   1      -4.582   0.245   6.597  0.00  0.00    -0.166 F 
ATOM     14  F   UNL d   1      -3.367  -1.415   7.301  0.00  0.00    -0.166 F 
ATOM     15  F   UNL d   1      -2.562   0.605   7.317  0.00  0.00    -0.166 F 
ENDBRANCH   6  12
ENDBRANCH   1   3
BRANCH   1  16
ATOM     16  C   UNL d   1      -0.014  -2.050   1.097  0.00  0.00     0.139 C 
BRANCH  16  17
ATOM     17  C   UNL d   1      -0.511  -3.498   1.300  0.00  0.00     0.141 C 
BRANCH  17  18
ATOM     18  N   UNL d   1      -1.646  -3.827   0.436  0.00  0.00    -0.365 N 
ATOM     19  H   UNL d   1      -2.533  -3.470   0.767  0.00  0.00     0.161 HD
BRANCH  18  20
ATOM     20  C   UNL d   1      -1.591  -4.045  -0.916  0.00  0.00     0.172 C 
ATOM     21  S   UNL d   1      -0.203  -4.309  -1.808  0.00  0.00    -0.041 SA
BRANCH  20  22
ATOM     22  N   UNL d   1      -2.778  -3.919  -1.589  0.00  0.00    -0.333 N 
ATOM     23  H   UNL d   1      -2.670  -3.674  -2.566  0.00  0.00     0.168 HD
BRANCH  22  24
ATOM     24  C   UNL d   1      -4.092  -4.019  -1.103  0.00  0.00     0.034 A 
ATOM     25  C   UNL d   1      -5.082  -3.258  -1.726  0.00  0.00     0.029 A 
ATOM     26  C   UNL d   1      -6.398  -3.308  -1.263  0.00  0.00     0.002 A 
ATOM     27  C   UNL d   1      -6.737  -4.156  -0.209  0.00  0.00     0.000 A 
ATOM     28  C   UNL d   1      -5.761  -4.958   0.380  0.00  0.00     0.002 A 
ATOM     29  C   UNL d   1      -4.439  -4.886  -0.062  0.00  0.00     0.029 A 
ENDBRANCH  22  24
ENDBRANCH  20  22
ENDBRANCH  18  20
ENDBRANCH  17  18
ENDBRANCH  16  17
ENDBRANCH   1  16
TORSDOF 9
