REMARK  7 active torsions:
REMARK  status: ('A' for Active; 'I' for Inactive)
REMARK    1  A    between atoms: C_7  and  C_1 
REMARK    2  A    between atoms: C_2  and  C_3 
REMARK    3  A    between atoms: C_3  and  O_8 
REMARK    4  A    between atoms: O_8  and  N_4 
REMARK    5  A    between atoms: C_6  and  C_9 
REMARK    6  A    between atoms: N_16  and  C_6 
REMARK    7  A    between atoms: O_18  and  C_11 
ROOT
ATOM      1  N   UNL d   1      -0.656  -3.860   4.779  0.00  0.00    -0.246 N 
ATOM      2  HN  UNL d   1      -0.656  -4.839   5.067  1.00  0.00     0.196 HD
ATOM      3  C   UNL d   1      -0.270  -3.455   3.603  0.00  0.00     0.109 C 
ENDROOT
BRANCH   3   4
ATOM      4  C   UNL d   1       0.222  -4.492   2.624  0.00  0.00     0.004 A 
ATOM      5  C   UNL d   1       0.212  -4.253   1.241  0.00  0.00     0.030 A 
ATOM      6  C   UNL d   1       0.661  -5.236   0.338  0.00  0.00     0.048 A 
ATOM      7  C   UNL d   1       1.139  -6.457   0.841  0.00  0.00     0.016 A 
ATOM      8  C   UNL d   1       1.154  -6.697   2.215  0.00  0.00     0.002 A 
ATOM      9  C   UNL d   1       0.691  -5.723   3.102  0.00  0.00     0.015 A 
BRANCH   6  10
ATOM     10  C   UNL d   1       0.618  -5.016  -1.156  0.00  0.00     0.417 C 
ATOM     11  F   UNL d   1       0.121  -3.798  -1.513  0.00  0.00    -0.166 F 
ATOM     12  F   UNL d   1      -0.154  -5.936  -1.798  0.00  0.00    -0.166 F 
ATOM     13  F   UNL d   1       1.850  -5.097  -1.731  0.00  0.00    -0.166 F 
ENDBRANCH   6  10
ENDBRANCH   3   4
BRANCH   3  14
ATOM     14  N   UNL d   1      -0.269  -2.133   3.215  0.00  0.00    -0.286 NA
ATOM     15  H   UNL d   1      -0.357  -1.504   4.004  0.00  0.00     0.125 HD
ATOM     16  H   UNL d   1       0.484  -1.861   2.592  0.00  0.00     0.125 HD
ENDBRANCH   3  14
BRANCH   1  17
ATOM     17  O   UNL d   1      -1.079  -2.797   5.614  0.00  0.00    -0.193 OA
BRANCH  17  18
ATOM     18  C   UNL d   1      -1.639  -3.295   6.771  0.00  0.00     0.318 C 
ATOM     19  O   UNL d   1      -1.801  -4.470   7.056  0.00  0.00    -0.257 OA
BRANCH  18  20
ATOM     20  C   UNL d   1      -2.047  -2.151   7.657  0.00  0.00     0.074 A 
ATOM     21  C   UNL d   1      -2.140  -2.296   9.060  0.00  0.00     0.084 A 
ATOM     22  C   UNL d   1      -2.537  -1.195   9.838  0.00  0.00     0.038 A 
ATOM     23  C   UNL d   1      -2.869   0.021   9.248  0.00  0.00     0.003 A 
ATOM     24  C   UNL d   1      -2.805   0.160   7.867  0.00  0.00     0.001 A 
ATOM     25  C   UNL d   1      -2.399  -0.917   7.075  0.00  0.00     0.020 A 
BRANCH  21  26
ATOM     26  O   UNL d   1      -1.786  -3.495   9.623  0.00  0.00    -0.355 OA
ATOM     27  C   UNL d   1      -2.325  -3.779  10.913  0.00  0.00     0.210 C 
ENDBRANCH  21  26
ENDBRANCH  18  20
ENDBRANCH  17  18
ENDBRANCH   1  17
TORSDOF 7
