REMARK  4 active torsions:
REMARK  status: ('A' for Active; 'I' for Inactive)
REMARK    1  A    between atoms: N_7  and  N_1 
REMARK    2  A    between atoms: N_9  and  C_4 
REMARK    3  A    between atoms: C_8  and  C_5 
REMARK    4  A    between atoms: C_10  and  N_7 
ROOT
ATOM      1  N   UNL d   1      -0.369   1.070  -0.056  0.00  0.00    -0.256 N 
ATOM      2  N   UNL d   1       0.989  -0.668   0.282  0.00  0.00    -0.330 N 
ATOM      3  HN  UNL d   1       1.810  -1.234   0.497  1.00  0.00     0.168 HD
ATOM      4  C   UNL d   1       0.931   0.640   0.177  0.00  0.00     0.172 A 
ATOM      5  C   UNL d   1      -0.290  -1.115   0.039  0.00  0.00     0.062 A 
ATOM      6  C   UNL d   1      -1.144  -0.053  -0.167  0.00  0.00     0.144 A 
ENDROOT
BRANCH   1   7
ATOM      7  N   UNL d   1      -0.783   2.391  -0.268  0.00  0.00    -0.197 NA
ATOM      8  H   UNL d   1      -0.083   2.999   0.155  0.00  0.00     0.153 HD
BRANCH   7   9
ATOM      9  C   UNL d   1      -2.050   2.862   0.164  0.00  0.00     0.028 A 
ATOM     10  C   UNL d   1      -2.671   2.421   1.339  0.00  0.00     0.025 A 
ATOM     11  C   UNL d   1      -3.913   2.935   1.721  0.00  0.00     0.002 A 
ATOM     12  C   UNL d   1      -4.528   3.920   0.953  0.00  0.00     0.000 A 
ATOM     13  C   UNL d   1      -3.893   4.409  -0.186  0.00  0.00     0.002 A 
ATOM     14  C   UNL d   1      -2.653   3.894  -0.568  0.00  0.00     0.025 A 
ENDBRANCH   7   9
ENDBRANCH   1   7
BRANCH   4  15
ATOM     15  N   UNL d   1       1.976   1.492   0.244  0.00  0.00    -0.273 NA
ATOM     16  H   UNL d   1       2.877   1.028   0.162  0.00  0.00     0.127 HD
ATOM     17  H   UNL d   1       1.946   2.338  -0.317  0.00  0.00     0.127 HD
ENDBRANCH   4  15
BRANCH   5  18
ATOM     18  C   UNL d   1      -0.670  -2.517  -0.003  0.00  0.00    -0.008 A 
ATOM     19  C   UNL d   1      -1.794  -2.946  -0.727  0.00  0.00     0.014 A 
ATOM     20  C   UNL d   1      -2.142  -4.298  -0.767  0.00  0.00     0.001 A 
ATOM     21  C   UNL d   1      -1.372  -5.235  -0.083  0.00  0.00     0.000 A 
ATOM     22  C   UNL d   1      -0.254  -4.823   0.638  0.00  0.00     0.001 A 
ATOM     23  C   UNL d   1       0.099  -3.470   0.675  0.00  0.00     0.014 A 
ENDBRANCH   5  18
TORSDOF 4
