REMARK  5 active torsions:
REMARK  status: ('A' for Active; 'I' for Inactive)
REMARK    1  A    between atoms: C_2  and  C_1 
REMARK    2  A    between atoms: C_3  and  C_1 
REMARK    3  A    between atoms: C_4  and  C_1 
REMARK    4  A    between atoms: O_5  and  C_2 
REMARK    5  A    between atoms: C_7  and  O_5 
ROOT
ATOM      1  C   UNL d   1       1.297   0.051   0.118  0.00  0.00     0.051 C 
ENDROOT
BRANCH   1   2
ATOM      2  C   UNL d   1       0.558   1.356   0.249  0.00  0.00     0.299 C 
ATOM      3  O   UNL d   1      -0.366   1.603   1.010  0.00  0.00    -0.259 OA
BRANCH   2   4
ATOM      4  O   UNL d   1       1.182   2.283  -0.590  0.00  0.00    -0.273 OA
BRANCH   4   5
ATOM      5  C   UNL d   1       1.552   3.605  -0.221  0.00  0.00     0.101 A 
ATOM      6  C   UNL d   1       2.203   4.375  -1.196  0.00  0.00     0.069 A 
ATOM      7  C   UNL d   1       2.765   5.609  -0.862  0.00  0.00     0.050 A 
ATOM      8 CL   UNL d   1       2.375   3.810  -2.820  0.00  0.00    -0.081 Cl
ATOM      9  C   UNL d   1       2.671   6.067   0.450  0.00  0.00     0.035 A 
ATOM     10  C   UNL d   1       1.998   5.319   1.418  0.00  0.00     0.026 A 
ATOM     11 CL   UNL d   1       3.419   7.553   0.888  0.00  0.00    -0.084 Cl
ATOM     12  C   UNL d   1       1.437   4.081   1.086  0.00  0.00     0.041 A 
ENDBRANCH   4   5
ENDBRANCH   2   4
ENDBRANCH   1   2
BRANCH   1  13
ATOM     13  C   UNL d   1       0.799  -1.197   0.225  0.00  0.00     0.037 C 
ATOM     14  C   UNL d   1      -0.502  -1.663   0.557  0.00  0.00     0.005 A 
ATOM     15  S   UNL d   1      -0.986  -3.198  -0.093  0.00  0.00    -0.102 SA
ATOM     16  C   UNL d   1      -1.469  -1.205   1.434  0.00  0.00     0.019 A 
ATOM     17  C   UNL d   1      -2.387  -3.268   0.873  0.00  0.00     0.050 A 
ATOM     18  C   UNL d   1      -2.540  -2.132   1.630  0.00  0.00     0.008 A 
ENDBRANCH   1  13
BRANCH   1  19
ATOM     19  C   UNL d   1       2.727   0.169  -0.062  0.00  0.00    -0.013 A 
ATOM     20  C   UNL d   1       3.569   0.413   1.005  0.00  0.00     0.062 A 
ATOM     21  S   UNL d   1       5.208   0.469   0.524  0.00  0.00    -0.113 SA
ATOM     22  C   UNL d   1       4.797   0.164  -1.109  0.00  0.00     0.050 A 
ATOM     23  C   UNL d   1       3.437   0.025  -1.290  0.00  0.00     0.020 A 
ENDBRANCH   1  19
TORSDOF 5
