REMARK  4 active torsions:
REMARK  status: ('A' for Active; 'I' for Inactive)
REMARK    1  A    between atoms: C_8  and  N_1 
REMARK    2  A    between atoms: S_11  and  C_2 
REMARK    3  A    between atoms: C_9  and  C_7 
REMARK    4  A    between atoms: C_13  and  C_8 
ROOT
ATOM      1  N   UNL d   1       1.448  -1.072  -0.129  0.00  0.00    -0.288 N 
ATOM      2  C   UNL d   1       0.129  -1.401  -0.114  0.00  0.00     0.149 A 
ATOM      3  C   UNL d   1       0.091   0.702  -0.117  0.00  0.00     0.104 A 
ATOM      4  C   UNL d   1       1.520   0.292  -0.170  0.00  0.00     0.276 A 
ATOM      5  N   UNL d   1      -0.715  -0.415  -0.105  0.00  0.00    -0.332 N 
ATOM      6  HN  UNL d   1      -1.734  -0.458  -0.092  1.00  0.00     0.168 HD
ATOM      7  C   UNL d   1      -0.277   1.986  -0.049  0.00  0.00     0.048 C 
ATOM      8  O   UNL d   1       2.500   1.013  -0.259  0.00  0.00    -0.265 OA
ENDROOT
BRANCH   1   9
ATOM      9  C   UNL d   1       2.623  -1.913  -0.243  0.00  0.00     0.173 C 
BRANCH   9  10
ATOM     10  C   UNL d   1       3.241  -2.321   1.080  0.00  0.00    -0.040 A 
ATOM     11  C   UNL d   1       2.833  -3.497   1.729  0.00  0.00     0.010 A 
ATOM     12  C   UNL d   1       3.476  -3.936   2.889  0.00  0.00     0.024 A 
ATOM     13  C   UNL d   1       4.535  -3.201   3.414  0.00  0.00     0.034 A 
ATOM     14  C   UNL d   1       4.936  -2.015   2.803  0.00  0.00     0.024 A 
ATOM     15 CL   UNL d   1       5.362  -3.774   4.810  0.00  0.00    -0.084 Cl
ATOM     16  C   UNL d   1       4.284  -1.570   1.646  0.00  0.00     0.010 A 
ENDBRANCH   9  10
ENDBRANCH   1   9
BRANCH   2  17
ATOM     17  S   UNL d   1      -0.363  -3.059  -0.051  0.00  0.00    -0.098 SA
ATOM     18  C   UNL d   1      -1.530  -3.144  -1.423  0.00  0.00     0.099 C 
ENDBRANCH   2  17
BRANCH   7  19
ATOM     19  C   UNL d   1      -1.672   2.422   0.088  0.00  0.00    -0.012 A 
ATOM     20  C   UNL d   1      -2.499   2.707  -1.009  0.00  0.00     0.044 A 
ATOM     21 CL   UNL d   1      -1.943   2.541  -2.638  0.00  0.00    -0.083 Cl
ATOM     22  C   UNL d   1      -3.812   3.148  -0.807  0.00  0.00     0.024 A 
ATOM     23  C   UNL d   1      -4.311   3.296   0.488  0.00  0.00     0.002 A 
ATOM     24  C   UNL d   1      -3.503   3.000   1.583  0.00  0.00     0.001 A 
ATOM     25  C   UNL d   1      -2.190   2.567   1.385  0.00  0.00     0.013 A 
ENDBRANCH   7  19
TORSDOF 4
