REMARK  4 active torsions:
REMARK  status: ('A' for Active; 'I' for Inactive)
REMARK    1  A    between atoms: C_4  and  C_1 
REMARK    2  A    between atoms: C_2  and  C_3 
REMARK       I    between atoms: C_3  and  N_6 
REMARK       I    between atoms: N_5  and  C_4 
REMARK    3  A    between atoms: N_6  and  N_5 
REMARK    4  A    between atoms: N_11  and  C_7 
ROOT
ATOM      1  C   UNL d   1       0.700   2.444   0.153  0.00  0.00     0.271 C 
ATOM      2  N   UNL d   1       0.244   3.746   0.073  0.00  0.00    -0.263 N 
ATOM      3  O   UNL d   1      -0.045   1.487  -0.068  0.00  0.00    -0.266 OA
ATOM      4  H   UNL d   1       0.830   4.577   0.097  0.00  0.00     0.190 HD
ENDROOT
BRANCH   2   5
ATOM      5  N   UNL d   1      -1.099   3.945  -0.262  0.00  0.00    -0.263 N 
ATOM      6  C   UNL d   1      -1.545   5.223  -0.506  0.00  0.00     0.271 C 
ATOM      7  O   UNL d   1      -0.791   6.196  -0.487  0.00  0.00    -0.266 OA
ATOM      8  H   UNL d   1      -1.695   3.117  -0.258  0.00  0.00     0.190 HD
BRANCH   6   9
ATOM      9  C   UNL d   1      -2.982   5.394  -0.861  0.00  0.00     0.055 A 
ATOM     10  C   UNL d   1      -4.032   4.611  -0.364  0.00  0.00     0.049 A 
ATOM     11 CL   UNL d   1      -3.826   3.343   0.791  0.00  0.00    -0.083 Cl
ATOM     12  C   UNL d   1      -5.349   4.868  -0.776  0.00  0.00     0.025 A 
ATOM     13  C   UNL d   1      -5.628   5.903  -1.669  0.00  0.00     0.002 A 
ATOM     14  C   UNL d   1      -4.591   6.693  -2.155  0.00  0.00     0.001 A 
ATOM     15  C   UNL d   1      -3.279   6.442  -1.752  0.00  0.00     0.019 A 
ENDBRANCH   6   9
ENDBRANCH   2   5
BRANCH   1  16
ATOM     16  C   UNL d   1       2.131   2.230   0.543  0.00  0.00     0.054 A 
ATOM     17  C   UNL d   1       2.743   0.979   0.297  0.00  0.00     0.021 A 
ATOM     18  C   UNL d   1       4.070   0.781   0.708  0.00  0.00     0.024 A 
ATOM     19  C   UNL d   1       4.759   1.767   1.415  0.00  0.00     0.002 A 
ATOM     20  C   UNL d   1       4.144   2.985   1.685  0.00  0.00     0.001 A 
ATOM     21  C   UNL d   1       2.836   3.219   1.252  0.00  0.00     0.019 A 
BRANCH  17  22
ATOM     22  N   UNL d   1       2.162   0.003  -0.540  0.00  0.00    -0.302 NA
ATOM     23  H   UNL d   1       1.140   0.102  -0.572  0.00  0.00     0.124 HD
ATOM     24  H   UNL d   1       2.438  -0.947  -0.317  0.00  0.00     0.124 HD
ENDBRANCH  17  22
ENDBRANCH   1  16
TORSDOF 4
