REMARK  4 active torsions:
REMARK  status: ('A' for Active; 'I' for Inactive)
REMARK    1  A    between atoms: O_13  and  C_6 
REMARK    2  A    between atoms: C_12  and  C_7 
REMARK    3  A    between atoms: C_20  and  O_13 
REMARK    4  A    between atoms: C_19  and  C_20 
ROOT
ATOM      1  C   UNL d   1       0.809  -0.271  -0.048  0.00  0.00     0.052 A 
ATOM      2  N   UNL d   1       1.497  -1.437  -0.008  0.00  0.00    -0.335 N 
ATOM      3  HN  UNL d   1       1.014  -2.334  -0.062  1.00  0.00     0.168 HD
ATOM      4  C   UNL d   1       1.454   0.984  -0.032  0.00  0.00    -0.017 A 
ATOM      5  C   UNL d   1       3.571  -0.190   0.140  0.00  0.00     0.107 A 
ATOM      6  C   UNL d   1       2.838  -1.375   0.104  0.00  0.00     0.165 A 
ATOM      7  C   UNL d   1       2.889   1.052   0.052  0.00  0.00     0.008 A 
ATOM      8  C   UNL d   1      -0.667  -0.402  -0.055  0.00  0.00    -0.003 A 
ATOM      9  C   UNL d   1       4.995  -0.299   0.314  0.00  0.00     0.104 C 
ATOM     10  N   UNL d   1       6.144  -0.381   0.415  0.00  0.00    -0.191 NA
ATOM     11  C   UNL d   1       0.588   2.224   0.009  0.00  0.00     0.046 C 
ATOM     12  C   UNL d   1      -1.492   0.735  -0.100  0.00  0.00    -0.045 A 
ATOM     13  C   UNL d   1      -0.910   2.106  -0.259  0.00  0.00     0.044 C 
ATOM     14  C   UNL d   1      -1.308  -1.657  -0.000  0.00  0.00     0.014 A 
ATOM     15  C   UNL d   1      -2.893   0.616  -0.064  0.00  0.00     0.008 A 
ATOM     16  C   UNL d   1      -2.702  -1.774   0.025  0.00  0.00     0.001 A 
ATOM     17  C   UNL d   1      -3.496  -0.634   0.003  0.00  0.00     0.001 A 
ENDROOT
BRANCH   7  18
ATOM     18  C   UNL d   1       3.648   2.361   0.068  0.00  0.00    -0.024 A 
ATOM     19  C   UNL d   1       4.839   2.548  -0.666  0.00  0.00     0.014 A 
ATOM     20  C   UNL d   1       5.580   3.741  -0.599  0.00  0.00     0.024 A 
ATOM     21  C   UNL d   1       5.099   4.818   0.131  0.00  0.00     0.034 A 
ATOM     22  C   UNL d   1       3.907   4.694   0.825  0.00  0.00     0.024 A 
ATOM     23 CL   UNL d   1       5.980   6.291   0.198  0.00  0.00    -0.084 Cl
ATOM     24  C   UNL d   1       3.231   3.466   0.835  0.00  0.00     0.014 A 
ENDBRANCH   7  18
BRANCH   6  25
ATOM     25  O   UNL d   1       3.538  -2.567   0.132  0.00  0.00    -0.327 OA
BRANCH  25  26
ATOM     26  C   UNL d   1       2.792  -3.668   0.628  0.00  0.00     0.255 C 
BRANCH  26  27
ATOM     27  C   UNL d   1       2.480  -3.617   2.124  0.00  0.00     0.147 C 
ATOM     28  O   UNL d   1       2.866  -2.706   2.863  0.00  0.00    -0.296 OA
ATOM     29  C   UNL d   1       1.704  -4.783   2.676  0.00  0.00     0.093 C 
ENDBRANCH  26  27
ENDBRANCH  25  26
ENDBRANCH   6  25
TORSDOF 4
