REMARK  8 active torsions:
REMARK  status: ('A' for Active; 'I' for Inactive)
REMARK    1  A    between atoms: N_6  and  C_1 
REMARK    2  A    between atoms: N_9  and  C_1 
REMARK       I    between atoms: C_4  and  N_7 
REMARK    3  A    between atoms: C_15  and  C_4 
REMARK    4  A    between atoms: C_5  and  O_11 
REMARK    5  A    between atoms: N_7  and  N_6 
REMARK    6  A    between atoms: C_16  and  N_9 
REMARK    7  A    between atoms: O_11  and  C_15 
REMARK    8  A    between atoms: C_19  and  C_16 
ROOT
ATOM      1  C   UNL d   1      -0.130   2.907   2.817  0.00  0.00     0.260 C 
ATOM      2  N   UNL d   1      -0.574   3.332   1.567  0.00  0.00    -0.266 N 
ATOM      3  O   UNL d   1      -0.456   1.857   3.371  0.00  0.00    -0.269 OA
ATOM      4  H   UNL d   1      -0.573   4.333   1.395  0.00  0.00     0.190 HD
ENDROOT
BRANCH   2   5
ATOM      5  N   UNL d   1      -1.507   2.591   0.823  0.00  0.00    -0.274 N 
ATOM      6  H   UNL d   1      -2.424   3.003   0.680  0.00  0.00     0.189 HD
BRANCH   5   7
ATOM      7  C   UNL d   1      -1.193   1.434   0.146  0.00  0.00     0.186 C 
ATOM      8  S   UNL d   1       0.084   0.392   0.411  0.00  0.00    -0.040 SA
BRANCH   7   9
ATOM      9  N   UNL d   1      -2.030   1.142  -0.905  0.00  0.00    -0.362 N 
ATOM     10  H   UNL d   1      -1.799   0.238  -1.301  0.00  0.00     0.162 HD
BRANCH   9  11
ATOM     11  C   UNL d   1      -2.376   2.139  -1.907  0.00  0.00     0.160 C 
BRANCH  11  12
ATOM     12  C   UNL d   1      -3.775   2.670  -1.762  0.00  0.00    -0.041 A 
ATOM     13  C   UNL d   1      -4.018   4.050  -1.830  0.00  0.00     0.009 A 
ATOM     14  C   UNL d   1      -5.320   4.545  -1.737  0.00  0.00     0.001 A 
ATOM     15  C   UNL d   1      -6.392   3.667  -1.588  0.00  0.00     0.000 A 
ATOM     16  C   UNL d   1      -6.165   2.293  -1.539  0.00  0.00     0.001 A 
ATOM     17  C   UNL d   1      -4.864   1.797  -1.630  0.00  0.00     0.009 A 
ENDBRANCH  11  12
ENDBRANCH   9  11
ENDBRANCH   7   9
ENDBRANCH   5   7
ENDBRANCH   2   5
BRANCH   1  18
ATOM     18  C   UNL d   1       0.817   3.908   3.465  0.00  0.00     0.280 C 
BRANCH  18  19
ATOM     19  O   UNL d   1      -0.003   4.809   4.195  0.00  0.00    -0.341 OA
BRANCH  19  20
ATOM     20  C   UNL d   1       0.625   5.707   5.009  0.00  0.00     0.076 A 
ATOM     21  C   UNL d   1      -0.201   6.405   5.881  0.00  0.00    -0.018 A 
ATOM     22  C   UNL d   1       0.305   7.383   6.739  0.00  0.00    -0.043 A 
ATOM     23  C   UNL d   1      -1.674   6.218   6.061  0.00  0.00     0.042 A 
ATOM     24  C   UNL d   1      -0.775   7.987   7.578  0.00  0.00     0.040 A 
ATOM     25  C   UNL d   1       1.663   7.692   6.754  0.00  0.00    -0.055 A 
ATOM     26  C   UNL d   1      -2.049   7.268   7.112  0.00  0.00     0.009 A 
ATOM     27  C   UNL d   1       2.501   6.978   5.886  0.00  0.00     0.010 A 
ATOM     28  C   UNL d   1       2.212   8.752   7.661  0.00  0.00     0.049 C 
ATOM     29  C   UNL d   1       1.987   5.996   5.020  0.00  0.00     0.038 A 
ENDBRANCH  19  20
ENDBRANCH  18  19
ENDBRANCH   1  18
TORSDOF 8
