REMARK  3 active torsions:
REMARK  status: ('A' for Active; 'I' for Inactive)
REMARK    1  A    between atoms: N_14  and  N_7 
REMARK    2  A    between atoms: C_15  and  C_10 
REMARK    3  A    between atoms: C_22  and  C_17 
ROOT
ATOM      1  N   UNL d   1      -3.111   4.512  -0.375  0.00  0.00    -0.334 N 
ATOM      2  HN  UNL d   1      -2.283   4.568  -0.968  1.00  0.00     0.168 HD
ATOM      3  C   UNL d   1      -3.530   3.415   0.217  0.00  0.00     0.163 A 
ATOM      4  C   UNL d   1      -3.941   5.578  -0.087  0.00  0.00     0.051 A 
ATOM      5  S   UNL d   1      -4.956   3.619   1.166  0.00  0.00    -0.062 SA
ATOM      6  C   UNL d   1      -4.970   5.293   0.786  0.00  0.00     0.083 A 
ATOM      7  N   UNL d   1      -2.930   2.202   0.126  0.00  0.00    -0.279 N 
ATOM      8  H   UNL d   1      -3.446   1.397   0.489  0.00  0.00     0.189 HD
ENDROOT
BRANCH   7   9
ATOM      9  N   UNL d   1      -1.589   2.084  -0.094  0.00  0.00    -0.293 N 
ATOM     10  C   UNL d   1      -1.106   0.889  -0.180  0.00  0.00     0.129 A 
ATOM     11  C   UNL d   1      -1.837  -0.453  -0.137  0.00  0.00     0.275 A 
ATOM     12  C   UNL d   1       0.308   0.570  -0.312  0.00  0.00     0.024 A 
ATOM     13  N   UNL d   1      -0.855  -1.412  -0.271  0.00  0.00    -0.321 N 
ATOM     14  O   UNL d   1      -3.031  -0.598   0.023  0.00  0.00    -0.266 OA
ATOM     15  C   UNL d   1       0.405  -0.819  -0.350  0.00  0.00     0.047 A 
ATOM     16  H   UNL d   1      -1.043  -2.403  -0.261  0.00  0.00     0.169 HD
ATOM     17  C   UNL d   1       1.628  -1.445  -0.416  0.00  0.00     0.030 A 
ATOM     18  C   UNL d   1       2.767  -0.633  -0.434  0.00  0.00     0.002 A 
ATOM     19  C   UNL d   1       2.663   0.774  -0.395  0.00  0.00     0.001 A 
ATOM     20  C   UNL d   1       1.415   1.396  -0.336  0.00  0.00     0.016 A 
ATOM     21  HN  UNL d   1      -0.992   2.906  -0.186  1.00  0.00     0.187 HD
ENDBRANCH   7   9
BRANCH   4  22
ATOM     22  C   UNL d   1      -3.735   6.862  -0.740  0.00  0.00    -0.009 A 
ATOM     23  C   UNL d   1      -3.229   6.877  -2.043  0.00  0.00     0.014 A 
ATOM     24  C   UNL d   1      -3.026   8.083  -2.720  0.00  0.00     0.013 A 
ATOM     25  C   UNL d   1      -3.322   9.317  -2.120  0.00  0.00    -0.026 A 
ATOM     26  C   UNL d   1      -3.826   9.285  -0.805  0.00  0.00     0.013 A 
ATOM     27  C   UNL d   1      -4.026   8.078  -0.120  0.00  0.00     0.014 A 
BRANCH  25  28
ATOM     28  C   UNL d   1      -3.103  10.594  -2.841  0.00  0.00    -0.026 A 
ATOM     29  C   UNL d   1      -2.702  11.761  -2.166  0.00  0.00     0.012 A 
ATOM     30  C   UNL d   1      -2.492  12.965  -2.847  0.00  0.00     0.001 A 
ATOM     31  C   UNL d   1      -2.667  13.026  -4.225  0.00  0.00     0.000 A 
ATOM     32  C   UNL d   1      -3.056  11.887  -4.921  0.00  0.00     0.001 A 
ATOM     33  C   UNL d   1      -3.279  10.689  -4.235  0.00  0.00     0.012 A 
ENDBRANCH  25  28
ENDBRANCH   4  22
TORSDOF 3
