REMARK  6 active torsions:
REMARK  status: ('A' for Active; 'I' for Inactive)
REMARK       I    between atoms: C_4  and  N_8 
REMARK    1  A    between atoms: C_13  and  C_4 
REMARK    2  A    between atoms: O_18  and  C_5 
REMARK    3  A    between atoms: C_16  and  C_7 
REMARK    4  A    between atoms: N_8  and  C_16 
REMARK    5  A    between atoms: O_19  and  C_9 
REMARK    6  A    between atoms: C_11  and  C_13 
ROOT
ATOM      1  C   UNL d   1       3.659  -0.476  -3.661  0.00  0.00     0.221 C 
ATOM      2  N   UNL d   1       3.540  -0.145  -2.334  0.00  0.00    -0.358 N 
ATOM      3  O   UNL d   1       2.833  -0.135  -4.509  0.00  0.00    -0.273 OA
ATOM      4  H   UNL d   1       4.114  -0.628  -1.653  0.00  0.00     0.162 HD
ENDROOT
BRANCH   1   5
ATOM      5  C   UNL d   1       4.889  -1.301  -4.005  0.00  0.00     0.141 C 
BRANCH   5   6
ATOM      6  C   UNL d   1       4.631  -2.786  -3.894  0.00  0.00    -0.047 A 
ATOM      7  C   UNL d   1       5.397  -3.581  -3.027  0.00  0.00     0.047 A 
ATOM      8  C   UNL d   1       5.154  -4.958  -2.890  0.00  0.00     0.102 A 
ATOM      9  C   UNL d   1       4.109  -5.538  -3.630  0.00  0.00     0.101 A 
ATOM     10  C   UNL d   1       3.376  -4.752  -4.528  0.00  0.00     0.040 A 
ATOM     11  C   UNL d   1       3.634  -3.390  -4.663  0.00  0.00     0.010 A 
BRANCH   8  12
ATOM     12  O   UNL d   1       5.904  -5.776  -2.088  0.00  0.00    -0.353 OA
ATOM     13  C   UNL d   1       6.980  -5.199  -1.360  0.00  0.00     0.210 C 
ENDBRANCH   8  12
BRANCH   9  14
ATOM     14  O   UNL d   1       3.723  -6.855  -3.630  0.00  0.00    -0.353 OA
ATOM     15  C   UNL d   1       3.843  -7.555  -2.399  0.00  0.00     0.210 C 
ENDBRANCH   9  14
ENDBRANCH   5   6
ENDBRANCH   1   5
BRANCH   2  16
ATOM     16  C   UNL d   1       2.400   0.608  -1.835  0.00  0.00     0.157 C 
BRANCH  16  17
ATOM     17  C   UNL d   1       1.214  -0.293  -1.437  0.00  0.00     0.171 C 
ATOM     18  O   UNL d   1       1.593  -1.171  -0.357  0.00  0.00    -0.339 OA
ATOM     19  C   UNL d   1       1.526  -0.560   0.868  0.00  0.00     0.102 A 
ATOM     20  C   UNL d   1       0.904   0.674   1.079  0.00  0.00     0.102 A 
ATOM     21  C   UNL d   1       2.149  -1.218   1.926  0.00  0.00     0.039 A 
ATOM     22  C   UNL d   1       0.957   1.277   2.334  0.00  0.00     0.039 A 
ATOM     23  O   UNL d   1       0.256   1.365   0.087  0.00  0.00    -0.346 OA
ATOM     24  C   UNL d   1       1.602   0.629   3.389  0.00  0.00     0.003 A 
ATOM     25  C   UNL d   1       2.189  -0.622   3.187  0.00  0.00     0.003 A 
ATOM     26  C   UNL d   1      -0.017   0.521  -1.038  0.00  0.00     0.209 C 
ENDBRANCH  16  17
ENDBRANCH   2  16
TORSDOF 6
