REMARK  9 active torsions:
REMARK  status: ('A' for Active; 'I' for Inactive)
REMARK    1  A    between atoms: O_12  and  C_1 
REMARK       I    between atoms: N_5  and  C_8 
REMARK    2  A    between atoms: C_13  and  N_5 
REMARK    3  A    between atoms: C_14  and  N_5 
REMARK    4  A    between atoms: C_18  and  C_6 
REMARK    5  A    between atoms: C_8  and  C_16 
REMARK    6  A    between atoms: C_16  and  O_12 
REMARK    7  A    between atoms: C_15  and  C_13 
REMARK    8  A    between atoms: O_25  and  C_15 
REMARK    9  A    between atoms: C_30  and  O_25 
ROOT
ATOM      1  C   UNL d   1       0.008   1.016  -0.869  0.00  0.00     0.165 A 
ATOM      2  C   UNL d   1      -1.181   0.455  -1.331  0.00  0.00     0.101 A 
ATOM      3  N   UNL d   1       1.075   0.277  -0.487  0.00  0.00    -0.335 N 
ATOM      4  HN  UNL d   1       1.927   0.731  -0.158  1.00  0.00     0.168 HD
ATOM      5  C   UNL d   1       0.997  -1.068  -0.547  0.00  0.00     0.044 A 
ATOM      6  C   UNL d   1      -1.280  -0.949  -1.360  0.00  0.00    -0.035 A 
ATOM      7  C   UNL d   1      -2.257   1.291  -1.775  0.00  0.00     0.104 C 
ATOM      8  N   UNL d   1      -3.142   1.927  -2.168  0.00  0.00    -0.191 NA
ATOM      9  C   UNL d   1      -0.170  -1.705  -0.958  0.00  0.00     0.038 A 
ATOM     10  C   UNL d   1      -2.522  -1.712  -1.743  0.00  0.00     0.050 C 
ENDROOT
BRANCH   1  11
ATOM     11  O   UNL d   1       0.126   2.401  -0.767  0.00  0.00    -0.325 OA
BRANCH  11  12
ATOM     12  C   UNL d   1       1.381   2.782  -0.213  0.00  0.00     0.280 C 
BRANCH  12  13
ATOM     13  C   UNL d   1       1.726   4.273  -0.012  0.00  0.00     0.249 C 
ATOM     14  N   UNL d   1       0.741   5.163   0.391  0.00  0.00    -0.307 N 
ATOM     15  O   UNL d   1       2.885   4.655  -0.217  0.00  0.00    -0.271 OA
BRANCH  14  16
ATOM     16  C   UNL d   1       1.116   6.583   0.542  0.00  0.00     0.243 C 
BRANCH  16  17
ATOM     17  C   UNL d   1       1.522   6.993   1.964  0.00  0.00     0.277 C 
ATOM     18  O   UNL d   1       1.589   6.260   2.941  0.00  0.00    -0.263 OA
BRANCH  17  19
ATOM     19  O   UNL d   1       1.729   8.345   1.989  0.00  0.00    -0.321 OA
BRANCH  19  20
ATOM     20  C   UNL d   1       1.794   8.956   3.289  0.00  0.00     0.174 C 
ATOM     21  C   UNL d   1       0.403   9.447   3.646  0.00  0.00     0.034 C 
ENDBRANCH  19  20
ENDBRANCH  17  19
ENDBRANCH  16  17
ENDBRANCH  14  16
BRANCH  14  22
ATOM     22  C   UNL d   1      -0.458   4.768   1.032  0.00  0.00     0.037 A 
ATOM     23  C   UNL d   1      -0.419   4.028   2.220  0.00  0.00     0.033 A 
ATOM     24  C   UNL d   1      -1.597   3.777   2.923  0.00  0.00     0.044 A 
ATOM     25  C   UNL d   1      -2.807   4.240   2.420  0.00  0.00     0.116 A 
ATOM     26  C   UNL d   1      -2.862   4.949   1.225  0.00  0.00     0.044 A 
ATOM     27  F   UNL d   1      -3.935   4.015   3.106  0.00  0.00    -0.206 F 
ATOM     28  C   UNL d   1      -1.682   5.229   0.536  0.00  0.00     0.033 A 
ENDBRANCH  14  22
ENDBRANCH  12  13
ENDBRANCH  11  12
ENDBRANCH   1  11
BRANCH   5  29
ATOM     29  C   UNL d   1       2.192  -1.809  -0.095  0.00  0.00    -0.009 A 
ATOM     30  C   UNL d   1       3.035  -1.274   0.897  0.00  0.00     0.013 A 
ATOM     31  C   UNL d   1       4.129  -1.991   1.387  0.00  0.00     0.001 A 
ATOM     32  C   UNL d   1       4.412  -3.258   0.886  0.00  0.00     0.000 A 
ATOM     33  C   UNL d   1       3.619  -3.794  -0.124  0.00  0.00     0.001 A 
ATOM     34  C   UNL d   1       2.527  -3.074  -0.615  0.00  0.00     0.013 A 
ENDBRANCH   5  29
TORSDOF 9
