REMARK  2 active torsions:
REMARK  status: ('A' for Active; 'I' for Inactive)
REMARK    1  A    between atoms: C_11  and  N_4 
REMARK    2  A    between atoms: C_14  and  N_7 
ROOT
ATOM      1  C   UNL d   1      -0.262  -0.694   0.040  0.00  0.00     0.148 A 
ATOM      2  C   UNL d   1      -0.269   0.666   0.017  0.00  0.00     0.095 A 
ATOM      3  N   UNL d   1       0.928  -1.379   0.041  0.00  0.00    -0.292 N 
ATOM      4  N   UNL d   1       2.118   0.708   0.067  0.00  0.00    -0.229 N 
ATOM      5  C   UNL d   1       2.174  -0.684   0.035  0.00  0.00     0.335 A 
ATOM      6  C   UNL d   1       0.930   1.452   0.056  0.00  0.00     0.271 A 
ATOM      7  N   UNL d   1      -1.574  -1.119  -0.039  0.00  0.00    -0.239 N 
ATOM      8  N   UNL d   1      -2.409  -0.058  -0.200  0.00  0.00    -0.302 N 
ATOM      9  HN  UNL d   1      -3.415  -0.077  -0.367  1.00  0.00     0.186 HD
ATOM     10  C   UNL d   1      -1.620   1.016  -0.092  0.00  0.00     0.128 A 
ATOM     11  O   UNL d   1       3.151  -1.404  -0.036  0.00  0.00    -0.246 OA
ATOM     12  O   UNL d   1       0.856   2.671   0.108  0.00  0.00    -0.266 OA
ATOM     13  H   UNL d   1       0.977  -2.386  -0.049  0.00  0.00     0.172 HD
ENDROOT
BRANCH   4  14
ATOM     14  C   UNL d   1       3.355   1.418   0.069  0.00  0.00     0.047 A 
ATOM     15  C   UNL d   1       3.619   2.395  -0.901  0.00  0.00     0.030 A 
ATOM     16  C   UNL d   1       4.836   3.079  -0.897  0.00  0.00     0.002 A 
ATOM     17  C   UNL d   1       5.784   2.811   0.089  0.00  0.00     0.000 A 
ATOM     18  C   UNL d   1       5.524   1.849   1.064  0.00  0.00     0.002 A 
ATOM     19  C   UNL d   1       4.321   1.143   1.047  0.00  0.00     0.030 A 
ENDBRANCH   4  14
BRANCH   7  20
ATOM     20  C   UNL d   1      -2.069  -2.444  -0.014  0.00  0.00     0.058 A 
ATOM     21  C   UNL d   1      -1.386  -3.457   0.672  0.00  0.00     0.031 A 
ATOM     22  C   UNL d   1      -1.891  -4.759   0.664  0.00  0.00     0.002 A 
ATOM     23  C   UNL d   1      -3.060  -5.053  -0.037  0.00  0.00     0.000 A 
ATOM     24  C   UNL d   1      -3.747  -4.043  -0.710  0.00  0.00     0.002 A 
ATOM     25  C   UNL d   1      -3.266  -2.734  -0.683  0.00  0.00     0.031 A 
ENDBRANCH   7  20
TORSDOF 2
