REMARK  5 active torsions:
REMARK  status: ('A' for Active; 'I' for Inactive)
REMARK    1  A    between atoms: C_5  and  N_1 
REMARK    2  A    between atoms: C_14  and  C_5 
REMARK    3  A    between atoms: O_15  and  C_8 
REMARK    4  A    between atoms: O_17  and  C_9 
REMARK    5  A    between atoms: C_13  and  C_14 
ROOT
ATOM      1  C   UNL d   1      -0.076  -6.553  -0.005  0.00  0.00     0.099 A 
ATOM      2  C   UNL d   1       1.065  -7.349  -0.029  0.00  0.00     0.098 A 
ATOM      3  C   UNL d   1       0.034  -5.161  -0.001  0.00  0.00     0.046 A 
ATOM      4  C   UNL d   1       2.325  -6.759  -0.046  0.00  0.00     0.040 A 
ATOM      5  C   UNL d   1       1.296  -4.543  -0.019  0.00  0.00    -0.054 A 
ATOM      6  C   UNL d   1       2.438  -5.364  -0.041  0.00  0.00     0.010 A 
ENDROOT
BRANCH   5   7
ATOM      7  C   UNL d   1       1.488  -3.037  -0.009  0.00  0.00     0.059 C 
BRANCH   7   8
ATOM      8  C   UNL d   1       0.200  -2.204   0.002  0.00  0.00     0.139 C 
BRANCH   8   9
ATOM      9  N   UNL d   1       0.437  -0.766   0.057  0.00  0.00    -0.293 N 
ATOM     10  C   UNL d   1       0.552   0.018   1.172  0.00  0.00     0.176 A 
ATOM     11  N   UNL d   1       0.688   1.331   0.774  0.00  0.00    -0.358 N 
ATOM     12  S   UNL d   1       0.533  -0.414   2.771  0.00  0.00    -0.041 SA
ATOM     13  C   UNL d   1       0.645   1.468  -0.655  0.00  0.00     0.225 A 
ATOM     14  H   UNL d   1       0.749   2.094   1.439  0.00  0.00     0.162 HD
ATOM     15  C   UNL d   1       0.506   0.013  -1.075  0.00  0.00     0.243 A 
ATOM     16  O   UNL d   1       0.445  -0.376  -2.233  0.00  0.00    -0.271 OA
ENDBRANCH   8   9
ENDBRANCH   7   8
ENDBRANCH   5   7
BRANCH   1  17
ATOM     17  O   UNL d   1      -1.308  -7.145   0.014  0.00  0.00    -0.358 OA
ATOM     18  H   UNL d   1      -1.992  -6.461   0.043  0.00  0.00     0.217 HD
ENDBRANCH   1  17
BRANCH   2  19
ATOM     19  O   UNL d   1       0.932  -8.709  -0.034  0.00  0.00    -0.358 OA
ATOM     20  H   UNL d   1       1.813  -9.113  -0.061  0.00  0.00     0.217 HD
ENDBRANCH   2  19
TORSDOF 5
