REMARK  5 active torsions:
REMARK  status: ('A' for Active; 'I' for Inactive)
REMARK       I    between atoms: C_6  and  N_1 
REMARK    1  A    between atoms: C_9  and  C_3 
REMARK    2  A    between atoms: C_15  and  C_6 
REMARK    3  A    between atoms: N_7  and  C_14 
REMARK    4  A    between atoms: O_23  and  C_9 
REMARK    5  A    between atoms: C_26  and  O_23 
ROOT
ATOM      1  N   UNL d   1       1.249  -1.818   1.100  0.00  0.00    -0.203 N 
ATOM      2  C   UNL d   1      -0.131  -1.744   1.259  0.00  0.00     0.142 A 
ATOM      3  C   UNL d   1      -0.410  -2.177   2.537  0.00  0.00     0.101 A 
ATOM      4  N   UNL d   1       1.858  -2.266   2.240  0.00  0.00    -0.300 N 
ATOM      5  HN  UNL d   1       2.856  -2.391   2.409  1.00  0.00     0.186 HD
ATOM      6  C   UNL d   1       2.025  -1.451  -0.019  0.00  0.00     0.278 C 
ATOM      7  C   UNL d   1       0.848  -2.502   3.080  0.00  0.00     0.129 A 
ATOM      8  O   UNL d   1       1.471  -1.425  -1.127  0.00  0.00    -0.265 OA
ATOM      9  N   UNL d   1      -0.972  -1.240   0.322  0.00  0.00    -0.383 N 
ATOM     10  H   UNL d   1      -0.691  -1.147  -0.655  0.00  0.00     0.157 HD
ATOM     11  H   UNL d   1      -1.982  -1.250   0.481  0.00  0.00     0.157 HD
ENDROOT
BRANCH   6  12
ATOM     12  C   UNL d   1       3.439  -1.026   0.074  0.00  0.00     0.034 A 
ATOM     13  C   UNL d   1       4.331  -1.327  -0.956  0.00  0.00     0.019 A 
ATOM     14  C   UNL d   1       5.639  -0.831  -0.914  0.00  0.00     0.031 A 
ATOM     15  C   UNL d   1       6.040   0.042   0.109  0.00  0.00     0.039 A 
ATOM     16  C   UNL d   1       5.129   0.354   1.125  0.00  0.00     0.031 A 
ATOM     17  C   UNL d   1       3.848  -0.200   1.127  0.00  0.00     0.019 A 
BRANCH  15  18
ATOM     18  N   UNL d   1       7.339   0.644   0.101  0.00  0.00    -0.320 N 
ATOM     19  C   UNL d   1       8.123   0.952   1.223  0.00  0.00     0.013 A 
ATOM     20  C   UNL d   1       9.284   1.563   0.787  0.00  0.00     0.027 A 
ATOM     21  C   UNL d   1       7.827   0.611   2.647  0.00  0.00     0.068 C 
ATOM     22  C   UNL d   1       9.247   1.620  -0.610  0.00  0.00     0.027 A 
ATOM     23  C   UNL d   1       8.047   1.076  -1.030  0.00  0.00     0.013 A 
ATOM     24  C   UNL d   1       7.570   1.070  -2.446  0.00  0.00     0.068 C 
ENDBRANCH  15  18
ENDBRANCH   6  12
BRANCH   3  25
ATOM     25  C   UNL d   1      -1.722  -2.179   3.149  0.00  0.00     0.298 C 
ATOM     26  O   UNL d   1      -2.731  -1.817   2.560  0.00  0.00    -0.259 OA
BRANCH  25  27
ATOM     27  O   UNL d   1      -1.677  -2.521   4.467  0.00  0.00    -0.318 OA
BRANCH  27  28
ATOM     28  C   UNL d   1      -2.796  -2.038   5.223  0.00  0.00     0.174 C 
ATOM     29  C   UNL d   1      -2.443  -0.645   5.715  0.00  0.00     0.034 C 
ENDBRANCH  27  28
ENDBRANCH  25  27
ENDBRANCH   3  25
TORSDOF 5
