REMARK  6 active torsions:
REMARK  status: ('A' for Active; 'I' for Inactive)
REMARK    1  A    between atoms: C_12  and  N_1 
REMARK    2  A    between atoms: C_4  and  C_2 
REMARK       I    between atoms: N_8  and  C_4 
REMARK    3  A    between atoms: C_19  and  N_8 
REMARK    4  A    between atoms: C_22  and  C_12 
REMARK    5  A    between atoms: C_18  and  C_19 
REMARK    6  A    between atoms: C_21  and  C_22 
ROOT
ATOM      1  N   UNL d   1       0.010  -0.969   0.280  0.00  0.00    -0.351 N 
ATOM      2  C   UNL d   1      -1.514   0.734  -0.229  0.00  0.00     0.104 C 
ATOM      3  C   UNL d   1       0.760   0.186   0.111  0.00  0.00     0.220 C 
ATOM      4  C   UNL d   1      -1.409  -0.688   0.282  0.00  0.00     0.140 C 
ATOM      5  C   UNL d   1      -0.175   1.365   0.130  0.00  0.00     0.118 C 
ATOM      6  O   UNL d   1       1.967   0.272  -0.048  0.00  0.00    -0.273 OA
ENDROOT
BRANCH   2   7
ATOM      7  C   UNL d   1      -1.817   0.844  -1.720  0.00  0.00     0.224 C 
ATOM      8  N   UNL d   1      -0.900   0.318  -2.599  0.00  0.00    -0.356 N 
ATOM      9  H   UNL d   1      -0.090  -0.190  -2.264  0.00  0.00     0.162 HD
ATOM     10  O   UNL d   1      -2.841   1.414  -2.101  0.00  0.00    -0.273 OA
BRANCH   8  11
ATOM     11  C   UNL d   1      -0.951   0.614  -4.021  0.00  0.00     0.161 C 
BRANCH  11  12
ATOM     12  C   UNL d   1      -1.504  -0.494  -4.887  0.00  0.00    -0.038 A 
ATOM     13  C   UNL d   1      -0.991  -0.668  -6.188  0.00  0.00     0.048 A 
ATOM     14  C   UNL d   1      -1.564  -1.624  -7.003  0.00  0.00     0.105 A 
ATOM     15  O   UNL d   1      -1.192  -1.907  -8.281  0.00  0.00    -0.323 OA
ATOM     16  C   UNL d   1      -2.619  -2.395  -6.582  0.00  0.00     0.105 A 
ATOM     17  C   UNL d   1      -2.110  -2.974  -8.600  0.00  0.00     0.352 A 
ATOM     18  O   UNL d   1      -3.042  -3.265  -7.537  0.00  0.00    -0.323 OA
ATOM     19  C   UNL d   1      -3.163  -2.248  -5.325  0.00  0.00     0.040 A 
ATOM     20  C   UNL d   1      -2.603  -1.284  -4.477  0.00  0.00     0.012 A 
ENDBRANCH  11  12
ENDBRANCH   8  11
ENDBRANCH   2   7
BRANCH   1  21
ATOM     21  C   UNL d   1       0.503  -2.347   0.226  0.00  0.00     0.130 C 
BRANCH  21  22
ATOM     22  C   UNL d   1       1.903  -2.562   0.811  0.00  0.00     0.058 C 
BRANCH  22  23
ATOM     23  C   UNL d   1       2.361  -4.000   0.736  0.00  0.00    -0.057 A 
ATOM     24  C   UNL d   1       3.015  -4.468  -0.415  0.00  0.00     0.009 A 
ATOM     25  C   UNL d   1       3.496  -5.778  -0.474  0.00  0.00     0.024 A 
ATOM     26  C   UNL d   1       3.320  -6.628   0.614  0.00  0.00     0.034 A 
ATOM     27  C   UNL d   1       2.655  -6.184   1.755  0.00  0.00     0.024 A 
ATOM     28 CL   UNL d   1       3.937  -8.234   0.552  0.00  0.00    -0.084 Cl
ATOM     29  C   UNL d   1       2.173  -4.873   1.815  0.00  0.00     0.009 A 
ENDBRANCH  22  23
ENDBRANCH  21  22
ENDBRANCH   1  21
TORSDOF 6
