REMARK  2 active torsions:
REMARK  status: ('A' for Active; 'I' for Inactive)
REMARK    1  A    between atoms: C_2  and  N_1 
REMARK       I    between atoms: C_3  and  N_1 
REMARK    2  A    between atoms: C_11  and  C_4 
ROOT
ATOM      1  C   UNL d   1       0.445  -0.767  -1.172  0.00  0.00     0.041 A 
ATOM      2  C   UNL d   1      -0.711  -0.223  -1.762  0.00  0.00    -0.030 A 
ATOM      3  C   UNL d   1      -1.395  -0.981  -2.730  0.00  0.00     0.028 A 
ATOM      4  C   UNL d   1       0.834  -2.080  -1.477  0.00  0.00     0.031 A 
ATOM      5  C   UNL d   1      -0.975  -2.271  -3.052  0.00  0.00     0.011 A 
ATOM      6  C   UNL d   1       0.124  -2.834  -2.413  0.00  0.00     0.021 A 
ATOM      7 BR   UNL d   1      -1.900  -3.258  -4.371  0.00  0.00    -0.051 Br
ENDROOT
BRANCH   1   8
ATOM      8  N   UNL d   1       1.175  -0.015  -0.243  0.00  0.00    -0.327 N 
ATOM      9  C   UNL d   1       2.532   0.107  -0.109  0.00  0.00     0.218 C 
ATOM     10  O   UNL d   1       2.987   0.706   0.864  0.00  0.00    -0.274 OA
ATOM     11  C   UNL d   1       3.441  -0.391  -1.203  0.00  0.00     0.117 C 
ATOM     12  H   UNL d   1       0.670   0.613   0.372  0.00  0.00     0.169 HD
ENDBRANCH   1   8
BRANCH   2  13
ATOM     13  C   UNL d   1      -1.187   1.187  -1.493  0.00  0.00     0.036 C 
ATOM     14  C   UNL d   1      -0.507   2.204  -2.401  0.00  0.00     0.010 C 
ENDBRANCH   2  13
TORSDOF 2
