REMARK  5 active torsions:
REMARK  status: ('A' for Active; 'I' for Inactive)
REMARK    1  A    between atoms: C_5  and  N_1 
REMARK    2  A    between atoms: C_14  and  C_4 
REMARK    3  A    between atoms: C_9  and  C_22 
REMARK    4  A    between atoms: O_20  and  C_18 
REMARK    5  A    between atoms: C_22  and  O_20 
ROOT
ATOM      1  N   UNL d   1      -1.493  -3.704  -5.323  0.00  0.00    -0.277 N 
ATOM      2  HN  UNL d   1      -2.352  -4.178  -5.604  1.00  0.00     0.189 HD
ATOM      3  C   UNL d   1      -1.005  -2.593  -5.836  0.00  0.00     0.174 A 
ATOM      4  O   UNL d   1       0.178  -2.214  -5.248  0.00  0.00    -0.275 OA
ATOM      5  N   UNL d   1      -0.623  -4.102  -4.337  0.00  0.00    -0.279 N 
ATOM      6  HN  UNL d   1      -0.715  -4.919  -3.734  1.00  0.00     0.189 HD
ATOM      7  C   UNL d   1       0.352  -3.217  -4.324  0.00  0.00     0.165 A 
ENDROOT
BRANCH   7   8
ATOM      8  C   UNL d   1       1.595  -3.240  -3.511  0.00  0.00     0.262 C 
BRANCH   8   9
ATOM      9  O   UNL d   1       1.488  -2.219  -2.524  0.00  0.00    -0.339 OA
BRANCH   9  10
ATOM     10  C   UNL d   1       2.374  -2.207  -1.483  0.00  0.00     0.113 A 
ATOM     11  C   UNL d   1       2.423  -1.076  -0.648  0.00  0.00     0.146 A 
ATOM     12  N   UNL d   1       3.351  -0.930   0.344  0.00  0.00    -0.350 N 
ATOM     13  C   UNL d   1       4.213  -1.942   0.556  0.00  0.00     0.090 A 
ATOM     14  HN  UNL d   1       3.390  -0.080   0.906  1.00  0.00     0.166 HD
ATOM     15  C   UNL d   1       4.209  -3.108  -0.180  0.00  0.00     0.020 A 
ATOM     16  C   UNL d   1       3.284  -3.236  -1.216  0.00  0.00     0.042 A 
BRANCH  11  17
ATOM     17  N   UNL d   1       1.502   0.014  -0.825  0.00  0.00    -0.304 N 
ATOM     18  C   UNL d   1       1.830   1.373  -0.754  0.00  0.00     0.014 A 
ATOM     19  C   UNL d   1       0.694   2.109  -1.033  0.00  0.00     0.027 A 
ATOM     20  C   UNL d   1       3.193   1.924  -0.498  0.00  0.00     0.068 C 
ATOM     21  C   UNL d   1      -0.369   1.212  -1.214  0.00  0.00     0.027 A 
ATOM     22  C   UNL d   1       0.118  -0.066  -1.022  0.00  0.00     0.014 A 
ATOM     23  C   UNL d   1      -0.697  -1.313  -0.937  0.00  0.00     0.068 C 
ENDBRANCH  11  17
ENDBRANCH   9  10
ENDBRANCH   8   9
ENDBRANCH   7   8
BRANCH   3  24
ATOM     24  C   UNL d   1      -1.502  -1.810  -6.959  0.00  0.00     0.018 A 
ATOM     25  C   UNL d   1      -1.265  -0.435  -7.085  0.00  0.00     0.028 A 
ATOM     26  C   UNL d   1      -1.802   0.299  -8.164  0.00  0.00    -0.025 A 
ATOM     27  C   UNL d   1      -1.605   1.686  -8.289  0.00  0.00     0.012 A 
ATOM     28  C   UNL d   1      -2.573  -0.367  -9.144  0.00  0.00    -0.026 A 
ATOM     29  C   UNL d   1      -2.158   2.396  -9.359  0.00  0.00     0.001 A 
ATOM     30  C   UNL d   1      -2.909   1.732 -10.323  0.00  0.00     0.001 A 
ATOM     31  C   UNL d   1      -3.115   0.356 -10.217  0.00  0.00     0.012 A 
ATOM     32  C   UNL d   1      -2.796  -1.746  -9.020  0.00  0.00     0.013 A 
ATOM     33  C   UNL d   1      -2.275  -2.453  -7.936  0.00  0.00     0.017 A 
ENDBRANCH   3  24
TORSDOF 5
