REMARK  3 active torsions:
REMARK  status: ('A' for Active; 'I' for Inactive)
REMARK    1  A    between atoms: C_4  and  C_1 
REMARK    2  A    between atoms: N_2  and  C_5 
REMARK    3  A    between atoms: N_11  and  C_3 
ROOT
ATOM      1  C   UNL d   1       0.802   1.302   0.133  0.00  0.00     0.088 A 
ATOM      2  C   UNL d   1      -0.598   1.333   0.121  0.00  0.00     0.097 A 
ATOM      3  C   UNL d   1       0.702  -1.106  -0.159  0.00  0.00     0.119 A 
ATOM      4  N   UNL d   1      -1.313   0.183  -0.012  0.00  0.00    -0.354 N 
ATOM      5  HN  UNL d   1      -2.333   0.213  -0.011  1.00  0.00     0.166 HD
ATOM      6  C   UNL d   1       1.454   0.058  -0.030  0.00  0.00     0.057 A 
ATOM      7  C   UNL d   1      -0.669  -1.003  -0.145  0.00  0.00     0.125 A 
ENDROOT
BRANCH   1   8
ATOM      8  C   UNL d   1       1.659   2.525   0.307  0.00  0.00     0.420 C 
ATOM      9  F   UNL d   1       1.092   3.584   0.943  0.00  0.00    -0.166 F 
ATOM     10  F   UNL d   1       2.795   2.253   1.018  0.00  0.00    -0.166 F 
ATOM     11  F   UNL d   1       2.102   3.002  -0.893  0.00  0.00    -0.166 F 
ENDBRANCH   1   8
BRANCH   2  12
ATOM     12  N   UNL d   1      -1.311   2.523   0.311  0.00  0.00    -0.277 NA
ATOM     13  C   UNL d   1      -2.672   2.313   0.820  0.00  0.00     0.118 C 
ATOM     14  C   UNL d   1      -1.266   3.443  -0.829  0.00  0.00     0.118 C 
ENDBRANCH   2  12
BRANCH   3  15
ATOM     15  N   UNL d   1       1.338  -2.409  -0.297  0.00  0.00    -0.114 N 
ATOM     16  O   UNL d   1       2.575  -2.438  -0.342  0.00  0.00    -0.532 OA
ATOM     17  O   UNL d   1       0.605  -3.402  -0.356  0.00  0.00    -0.532 OA
ENDBRANCH   3  15
TORSDOF 3
