REMARK  6 active torsions:
REMARK  status: ('A' for Active; 'I' for Inactive)
REMARK    1  A    between atoms: N_2  and  C_1 
REMARK    2  A    between atoms: N_4  and  C_1 
REMARK    3  A    between atoms: C_5  and  N_2 
REMARK    4  A    between atoms: C_12  and  N_4 
REMARK    5  A    between atoms: O_11  and  C_13 
REMARK    6  A    between atoms: C_13  and  C_12 
ROOT
ATOM      1  N   UNL d   1       0.482  -0.781   0.914  0.00  0.00    -0.333 N 
ATOM      2  H   UNL d   1       0.243  -1.358   0.105  0.00  0.00     0.168 HD
ENDROOT
BRANCH   1   3
ATOM      3  C   UNL d   1       0.107   0.530   0.778  0.00  0.00     0.172 C 
ATOM      4  S   UNL d   1      -0.461   1.561   1.964  0.00  0.00    -0.041 SA
BRANCH   3   5
ATOM      5  N   UNL d   1       0.172   1.022  -0.500  0.00  0.00    -0.365 N 
ATOM      6  H   UNL d   1      -0.119   1.990  -0.567  0.00  0.00     0.161 HD
BRANCH   5   7
ATOM      7  C   UNL d   1       1.037   0.514  -1.560  0.00  0.00     0.148 C 
BRANCH   7   8
ATOM      8  C   UNL d   1       0.383  -0.565  -2.425  0.00  0.00     0.183 C 
BRANCH   8   9
ATOM      9  O   UNL d   1       0.205  -1.775  -1.687  0.00  0.00    -0.399 OA
ATOM     10  H   UNL d   1      -0.128  -2.435  -2.322  0.00  0.00     0.209 HD
ENDBRANCH   8   9
ENDBRANCH   7   8
ENDBRANCH   5   7
ENDBRANCH   3   5
ENDBRANCH   1   3
BRANCH   1  11
ATOM     11  C   UNL d   1       0.941  -1.466   2.055  0.00  0.00     0.034 A 
ATOM     12  C   UNL d   1       0.685  -2.837   2.149  0.00  0.00     0.030 A 
ATOM     13  C   UNL d   1       1.201  -3.583   3.212  0.00  0.00     0.009 A 
ATOM     14  C   UNL d   1       2.026  -2.979   4.168  0.00  0.00    -0.062 A 
ATOM     15  C   UNL d   1       2.271  -1.602   4.079  0.00  0.00     0.009 A 
ATOM     16  C   UNL d   1       2.609  -3.789   5.286  0.00  0.00     0.048 C 
ATOM     17  C   UNL d   1       1.728  -0.852   3.032  0.00  0.00     0.030 A 
ENDBRANCH   1  11
TORSDOF 6
