REMARK  2 active torsions:
REMARK  status: ('A' for Active; 'I' for Inactive)
REMARK    1  A    between atoms: C_2  and  C_1 
REMARK       I    between atoms: N_3  and  C_1 
REMARK    2  A    between atoms: C_11  and  C_9 
ROOT
ATOM      1  C   UNL d   1       1.050  -0.170  -0.180  0.00  0.00     0.259 C 
ATOM      2  N   UNL d   1       0.262  -0.802  -1.154  0.00  0.00    -0.338 N 
ATOM      3  C   UNL d   1      -0.852  -0.115  -1.868  0.00  0.00     0.137 C 
ATOM      4  O   UNL d   1       0.926   1.019   0.091  0.00  0.00    -0.267 OA
ATOM      5  C   UNL d   1       0.622  -2.070  -1.792  0.00  0.00     0.127 C 
ATOM      6  C   UNL d   1      -2.094  -1.041  -1.891  0.00  0.00     0.032 C 
ATOM      7  C   UNL d   1      -0.562  -3.033  -1.762  0.00  0.00     0.020 C 
ATOM      8  C   UNL d   1      -1.775  -2.424  -2.455  0.00  0.00     0.004 C 
ENDROOT
BRANCH   1   9
ATOM      9  C   UNL d   1       2.106  -0.924   0.506  0.00  0.00     0.087 A 
ATOM     10  C   UNL d   1       3.337  -0.389   0.839  0.00  0.00     0.090 A 
ATOM     11  O   UNL d   1       4.096  -1.319   1.469  0.00  0.00    -0.242 OA
ATOM     12  C   UNL d   1       3.984   0.930   0.683  0.00  0.00     0.080 C 
ATOM     13  N   UNL d   1       3.372  -2.479   1.617  0.00  0.00    -0.265 N 
ATOM     14  C   UNL d   1       2.163  -2.226   1.097  0.00  0.00     0.047 A 
ATOM     15  HN  UNL d   1       3.690  -3.353   2.036  1.00  0.00     0.194 HD
ATOM     16  C   UNL d   1       1.130  -3.278   1.233  0.00  0.00     0.071 C 
ENDBRANCH   1   9
BRANCH   3  17
ATOM     17  C   UNL d   1      -1.272   1.304  -1.490  0.00  0.00     0.032 A 
ATOM     18  N   UNL d   1      -2.303   1.469  -0.620  0.00  0.00    -0.367 N 
ATOM     19  C   UNL d   1      -2.743   2.730  -0.406  0.00  0.00     0.088 A 
ATOM     20  HN  UNL d   1      -2.728   0.673  -0.146  1.00  0.00     0.165 HD
ATOM     21  C   UNL d   1      -2.222   3.849  -1.032  0.00  0.00     0.017 A 
ATOM     22  C   UNL d   1      -1.165   3.673  -1.913  0.00  0.00     0.003 A 
ATOM     23  C   UNL d   1      -0.678   2.389  -2.143  0.00  0.00     0.027 A 
ENDBRANCH   3  17
TORSDOF 2
