REMARK  5 active torsions:
REMARK  status: ('A' for Active; 'I' for Inactive)
REMARK    1  A    between atoms: C_2  and  C_1 
REMARK    2  A    between atoms: O_3  and  C_1 
REMARK    3  A    between atoms: C_8  and  O_3 
REMARK    4  A    between atoms: C_4  and  C_8 
REMARK    5  A    between atoms: C_5  and  C_4 
ROOT
ATOM      1  O   UNL d   1       0.318   0.960  -0.814  0.00  0.00    -0.310 OA
ENDROOT
BRANCH   1   2
ATOM      2  C   UNL d   1       0.966   0.941   0.375  0.00  0.00     0.293 C 
ATOM      3  O   UNL d   1       0.448   1.068   1.474  0.00  0.00    -0.259 OA
BRANCH   2   4
ATOM      4  C   UNL d   1       2.421   0.679   0.195  0.00  0.00     0.040 A 
ATOM      5  C   UNL d   1       3.209   0.542   1.347  0.00  0.00     0.036 A 
ATOM      6  C   UNL d   1       4.572   0.273   1.230  0.00  0.00     0.011 A 
ATOM      7 BR   UNL d   1       5.627   0.086   2.788  0.00  0.00    -0.051 Br
ATOM      8  C   UNL d   1       5.163   0.138  -0.025  0.00  0.00     0.019 A 
ATOM      9  C   UNL d   1       4.385   0.277  -1.174  0.00  0.00     0.002 A 
ATOM     10  C   UNL d   1       3.017   0.549  -1.067  0.00  0.00     0.017 A 
ENDBRANCH   2   4
ENDBRANCH   1   2
BRANCH   1  11
ATOM     11  C   UNL d   1      -1.104   1.118  -0.752  0.00  0.00     0.263 C 
BRANCH  11  12
ATOM     12  C   UNL d   1      -1.588   2.349  -1.514  0.00  0.00     0.183 C 
ATOM     13  O   UNL d   1      -0.821   3.102  -2.112  0.00  0.00    -0.290 OA
BRANCH  12  14
ATOM     14  C   UNL d   1      -3.061   2.635  -1.534  0.00  0.00     0.012 A 
ATOM     15  C   UNL d   1      -3.997   1.803  -0.902  0.00  0.00     0.016 A 
ATOM     16  C   UNL d   1      -5.361   2.117  -0.939  0.00  0.00     0.020 A 
ATOM     17  C   UNL d   1      -5.794   3.260  -1.608  0.00  0.00     0.011 A 
ATOM     18  C   UNL d   1      -4.877   4.093  -2.246  0.00  0.00     0.020 A 
ATOM     19 BR   UNL d   1      -7.635   3.684  -1.644  0.00  0.00    -0.051 Br
ATOM     20  C   UNL d   1      -3.514   3.779  -2.209  0.00  0.00     0.016 A 
ENDBRANCH  12  14
ENDBRANCH  11  12
ENDBRANCH   1  11
TORSDOF 5
