REMARK  6 active torsions:
REMARK  status: ('A' for Active; 'I' for Inactive)
REMARK    1  A    between atoms: N_2  and  C_1 
REMARK    2  A    between atoms: N_4  and  C_3 
REMARK    3  A    between atoms: C_14  and  C_11 
REMARK    4  A    between atoms: C_12  and  C_14 
REMARK    5  A    between atoms: C_18  and  C_12 
REMARK    6  A    between atoms: O_17  and  C_18 
ROOT
ATOM      1  N   UNL d   1      -2.986   2.304  -2.613  0.00  0.00    -0.197 NA
ATOM      2  C   UNL d   1      -2.246   2.801  -1.863  0.00  0.00     0.066 C 
ATOM      3  C   UNL d   1      -1.335   3.433  -0.900  0.00  0.00     0.120 C 
ENDROOT
BRANCH   3   4
ATOM      4  C   UNL d   1      -1.153   2.556   0.348  0.00  0.00     0.060 C 
BRANCH   4   5
ATOM      5  C   UNL d   1      -0.538   1.195   0.114  0.00  0.00    -0.054 A 
ATOM      6  C   UNL d   1       0.849   1.012   0.151  0.00  0.00     0.045 A 
ATOM      7  C   UNL d   1       1.400  -0.289   0.081  0.00  0.00     0.129 A 
ATOM      8  C   UNL d   1       0.603  -1.442  -0.037  0.00  0.00     0.063 A 
ATOM      9  C   UNL d   1      -0.782  -1.196  -0.146  0.00  0.00     0.032 A 
ATOM     10  C   UNL d   1      -1.347   0.080  -0.084  0.00  0.00     0.009 A 
BRANCH   7  11
ATOM     11  N   UNL d   1       2.851  -0.353   0.060  0.00  0.00    -0.113 N 
ATOM     12  O   UNL d   1       3.400  -0.782  -0.967  0.00  0.00    -0.532 OA
ATOM     13  O   UNL d   1       3.449   0.077   1.060  0.00  0.00    -0.532 OA
ENDBRANCH   7  11
BRANCH   8  14
ATOM     14  N   UNL d   1       1.012  -2.753  -0.050  0.00  0.00    -0.379 N 
ATOM     15  C   UNL d   1       2.162  -3.355   0.608  0.00  0.00     0.123 C 
ATOM     16  C   UNL d   1       2.586  -4.423  -0.392  0.00  0.00     0.021 C 
ATOM     17  C   UNL d   1       1.261  -4.944  -0.927  0.00  0.00     0.021 C 
ATOM     18  C   UNL d   1       0.339  -3.729  -0.915  0.00  0.00     0.123 C 
ENDBRANCH   8  14
ENDBRANCH   4   5
ENDBRANCH   3   4
BRANCH   3  19
ATOM     19  C   UNL d   1      -1.903   4.807  -0.511  0.00  0.00     0.183 C 
BRANCH  19  20
ATOM     20  O   UNL d   1      -1.019   5.465   0.391  0.00  0.00    -0.400 OA
ATOM     21  H   UNL d   1      -1.299   6.396   0.454  0.00  0.00     0.209 HD
ENDBRANCH  19  20
ENDBRANCH   3  19
TORSDOF 6
