REMARK  8 active torsions:
REMARK  status: ('A' for Active; 'I' for Inactive)
REMARK    1  A    between atoms: C_5  and  C_1 
REMARK    2  A    between atoms: C_6  and  C_5 
REMARK    3  A    between atoms: S_13  and  C_6 
REMARK    4  A    between atoms: C_17  and  N_7 
REMARK    5  A    between atoms: C_16  and  S_13 
REMARK    6  A    between atoms: C_14  and  C_16 
REMARK    7  A    between atoms: O_18  and  C_14 
REMARK    8  A    between atoms: C_21  and  O_18 
ROOT
ATOM      1  C   UNL d   1      -3.950   2.162  -1.533  0.00  0.00     0.217 C 
ATOM      2  C   UNL d   1      -3.578   2.375  -2.940  0.00  0.00     0.078 C 
ATOM      3  N   UNL d   1      -3.320   2.528  -4.059  0.00  0.00    -0.196 NA
ENDROOT
BRANCH   1   4
ATOM      4  C   UNL d   1      -5.202   2.929  -1.204  0.00  0.00     0.106 A 
ATOM      5  N   UNL d   1      -5.325   3.842  -0.258  0.00  0.00    -0.343 N 
ATOM      6  C   UNL d   1      -6.600   4.339  -0.379  0.00  0.00     0.060 A 
ATOM      7  HN  UNL d   1      -4.619   4.121   0.423  1.00  0.00     0.167 HD
ATOM      8  C   UNL d   1      -7.245   5.344   0.357  0.00  0.00     0.032 A 
ATOM      9  C   UNL d   1      -7.282   3.708  -1.411  0.00  0.00     0.060 A 
ATOM     10  C   UNL d   1      -8.560   5.688   0.016  0.00  0.00     0.002 A 
ATOM     11  C   UNL d   1      -9.217   5.043  -1.034  0.00  0.00     0.002 A 
ATOM     12  C   UNL d   1      -8.592   4.031  -1.774  0.00  0.00     0.032 A 
ATOM     13  N   UNL d   1      -6.386   2.792  -1.900  0.00  0.00    -0.343 N 
ATOM     14  H   UNL d   1      -6.556   2.134  -2.651  0.00  0.00     0.167 HD
ENDBRANCH   1   4
BRANCH   1  15
ATOM     15  C   UNL d   1      -4.176   0.667  -1.282  0.00  0.00     0.072 C 
ATOM     16  N   UNL d   1      -5.128   0.056  -1.934  0.00  0.00    -0.353 N 
ATOM     17  HN  UNL d   1      -5.634   0.622  -2.615  1.00  0.00     0.166 HD
BRANCH  16  18
ATOM     18  C   UNL d   1      -5.546  -1.279  -1.818  0.00  0.00     0.032 A 
ATOM     19  C   UNL d   1      -5.566  -2.017  -0.633  0.00  0.00     0.029 A 
ATOM     20  C   UNL d   1      -5.950  -3.361  -0.622  0.00  0.00     0.002 A 
ATOM     21  C   UNL d   1      -6.411  -3.967  -1.785  0.00  0.00     0.000 A 
ATOM     22  C   UNL d   1      -6.513  -3.217  -2.952  0.00  0.00     0.002 A 
ATOM     23  C   UNL d   1      -6.078  -1.886  -2.966  0.00  0.00     0.029 A 
ENDBRANCH  16  18
BRANCH  15  24
ATOM     24  S   UNL d   1      -3.134  -0.012  -0.026  0.00  0.00    -0.105 SA
BRANCH  24  25
ATOM     25  C   UNL d   1      -1.817  -0.822  -0.982  0.00  0.00     0.191 C 
BRANCH  25  26
ATOM     26  C   UNL d   1      -0.878   0.158  -1.651  0.00  0.00     0.268 C 
ATOM     27  O   UNL d   1      -1.030   1.370  -1.695  0.00  0.00    -0.264 OA
BRANCH  26  28
ATOM     28  O   UNL d   1       0.173  -0.518  -2.202  0.00  0.00    -0.321 OA
BRANCH  28  29
ATOM     29  C   UNL d   1       1.172   0.289  -2.850  0.00  0.00     0.174 C 
ATOM     30  C   UNL d   1       0.764   0.589  -4.280  0.00  0.00     0.034 C 
ENDBRANCH  28  29
ENDBRANCH  26  28
ENDBRANCH  25  26
ENDBRANCH  24  25
ENDBRANCH  15  24
ENDBRANCH   1  15
TORSDOF 8
