REMARK  3 active torsions:
REMARK  status: ('A' for Active; 'I' for Inactive)
REMARK    1  A    between atoms: C_6  and  N_1 
REMARK    2  A    between atoms: C_7  and  C_6 
REMARK    3  A    between atoms: C_10  and  C_7 
ROOT
ATOM      1  N   UNL d   1       1.839  -0.088  -0.165  0.00  0.00    -0.273 N 
ATOM      2  C   UNL d   1       0.976   0.426  -1.091  0.00  0.00     0.262 A 
ATOM      3  C   UNL d   1       1.185  -0.778   0.817  0.00  0.00     0.262 A 
ATOM      4  C   UNL d   1      -0.371   0.123  -0.618  0.00  0.00     0.048 A 
ATOM      5  C   UNL d   1      -0.246  -0.625   0.539  0.00  0.00     0.048 A 
ATOM      6  O   UNL d   1       1.234   0.998  -2.132  0.00  0.00    -0.267 OA
ATOM      7  O   UNL d   1       1.636  -1.451   1.721  0.00  0.00    -0.267 OA
ATOM      8  C   UNL d   1      -1.351  -1.117   1.207  0.00  0.00     0.018 A 
ATOM      9  C   UNL d   1      -1.600   0.444  -1.159  0.00  0.00     0.018 A 
ATOM     10  C   UNL d   1      -2.733  -0.029  -0.491  0.00  0.00     0.001 A 
ATOM     11  C   UNL d   1      -2.610  -0.809   0.678  0.00  0.00     0.001 A 
ENDROOT
BRANCH   1  12
ATOM     12  C   UNL d   1       3.277  -0.028  -0.323  0.00  0.00     0.219 C 
BRANCH  12  13
ATOM     13  C   UNL d   1       3.738   1.396  -0.036  0.00  0.00     0.177 C 
ATOM     14  O   UNL d   1       3.627   1.882   1.092  0.00  0.00    -0.291 OA
BRANCH  13  15
ATOM     15  C   UNL d   1       4.241   2.268  -1.147  0.00  0.00     0.012 A 
ATOM     16  C   UNL d   1       4.320   3.652  -0.905  0.00  0.00     0.018 A 
ATOM     17  C   UNL d   1       4.752   4.530  -1.903  0.00  0.00     0.043 A 
ATOM     18  C   UNL d   1       5.111   4.026  -3.145  0.00  0.00     0.116 A 
ATOM     19  C   UNL d   1       5.048   2.663  -3.405  0.00  0.00     0.043 A 
ATOM     20  F   UNL d   1       5.526   4.863  -4.104  0.00  0.00    -0.206 F 
ATOM     21  C   UNL d   1       4.616   1.781  -2.408  0.00  0.00     0.018 A 
ENDBRANCH  13  15
ENDBRANCH  12  13
ENDBRANCH   1  12
TORSDOF 3
