REMARK  2 active torsions:
REMARK  status: ('A' for Active; 'I' for Inactive)
REMARK    1  A    between atoms: C_7  and  N_1 
REMARK    2  A    between atoms: N_11  and  N_4 
ROOT
ATOM      1  N   UNL d   1       0.666   1.129  -0.519  0.00  0.00    -0.305 N 
ATOM      2  C   UNL d   1       1.433  -0.027  -0.350  0.00  0.00     0.244 C 
ATOM      3  C   UNL d   1      -1.409   0.017   0.362  0.00  0.00     0.252 C 
ATOM      4  N   UNL d   1      -0.659  -1.148   0.548  0.00  0.00    -0.275 N 
ATOM      5  C   UNL d   1       0.627  -1.303  -0.112  0.00  0.00     0.249 C 
ATOM      6  C   UNL d   1      -0.565   1.280   0.252  0.00  0.00     0.236 C 
ATOM      7  O   UNL d   1      -2.630   0.049   0.529  0.00  0.00    -0.270 OA
ATOM      8  O   UNL d   1       2.643  -0.106  -0.562  0.00  0.00    -0.271 OA
ENDROOT
BRANCH   1   9
ATOM      9  C   UNL d   1       1.287   2.309  -1.052  0.00  0.00     0.076 A 
ATOM     10  C   UNL d   1       1.099   3.587  -0.503  0.00  0.00     0.143 A 
ATOM     11  F   UNL d   1       0.364   3.759   0.607  0.00  0.00    -0.204 F 
ATOM     12  C   UNL d   1       1.713   4.713  -1.050  0.00  0.00     0.044 A 
ATOM     13  C   UNL d   1       2.508   4.588  -2.188  0.00  0.00     0.003 A 
ATOM     14  C   UNL d   1       2.692   3.334  -2.763  0.00  0.00     0.002 A 
ATOM     15  C   UNL d   1       2.094   2.204  -2.196  0.00  0.00     0.033 A 
ENDBRANCH   1   9
BRANCH   4  16
ATOM     16  N   UNL d   1      -1.387  -2.355   0.786  0.00  0.00    -0.244 NA
ATOM     17  H   UNL d   1      -2.375  -2.153   0.574  0.00  0.00     0.143 HD
ATOM     18  H   UNL d   1      -1.384  -2.516   1.797  0.00  0.00     0.143 HD
ENDBRANCH   4  16
TORSDOF 2
