REMARK  4 active torsions:
REMARK  status: ('A' for Active; 'I' for Inactive)
REMARK    1  A    between atoms: C_8  and  C_1 
REMARK    2  A    between atoms: N_7  and  C_13 
REMARK       I    between atoms: N_14  and  C_8 
REMARK    3  A    between atoms: C_21  and  N_14 
REMARK    4  A    between atoms: C_16  and  C_21 
ROOT
ATOM      1  C   UNL d   1      -1.244  -3.289  -0.393  0.00  0.00     0.254 C 
ATOM      2  N   UNL d   1      -0.282  -3.508   0.564  0.00  0.00    -0.352 N 
ATOM      3  O   UNL d   1      -1.008  -2.799  -1.492  0.00  0.00    -0.268 OA
ATOM      4  H   UNL d   1      -0.555  -3.900   1.460  0.00  0.00     0.163 HD
ENDROOT
BRANCH   2   5
ATOM      5  C   UNL d   1       1.127  -3.201   0.369  0.00  0.00     0.164 C 
BRANCH   5   6
ATOM      6  C   UNL d   1       2.021  -4.420   0.185  0.00  0.00    -0.012 A 
ATOM      7  C   UNL d   1       3.400  -4.315  -0.146  0.00  0.00     0.063 A 
ATOM      8  C   UNL d   1       4.156  -5.489  -0.357  0.00  0.00     0.032 A 
ATOM      9  C   UNL d   1       3.581  -6.752  -0.220  0.00  0.00     0.002 A 
ATOM     10  C   UNL d   1       2.243  -6.865   0.121  0.00  0.00     0.001 A 
ATOM     11  C   UNL d   1       1.475  -5.716   0.318  0.00  0.00     0.011 A 
BRANCH   7  12
ATOM     12  N   UNL d   1       4.080  -3.058  -0.249  0.00  0.00    -0.268 N 
ATOM     13  N   UNL d   1       3.579  -1.919   0.294  0.00  0.00    -0.305 N 
ATOM     14  C   UNL d   1       4.516  -0.993   0.093  0.00  0.00     0.109 A 
ATOM     15  HN  UNL d   1       2.678  -1.798   0.757  1.00  0.00     0.186 HD
ATOM     16  C   UNL d   1       5.622  -1.492  -0.602  0.00  0.00     0.038 A 
ATOM     17  C   UNL d   1       5.317  -2.813  -0.821  0.00  0.00     0.118 A 
ENDBRANCH   7  12
ENDBRANCH   5   6
ENDBRANCH   2   5
BRANCH   1  18
ATOM     18  C   UNL d   1      -2.636  -3.675  -0.061  0.00  0.00     0.061 A 
ATOM     19  C   UNL d   1      -3.029  -4.294   1.155  0.00  0.00     0.082 A 
ATOM     20  N   UNL d   1      -2.251  -4.625   2.205  0.00  0.00    -0.310 N 
ATOM     21  C   UNL d   1      -4.482  -4.663   1.385  0.00  0.00     0.068 A 
ATOM     22  S   UNL d   1      -3.239  -5.314   3.346  0.00  0.00     0.068 SA
ATOM     23  HN  UNL d   1      -1.244  -4.480   2.283  1.00  0.00     0.176 HD
ATOM     24  N   UNL d   1      -4.704  -5.239   2.574  0.00  0.00    -0.310 N 
ATOM     25  HN  UNL d   1      -5.599  -5.568   2.935  1.00  0.00     0.176 HD
ATOM     26  C   UNL d   1      -5.470  -4.404   0.404  0.00  0.00     0.032 A 
ATOM     27  C   UNL d   1      -5.026  -3.789  -0.776  0.00  0.00     0.003 A 
ATOM     28  C   UNL d   1      -3.673  -3.441  -0.998  0.00  0.00     0.019 A 
ENDBRANCH   1  18
TORSDOF 4
