REMARK  3 active torsions:
REMARK  status: ('A' for Active; 'I' for Inactive)
REMARK    1  A    between atoms: C_2  and  C_1 
REMARK       I    between atoms: C_3  and  N_5 
REMARK       I    between atoms: N_7  and  C_3 
REMARK    2  A    between atoms: N_5  and  C_4 
REMARK    3  A    between atoms: C_6  and  N_7 
ROOT
ATOM      1  C   UNL d   1      -0.116   1.828   0.062  0.00  0.00     0.325 C 
ATOM      2  N   UNL d   1      -0.425   1.619  -1.247  0.00  0.00    -0.307 N 
ATOM      3  N   UNL d   1       0.207   0.790   0.872  0.00  0.00    -0.309 N 
ATOM      4  O   UNL d   1      -0.155   2.934   0.602  0.00  0.00    -0.247 OA
ATOM      5  H   UNL d   1       0.097   0.890  -1.691  0.00  0.00     0.170 HD
ATOM      6  H   UNL d   1       0.217   1.151   1.825  0.00  0.00     0.170 HD
ENDROOT
BRANCH   2   7
ATOM      7  C   UNL d   1      -0.786   2.712  -2.082  0.00  0.00     0.066 C 
ATOM      8  C   UNL d   1      -1.663   3.749  -1.727  0.00  0.00     0.077 C 
ATOM      9  C   UNL d   1      -1.705   4.894  -2.544  0.00  0.00     0.035 C 
ATOM     10  C   UNL d   1      -0.974   4.919  -3.717  0.00  0.00     0.088 C 
ATOM     11  N   UNL d   1      -0.241   3.877  -4.153  0.00  0.00    -0.373 N 
ATOM     12  C   UNL d   1      -0.167   2.803  -3.332  0.00  0.00     0.117 C 
ATOM     13  HN  UNL d   1       0.233   3.895  -5.055  1.00  0.00     0.164 HD
BRANCH   8  14
ATOM     14  C   UNL d   1      -2.638   3.690  -0.577  0.00  0.00     0.419 C 
ATOM     15  F   UNL d   1      -2.829   2.454  -0.035  0.00  0.00    -0.166 F 
ATOM     16  F   UNL d   1      -2.336   4.532   0.448  0.00  0.00    -0.166 F 
ATOM     17  F   UNL d   1      -3.890   4.076  -0.983  0.00  0.00    -0.166 F 
ENDBRANCH   8  14
ENDBRANCH   2   7
BRANCH   3  18
ATOM     18  C   UNL d   1       0.500  -0.575   0.756  0.00  0.00     0.039 A 
ATOM     19  C   UNL d   1       0.807  -1.259  -0.417  0.00  0.00     0.053 A 
ATOM     20  C   UNL d   1       1.136  -2.622  -0.367  0.00  0.00     0.037 A 
ATOM     21 CL   UNL d   1       1.545  -3.446  -1.823  0.00  0.00    -0.084 Cl
ATOM     22  C   UNL d   1       1.160  -3.318   0.839  0.00  0.00     0.048 A 
ATOM     23  C   UNL d   1       0.861  -2.637   2.009  0.00  0.00     0.037 A 
ATOM     24  C   UNL d   1       0.542  -1.280   1.972  0.00  0.00     0.053 A 
ATOM     25 CL   UNL d   1       0.898  -3.463   3.516  0.00  0.00    -0.084 Cl
ENDBRANCH   3  18
TORSDOF 3
