REMARK  8 active torsions:
REMARK  status: ('A' for Active; 'I' for Inactive)
REMARK    1  A    between atoms: N_8  and  C_3 
REMARK    2  A    between atoms: N_10  and  C_4 
REMARK       I    between atoms: C_5  and  N_7 
REMARK    3  A    between atoms: C_9  and  C_5 
REMARK    4  A    between atoms: N_7  and  C_6 
REMARK    5  A    between atoms: C_20  and  N_8 
REMARK    6  A    between atoms: C_21  and  N_8 
REMARK    7  A    between atoms: C_22  and  N_10 
REMARK    8  A    between atoms: C_23  and  N_10 
ROOT
ATOM      1  N   UNL d   1      -1.336   0.008  -0.206  0.00  0.00    -0.327 N 
ATOM      2  HN  UNL d   1      -2.313  -0.001  -0.499  1.00  0.00     0.169 HD
ATOM      3  C   UNL d   1      -0.688   1.209  -0.083  0.00  0.00     0.132 C 
ATOM      4  C   UNL d   1      -0.710  -1.175   0.055  0.00  0.00     0.104 C 
ATOM      5  C   UNL d   1       0.700   1.205   0.168  0.00  0.00     0.079 C 
ATOM      6  C   UNL d   1       0.624  -1.172   0.437  0.00  0.00     0.051 C 
ATOM      7  C   UNL d   1       1.331   0.012   0.497  0.00  0.00     0.037 C 
ENDROOT
BRANCH   5   8
ATOM      8  N   UNL d   1       1.546   2.323   0.176  0.00  0.00    -0.320 N 
ATOM      9  C   UNL d   1       2.122   2.995  -0.879  0.00  0.00     0.256 C 
ATOM     10  O   UNL d   1       2.624   4.097  -0.640  0.00  0.00    -0.267 OA
ATOM     11  H   UNL d   1       1.589   2.842   1.044  0.00  0.00     0.169 HD
BRANCH   9  12
ATOM     12  C   UNL d   1       2.230   2.457  -2.271  0.00  0.00     0.032 A 
ATOM     13  C   UNL d   1       2.443   3.394  -3.299  0.00  0.00     0.018 A 
ATOM     14  C   UNL d   1       2.689   2.985  -4.614  0.00  0.00     0.025 A 
ATOM     15  C   UNL d   1       2.725   1.629  -4.918  0.00  0.00     0.034 A 
ATOM     16  C   UNL d   1       2.511   0.684  -3.919  0.00  0.00     0.025 A 
ATOM     17 CL   UNL d   1       3.068   1.115  -6.523  0.00  0.00    -0.084 Cl
ATOM     18  C   UNL d   1       2.276   1.098  -2.600  0.00  0.00     0.018 A 
ENDBRANCH   9  12
ENDBRANCH   5   8
BRANCH   3  19
ATOM     19  N   UNL d   1      -1.474   2.369  -0.135  0.00  0.00    -0.366 N 
BRANCH  19  20
ATOM     20  C   UNL d   1      -1.026   3.634   0.457  0.00  0.00     0.120 C 
ATOM     21  C   UNL d   1      -2.150   4.560   0.908  0.00  0.00     0.026 C 
ENDBRANCH  19  20
BRANCH  19  22
ATOM     22  C   UNL d   1      -2.538   2.384  -1.141  0.00  0.00     0.120 C 
ATOM     23  C   UNL d   1      -3.906   2.088  -0.539  0.00  0.00     0.026 C 
ENDBRANCH  19  22
ENDBRANCH   3  19
BRANCH   4  24
ATOM     24  N   UNL d   1      -1.424  -2.370  -0.024  0.00  0.00    -0.368 N 
BRANCH  24  25
ATOM     25  C   UNL d   1      -0.924  -3.634   0.532  0.00  0.00     0.120 C 
ATOM     26  C   UNL d   1      -0.957  -3.632   2.056  0.00  0.00     0.026 C 
ENDBRANCH  24  25
BRANCH  24  27
ATOM     27  C   UNL d   1      -2.459  -2.469  -1.058  0.00  0.00     0.120 C 
ATOM     28  C   UNL d   1      -1.883  -3.033  -2.354  0.00  0.00     0.026 C 
ENDBRANCH  24  27
ENDBRANCH   4  24
TORSDOF 8
