REMARK  8 active torsions:
REMARK  status: ('A' for Active; 'I' for Inactive)
REMARK    1  A    between atoms: C_9  and  N_1 
REMARK    2  A    between atoms: S_16  and  C_2 
REMARK    3  A    between atoms: O_20  and  C_3 
REMARK    4  A    between atoms: S_4  and  C_12 
REMARK    5  A    between atoms: C_10  and  S_4 
REMARK    6  A    between atoms: C_11  and  C_9 
REMARK    7  A    between atoms: C_12  and  C_23 
REMARK    8  A    between atoms: C_23  and  S_16 
ROOT
ATOM      1  N   UNL d   1       1.382   0.927  -1.012  0.00  0.00    -0.285 N 
ATOM      2  C   UNL d   1       1.807  -0.371  -1.061  0.00  0.00     0.164 A 
ATOM      3  C   UNL d   1       0.475   1.046  -2.034  0.00  0.00     0.240 A 
ATOM      4  N   UNL d   1       1.227  -0.989  -2.064  0.00  0.00    -0.277 N 
ATOM      5  HN  UNL d   1       1.365  -1.964  -2.330  1.00  0.00     0.189 HD
ATOM      6  N   UNL d   1       0.398  -0.085  -2.692  0.00  0.00    -0.263 N 
ATOM      7  HN  UNL d   1      -0.172  -0.263  -3.519  1.00  0.00     0.190 HD
ENDROOT
BRANCH   2   8
ATOM      8  S   UNL d   1       2.953  -1.063   0.038  0.00  0.00    -0.091 SA
BRANCH   8   9
ATOM      9  C   UNL d   1       3.050  -2.767  -0.609  0.00  0.00     0.098 C 
BRANCH   9  10
ATOM     10  C   UNL d   1       4.251  -3.521  -0.067  0.00  0.00     0.156 C 
BRANCH  10  11
ATOM     11  S   UNL d   1       3.936  -4.534   1.354  0.00  0.00     0.176 S 
ATOM     12  O   UNL d   1       2.612  -5.120   1.235  0.00  0.00    -0.223 OA
ATOM     13  O   UNL d   1       5.092  -5.394   1.524  0.00  0.00    -0.223 OA
BRANCH  11  14
ATOM     14  C   UNL d   1       3.901  -3.449   2.766  0.00  0.00     0.059 A 
ATOM     15  C   UNL d   1       2.712  -2.797   3.107  0.00  0.00     0.026 A 
ATOM     16  C   UNL d   1       2.662  -2.016   4.264  0.00  0.00     0.044 A 
ATOM     17  C   UNL d   1       3.784  -1.925   5.082  0.00  0.00     0.116 A 
ATOM     18  C   UNL d   1       4.960  -2.598   4.767  0.00  0.00     0.044 A 
ATOM     19  F   UNL d   1       3.724  -1.191   6.201  0.00  0.00    -0.206 F 
ATOM     20  C   UNL d   1       5.023  -3.366   3.602  0.00  0.00     0.026 A 
ENDBRANCH  11  14
ENDBRANCH  10  11
ENDBRANCH   9  10
ENDBRANCH   8   9
ENDBRANCH   2   8
BRANCH   1  21
ATOM     21  C   UNL d   1       1.783   1.978  -0.105  0.00  0.00     0.200 C 
BRANCH  21  22
ATOM     22  C   UNL d   1       0.718   2.167   0.907  0.00  0.00     0.070 A 
ATOM     23  O   UNL d   1      -0.316   2.982   0.544  0.00  0.00    -0.325 OA
ATOM     24  C   UNL d   1      -1.212   2.956   1.564  0.00  0.00     0.142 A 
ATOM     25  C   UNL d   1      -0.766   2.140   2.577  0.00  0.00     0.027 A 
ATOM     26  C   UNL d   1       0.489   1.637   2.159  0.00  0.00     0.036 A 
ENDBRANCH  21  22
ENDBRANCH   1  21
BRANCH   3  27
ATOM     27  O   UNL d   1      -0.232   2.126  -2.328  0.00  0.00    -0.331 OA
ATOM     28  H   UNL d   1      -0.349   2.653  -1.518  0.00  0.00     0.221 HD
ENDBRANCH   3  27
TORSDOF 8
