REMARK  2 active torsions:
REMARK  status: ('A' for Active; 'I' for Inactive)
REMARK    1  A    between atoms: C_2  and  S_1 
REMARK    2  A    between atoms: C_5  and  S_1 
ROOT
ATOM      1  N   UNL d   1       3.962  -1.752   1.197  0.00  0.00    -0.196 NA
ATOM      2  C   UNL d   1       2.819   0.364   0.177  0.00  0.00     0.269 C 
ATOM      3  C   UNL d   1       3.438  -0.826   0.733  0.00  0.00     0.074 C 
ENDROOT
BRANCH   2   4
ATOM      4  S   UNL d   1       1.081   0.074   0.058  0.00  0.00     0.188 S 
ATOM      5  O   UNL d   1       0.433   1.331  -0.265  0.00  0.00    -0.222 OA
ATOM      6  O   UNL d   1       0.819  -1.129  -0.706  0.00  0.00    -0.222 OA
BRANCH   4   7
ATOM      7  C   UNL d   1       0.532  -0.283   1.665  0.00  0.00     0.067 A 
ATOM      8  C   UNL d   1       0.483  -1.599   2.219  0.00  0.00     0.031 A 
ATOM      9  C   UNL d   1       0.006  -1.595   3.512  0.00  0.00     0.051 A 
ATOM     10  S   UNL d   1      -0.383  -0.018   4.051  0.00  0.00    -0.112 SA
ATOM     11  C   UNL d   1       0.081   0.671   2.553  0.00  0.00     0.072 A 
ENDBRANCH   4   7
ENDBRANCH   2   4
TORSDOF 2
