REMARK  3 active torsions:
REMARK  status: ('A' for Active; 'I' for Inactive)
REMARK    1  A    between atoms: C_7  and  C_1 
REMARK    2  A    between atoms: S_8  and  C_7 
REMARK    3  A    between atoms: C_9  and  S_8 
ROOT
ATOM      1  C   UNL d   1      -1.202   1.060  -0.025  0.00  0.00    -0.036 C 
ATOM      2  C   UNL d   1       0.063   1.714   0.090  0.00  0.00    -0.048 C 
ATOM      3  C   UNL d   1      -1.233  -0.369  -0.052  0.00  0.00    -0.048 C 
ATOM      4  C   UNL d   1       1.270   0.967  -0.001  0.00  0.00    -0.049 C 
ATOM      5  C   UNL d   1      -0.018  -1.116  -0.032  0.00  0.00    -0.049 C 
ATOM      6  C   UNL d   1       1.230  -0.446  -0.034  0.00  0.00    -0.049 C 
ATOM      7  C   UNL d   1       2.621   1.658  -0.039  0.00  0.00     0.049 C 
ATOM      8  C   UNL d   1      -0.028  -2.629   0.007  0.00  0.00     0.049 C 
ATOM      9  C   UNL d   1       0.152   3.208   0.331  0.00  0.00     0.049 C 
ATOM     10  C   UNL d   1       2.538  -1.215  -0.043  0.00  0.00     0.049 C 
ATOM     11  C   UNL d   1      -2.530  -1.157  -0.063  0.00  0.00     0.049 C 
ENDROOT
BRANCH   1  12
ATOM     12  C   UNL d   1      -2.492   1.881  -0.015  0.00  0.00     0.120 C 
BRANCH  12  13
ATOM     13  S   UNL d   1      -2.724   3.025  -1.425  0.00  0.00    -0.108 SA
BRANCH  13  14
ATOM     14  C   UNL d   1      -4.287   3.761  -0.945  0.00  0.00     0.069 A 
ATOM     15  N   UNL d   1      -4.926   3.241   0.127  0.00  0.00    -0.361 N 
ATOM     16  C   UNL d   1      -6.097   3.807   0.498  0.00  0.00     0.089 A 
ATOM     17  HN  UNL d   1      -4.538   2.449   0.639  1.00  0.00     0.165 HD
ATOM     18  C   UNL d   1      -6.671   4.882  -0.150  0.00  0.00     0.017 A 
ATOM     19  C   UNL d   1      -6.011   5.399  -1.256  0.00  0.00     0.004 A 
ATOM     20  C   UNL d   1      -4.803   4.830  -1.669  0.00  0.00     0.037 A 
ENDBRANCH  13  14
ENDBRANCH  12  13
ENDBRANCH   1  12
TORSDOF 3
