REMARK  3 active torsions:
REMARK  status: ('A' for Active; 'I' for Inactive)
REMARK    1  A    between atoms: O_11  and  C_5 
REMARK    2  A    between atoms: C_12  and  O_11 
REMARK    3  A    between atoms: C_18  and  C_12 
ROOT
ATOM      1  C   UNL d   1       1.354   0.859   0.032  0.00  0.00     0.101 A 
ATOM      2  C   UNL d   1       0.539   2.155   0.025  0.00  0.00     0.264 A 
ATOM      3  N   UNL d   1      -0.835   2.000   0.012  0.00  0.00    -0.312 N 
ATOM      4  C   UNL d   1       0.693  -0.324   0.021  0.00  0.00     0.110 A 
ATOM      5  C   UNL d   1       2.821   0.799   0.047  0.00  0.00     0.103 A 
ATOM      6  C   UNL d   1      -0.762  -0.424   0.007  0.00  0.00     0.026 A 
ATOM      7  C   UNL d   1      -1.453   0.761   0.004  0.00  0.00     0.057 A 
ATOM      8  C   UNL d   1       3.424  -0.404   0.048  0.00  0.00     0.121 A 
ATOM      9  O   UNL d   1       1.331  -1.577   0.024  0.00  0.00    -0.273 OA
ATOM     10  C   UNL d   1       2.679  -1.662   0.038  0.00  0.00     0.290 A 
ATOM     11  C   UNL d   1      -1.881   3.034  -0.009  0.00  0.00     0.137 A 
ATOM     12  O   UNL d   1       1.074   3.261   0.030  0.00  0.00    -0.267 OA
ATOM     13  C   UNL d   1      -2.834   0.855  -0.006  0.00  0.00    -0.029 A 
ATOM     14  O   UNL d   1       3.266  -2.740   0.040  0.00  0.00    -0.260 OA
ATOM     15  C   UNL d   1      -3.248   2.292  -0.001  0.00  0.00     0.061 A 
ATOM     16  C   UNL d   1      -1.517  -1.597  -0.002  0.00  0.00     0.017 A 
ATOM     17  C   UNL d   1      -2.924  -1.535  -0.011  0.00  0.00     0.002 A 
ATOM     18  C   UNL d   1      -3.594  -0.301  -0.012  0.00  0.00     0.009 A 
ENDROOT
BRANCH   5  19
ATOM     19  O   UNL d   1       3.531   2.040   0.036  0.00  0.00    -0.274 OA
BRANCH  19  20
ATOM     20  C   UNL d   1       4.901   2.117   0.087  0.00  0.00     0.298 C 
ATOM     21  O   UNL d   1       5.691   1.189   0.196  0.00  0.00    -0.259 OA
BRANCH  20  22
ATOM     22  C   UNL d   1       5.404   3.509  -0.023  0.00  0.00     0.039 A 
ATOM     23  C   UNL d   1       6.802   3.700  -0.046  0.00  0.00     0.017 A 
ATOM     24  C   UNL d   1       7.342   4.981  -0.160  0.00  0.00     0.001 A 
ATOM     25  C   UNL d   1       6.494   6.081  -0.249  0.00  0.00     0.000 A 
ATOM     26  C   UNL d   1       5.110   5.900  -0.221  0.00  0.00     0.001 A 
ATOM     27  C   UNL d   1       4.563   4.617  -0.108  0.00  0.00     0.017 A 
ENDBRANCH  20  22
ENDBRANCH  19  20
ENDBRANCH   5  19
TORSDOF 3
