REMARK  6 active torsions:
REMARK  status: ('A' for Active; 'I' for Inactive)
REMARK    1  A    between atoms: C_4  and  N_1 
REMARK    2  A    between atoms: N_2  and  C_3 
REMARK    3  A    between atoms: C_3  and  N_5 
REMARK    4  A    between atoms: N_5  and  C_4 
REMARK    5  A    between atoms: C_10  and  N_5 
REMARK       I    between atoms: C_11  and  N_12 
REMARK    6  A    between atoms: N_12  and  C_24 
ROOT
ATOM      1  N   UNL d   1      -1.163   2.665  -0.122  0.00  0.00    -0.347 N 
ENDROOT
BRANCH   1   2
ATOM      2  C   UNL d   1      -2.404   1.905  -0.030  0.00  0.00     0.262 C 
BRANCH   2   3
ATOM      3  N   UNL d   1      -2.614   0.871  -1.014  0.00  0.00    -0.271 N 
ATOM      4  C   UNL d   1      -2.518   1.003  -2.367  0.00  0.00     0.228 C 
ATOM      5  C   UNL d   1      -3.067  -0.231  -3.026  0.00  0.00     0.112 C 
ATOM      6  O   UNL d   1      -2.127   1.970  -3.006  0.00  0.00    -0.273 OA
ATOM      7  C   UNL d   1      -3.526  -1.098  -1.876  0.00  0.00     0.112 C 
ATOM      8  C   UNL d   1      -3.411  -0.191  -0.694  0.00  0.00     0.228 C 
ATOM      9  O   UNL d   1      -3.970  -0.392   0.375  0.00  0.00    -0.273 OA
ENDBRANCH   2   3
ENDBRANCH   1   2
BRANCH   1  10
ATOM     10  C   UNL d   1       0.120   2.057  -0.478  0.00  0.00     0.262 C 
BRANCH  10  11
ATOM     11  N   UNL d   1       0.354   0.749   0.097  0.00  0.00    -0.271 N 
ATOM     12  C   UNL d   1       0.387  -0.381  -0.669  0.00  0.00     0.228 C 
ATOM     13  C   UNL d   1       1.040  -1.490   0.097  0.00  0.00     0.112 C 
ATOM     14  O   UNL d   1       0.007  -0.505  -1.819  0.00  0.00    -0.273 OA
ATOM     15  C   UNL d   1       1.335  -0.887   1.452  0.00  0.00     0.112 C 
ATOM     16  C   UNL d   1       0.990   0.568   1.291  0.00  0.00     0.228 C 
ATOM     17  O   UNL d   1       1.300   1.426   2.104  0.00  0.00    -0.273 OA
ENDBRANCH  10  11
ENDBRANCH   1  10
BRANCH   1  18
ATOM     18  C   UNL d   1      -1.259   4.039  -0.400  0.00  0.00     0.033 A 
ATOM     19  C   UNL d   1      -0.369   4.946   0.196  0.00  0.00     0.031 A 
ATOM     20  C   UNL d   1      -0.452   6.327  -0.041  0.00  0.00     0.032 A 
ATOM     21  C   UNL d   1      -1.435   6.852  -0.883  0.00  0.00     0.034 A 
ATOM     22  C   UNL d   1      -2.318   5.968  -1.492  0.00  0.00     0.032 A 
ATOM     23  C   UNL d   1      -2.230   4.588  -1.249  0.00  0.00     0.031 A 
BRANCH  21  24
ATOM     24  N   UNL d   1      -1.468   8.252  -1.054  0.00  0.00    -0.328 N 
ATOM     25  C   UNL d   1      -2.384   8.989  -1.784  0.00  0.00     0.218 C 
ATOM     26  O   UNL d   1      -3.339   8.556  -2.419  0.00  0.00    -0.274 OA
ATOM     27  C   UNL d   1      -2.115  10.475  -1.737  0.00  0.00     0.117 C 
ATOM     28  H   UNL d   1      -0.752   8.768  -0.560  0.00  0.00     0.169 HD
ENDBRANCH  21  24
ENDBRANCH   1  18
TORSDOF 6
