REMARK  7 active torsions:
REMARK  status: ('A' for Active; 'I' for Inactive)
REMARK    1  A    between atoms: C_5  and  C_1 
REMARK    2  A    between atoms: C_8  and  C_1 
REMARK    3  A    between atoms: C_3  and  C_2 
REMARK    4  A    between atoms: C_6  and  C_3 
REMARK    5  A    between atoms: C_4  and  C_5 
REMARK    6  A    between atoms: C_7  and  C_4 
REMARK    7  A    between atoms: O_22  and  C_16 
ROOT
ATOM      1  C   UNL d   1       1.133  -0.086   0.053  0.00  0.00    -0.037 C 
ATOM      2  C   UNL d   1       0.889  -0.932   1.082  0.00  0.00     0.064 C 
ENDROOT
BRANCH   1   3
ATOM      3  C   UNL d   1       2.268  -0.282  -0.943  0.00  0.00     0.123 C 
BRANCH   3   4
ATOM      4  C   UNL d   1       1.844  -0.378  -2.401  0.00  0.00     0.163 C 
ATOM      5  O   UNL d   1       1.720   0.633  -3.094  0.00  0.00    -0.292 OA
BRANCH   4   6
ATOM      6  C   UNL d   1       1.651  -1.723  -3.032  0.00  0.00     0.010 A 
ATOM      7  C   UNL d   1       1.625  -2.917  -2.299  0.00  0.00     0.017 A 
ATOM      8  C   UNL d   1       1.461  -4.145  -2.950  0.00  0.00     0.025 A 
ATOM      9  C   UNL d   1       1.314  -4.185  -4.333  0.00  0.00     0.034 A 
ATOM     10  C   UNL d   1       1.338  -3.008  -5.076  0.00  0.00     0.025 A 
ATOM     11 CL   UNL d   1       1.096  -5.695  -5.127  0.00  0.00    -0.084 Cl
ATOM     12  C   UNL d   1       1.508  -1.781  -4.427  0.00  0.00     0.017 A 
ENDBRANCH   4   6
ENDBRANCH   3   4
ENDBRANCH   1   3
BRANCH   1  13
ATOM     13  C   UNL d   1       0.336   1.186  -0.039  0.00  0.00    -0.029 A 
ATOM     14  C   UNL d   1       0.938   2.374  -0.494  0.00  0.00     0.012 A 
ATOM     15  C   UNL d   1       0.237   3.585  -0.543  0.00  0.00     0.001 A 
ATOM     16  C   UNL d   1      -1.087   3.642  -0.132  0.00  0.00     0.000 A 
ATOM     17  C   UNL d   1      -1.714   2.482   0.311  0.00  0.00     0.001 A 
ATOM     18  C   UNL d   1      -1.015   1.267   0.350  0.00  0.00     0.012 A 
ENDBRANCH   1  13
BRANCH   2  19
ATOM     19  C   UNL d   1       1.669  -2.149   1.474  0.00  0.00     0.182 C 
ATOM     20  O   UNL d   1       1.078  -3.200   1.692  0.00  0.00    -0.288 OA
BRANCH  19  21
ATOM     21  C   UNL d   1       3.154  -2.069   1.593  0.00  0.00     0.014 A 
ATOM     22  C   UNL d   1       3.815  -0.849   1.792  0.00  0.00     0.018 A 
ATOM     23  C   UNL d   1       5.210  -0.782   1.719  0.00  0.00     0.037 A 
ATOM     24  C   UNL d   1       5.961  -1.936   1.500  0.00  0.00     0.068 A 
ATOM     25  C   UNL d   1       5.305  -3.165   1.380  0.00  0.00     0.037 A 
ATOM     26  C   UNL d   1       3.906  -3.235   1.424  0.00  0.00     0.018 A 
BRANCH  24  27
ATOM     27  O   UNL d   1       7.323  -1.991   1.389  0.00  0.00    -0.356 OA
ATOM     28  C   UNL d   1       8.014  -0.746   1.382  0.00  0.00     0.210 C 
ENDBRANCH  24  27
ENDBRANCH  19  21
ENDBRANCH   2  19
TORSDOF 7
