REMARK  3 active torsions:
REMARK  status: ('A' for Active; 'I' for Inactive)
REMARK    1  A    between atoms: N_8  and  C_3 
REMARK       I    between atoms: C_10  and  N_8 
REMARK    2  A    between atoms: C_14  and  C_10 
REMARK    3  A    between atoms: N_12  and  C_14 
ROOT
ATOM      1  S   UNL d   1      -2.170  -2.910   0.725  0.00  0.00    -0.032 SA
ATOM      2  C   UNL d   1      -3.308  -3.926  -0.066  0.00  0.00     0.109 C 
ATOM      3  C   UNL d   1      -1.151  -3.126  -0.627  0.00  0.00     0.168 C 
ATOM      4  N   UNL d   1      -2.946  -4.265  -1.290  0.00  0.00    -0.291 N 
ATOM      5  HN  UNL d   1      -3.503  -4.859  -1.904  1.00  0.00     0.187 HD
ATOM      6  N   UNL d   1      -1.717  -3.720  -1.647  0.00  0.00    -0.279 N 
ATOM      7  HN  UNL d   1      -1.311  -3.775  -2.581  1.00  0.00     0.189 HD
ATOM      8  C   UNL d   1      -4.499  -4.426   0.570  0.00  0.00     0.040 A 
ATOM      9  S   UNL d   1      -5.408  -3.508   1.703  0.00  0.00    -0.099 SA
ATOM     10  C   UNL d   1      -5.068  -5.674   0.380  0.00  0.00     0.022 A 
ATOM     11  C   UNL d   1      -6.526  -4.780   1.956  0.00  0.00     0.050 A 
ATOM     12  C   UNL d   1      -6.224  -5.887   1.188  0.00  0.00     0.008 A 
ENDROOT
BRANCH   3  13
ATOM     13  N   UNL d   1       0.125  -2.591  -0.630  0.00  0.00    -0.305 N 
ATOM     14  C   UNL d   1       0.951  -2.758   0.462  0.00  0.00     0.241 C 
ATOM     15  O   UNL d   1       0.633  -3.412   1.460  0.00  0.00    -0.271 OA
ATOM     16  H   UNL d   1       0.556  -2.517  -1.538  0.00  0.00     0.171 HD
BRANCH  14  17
ATOM     17  C   UNL d   1       2.378  -2.200   0.399  0.00  0.00     0.220 C 
BRANCH  17  18
ATOM     18  N   UNL d   1       2.692  -1.093  -0.510  0.00  0.00    -0.400 N 
ATOM     19  C   UNL d   1       1.834   0.086  -0.432  0.00  0.00     0.143 C 
ATOM     20  C   UNL d   1       2.324   1.220  -1.346  0.00  0.00     0.187 C 
ATOM     21  O   UNL d   1       2.504   0.750  -2.688  0.00  0.00    -0.388 OA
ATOM     22  C   UNL d   1       3.524  -0.255  -2.711  0.00  0.00     0.187 C 
ATOM     23  C   UNL d   1       3.133  -1.469  -1.851  0.00  0.00     0.143 C 
ENDBRANCH  17  18
ENDBRANCH  14  17
ENDBRANCH   3  13
TORSDOF 3
