REMARK  5 active torsions:
REMARK  status: ('A' for Active; 'I' for Inactive)
REMARK    1  A    between atoms: N_9  and  N_2 
REMARK    2  A    between atoms: C_15  and  N_9 
REMARK    3  A    between atoms: N_11  and  C_10 
REMARK    4  A    between atoms: C_19  and  N_11 
REMARK    5  A    between atoms: C_20  and  N_11 
ROOT
ATOM      1  C   UNL d   1      -3.064   0.325   0.110  0.00  0.00     0.109 A 
ATOM      2  N   UNL d   1      -3.408   1.572   0.266  0.00  0.00    -0.296 N 
ATOM      3  HN  UNL d   1      -4.365   1.815   0.521  1.00  0.00     0.187 HD
ATOM      4  C   UNL d   1      -4.108  -0.723   0.246  0.00  0.00     0.006 A 
ATOM      5  C   UNL d   1      -1.643  -0.137  -0.215  0.00  0.00     0.200 A 
ATOM      6  C   UNL d   1      -1.385  -1.593  -0.265  0.00  0.00     0.058 A 
ATOM      7  C   UNL d   1      -2.374  -2.481  -0.120  0.00  0.00     0.016 A 
ATOM      8  C   UNL d   1      -3.759  -2.073   0.112  0.00  0.00    -0.023 A 
ATOM      9  O   UNL d   1      -0.741   0.655  -0.447  0.00  0.00    -0.286 OA
ATOM     10  C   UNL d   1      -5.441  -0.357   0.483  0.00  0.00     0.015 A 
ATOM     11  C   UNL d   1      -4.763  -3.046   0.208  0.00  0.00     0.012 A 
ATOM     12  C   UNL d   1      -6.430  -1.335   0.578  0.00  0.00     0.001 A 
ATOM     13  C   UNL d   1      -6.091  -2.678   0.438  0.00  0.00     0.001 A 
ENDROOT
BRANCH   2  14
ATOM     14  N   UNL d   1      -2.481   2.539   0.085  0.00  0.00    -0.300 N 
ATOM     15  H   UNL d   1      -1.591   2.341  -0.379  0.00  0.00     0.187 HD
BRANCH  14  16
ATOM     16  C   UNL d   1      -2.881   3.878   0.197  0.00  0.00     0.048 A 
ATOM     17  C   UNL d   1      -3.987   4.251   0.963  0.00  0.00     0.033 A 
ATOM     18  C   UNL d   1      -4.379   5.592   1.071  0.00  0.00     0.031 A 
ATOM     19  C   UNL d   1      -3.687   6.620   0.420  0.00  0.00     0.030 A 
ATOM     20  C   UNL d   1      -2.598   6.227  -0.375  0.00  0.00     0.031 A 
ATOM     21  C   UNL d   1      -2.201   4.883  -0.487  0.00  0.00     0.033 A 
BRANCH  19  22
ATOM     22  N   UNL d   1      -4.047   7.952   0.579  0.00  0.00    -0.382 N 
BRANCH  22  23
ATOM     23  C   UNL d   1      -5.458   8.333   0.689  0.00  0.00     0.118 C 
ATOM     24  C   UNL d   1      -5.849   8.639   2.127  0.00  0.00     0.026 C 
ENDBRANCH  22  23
BRANCH  22  25
ATOM     25  C   UNL d   1      -3.051   9.025   0.505  0.00  0.00     0.118 C 
ATOM     26  C   UNL d   1      -2.068   8.947   1.666  0.00  0.00     0.026 C 
ENDBRANCH  22  25
ENDBRANCH  19  22
ENDBRANCH  14  16
ENDBRANCH   2  14
TORSDOF 5
