REMARK  8 active torsions:
REMARK  status: ('A' for Active; 'I' for Inactive)
REMARK    1  A    between atoms: N_2  and  C_1 
REMARK    2  A    between atoms: C_4  and  C_6 
REMARK    3  A    between atoms: O_21  and  C_5 
REMARK       I    between atoms: C_6  and  N_11 
REMARK    4  A    between atoms: S_13  and  C_8 
REMARK    5  A    between atoms: C_9  and  C_20 
REMARK       I    between atoms: N_14  and  C_9 
REMARK    6  A    between atoms: O_24  and  C_10 
REMARK    7  A    between atoms: N_11  and  N_14 
REMARK    8  A    between atoms: C_20  and  S_13 
ROOT
ATOM      1  C   UNL d   1      -5.412  -0.625  -0.492  0.00  0.00     0.245 C 
ATOM      2  N   UNL d   1      -5.838   0.591  -0.983  0.00  0.00    -0.267 N 
ATOM      3  O   UNL d   1      -6.219  -1.525  -0.237  0.00  0.00    -0.271 OA
ATOM      4  H   UNL d   1      -5.209   1.336  -1.284  0.00  0.00     0.190 HD
ENDROOT
BRANCH   1   5
ATOM      5  C   UNL d   1      -3.911  -0.863  -0.373  0.00  0.00     0.184 C 
BRANCH   5   6
ATOM      6  S   UNL d   1      -2.962   0.615   0.125  0.00  0.00    -0.118 SA
BRANCH   6   7
ATOM      7  C   UNL d   1      -1.341  -0.124   0.430  0.00  0.00     0.037 A 
ATOM      8  C   UNL d   1      -0.817  -0.008   1.733  0.00  0.00     0.060 A 
ATOM      9  C   UNL d   1       0.433  -0.542   2.088  0.00  0.00     0.102 A 
ATOM     10  C   UNL d   1       1.148  -1.216   1.098  0.00  0.00     0.138 A 
ATOM     11  C   UNL d   1       0.665  -1.313  -0.223  0.00  0.00     0.077 A 
ATOM     12  C   UNL d   1      -0.577  -0.766  -0.565  0.00  0.00     0.087 A 
BRANCH   9  13
ATOM     13  O   UNL d   1       0.736  -0.359   3.407  0.00  0.00    -0.353 OA
ATOM     14  C   UNL d   1       2.094  -0.178   3.794  0.00  0.00     0.210 C 
ENDBRANCH   9  13
BRANCH  10  15
ATOM     15  N   UNL d   1       2.377  -1.931   1.379  0.00  0.00    -0.113 N 
ATOM     16  O   UNL d   1       3.372  -1.616   0.709  0.00  0.00    -0.532 OA
ATOM     17  O   UNL d   1       2.337  -2.830   2.225  0.00  0.00    -0.532 OA
ENDBRANCH  10  15
BRANCH  12  18
ATOM     18  O   UNL d   1      -1.113  -0.815  -1.825  0.00  0.00    -0.355 OA
ATOM     19  C   UNL d   1      -0.367  -1.469  -2.845  0.00  0.00     0.210 C 
ENDBRANCH  12  18
ENDBRANCH   6   7
ENDBRANCH   5   6
ENDBRANCH   1   5
BRANCH   2  20
ATOM     20  N   UNL d   1      -7.223   0.792  -1.170  0.00  0.00    -0.263 N 
ATOM     21  C   UNL d   1      -7.643   1.686  -2.139  0.00  0.00     0.273 C 
ATOM     22  O   UNL d   1      -6.840   2.409  -2.733  0.00  0.00    -0.266 OA
ATOM     23  H   UNL d   1      -7.813   0.013  -0.868  0.00  0.00     0.190 HD
BRANCH  21  24
ATOM     24  C   UNL d   1      -9.113   1.749  -2.439  0.00  0.00     0.077 A 
ATOM     25  C   UNL d   1      -9.723   2.983  -2.743  0.00  0.00     0.051 A 
ATOM     26 CL   UNL d   1      -8.894   4.505  -2.710  0.00  0.00    -0.083 Cl
ATOM     27  C   UNL d   1     -11.094   3.058  -3.057  0.00  0.00     0.025 A 
ATOM     28  C   UNL d   1     -11.879   1.913  -3.067  0.00  0.00     0.003 A 
ATOM     29  C   UNL d   1     -11.299   0.688  -2.770  0.00  0.00     0.025 A 
ATOM     30  C   UNL d   1      -9.928   0.598  -2.470  0.00  0.00     0.051 A 
ATOM     31 CL   UNL d   1      -9.341  -1.005  -2.184  0.00  0.00    -0.083 Cl
ENDBRANCH  21  24
ENDBRANCH   2  20
TORSDOF 8
