REMARK  5 active torsions:
REMARK  status: ('A' for Active; 'I' for Inactive)
REMARK    1  A    between atoms: C_3  and  C_1 
REMARK    2  A    between atoms: C_4  and  C_2 
REMARK       I    between atoms: N_6  and  C_3 
REMARK    3  A    between atoms: C_15  and  N_6 
REMARK    4  A    between atoms: S_16  and  C_9 
REMARK    5  A    between atoms: C_23  and  S_16 
ROOT
ATOM      1  C   UNL d   1       0.803   1.203  -0.249  0.00  0.00     0.062 A 
ATOM      2  C   UNL d   1       1.564   0.047  -0.030  0.00  0.00     0.067 A 
ATOM      3  C   UNL d   1      -0.564   1.019  -0.475  0.00  0.00     0.106 A 
ATOM      4  N   UNL d   1      -1.212  -0.173  -0.451  0.00  0.00    -0.360 N 
ATOM      5  HN  UNL d   1      -2.215  -0.234  -0.625  1.00  0.00     0.166 HD
ATOM      6  C   UNL d   1      -0.480  -1.268  -0.189  0.00  0.00     0.070 A 
ATOM      7  C   UNL d   1       0.889  -1.196   0.024  0.00  0.00     0.054 A 
ENDROOT
BRANCH   1   8
ATOM      8  C   UNL d   1       1.237   2.633  -0.254  0.00  0.00     0.258 C 
ATOM      9  N   UNL d   1       2.243   3.013   0.610  0.00  0.00    -0.323 N 
ATOM     10  H   UNL d   1       2.845   2.303   1.003  0.00  0.00     0.169 HD
ATOM     11  O   UNL d   1       0.620   3.394  -0.998  0.00  0.00    -0.267 OA
BRANCH   9  12
ATOM     12  C   UNL d   1       2.606   4.338   0.945  0.00  0.00     0.035 A 
ATOM     13  C   UNL d   1       1.811   5.454   0.668  0.00  0.00     0.031 A 
ATOM     14  C   UNL d   1       2.203   6.729   1.093  0.00  0.00     0.026 A 
ATOM     15  C   UNL d   1       3.397   6.894   1.789  0.00  0.00     0.034 A 
ATOM     16  C   UNL d   1       4.205   5.795   2.061  0.00  0.00     0.026 A 
ATOM     17 CL   UNL d   1       3.869   8.459   2.324  0.00  0.00    -0.084 Cl
ATOM     18  C   UNL d   1       3.807   4.519   1.646  0.00  0.00     0.031 A 
ENDBRANCH   9  12
ENDBRANCH   1   8
BRANCH   2  19
ATOM     19  C   UNL d   1       3.050  -0.006   0.143  0.00  0.00     0.418 C 
ATOM     20  F   UNL d   1       3.705   1.140  -0.166  0.00  0.00    -0.166 F 
ATOM     21  F   UNL d   1       3.393  -0.278   1.434  0.00  0.00    -0.166 F 
ATOM     22  F   UNL d   1       3.634  -0.976  -0.611  0.00  0.00    -0.166 F 
ENDBRANCH   2  19
BRANCH   6  23
ATOM     23  S   UNL d   1      -1.304  -2.838  -0.053  0.00  0.00    -0.113 SA
BRANCH  23  24
ATOM     24  C   UNL d   1      -2.755  -2.543  -1.116  0.00  0.00     0.076 C 
ATOM     25  C   UNL d   1      -3.669  -3.756  -1.086  0.00  0.00     0.016 C 
ENDBRANCH  23  24
ENDBRANCH   6  23
TORSDOF 5
