REMARK  4 active torsions:
REMARK  status: ('A' for Active; 'I' for Inactive)
REMARK    1  A    between atoms: C_2  and  C_1 
REMARK    2  A    between atoms: C_8  and  C_3 
REMARK    3  A    between atoms: O_20  and  C_8 
REMARK    4  A    between atoms: C_23  and  O_20 
ROOT
ATOM      1  C   UNL d   1      -3.059   0.457   0.243  0.00  0.00     0.019 A 
ATOM      2  C   UNL d   1      -5.328  -0.309   0.521  0.00  0.00     0.053 A 
ATOM      3  N   UNL d   1      -3.497   1.732   0.161  0.00  0.00    -0.358 N 
ATOM      4  HN  UNL d   1      -2.825   2.490   0.041  1.00  0.00     0.166 HD
ATOM      5  C   UNL d   1      -3.956  -0.585   0.428  0.00  0.00     0.044 A 
ATOM      6  C   UNL d   1      -5.802   1.029   0.410  0.00  0.00     0.007 A 
ATOM      7  C   UNL d   1      -4.806   2.012   0.237  0.00  0.00     0.043 A 
ATOM      8  C   UNL d   1      -7.157   1.467   0.428  0.00  0.00     0.015 A 
ATOM      9  C   UNL d   1      -5.176   3.345   0.114  0.00  0.00     0.030 A 
ATOM     10  C   UNL d   1      -7.504   2.813   0.312  0.00  0.00     0.001 A 
ATOM     11  C   UNL d   1      -6.506   3.757   0.155  0.00  0.00     0.002 A 
ENDROOT
BRANCH   1  12
ATOM     12  C   UNL d   1      -1.551   0.219   0.114  0.00  0.00     0.003 C 
ATOM     13  C   UNL d   1      -0.778   1.559  -0.093  0.00  0.00     0.020 C 
ATOM     14  C   UNL d   1       0.736   1.321  -0.210  0.00  0.00    -0.013 C 
ATOM     15  C   UNL d   1       1.240   0.648   1.075  0.00  0.00     0.009 C 
ATOM     16  C   UNL d   1       1.012   0.405  -1.410  0.00  0.00     0.009 C 
ATOM     17  C   UNL d   1       0.523  -0.695   1.277  0.00  0.00    -0.013 C 
ATOM     18  C   UNL d   1      -0.992  -0.453   1.398  0.00  0.00     0.020 C 
ATOM     19  C   UNL d   1       0.796  -1.605   0.068  0.00  0.00     0.009 C 
ATOM     20  C   UNL d   1       0.288  -0.937  -1.221  0.00  0.00    -0.013 C 
ATOM     21  C   UNL d   1      -1.229  -0.691  -1.103  0.00  0.00     0.020 C 
ENDBRANCH   1  12
BRANCH   2  22
ATOM     22  C   UNL d   1      -6.207  -1.507   0.639  0.00  0.00     0.294 C 
ATOM     23  O   UNL d   1      -5.899  -2.592   0.175  0.00  0.00    -0.259 OA
BRANCH  22  24
ATOM     24  O   UNL d   1      -7.350  -1.233   1.310  0.00  0.00    -0.318 OA
BRANCH  24  25
ATOM     25  C   UNL d   1      -8.425  -2.170   1.146  0.00  0.00     0.174 C 
ATOM     26  C   UNL d   1      -8.753  -2.835   2.466  0.00  0.00     0.034 C 
ENDBRANCH  24  25
ENDBRANCH  22  24
ENDBRANCH   2  22
TORSDOF 4
