REMARK  7 active torsions:
REMARK  status: ('A' for Active; 'I' for Inactive)
REMARK    1  A    between atoms: C_5  and  S_1 
REMARK    2  A    between atoms: N_9  and  S_1 
REMARK    3  A    between atoms: C_8  and  C_2 
REMARK    4  A    between atoms: C_7  and  C_17 
REMARK    5  A    between atoms: C_17  and  N_9 
REMARK    6  A    between atoms: O_22  and  C_16 
REMARK    7  A    between atoms: C_25  and  O_22 
ROOT
ATOM      1  S   UNL d   1       0.851   0.200   0.023  0.00  0.00     0.260 S 
ATOM      2  O   UNL d   1       0.117  -0.499  -1.008  0.00  0.00    -0.200 OA
ATOM      3  O   UNL d   1       2.295   0.273   0.019  0.00  0.00    -0.200 OA
ENDROOT
BRANCH   1   4
ATOM      4  C   UNL d   1       0.360  -0.451   1.579  0.00  0.00     0.095 A 
ATOM      5  C   UNL d   1      -0.470  -1.554   1.618  0.00  0.00     0.115 A 
ATOM      6  N   UNL d   1      -0.957  -2.062   2.770  0.00  0.00    -0.345 N 
ATOM      7  C   UNL d   1      -0.629  -1.424   3.919  0.00  0.00     0.147 A 
ATOM      8  HN  UNL d   1      -1.549  -2.893   2.775  1.00  0.00     0.167 HD
ATOM      9  C   UNL d   1       0.262  -0.363   3.979  0.00  0.00     0.058 A 
ATOM     10  C   UNL d   1       0.773   0.129   2.780  0.00  0.00     0.031 A 
BRANCH   7  11
ATOM     11  O   UNL d   1      -1.233  -1.810   5.108  0.00  0.00    -0.294 OA
BRANCH  11  12
ATOM     12  C   UNL d   1      -2.533  -2.262   5.017  0.00  0.00     0.077 A 
ATOM     13  C   UNL d   1      -2.893  -3.326   5.845  0.00  0.00     0.037 A 
ATOM     14  C   UNL d   1      -4.183  -3.854   5.776  0.00  0.00     0.003 A 
ATOM     15  C   UNL d   1      -5.116  -3.314   4.889  0.00  0.00     0.000 A 
ATOM     16  C   UNL d   1      -4.772  -2.223   4.094  0.00  0.00     0.003 A 
ATOM     17  C   UNL d   1      -3.490  -1.682   4.175  0.00  0.00     0.037 A 
ENDBRANCH  11  12
ENDBRANCH   7  11
ENDBRANCH   1   4
BRANCH   1  18
ATOM     18  N   UNL d   1       0.227   1.754   0.061  0.00  0.00    -0.310 N 
ATOM     19  H   UNL d   1      -0.426   1.968  -0.697  0.00  0.00     0.172 HD
BRANCH  18  20
ATOM     20  C   UNL d   1       1.166   2.828   0.379  0.00  0.00     0.189 C 
BRANCH  20  21
ATOM     21  C   UNL d   1       0.503   4.167   0.243  0.00  0.00     0.035 A 
ATOM     22  N   UNL d   1      -0.739   4.298  -0.379  0.00  0.00    -0.351 N 
ATOM     23  C   UNL d   1      -1.115   5.564  -0.397  0.00  0.00     0.091 A 
ATOM     24  HN  UNL d   1      -1.280   3.524  -0.765  1.00  0.00     0.166 HD
ATOM     25  S   UNL d   1       0.015   6.659   0.312  0.00  0.00    -0.081 SA
ATOM     26  C   UNL d   1       1.057   5.358   0.669  0.00  0.00     0.078 A 
BRANCH  23  27
ATOM     27  C   UNL d   1      -2.365   6.026  -0.963  0.00  0.00     0.038 A 
ATOM     28  S   UNL d   1      -3.530   4.922  -1.579  0.00  0.00    -0.099 SA
ATOM     29  C   UNL d   1      -4.606   6.178  -2.015  0.00  0.00     0.050 A 
ATOM     30  C   UNL d   1      -4.102   7.417  -1.705  0.00  0.00     0.008 A 
ATOM     31  C   UNL d   1      -2.814   7.331  -1.099  0.00  0.00     0.022 A 
ENDBRANCH  23  27
ENDBRANCH  20  21
ENDBRANCH  18  20
ENDBRANCH   1  18
TORSDOF 7
