REMARK  2 active torsions:
REMARK  status: ('A' for Active; 'I' for Inactive)
REMARK    1  A    between atoms: N_6  and  C_1 
REMARK    2  A    between atoms: N_7  and  C_1 
ROOT
ATOM      1  C   UNL d   1      -2.357   0.306  -0.413  0.00  0.00     0.376 C 
ATOM      2  C   UNL d   1      -2.106  -1.040   0.334  0.00  0.00     0.290 C 
ATOM      3  C   UNL d   1      -1.110   1.292  -0.226  0.00  0.00     0.231 C 
ATOM      4  N   UNL d   1      -0.830  -1.400   0.667  0.00  0.00    -0.322 N 
ATOM      5  C   UNL d   1       0.217   0.697   0.049  0.00  0.00     0.042 A 
ATOM      6  C   UNL d   1       0.310  -0.632   0.444  0.00  0.00     0.049 A 
ATOM      7  O   UNL d   1      -2.976  -1.891   0.561  0.00  0.00    -0.268 OA
ATOM      8  O   UNL d   1      -1.161   2.518  -0.361  0.00  0.00    -0.287 OA
ATOM      9  C   UNL d   1       1.384   1.450  -0.132  0.00  0.00     0.017 A 
ATOM     10  C   UNL d   1       1.561  -1.239   0.585  0.00  0.00     0.030 A 
ATOM     11  C   UNL d   1       2.635   0.846   0.009  0.00  0.00     0.001 A 
ATOM     12  C   UNL d   1       2.723  -0.505   0.343  0.00  0.00     0.002 A 
ATOM     13  H   UNL d   1      -0.745  -2.338   1.044  0.00  0.00     0.169 HD
ENDROOT
BRANCH   1  14
ATOM     14  N   UNL d   1      -2.356   0.107  -1.910  0.00  0.00    -0.361 N 
ATOM     15  C   UNL d   1      -1.471  -0.951  -2.462  0.00  0.00     0.146 C 
ATOM     16  C   UNL d   1      -2.115  -2.354  -2.544  0.00  0.00     0.187 C 
ATOM     17  O   UNL d   1      -3.365  -2.319  -3.240  0.00  0.00    -0.388 OA
ATOM     18  C   UNL d   1      -4.244  -1.347  -2.654  0.00  0.00     0.187 C 
ATOM     19  C   UNL d   1      -3.596   0.049  -2.683  0.00  0.00     0.146 C 
ENDBRANCH   1  14
BRANCH   1  20
ATOM     20  N   UNL d   1      -3.542   1.056   0.163  0.00  0.00     0.139 N 
ATOM     21  C   UNL d   1      -3.376   1.501   1.575  0.00  0.00     0.303 C 
ATOM     22  C   UNL d   1      -3.839   0.479   2.634  0.00  0.00     0.198 C 
ATOM     23  O   UNL d   1      -5.204   0.099   2.454  0.00  0.00    -0.388 OA
ATOM     24  C   UNL d   1      -5.452  -0.383   1.134  0.00  0.00     0.198 C 
ATOM     25  C   UNL d   1      -4.937   0.589   0.063  0.00  0.00     0.303 C 
ENDBRANCH   1  20
TORSDOF 2
