REMARK  5 active torsions:
REMARK  status: ('A' for Active; 'I' for Inactive)
REMARK    1  A    between atoms: N_2  and  C_1 
REMARK    2  A    between atoms: C_5  and  C_10 
REMARK    3  A    between atoms: C_6  and  O_9 
REMARK    4  A    between atoms: C_13  and  C_6 
REMARK    5  A    between atoms: O_9  and  C_15 
ROOT
ATOM      1  O   UNL d   1       3.425  -1.104  -0.151  0.00  0.00    -0.275 OA
ENDROOT
BRANCH   1   2
ATOM      2  C   UNL d   1       4.629  -0.421  -0.005  0.00  0.00     0.298 C 
ATOM      3  O   UNL d   1       4.798   0.788  -0.056  0.00  0.00    -0.259 OA
BRANCH   2   4
ATOM      4  C   UNL d   1       5.739  -1.371   0.294  0.00  0.00     0.040 A 
ATOM      5  C   UNL d   1       7.002  -0.832   0.585  0.00  0.00     0.018 A 
ATOM      6  C   UNL d   1       8.062  -1.660   0.968  0.00  0.00     0.017 A 
ATOM      7  C   UNL d   1       7.879  -3.046   1.067  0.00  0.00     0.048 A 
ATOM      8  C   UNL d   1       6.628  -3.588   0.731  0.00  0.00     0.017 A 
ATOM      9  C   UNL d   1       5.565  -2.759   0.347  0.00  0.00     0.018 A 
BRANCH   7  10
ATOM     10  C   UNL d   1       8.989  -3.946   1.562  0.00  0.00     0.417 C 
ATOM     11  F   UNL d   1      10.138  -3.281   1.865  0.00  0.00    -0.166 F 
ATOM     12  F   UNL d   1       8.639  -4.617   2.696  0.00  0.00    -0.166 F 
ATOM     13  F   UNL d   1       9.335  -4.900   0.655  0.00  0.00    -0.166 F 
ENDBRANCH   7  10
ENDBRANCH   2   4
ENDBRANCH   1   2
BRANCH   1  14
ATOM     14  C   UNL d   1       2.131  -0.511  -0.222  0.00  0.00     0.080 A 
ATOM     15  C   UNL d   1       1.080  -1.413  -0.473  0.00  0.00     0.054 A 
ATOM     16  C   UNL d   1      -0.248  -0.930  -0.475  0.00  0.00     0.035 A 
ATOM     17  C   UNL d   1      -1.557  -1.460  -0.689  0.00  0.00     0.138 A 
ATOM     18  C   UNL d   1      -0.449   0.422  -0.209  0.00  0.00     0.087 A 
ATOM     19  C   UNL d   1      -2.444  -0.423  -0.490  0.00  0.00     0.179 A 
ATOM     20  O   UNL d   1      -1.776   0.723  -0.205  0.00  0.00    -0.319 OA
ATOM     21  C   UNL d   1       0.575   1.337   0.021  0.00  0.00     0.041 A 
ATOM     22  C   UNL d   1       1.884   0.843   0.006  0.00  0.00     0.040 A 
BRANCH  17  23
ATOM     23  N   UNL d   1      -1.952  -2.786  -1.048  0.00  0.00    -0.113 N 
ATOM     24  O   UNL d   1      -1.050  -3.614  -1.236  0.00  0.00    -0.532 OA
ATOM     25  O   UNL d   1      -3.165  -3.006  -1.147  0.00  0.00    -0.532 OA
ENDBRANCH  17  23
ENDBRANCH   1  14
TORSDOF 5
