REMARK  4 active torsions:
REMARK  status: ('A' for Active; 'I' for Inactive)
REMARK    1  A    between atoms: N_2  and  C_1 
REMARK    2  A    between atoms: O_15  and  C_3 
REMARK    3  A    between atoms: O_16  and  C_11 
REMARK    4  A    between atoms: O_17  and  C_12 
ROOT
ATOM      1  C   UNL d   1       1.177   1.452  -0.030  0.00  0.00     0.164 A 
ATOM      2  C   UNL d   1       2.363   0.721  -0.054  0.00  0.00     0.175 A 
ATOM      3  C   UNL d   1      -0.079   0.755   0.002  0.00  0.00     0.016 A 
ATOM      4  N   UNL d   1       2.388  -0.619  -0.069  0.00  0.00    -0.338 N 
ATOM      5  HN  UNL d   1       3.277  -1.118  -0.098  1.00  0.00     0.168 HD
ATOM      6  C   UNL d   1      -0.043  -0.667  -0.000  0.00  0.00     0.002 A 
ATOM      7  C   UNL d   1       1.221  -1.301  -0.047  0.00  0.00     0.018 A 
ATOM      8  C   UNL d   1      -1.383   1.339   0.040  0.00  0.00     0.054 A 
ATOM      9  C   UNL d   1      -1.263  -1.397   0.044  0.00  0.00     0.054 A 
ATOM     10  C   UNL d   1      -2.574   0.600   0.110  0.00  0.00     0.102 A 
ATOM     11  C   UNL d   1      -2.522  -0.790   0.105  0.00  0.00     0.102 A 
ATOM     12  C   UNL d   1       1.436  -2.791  -0.040  0.00  0.00     0.069 C 
ENDROOT
BRANCH   1  13
ATOM     13  N   UNL d   1       1.288   2.918  -0.025  0.00  0.00    -0.110 N 
ATOM     14  O   UNL d   1       2.426   3.405   0.090  0.00  0.00    -0.532 OA
ATOM     15  O   UNL d   1       0.276   3.614  -0.143  0.00  0.00    -0.532 OA
ENDBRANCH   1  13
BRANCH   2  16
ATOM     16  O   UNL d   1       3.627   1.229  -0.066  0.00  0.00    -0.344 OA
ATOM     17  H   UNL d   1       3.600   2.202   0.010  0.00  0.00     0.219 HD
ENDBRANCH   2  16
BRANCH  10  18
ATOM     18  O   UNL d   1      -3.699   1.384   0.112  0.00  0.00    -0.353 OA
ATOM     19  C   UNL d   1      -4.802   0.915   0.878  0.00  0.00     0.210 C 
ENDBRANCH  10  18
BRANCH  11  20
ATOM     20  O   UNL d   1      -3.701  -1.480   0.139  0.00  0.00    -0.353 OA
ATOM     21  C   UNL d   1      -3.662  -2.901   0.141  0.00  0.00     0.210 C 
ENDBRANCH  11  20
TORSDOF 4
