REMARK  8 active torsions:
REMARK  status: ('A' for Active; 'I' for Inactive)
REMARK    1  A    between atoms: N_2  and  S_1 
REMARK    2  A    between atoms: C_6  and  N_2 
REMARK    3  A    between atoms: C_10  and  N_2 
REMARK    4  A    between atoms: N_3  and  C_5 
REMARK    5  A    between atoms: C_4  and  C_6 
REMARK    6  A    between atoms: C_7  and  C_11 
REMARK    7  A    between atoms: O_18  and  C_7 
REMARK    8  A    between atoms: C_19  and  C_10 
ROOT
ATOM      1  C   UNL d   1      -1.377   0.681  -1.021  0.00  0.00    -0.013 A 
ATOM      2  C   UNL d   1      -1.355  -0.730  -1.194  0.00  0.00     0.038 A 
ATOM      3  C   UNL d   1      -2.015   1.470  -2.023  0.00  0.00     0.011 A 
ATOM      4  C   UNL d   1      -1.951  -1.230  -2.390  0.00  0.00     0.030 A 
ATOM      5  C   UNL d   1      -2.558   0.937  -3.189  0.00  0.00     0.001 A 
ATOM      6  C   UNL d   1      -2.521  -0.425  -3.377  0.00  0.00     0.002 A 
ENDROOT
BRANCH   1   7
ATOM      7  C   UNL d   1      -0.869   1.492   0.174  0.00  0.00     0.176 C 
BRANCH   7   8
ATOM      8  N   UNL d   1       0.406   2.270   0.063  0.00  0.00    -0.303 N 
BRANCH   8   9
ATOM      9  S   UNL d   1       1.045   2.853   1.536  0.00  0.00     0.225 S 
ATOM     10  O   UNL d   1      -0.002   2.806   2.537  0.00  0.00    -0.206 OA
ATOM     11  O   UNL d   1       1.785   4.073   1.287  0.00  0.00    -0.206 OA
ATOM     12  C   UNL d   1       2.246   1.615   1.950  0.00  0.00     0.186 C 
ENDBRANCH   8   9
BRANCH   8  13
ATOM     13  C   UNL d   1       0.569   3.179  -1.095  0.00  0.00     0.174 C 
BRANCH  13  14
ATOM     14  C   UNL d   1      -0.332   4.400  -1.188  0.00  0.00    -0.040 A 
ATOM     15  C   UNL d   1      -1.183   4.833  -0.159  0.00  0.00     0.009 A 
ATOM     16  C   UNL d   1      -2.005   5.948  -0.312  0.00  0.00     0.001 A 
ATOM     17  C   UNL d   1      -1.974   6.673  -1.500  0.00  0.00     0.000 A 
ATOM     18  C   UNL d   1      -1.121   6.279  -2.524  0.00  0.00     0.001 A 
ATOM     19  C   UNL d   1      -0.310   5.156  -2.372  0.00  0.00     0.009 A 
ENDBRANCH  13  14
ENDBRANCH   8  13
ENDBRANCH   7   8
ENDBRANCH   1   7
BRANCH   2  20
ATOM     20  N   UNL d   1      -0.907  -1.714  -0.295  0.00  0.00    -0.380 N 
ATOM     21  C   UNL d   1       0.015  -2.728  -0.837  0.00  0.00     0.124 C 
ATOM     22  C   UNL d   1      -0.174  -4.041  -0.072  0.00  0.00     0.035 C 
ATOM     23  C   UNL d   1       0.071  -3.851   1.424  0.00  0.00     0.087 C 
ATOM     24  C   UNL d   1      -0.835  -2.741   1.959  0.00  0.00     0.035 C 
ATOM     25  C   UNL d   1      -0.768  -1.455   1.136  0.00  0.00     0.124 C 
BRANCH  23  26
ATOM     26  C   UNL d   1       1.539  -3.570   1.702  0.00  0.00     0.143 C 
ATOM     27  O   UNL d   1       1.993  -2.503   2.083  0.00  0.00    -0.650 OA
BRANCH  26  28
ATOM     28  O   UNL d   1       2.330  -4.645   1.480  0.00  0.00    -0.776 OA
ATOM     29  H   UNL d   1       1.851  -5.452   1.215  0.00  0.00     0.167 HD
ENDBRANCH  26  28
ENDBRANCH  23  26
ENDBRANCH   2  20
TORSDOF 8
