REMARK  2 active torsions:
REMARK  status: ('A' for Active; 'I' for Inactive)
REMARK    1  A    between atoms: C_11  and  C_7 
REMARK    2  A    between atoms: C_21  and  C_13 
ROOT
ATOM      1  N   UNL d   1       0.562  -1.207  -0.480  0.00  0.00    -0.280 N 
ATOM      2  C   UNL d   1       0.987   0.078  -0.478  0.00  0.00     0.156 C 
ATOM      3  C   UNL d   1       3.158  -0.574  -0.248  0.00  0.00     0.049 C 
ATOM      4  C   UNL d   1       2.801  -1.869  -0.079  0.00  0.00    -0.024 C 
ATOM      5  N   UNL d   1       2.221   0.449  -0.381  0.00  0.00    -0.335 N 
ATOM      6  HN  UNL d   1       2.494   1.431  -0.400  1.00  0.00     0.168 HD
ATOM      7  C   UNL d   1       1.379  -2.269   0.006  0.00  0.00     0.161 C 
ATOM      8  C   UNL d   1      -0.731  -1.458  -0.823  0.00  0.00     0.267 C 
ATOM      9  C   UNL d   1      -1.514  -0.222  -0.592  0.00  0.00     0.077 C 
ATOM     10  S   UNL d   1      -0.421   1.134  -0.597  0.00  0.00    -0.048 SA
ATOM     11  C   UNL d   1       4.624  -0.292  -0.198  0.00  0.00    -0.003 A 
ATOM     12  C   UNL d   1      -2.803  -0.237  -0.216  0.00  0.00     0.037 C 
ATOM     13  C   UNL d   1       3.797  -2.985   0.071  0.00  0.00     0.043 C 
ATOM     14  O   UNL d   1      -1.147  -2.528  -1.243  0.00  0.00    -0.266 OA
ATOM     15  C   UNL d   1       5.501  -1.248   0.384  0.00  0.00    -0.045 A 
ATOM     16  C   UNL d   1       4.936  -2.521   0.959  0.00  0.00     0.044 C 
ATOM     17  C   UNL d   1       5.182   0.877  -0.717  0.00  0.00     0.014 A 
ATOM     18  C   UNL d   1       6.881  -1.028   0.439  0.00  0.00     0.008 A 
ATOM     19  C   UNL d   1       6.569   1.081  -0.683  0.00  0.00     0.001 A 
ATOM     20  C   UNL d   1       7.413   0.132  -0.109  0.00  0.00     0.001 A 
ENDROOT
BRANCH  12  21
ATOM     21  C   UNL d   1      -3.538  -1.506  -0.031  0.00  0.00    -0.019 A 
ATOM     22  C   UNL d   1      -3.622  -2.123   1.218  0.00  0.00     0.099 A 
ATOM     23  N   UNL d   1      -4.104  -3.375   1.426  0.00  0.00    -0.374 N 
ATOM     24  C   UNL d   1      -4.499  -4.059   0.330  0.00  0.00     0.087 A 
ATOM     25  HN  UNL d   1      -4.164  -3.778   2.361  1.00  0.00     0.164 HD
ATOM     26  C   UNL d   1      -4.478  -3.534  -0.951  0.00  0.00     0.018 A 
ATOM     27  C   UNL d   1      -4.010  -2.232  -1.129  0.00  0.00     0.014 A 
ENDBRANCH  12  21
BRANCH   7  28
ATOM     28  C   UNL d   1       0.917  -2.708   1.405  0.00  0.00    -0.009 A 
ATOM     29  C   UNL d   1       1.053  -1.969   2.599  0.00  0.00     0.042 A 
ATOM     30 CL   UNL d   1       1.773  -0.406   2.711  0.00  0.00    -0.084 Cl
ATOM     31  C   UNL d   1       0.560  -2.467   3.812  0.00  0.00     0.024 A 
ATOM     32  C   UNL d   1      -0.094  -3.693   3.862  0.00  0.00     0.002 A 
ATOM     33  C   UNL d   1      -0.268  -4.423   2.695  0.00  0.00     0.001 A 
ATOM     34  C   UNL d   1       0.230  -3.939   1.484  0.00  0.00     0.011 A 
ENDBRANCH   7  28
TORSDOF 2
