REMARK  4 active torsions:
REMARK  status: ('A' for Active; 'I' for Inactive)
REMARK    1  A    between atoms: C_5  and  N_1 
REMARK    2  A    between atoms: C_2  and  C_9 
REMARK    3  A    between atoms: O_6  and  C_2 
REMARK    4  A    between atoms: N_3  and  O_6 
ROOT
ATOM      1  C   UNL d   1      -3.182   2.934   3.617  0.00  0.00     0.315 C 
ATOM      2  O   UNL d   1      -2.944   3.119   2.433  0.00  0.00    -0.257 OA
ENDROOT
BRANCH   1   3
ATOM      3  C   UNL d   1      -3.814   3.955   4.497  0.00  0.00     0.041 A 
ATOM      4  C   UNL d   1      -4.243   5.154   3.905  0.00  0.00     0.020 A 
ATOM      5  C   UNL d   1      -4.878   6.137   4.670  0.00  0.00     0.037 A 
ATOM      6  C   UNL d   1      -5.082   5.919   6.039  0.00  0.00     0.102 A 
ATOM      7  C   UNL d   1      -4.667   4.722   6.639  0.00  0.00     0.037 A 
ATOM      8  C   UNL d   1      -4.035   3.742   5.867  0.00  0.00     0.020 A 
BRANCH   6   9
ATOM      9  N   UNL d   1      -5.731   6.955   6.853  0.00  0.00    -0.116 N 
ATOM     10  O   UNL d   1      -5.816   6.757   8.073  0.00  0.00    -0.532 OA
ATOM     11  O   UNL d   1      -6.150   7.966   6.272  0.00  0.00    -0.532 OA
ENDBRANCH   6   9
ENDBRANCH   1   3
BRANCH   1  12
ATOM     12  O   UNL d   1      -2.925   1.789   4.312  0.00  0.00    -0.195 OA
BRANCH  12  13
ATOM     13  N   UNL d   1      -3.655   0.753   3.712  0.00  0.00    -0.266 N 
ATOM     14  C   UNL d   1      -3.037  -0.386   3.741  0.00  0.00     0.010 C 
ATOM     15  C   UNL d   1      -1.650  -0.651   4.284  0.00  0.00     0.054 C 
ATOM     16  C   UNL d   1      -3.730  -1.578   3.123  0.00  0.00     0.054 C 
ATOM     17  C   UNL d   1      -0.787  -1.205   3.151  0.00  0.00     0.006 C 
ATOM     18  C   UNL d   1      -1.448  -2.384   2.425  0.00  0.00     0.001 C 
ATOM     19  C   UNL d   1      -2.871  -2.059   1.963  0.00  0.00     0.006 C 
ATOM     20  HN  UNL d   1      -4.577   0.882   3.295  1.00  0.00     0.194 HD
ENDBRANCH  12  13
ENDBRANCH   1  12
TORSDOF 4
