REMARK  2 active torsions:
REMARK  status: ('A' for Active; 'I' for Inactive)
REMARK       I    between atoms: N_2  and  C_1 
REMARK       I    between atoms: N_3  and  C_1 
REMARK    1  A    between atoms: C_6  and  N_2 
REMARK    2  A    between atoms: C_4  and  N_5 
ROOT
ATOM      1  C   UNL d   1       0.961  -0.215   0.124  0.00  0.00     0.323 C 
ATOM      2  N   UNL d   1       0.315  -0.294  -1.097  0.00  0.00    -0.303 N 
ATOM      3  N   UNL d   1       0.097  -0.395   1.196  0.00  0.00    -0.331 N 
ATOM      4  N   UNL d   1      -0.412  -2.008   3.460  0.00  0.00    -0.214 N 
ATOM      5  O   UNL d   1       2.139   0.076   0.277  0.00  0.00    -0.247 OA
ATOM      6  C   UNL d   1       0.507   0.057   2.532  0.00  0.00     0.148 C 
ATOM      7  C   UNL d   1      -1.028  -1.345   1.184  0.00  0.00     0.148 C 
ATOM      8  C   UNL d   1       0.746  -1.115   3.500  0.00  0.00     0.161 C 
ATOM      9  C   UNL d   1      -0.776  -2.530   2.145  0.00  0.00     0.161 C 
ATOM     10  H   UNL d   1      -0.634   0.048  -1.086  0.00  0.00     0.171 HD
ENDROOT
BRANCH   2  11
ATOM     11  C   UNL d   1       1.006  -0.069  -2.263  0.00  0.00     0.077 A 
ATOM     12  S   UNL d   1       0.158   0.836  -3.421  0.00  0.00    -0.084 SA
ATOM     13  C   UNL d   1       1.530   0.885  -4.448  0.00  0.00     0.052 A 
ATOM     14  C   UNL d   1       2.567   0.122  -3.955  0.00  0.00     0.010 A 
ATOM     15  C   UNL d   1       2.264  -0.429  -2.674  0.00  0.00     0.038 A 
ENDBRANCH   2  11
BRANCH   4  16
ATOM     16  C   UNL d   1      -0.928  -2.545   4.608  0.00  0.00     0.679 A 
ATOM     17  N   UNL d   1      -1.809  -3.556   4.515  0.00  0.00    -0.202 N 
ATOM     18  C   UNL d   1      -2.351  -4.025   5.655  0.00  0.00     0.107 A 
ATOM     19  HN  UNL d   1      -2.058  -3.956   3.610  1.00  0.00     0.183 HD
ATOM     20  C   UNL d   1      -2.064  -3.519   6.894  0.00  0.00     0.035 A 
ATOM     21  C   UNL d   1      -1.161  -2.490   6.901  0.00  0.00     0.107 A 
ATOM     22  N   UNL d   1      -0.585  -2.000   5.787  0.00  0.00    -0.202 N 
ATOM     23  HN  UNL d   1       0.091  -1.238   5.837  1.00  0.00     0.183 HD
ENDBRANCH   4  16
TORSDOF 2
