REMARK  4 active torsions:
REMARK  status: ('A' for Active; 'I' for Inactive)
REMARK    1  A    between atoms: N_8  and  C_2 
REMARK    2  A    between atoms: C_15  and  N_3 
REMARK    3  A    between atoms: C_7  and  C_6 
REMARK    4  A    between atoms: C_14  and  C_10 
ROOT
ATOM      1  C   UNL d   1      -2.898  -2.736   0.144  0.00  0.00     0.120 C 
ATOM      2  C   UNL d   1      -3.889  -3.690   0.016  0.00  0.00     0.157 C 
ATOM      3  N   UNL d   1      -5.086  -2.999  -0.044  0.00  0.00    -0.237 N 
ATOM      4  N   UNL d   1      -4.875  -1.663  -0.209  0.00  0.00    -0.289 N 
ATOM      5  HN  UNL d   1      -5.567  -0.954  -0.453  1.00  0.00     0.188 HD
ATOM      6  C   UNL d   1      -3.559  -1.474   0.018  0.00  0.00     0.094 C 
ATOM      7  C   UNL d   1      -1.492  -2.980   0.200  0.00  0.00     0.106 C 
ATOM      8  N   UNL d   1      -0.353  -3.196   0.228  0.00  0.00    -0.191 NA
ENDROOT
BRANCH   2   9
ATOM      9  N   UNL d   1      -3.758  -5.079  -0.125  0.00  0.00    -0.316 N 
ATOM     10  C   UNL d   1      -4.591  -5.920  -0.843  0.00  0.00     0.098 A 
ATOM     11  C   UNL d   1      -4.180  -7.224  -0.693  0.00  0.00     0.019 A 
ATOM     12  C   UNL d   1      -3.010  -7.195   0.086  0.00  0.00     0.019 A 
ATOM     13  C   UNL d   1      -2.756  -5.875   0.393  0.00  0.00     0.098 A 
ENDBRANCH   2   9
BRANCH   6  14
ATOM     14  C   UNL d   1      -2.932  -0.156   0.037  0.00  0.00     0.075 C 
ATOM     15  C   UNL d   1      -3.431   0.888  -0.663  0.00  0.00     0.044 C 
ATOM     16  C   UNL d   1      -1.770   0.018   0.862  0.00  0.00     0.102 C 
ATOM     17  N   UNL d   1      -0.841   0.143   1.544  0.00  0.00    -0.191 NA
BRANCH  15  18
ATOM     18  C   UNL d   1      -2.813   2.174  -0.684  0.00  0.00     0.006 A 
ATOM     19  S   UNL d   1      -1.562   2.513  -1.818  0.00  0.00    -0.102 SA
ATOM     20  C   UNL d   1      -1.336   4.094  -1.209  0.00  0.00     0.050 A 
ATOM     21  C   UNL d   1      -2.218   4.385  -0.194  0.00  0.00     0.008 A 
ATOM     22  C   UNL d   1      -3.079   3.285   0.097  0.00  0.00     0.019 A 
ENDBRANCH  15  18
ENDBRANCH   6  14
BRANCH   3  23
ATOM     23  C   UNL d   1      -6.409  -3.508   0.101  0.00  0.00     0.058 A 
ATOM     24  C   UNL d   1      -6.663  -4.588   0.963  0.00  0.00     0.031 A 
ATOM     25  C   UNL d   1      -7.912  -5.210   0.961  0.00  0.00     0.002 A 
ATOM     26  C   UNL d   1      -8.916  -4.744   0.118  0.00  0.00     0.000 A 
ATOM     27  C   UNL d   1      -8.689  -3.627  -0.690  0.00  0.00     0.002 A 
ATOM     28  C   UNL d   1      -7.443  -2.989  -0.686  0.00  0.00     0.031 A 
ENDBRANCH   3  23
TORSDOF 4
