REMARK  2 active torsions:
REMARK  status: ('A' for Active; 'I' for Inactive)
REMARK    1  A    between atoms: C_15  and  N_3 
REMARK    2  A    between atoms: C_17  and  C_10 
ROOT
ATOM      1  C   UNL d   1       1.473  -0.596  -0.050  0.00  0.00     0.136 A 
ATOM      2  C   UNL d   1       1.489   0.780  -0.013  0.00  0.00     0.020 A 
ATOM      3  N   UNL d   1       2.783  -1.031   0.050  0.00  0.00    -0.239 N 
ATOM      4  N   UNL d   1       3.626   0.028   0.232  0.00  0.00    -0.296 N 
ATOM      5  HN  UNL d   1       4.626  -0.004   0.426  1.00  0.00     0.187 HD
ATOM      6  C   UNL d   1      -0.985   0.672  -0.225  0.00  0.00     0.019 C 
ATOM      7  N   UNL d   1       0.329  -1.327  -0.094  0.00  0.00    -0.343 N 
ATOM      8  C   UNL d   1      -0.900  -0.681  -0.220  0.00  0.00     0.022 C 
ATOM      9  C   UNL d   1       2.856   1.118   0.100  0.00  0.00     0.033 A 
ATOM     10  C   UNL d   1       0.216   1.602  -0.010  0.00  0.00     0.063 C 
ATOM     11  C   UNL d   1      -2.308   1.281  -0.513  0.00  0.00     0.159 C 
ATOM     12  C   UNL d   1      -2.140  -1.541  -0.301  0.00  0.00     0.067 C 
ATOM     13  C   UNL d   1      -3.329  -0.882   0.433  0.00  0.00    -0.036 C 
ATOM     14  C   UNL d   1      -3.570   0.527  -0.143  0.00  0.00     0.092 C 
ATOM     15  O   UNL d   1      -2.373   2.388  -1.046  0.00  0.00    -0.293 OA
ATOM     16  C   UNL d   1       3.486   2.461   0.144  0.00  0.00     0.070 C 
ATOM     17  C   UNL d   1      -3.053  -0.811   1.952  0.00  0.00     0.015 C 
ATOM     18  C   UNL d   1      -4.598  -1.727   0.226  0.00  0.00     0.015 C 
ATOM     19  H   UNL d   1       0.311  -2.336   0.027  0.00  0.00     0.167 HD
ENDROOT
BRANCH   3  20
ATOM     20  C   UNL d   1       3.306  -2.348  -0.019  0.00  0.00     0.058 A 
ATOM     21  C   UNL d   1       2.677  -3.339  -0.782  0.00  0.00     0.031 A 
ATOM     22  C   UNL d   1       3.229  -4.621  -0.847  0.00  0.00     0.002 A 
ATOM     23  C   UNL d   1       4.395  -4.921  -0.143  0.00  0.00     0.000 A 
ATOM     24  C   UNL d   1       5.028  -3.935   0.611  0.00  0.00     0.002 A 
ATOM     25  C   UNL d   1       4.497  -2.645   0.660  0.00  0.00     0.031 A 
ENDBRANCH   3  20
BRANCH  10  26
ATOM     26  C   UNL d   1       0.122   2.351   1.351  0.00  0.00     0.010 C 
ATOM     27  C   UNL d   1      -1.060   3.294   1.526  0.00  0.00     0.006 C 
ENDBRANCH  10  26
TORSDOF 2
