REMARK  6 active torsions:
REMARK  status: ('A' for Active; 'I' for Inactive)
REMARK    1  A    between atoms: C_5  and  C_1 
REMARK    2  A    between atoms: C_6  and  C_5 
REMARK    3  A    between atoms: S_13  and  C_6 
REMARK    4  A    between atoms: C_15  and  N_7 
REMARK    5  A    between atoms: C_17  and  S_13 
REMARK    6  A    between atoms: C_14  and  C_17 
ROOT
ATOM      1  C   UNL d   1      -3.958   2.152  -1.501  0.00  0.00     0.217 C 
ATOM      2  C   UNL d   1      -3.590   2.375  -2.921  0.00  0.00     0.078 C 
ATOM      3  N   UNL d   1      -3.264   2.559  -4.019  0.00  0.00    -0.196 NA
ENDROOT
BRANCH   1   4
ATOM      4  C   UNL d   1      -5.189   2.948  -1.144  0.00  0.00     0.106 A 
ATOM      5  N   UNL d   1      -5.205   4.141  -0.576  0.00  0.00    -0.343 N 
ATOM      6  C   UNL d   1      -6.527   4.522  -0.535  0.00  0.00     0.060 A 
ATOM      7  HN  UNL d   1      -4.402   4.671  -0.237  1.00  0.00     0.167 HD
ATOM      8  C   UNL d   1      -7.104   5.720  -0.089  0.00  0.00     0.032 A 
ATOM      9  C   UNL d   1      -7.347   3.516  -1.030  0.00  0.00     0.060 A 
ATOM     10  C   UNL d   1      -8.498   5.857  -0.150  0.00  0.00     0.002 A 
ATOM     11  C   UNL d   1      -9.298   4.821  -0.637  0.00  0.00     0.002 A 
ATOM     12  C   UNL d   1      -8.738   3.620  -1.092  0.00  0.00     0.032 A 
ATOM     13  N   UNL d   1      -6.477   2.526  -1.406  0.00  0.00    -0.343 N 
ATOM     14  H   UNL d   1      -6.726   1.637  -1.823  0.00  0.00     0.167 HD
ENDBRANCH   1   4
BRANCH   1  15
ATOM     15  C   UNL d   1      -4.199   0.661  -1.213  0.00  0.00     0.072 C 
ATOM     16  N   UNL d   1      -5.142   0.076  -1.902  0.00  0.00    -0.353 N 
ATOM     17  HN  UNL d   1      -5.605   0.661  -2.598  1.00  0.00     0.166 HD
BRANCH  16  18
ATOM     18  C   UNL d   1      -5.608  -1.246  -1.817  0.00  0.00     0.032 A 
ATOM     19  C   UNL d   1      -6.981  -1.441  -2.031  0.00  0.00     0.029 A 
ATOM     20  C   UNL d   1      -7.562  -2.712  -1.962  0.00  0.00     0.002 A 
ATOM     21  C   UNL d   1      -6.768  -3.818  -1.684  0.00  0.00     0.000 A 
ATOM     22  C   UNL d   1      -5.394  -3.655  -1.537  0.00  0.00     0.002 A 
ATOM     23  C   UNL d   1      -4.817  -2.382  -1.637  0.00  0.00     0.029 A 
ENDBRANCH  16  18
BRANCH  15  24
ATOM     24  S   UNL d   1      -3.198  -0.137   0.015  0.00  0.00    -0.111 SA
BRANCH  24  25
ATOM     25  C   UNL d   1      -2.713   1.177   1.150  0.00  0.00     0.107 C 
BRANCH  25  26
ATOM     26  C   UNL d   1      -1.856   0.640   2.255  0.00  0.00    -0.026 C 
ATOM     27  C   UNL d   1      -2.173   0.719   3.555  0.00  0.00     0.007 C 
ENDBRANCH  25  26
ENDBRANCH  24  25
ENDBRANCH  15  24
ENDBRANCH   1  15
TORSDOF 6
