REMARK  6 active torsions:
REMARK  status: ('A' for Active; 'I' for Inactive)
REMARK    1  A    between atoms: C_12  and  N_3 
REMARK    2  A    between atoms: C_8  and  C_4 
REMARK       I    between atoms: N_9  and  C_8 
REMARK    3  A    between atoms: C_10  and  N_9 
REMARK    4  A    between atoms: C_22  and  C_16 
REMARK    5  A    between atoms: C_23  and  C_22 
REMARK    6  A    between atoms: C_24  and  C_23 
ROOT
ATOM      1  C   UNL d   1      -4.620   0.351   0.295  0.00  0.00     0.276 C 
ATOM      2  N   UNL d   1      -3.394   0.870  -0.083  0.00  0.00    -0.321 N 
ATOM      3  O   UNL d   1      -5.661   1.003   0.353  0.00  0.00    -0.266 OA
ATOM      4  H   UNL d   1      -2.682   0.186  -0.317  0.00  0.00     0.169 HD
ENDROOT
BRANCH   1   5
ATOM      5  C   UNL d   1      -4.609  -1.101   0.551  0.00  0.00     0.141 C 
ATOM      6  N   UNL d   1      -3.490  -1.813   0.831  0.00  0.00    -0.272 N 
ATOM      7  N   UNL d   1      -3.996  -3.055   1.104  0.00  0.00    -0.196 N 
ATOM      8  HN  UNL d   1      -2.519  -1.502   0.837  1.00  0.00     0.189 HD
ATOM      9  N   UNL d   1      -5.319  -3.216   0.861  0.00  0.00    -0.281 N 
ATOM     10  C   UNL d   1      -5.724  -1.978   0.582  0.00  0.00     0.057 C 
ATOM     11  HN  UNL d   1      -5.869  -4.074   0.885  1.00  0.00     0.189 HD
ATOM     12  C   UNL d   1      -7.168  -1.730   0.374  0.00  0.00     0.072 C 
BRANCH   7  13
ATOM     13  C   UNL d   1      -3.244  -4.128   1.660  0.00  0.00     0.074 A 
ATOM     14  C   UNL d   1      -1.916  -3.961   2.060  0.00  0.00     0.033 A 
ATOM     15  C   UNL d   1      -1.241  -5.029   2.663  0.00  0.00     0.002 A 
ATOM     16  C   UNL d   1      -1.875  -6.260   2.858  0.00  0.00     0.000 A 
ATOM     17  C   UNL d   1      -3.195  -6.431   2.445  0.00  0.00     0.002 A 
ATOM     18  C   UNL d   1      -3.876  -5.374   1.853  0.00  0.00     0.033 A 
ENDBRANCH   7  13
ENDBRANCH   1   5
BRANCH   2  19
ATOM     19  C   UNL d   1      -3.074   2.238  -0.238  0.00  0.00     0.041 A 
ATOM     20  C   UNL d   1      -2.122   2.635  -1.193  0.00  0.00    -0.035 A 
ATOM     21  C   UNL d   1      -1.627   3.957  -1.176  0.00  0.00     0.016 A 
ATOM     22  C   UNL d   1      -1.626   1.720  -2.280  0.00  0.00     0.050 C 
ATOM     23  C   UNL d   1      -2.065   4.888  -0.227  0.00  0.00    -0.058 A 
ATOM     24  C   UNL d   1      -3.089   4.506   0.648  0.00  0.00     0.009 A 
ATOM     25  C   UNL d   1      -3.600   3.199   0.632  0.00  0.00     0.030 A 
BRANCH  23  26
ATOM     26  C   UNL d   1      -1.367   6.221  -0.067  0.00  0.00     0.038 C 
BRANCH  26  27
ATOM     27  C   UNL d   1      -1.429   7.187  -1.256  0.00  0.00     0.004 C 
BRANCH  27  28
ATOM     28  C   UNL d   1      -2.820   7.787  -1.465  0.00  0.00    -0.004 C 
ATOM     29  C   UNL d   1      -2.811   8.818  -2.585  0.00  0.00     0.005 C 
ENDBRANCH  27  28
ENDBRANCH  26  27
ENDBRANCH  23  26
ENDBRANCH   2  19
TORSDOF 6
