REMARK  1 active torsions:
REMARK  status: ('A' for Active; 'I' for Inactive)
REMARK    1  A    between atoms: O_9  and  C_5 
ROOT
ATOM      1  C   UNL d   1       0.056  -0.662   0.067  0.00  0.00     0.051 A 
ATOM      2  C   UNL d   1      -0.015   0.749  -0.005  0.00  0.00     0.024 A 
ATOM      3  N   UNL d   1       1.239  -1.312   0.066  0.00  0.00    -0.359 N 
ATOM      4  HN  UNL d   1       1.261  -2.331   0.121  1.00  0.00     0.166 HD
ATOM      5  C   UNL d   1       1.213   1.442  -0.041  0.00  0.00     0.080 A 
ATOM      6  C   UNL d   1       2.422   0.765  -0.054  0.00  0.00     0.062 A 
ATOM      7  C   UNL d   1       2.395  -0.615  -0.009  0.00  0.00     0.008 A 
ATOM      8  C   UNL d   1      -1.139  -1.393   0.134  0.00  0.00    -0.034 A 
ATOM      9  C   UNL d   1      -1.282   1.379  -0.054  0.00  0.00     0.016 A 
ATOM     10  C   UNL d   1      -2.457   0.635  -0.015  0.00  0.00     0.002 A 
ATOM     11  C   UNL d   1      -2.386  -0.745   0.084  0.00  0.00     0.009 A 
ATOM     12  C   UNL d   1       3.660  -1.415  -0.063  0.00  0.00     0.068 C 
ATOM     13  C   UNL d   1      -1.138  -2.896   0.245  0.00  0.00     0.050 C 
ENDROOT
BRANCH   5  14
ATOM     14  O   UNL d   1       1.312   2.809  -0.067  0.00  0.00    -0.360 OA
ATOM     15  H   UNL d   1       0.468   3.196   0.209  0.00  0.00     0.217 HD
ENDBRANCH   5  14
TORSDOF 1
