REMARK  5 active torsions:
REMARK  status: ('A' for Active; 'I' for Inactive)
REMARK    1  A    between atoms: C_2  and  S_1 
REMARK    2  A    between atoms: N_16  and  S_1 
REMARK    3  A    between atoms: C_15  and  C_4 
REMARK    4  A    between atoms: C_14  and  C_22 
REMARK    5  A    between atoms: C_22  and  N_16 
ROOT
ATOM      1  S   UNL d   1       0.864  -0.038   0.059  0.00  0.00     0.244 S 
ATOM      2  O   UNL d   1       1.521  -0.514   1.257  0.00  0.00    -0.206 OA
ATOM      3  O   UNL d   1      -0.311  -0.703  -0.463  0.00  0.00    -0.206 OA
ENDROOT
BRANCH   1   4
ATOM      4  C   UNL d   1       2.046   0.009  -1.234  0.00  0.00     0.105 A 
ATOM      5  C   UNL d   1       3.290   0.654  -1.129  0.00  0.00     0.108 A 
ATOM      6  C   UNL d   1       4.229   0.677  -2.247  0.00  0.00     0.086 A 
ATOM      7  N   UNL d   1       3.859   1.323  -0.116  0.00  0.00    -0.238 N 
ATOM      8  N   UNL d   1       5.313   1.370  -1.879  0.00  0.00    -0.239 N 
ATOM      9  C   UNL d   1       3.963   0.050  -3.478  0.00  0.00     0.034 A 
ATOM     10  O   UNL d   1       5.087   1.757  -0.573  0.00  0.00    -0.156 OA
ATOM     11  HN  UNL d   1       6.136   1.572  -2.447  1.00  0.00     0.197 HD
ATOM     12  C   UNL d   1       2.728  -0.618  -3.544  0.00  0.00     0.004 A 
ATOM     13  C   UNL d   1       1.805  -0.641  -2.466  0.00  0.00     0.027 A 
ATOM     14  HN  UNL d   1       3.462   1.481   0.811  1.00  0.00     0.197 HD
ENDBRANCH   1   4
BRANCH   1  15
ATOM     15  N   UNL d   1       0.414   1.565   0.256  0.00  0.00    -0.210 NA
ATOM     16  H   UNL d   1      -0.597   1.699   0.179  0.00  0.00     0.140 HD
BRANCH  15  17
ATOM     17  C   UNL d   1       1.007   2.263   1.401  0.00  0.00     0.162 C 
BRANCH  17  18
ATOM     18  C   UNL d   1       0.466   3.662   1.479  0.00  0.00     0.030 A 
ATOM     19  N   UNL d   1      -0.874   3.929   1.183  0.00  0.00    -0.351 N 
ATOM     20  C   UNL d   1      -1.138   5.213   1.372  0.00  0.00     0.091 A 
ATOM     21  HN  UNL d   1      -1.552   3.235   0.868  1.00  0.00     0.166 HD
ATOM     22  S   UNL d   1       0.209   6.153   1.900  0.00  0.00    -0.081 SA
ATOM     23  C   UNL d   1       1.194   4.763   1.885  0.00  0.00     0.078 A 
BRANCH  20  24
ATOM     24  C   UNL d   1      -2.460   5.771   1.167  0.00  0.00     0.038 A 
ATOM     25  S   UNL d   1      -2.832   7.436   1.415  0.00  0.00    -0.099 SA
ATOM     26  C   UNL d   1      -4.471   7.221   0.998  0.00  0.00     0.050 A 
ATOM     27  C   UNL d   1      -4.749   5.916   0.666  0.00  0.00     0.008 A 
ATOM     28  C   UNL d   1      -3.592   5.084   0.762  0.00  0.00     0.022 A 
ENDBRANCH  20  24
ENDBRANCH  17  18
ENDBRANCH  15  17
ENDBRANCH   1  15
TORSDOF 5
