REMARK  4 active torsions:
REMARK  status: ('A' for Active; 'I' for Inactive)
REMARK    1  A    between atoms: N_2  and  C_1 
REMARK    2  A    between atoms: N_3  and  C_1 
REMARK    3  A    between atoms: C_5  and  N_2 
REMARK    4  A    between atoms: C_8  and  N_3 
ROOT
ATOM      1  C   UNL d   1       1.032   0.633  -0.132  0.00  0.00     0.172 C 
ATOM      2  S   UNL d   1       2.613   1.138   0.067  0.00  0.00    -0.041 SA
ENDROOT
BRANCH   1   3
ATOM      3  N   UNL d   1       0.464   0.080  -1.251  0.00  0.00    -0.333 N 
ATOM      4  H   UNL d   1      -0.134  -0.711  -1.054  0.00  0.00     0.168 HD
BRANCH   3   5
ATOM      5  C   UNL d   1       0.845   0.258  -2.597  0.00  0.00     0.034 A 
ATOM      6  C   UNL d   1       0.597  -0.781  -3.501  0.00  0.00     0.031 A 
ATOM      7  C   UNL d   1       0.936  -0.638  -4.850  0.00  0.00     0.026 A 
ATOM      8  C   UNL d   1       1.490   0.557  -5.304  0.00  0.00     0.034 A 
ATOM      9  C   UNL d   1       1.704   1.611  -4.421  0.00  0.00     0.026 A 
ATOM     10 CL   UNL d   1       1.899   0.737  -6.965  0.00  0.00    -0.084 Cl
ATOM     11  C   UNL d   1       1.379   1.460  -3.070  0.00  0.00     0.031 A 
ENDBRANCH   3   5
ENDBRANCH   1   3
BRANCH   1  12
ATOM     12  N   UNL d   1       0.211   0.738   0.956  0.00  0.00    -0.362 N 
ATOM     13  H   UNL d   1       0.684   1.186   1.734  0.00  0.00     0.162 HD
BRANCH  12  14
ATOM     14  C   UNL d   1      -1.254   0.795   0.962  0.00  0.00     0.083 C 
ATOM     15  C   UNL d   1      -1.775   2.046   0.236  0.00  0.00     0.025 C 
ATOM     16  C   UNL d   1      -1.444   3.333   0.990  0.00  0.00     0.002 C 
ATOM     17  C   UNL d   1      -1.966   3.291   2.423  0.00  0.00     0.000 C 
ATOM     18  C   UNL d   1      -1.488   2.052   3.174  0.00  0.00     0.002 C 
ATOM     19  C   UNL d   1      -1.782   0.761   2.405  0.00  0.00     0.025 C 
ENDBRANCH  12  14
ENDBRANCH   1  12
TORSDOF 4
