REMARK  4 active torsions:
REMARK  status: ('A' for Active; 'I' for Inactive)
REMARK    1  A    between atoms: C_13  and  C_1 
REMARK    2  A    between atoms: O_7  and  C_4 
REMARK    3  A    between atoms: C_8  and  O_7 
REMARK    4  A    between atoms: C_9  and  C_8 
ROOT
ATOM      1  C   UNL d   1       2.575  -0.729   0.004  0.00  0.00     0.077 A 
ATOM      2  N   UNL d   1       0.918   1.067  -0.053  0.00  0.00    -0.312 N 
ATOM      3  C   UNL d   1       2.245   0.755  -0.097  0.00  0.00     0.262 A 
ATOM      4  C   UNL d   1       1.587  -1.654   0.066  0.00  0.00     0.108 A 
ATOM      5  C   UNL d   1       0.167  -1.245   0.056  0.00  0.00     0.026 A 
ATOM      6  C   UNL d   1      -0.078   0.114   0.009  0.00  0.00     0.057 A 
ATOM      7  C   UNL d   1       0.328   2.400  -0.072  0.00  0.00     0.137 A 
ATOM      8  O   UNL d   1       3.121   1.611  -0.182  0.00  0.00    -0.267 OA
ATOM      9  C   UNL d   1      -1.332   0.705   0.018  0.00  0.00    -0.029 A 
ATOM     10  C   UNL d   1      -1.205   2.198  -0.021  0.00  0.00     0.061 A 
ATOM     11  C   UNL d   1      -0.966  -2.058   0.104  0.00  0.00     0.017 A 
ATOM     12  C   UNL d   1      -2.262  -1.488   0.097  0.00  0.00     0.002 A 
ATOM     13  C   UNL d   1      -2.452  -0.099   0.058  0.00  0.00     0.009 A 
ENDROOT
BRANCH   4  14
ATOM     14  O   UNL d   1       1.843  -3.020   0.307  0.00  0.00    -0.273 OA
BRANCH  14  15
ATOM     15  C   UNL d   1       1.733  -3.862  -0.775  0.00  0.00     0.305 C 
ATOM     16  O   UNL d   1       1.485  -3.504  -1.922  0.00  0.00    -0.258 OA
BRANCH  15  17
ATOM     17  C   UNL d   1       1.914  -5.254  -0.373  0.00  0.00     0.080 A 
ATOM     18  S   UNL d   1       2.082  -5.731   1.268  0.00  0.00    -0.096 SA
ATOM     19  C   UNL d   1       2.225  -7.383   0.855  0.00  0.00     0.050 A 
ATOM     20  C   UNL d   1       2.143  -7.583  -0.505  0.00  0.00     0.009 A 
ATOM     21  C   UNL d   1       1.955  -6.358  -1.209  0.00  0.00     0.025 A 
ENDBRANCH  15  17
ENDBRANCH  14  15
ENDBRANCH   4  14
BRANCH   1  22
ATOM     22  C   UNL d   1       4.006  -1.071   0.082  0.00  0.00    -0.018 A 
ATOM     23  C   UNL d   1       4.734  -1.336  -1.085  0.00  0.00     0.012 A 
ATOM     24  C   UNL d   1       6.126  -1.435  -1.034  0.00  0.00     0.001 A 
ATOM     25  C   UNL d   1       6.795  -1.280   0.181  0.00  0.00     0.000 A 
ATOM     26  C   UNL d   1       6.073  -1.049   1.351  0.00  0.00     0.001 A 
ATOM     27  C   UNL d   1       4.681  -0.949   1.303  0.00  0.00     0.012 A 
ENDBRANCH   1  22
TORSDOF 4
