REMARK  2 active torsions:
REMARK  status: ('A' for Active; 'I' for Inactive)
REMARK    1  A    between atoms: C_9  and  N_1 
REMARK    2  A    between atoms: C_10  and  C_6 
ROOT
ATOM      1  N   UNL d   1      -3.061   1.077  -0.077  0.00  0.00    -0.282 N 
ATOM      2  N   UNL d   1      -1.776   1.491  -0.323  0.00  0.00    -0.300 N 
ATOM      3  HN  UNL d   1      -1.479   2.387  -0.708  1.00  0.00     0.187 HD
ATOM      4  C   UNL d   1      -1.020   0.501   0.038  0.00  0.00     0.043 C 
ATOM      5  C   UNL d   1      -1.735  -0.675   0.659  0.00  0.00     0.067 C 
ATOM      6  C   UNL d   1      -3.164  -0.365   0.187  0.00  0.00     0.151 C 
ATOM      7  C   UNL d   1       0.441   0.448  -0.037  0.00  0.00    -0.005 A 
ATOM      8  C   UNL d   1      -1.101  -2.039   0.397  0.00  0.00     0.018 C 
ATOM      9  C   UNL d   1       1.020  -0.817  -0.220  0.00  0.00    -0.046 A 
ATOM     10  C   UNL d   1       0.136  -2.003  -0.505  0.00  0.00     0.040 C 
ATOM     11  C   UNL d   1       1.217   1.591   0.126  0.00  0.00     0.014 A 
ATOM     12  C   UNL d   1       2.414  -0.924  -0.217  0.00  0.00     0.008 A 
ATOM     13  C   UNL d   1       2.607   1.468   0.145  0.00  0.00     0.001 A 
ATOM     14  C   UNL d   1       3.202   0.214  -0.019  0.00  0.00     0.001 A 
ENDROOT
BRANCH   6  15
ATOM     15  C   UNL d   1      -3.643  -1.117  -1.050  0.00  0.00    -0.033 A 
ATOM     16  C   UNL d   1      -4.794  -1.923  -0.968  0.00  0.00     0.012 A 
ATOM     17  C   UNL d   1      -5.234  -2.652  -2.075  0.00  0.00     0.043 A 
ATOM     18  C   UNL d   1      -4.528  -2.580  -3.269  0.00  0.00     0.116 A 
ATOM     19  C   UNL d   1      -3.405  -1.774  -3.386  0.00  0.00     0.043 A 
ATOM     20  F   UNL d   1      -4.940  -3.296  -4.324  0.00  0.00    -0.206 F 
ATOM     21  C   UNL d   1      -2.970  -1.036  -2.284  0.00  0.00     0.012 A 
ENDBRANCH   6  15
BRANCH   1  22
ATOM     22  C   UNL d   1      -4.154   1.915  -0.263  0.00  0.00     0.051 A 
ATOM     23  C   UNL d   1      -4.154   2.902  -1.256  0.00  0.00     0.031 A 
ATOM     24  C   UNL d   1      -5.254   3.745  -1.445  0.00  0.00     0.002 A 
ATOM     25  C   UNL d   1      -6.366   3.640  -0.614  0.00  0.00     0.000 A 
ATOM     26  C   UNL d   1      -6.382   2.681   0.393  0.00  0.00     0.002 A 
ATOM     27  C   UNL d   1      -5.292   1.820   0.556  0.00  0.00     0.031 A 
ENDBRANCH   1  22
TORSDOF 2
