REMARK  5 active torsions:
REMARK  status: ('A' for Active; 'I' for Inactive)
REMARK    1  A    between atoms: C_14  and  C_5 
REMARK    2  A    between atoms: C_6  and  C_7 
REMARK    3  A    between atoms: C_7  and  O_12 
REMARK    4  A    between atoms: C_18  and  C_11 
REMARK    5  A    between atoms: O_12  and  C_18 
ROOT
ATOM      1  O   UNL d   1      -1.137  -3.220   0.987  0.00  0.00    -0.314 OA
ENDROOT
BRANCH   1   2
ATOM      2  C   UNL d   1      -0.405  -3.796   1.972  0.00  0.00     0.310 C 
ATOM      3  O   UNL d   1       0.017  -3.207   2.963  0.00  0.00    -0.258 OA
BRANCH   2   4
ATOM      4  C   UNL d   1      -0.124  -5.246   1.731  0.00  0.00     0.108 A 
ATOM      5  N   UNL d   1      -0.588  -5.834   0.599  0.00  0.00    -0.351 N 
ATOM      6  C   UNL d   1      -0.301  -7.136   0.395  0.00  0.00     0.043 A 
ATOM      7  HN  UNL d   1      -1.138  -5.305  -0.078  1.00  0.00     0.166 HD
ATOM      8  C   UNL d   1      -0.752  -7.773  -0.755  0.00  0.00     0.030 A 
ATOM      9  C   UNL d   1       0.454  -7.905   1.312  0.00  0.00    -0.009 A 
ATOM     10  C   UNL d   1      -0.477  -9.120  -1.015  0.00  0.00     0.002 A 
ATOM     11  C   UNL d   1       0.266  -9.867  -0.108  0.00  0.00     0.001 A 
ATOM     12  C   UNL d   1       0.732  -9.259   1.054  0.00  0.00     0.013 A 
ATOM     13  C   UNL d   1       0.915  -7.272   2.468  0.00  0.00     0.016 A 
ATOM     14  C   UNL d   1       0.626  -5.930   2.684  0.00  0.00     0.037 A 
ENDBRANCH   2   4
ENDBRANCH   1   2
BRANCH   1  15
ATOM     15  C   UNL d   1      -1.444  -1.813   1.131  0.00  0.00     0.213 C 
BRANCH  15  16
ATOM     16  C   UNL d   1      -0.836  -0.986  -0.003  0.00  0.00     0.182 C 
ATOM     17  O   UNL d   1      -1.383  -1.405  -1.261  0.00  0.00    -0.272 OA
ATOM     18  N   UNL d   1      -0.332  -1.615  -2.179  0.00  0.00    -0.270 N 
ATOM     19  C   UNL d   1       0.785  -1.483  -1.541  0.00  0.00     0.045 C 
ATOM     20  HN  UNL d   1      -0.435  -1.834  -3.170  1.00  0.00     0.194 HD
ATOM     21  C   UNL d   1       0.661  -1.125  -0.106  0.00  0.00     0.096 C 
BRANCH  19  22
ATOM     22  C   UNL d   1       2.112  -1.656  -2.168  0.00  0.00    -0.012 A 
ATOM     23  C   UNL d   1       2.196  -2.016  -3.517  0.00  0.00     0.013 A 
ATOM     24  C   UNL d   1       3.444  -2.136  -4.130  0.00  0.00     0.001 A 
ATOM     25  C   UNL d   1       4.607  -1.901  -3.398  0.00  0.00     0.000 A 
ATOM     26  C   UNL d   1       4.529  -1.560  -2.049  0.00  0.00     0.001 A 
ATOM     27  C   UNL d   1       3.284  -1.442  -1.431  0.00  0.00     0.013 A 
ENDBRANCH  19  22
ENDBRANCH  15  16
ENDBRANCH   1  15
TORSDOF 5
