REMARK  7 active torsions:
REMARK  status: ('A' for Active; 'I' for Inactive)
REMARK    1  A    between atoms: C_2  and  S_1 
REMARK    2  A    between atoms: N_7  and  S_1 
REMARK    3  A    between atoms: C_3  and  C_6 
REMARK       I    between atoms: C_6  and  N_12 
REMARK    4  A    between atoms: N_12  and  N_7 
REMARK       I    between atoms: C_15  and  N_20 
REMARK    5  A    between atoms: C_23  and  C_15 
REMARK    6  A    between atoms: C_24  and  C_16 
REMARK    7  A    between atoms: N_20  and  C_24 
ROOT
ATOM      1  S   UNL d   1       0.950   0.170  -0.047  0.00  0.00     0.282 S 
ATOM      2  O   UNL d   1       2.199   0.889  -0.183  0.00  0.00    -0.198 OA
ATOM      3  O   UNL d   1       0.912  -1.139   0.570  0.00  0.00    -0.198 OA
ENDROOT
BRANCH   1   4
ATOM      4  C   UNL d   1       0.322  -0.065  -1.685  0.00  0.00     0.122 A 
ATOM      5  S   UNL d   1       0.064   1.348  -2.612  0.00  0.00    -0.080 SA
ATOM      6  C   UNL d   1      -0.466   0.446  -3.970  0.00  0.00     0.002 A 
ATOM      7  C   UNL d   1      -0.471  -0.909  -3.705  0.00  0.00     0.018 A 
ATOM      8  C   UNL d   1      -0.008  -1.204  -2.393  0.00  0.00     0.034 A 
BRANCH   6   9
ATOM      9  C   UNL d   1      -0.850   1.130  -5.244  0.00  0.00     0.169 C 
BRANCH   9  10
ATOM     10  N   UNL d   1      -2.241   1.507  -5.173  0.00  0.00    -0.352 N 
ATOM     11  C   UNL d   1      -3.244   0.689  -5.644  0.00  0.00     0.251 C 
ATOM     12  O   UNL d   1      -3.049  -0.412  -6.145  0.00  0.00    -0.268 OA
ATOM     13  H   UNL d   1      -2.480   2.283  -4.572  0.00  0.00     0.163 HD
BRANCH  11  14
ATOM     14  C   UNL d   1      -4.630   1.213  -5.486  0.00  0.00     0.032 A 
ATOM     15  C   UNL d   1      -4.897   2.588  -5.521  0.00  0.00     0.017 A 
ATOM     16  C   UNL d   1      -6.204   3.053  -5.370  0.00  0.00     0.001 A 
ATOM     17  C   UNL d   1      -7.250   2.146  -5.189  0.00  0.00     0.000 A 
ATOM     18  C   UNL d   1      -6.991   0.775  -5.172  0.00  0.00     0.001 A 
ATOM     19  C   UNL d   1      -5.684   0.306  -5.325  0.00  0.00     0.017 A 
ENDBRANCH  11  14
ENDBRANCH   9  10
ENDBRANCH   6   9
ENDBRANCH   1   4
BRANCH   1  20
ATOM     20  N   UNL d   1      -0.112   1.153   0.820  0.00  0.00    -0.220 N 
ATOM     21  H   UNL d   1      -1.004   1.452   0.414  0.00  0.00     0.200 HD
BRANCH  20  22
ATOM     22  N   UNL d   1       0.199   1.443   2.203  0.00  0.00    -0.256 N 
ATOM     23  C   UNL d   1      -0.663   2.189   2.991  0.00  0.00     0.280 C 
ATOM     24  O   UNL d   1      -1.711   2.639   2.523  0.00  0.00    -0.265 OA
ATOM     25  H   UNL d   1       1.072   1.068   2.567  0.00  0.00     0.191 HD
BRANCH  23  26
ATOM     26  C   UNL d   1      -0.239   2.387   4.362  0.00  0.00     0.115 A 
ATOM     27  C   UNL d   1      -0.814   3.100   5.409  0.00  0.00     0.046 A 
ATOM     28  N   UNL d   1      -0.093   3.060   6.602  0.00  0.00    -0.298 N 
ATOM     29  C   UNL d   1      -2.069   3.894   5.429  0.00  0.00     0.071 C 
ATOM     30  N   UNL d   1       1.003   2.334   6.500  0.00  0.00    -0.269 N 
ATOM     31  HN  UNL d   1      -0.381   3.537   7.456  1.00  0.00     0.187 HD
ATOM     32  S   UNL d   1       1.204   1.684   4.984  0.00  0.00     0.009 SA
ATOM     33  HN  UNL d   1       1.657   2.187   7.268  1.00  0.00     0.195 HD
ENDBRANCH  23  26
ENDBRANCH  20  22
ENDBRANCH   1  20
TORSDOF 7
