REMARK  2 active torsions:
REMARK  status: ('A' for Active; 'I' for Inactive)
REMARK    1  A    between atoms: N_2  and  S_1 
REMARK    2  A    between atoms: C_3  and  S_1 
ROOT
ATOM      1  N   UNL d   1      -0.214   1.376   0.723  0.00  0.00    -0.264 N 
ATOM      2  C   UNL d   1      -0.414   2.556  -0.065  0.00  0.00     0.072 A 
ATOM      3  C   UNL d   1      -0.316   1.495   2.193  0.00  0.00     0.107 C 
ATOM      4  N   UNL d   1       1.015   4.123   1.278  0.00  0.00    -0.325 N 
ATOM      5  C   UNL d   1       1.246   3.549   2.478  0.00  0.00     0.224 C 
ATOM      6  C   UNL d   1       0.888   2.138   2.840  0.00  0.00     0.129 C 
ATOM      7  C   UNL d   1       0.233   3.777   0.163  0.00  0.00     0.062 A 
ATOM      8  O   UNL d   1       1.846   4.240   3.313  0.00  0.00    -0.273 OA
ATOM      9  C   UNL d   1      -1.288   2.426  -1.157  0.00  0.00     0.033 A 
ATOM     10  C   UNL d   1      -1.644   2.143   2.597  0.00  0.00     0.034 C 
ATOM     11  C   UNL d   1       0.030   4.824  -0.757  0.00  0.00     0.032 A 
ATOM     12  C   UNL d   1      -1.521   3.490  -2.025  0.00  0.00     0.002 A 
ATOM     13  C   UNL d   1      -0.848   4.687  -1.834  0.00  0.00     0.002 A 
ATOM     14  H   UNL d   1       1.398   5.062   1.275  0.00  0.00     0.169 HD
ENDROOT
BRANCH   1  15
ATOM     15  S   UNL d   1       0.911   0.261   0.064  0.00  0.00     0.272 S 
ATOM     16  O   UNL d   1       2.230   0.559   0.578  0.00  0.00    -0.199 OA
ATOM     17  O   UNL d   1       0.687   0.108  -1.358  0.00  0.00    -0.199 OA
BRANCH  15  18
ATOM     18  C   UNL d   1       0.524  -1.345   0.743  0.00  0.00     0.120 A 
ATOM     19  S   UNL d   1      -1.098  -1.866   0.561  0.00  0.00    -0.088 SA
ATOM     20  C   UNL d   1      -0.791  -3.321   1.406  0.00  0.00     0.051 A 
ATOM     21  C   UNL d   1       0.524  -3.423   1.801  0.00  0.00     0.009 A 
ATOM     22  C   UNL d   1       1.287  -2.283   1.413  0.00  0.00     0.033 A 
ENDBRANCH  15  18
ENDBRANCH   1  15
TORSDOF 2
