REMARK  5 active torsions:
REMARK  status: ('A' for Active; 'I' for Inactive)
REMARK       I    between atoms: C_2  and  N_1 
REMARK    1  A    between atoms: C_6  and  N_1 
REMARK    2  A    between atoms: C_7  and  N_1 
REMARK    3  A    between atoms: C_5  and  C_2 
REMARK    4  A    between atoms: C_3  and  C_6 
REMARK    5  A    between atoms: C_14  and  C_7 
ROOT
ATOM      1  N   UNL d   1       0.950  -0.045   0.008  0.00  0.00    -0.343 N 
ATOM      2  C   UNL d   1       0.283  -0.093  -1.213  0.00  0.00     0.228 C 
ATOM      3  O   UNL d   1      -0.955  -0.087  -1.215  0.00  0.00    -0.273 OA
ENDROOT
BRANCH   1   4
ATOM      4  C   UNL d   1       0.126   0.210   1.206  0.00  0.00     0.172 C 
BRANCH   4   5
ATOM      5  C   UNL d   1       0.217  -0.884   2.230  0.00  0.00     0.000 A 
ATOM      6  S   UNL d   1       0.825  -0.530   3.798  0.00  0.00    -0.105 SA
ATOM      7  C   UNL d   1       0.475  -2.102   4.365  0.00  0.00     0.050 A 
ATOM      8  C   UNL d   1      -0.068  -2.896   3.380  0.00  0.00     0.008 A 
ATOM      9  C   UNL d   1      -0.210  -2.196   2.144  0.00  0.00     0.017 A 
ENDBRANCH   4   5
ENDBRANCH   1   4
BRANCH   1  10
ATOM     10  C   UNL d   1       2.400  -0.056   0.218  0.00  0.00     0.166 C 
BRANCH  10  11
ATOM     11  C   UNL d   1       3.084   1.289   0.262  0.00  0.00    -0.025 A 
ATOM     12  C   UNL d   1       4.475   1.318   0.373  0.00  0.00     0.096 A 
ATOM     13  N   UNL d   1       5.225   2.443   0.334  0.00  0.00    -0.375 N 
ATOM     14  C   UNL d   1       4.562   3.606   0.185  0.00  0.00     0.087 A 
ATOM     15  HN  UNL d   1       6.241   2.412   0.413  1.00  0.00     0.164 HD
ATOM     16  C   UNL d   1       3.184   3.696   0.090  0.00  0.00     0.018 A 
ATOM     17  C   UNL d   1       2.439   2.521   0.134  0.00  0.00     0.011 A 
ENDBRANCH  10  11
ENDBRANCH   1  10
BRANCH   2  18
ATOM     18  C   UNL d   1       1.011  -0.174  -2.599  0.00  0.00     0.030 C 
ATOM     19  C   UNL d   1       1.656  -1.546  -2.840  0.00  0.00     0.025 C 
ATOM     20  C   UNL d   1      -0.070   0.004  -3.701  0.00  0.00     0.025 C 
ATOM     21  C   UNL d   1       2.021   0.958  -2.833  0.00  0.00     0.025 C 
ENDBRANCH   2  18
TORSDOF 5
