REMARK  9 active torsions:
REMARK  status: ('A' for Active; 'I' for Inactive)
REMARK    1  A    between atoms: C_2  and  C_1 
REMARK    2  A    between atoms: C_3  and  C_1 
REMARK    3  A    between atoms: C_24  and  C_1 
REMARK       I    between atoms: N_14  and  C_2 
REMARK       I    between atoms: N_15  and  C_3 
REMARK    4  A    between atoms: C_4  and  C_12 
REMARK    5  A    between atoms: C_5  and  C_13 
REMARK    6  A    between atoms: N_6  and  N_14 
REMARK    7  A    between atoms: N_8  and  N_15 
REMARK    8  A    between atoms: C_25  and  C_24 
REMARK    9  A    between atoms: C_26  and  C_25 
ROOT
ATOM      1  C   UNL d   1       1.024   0.017  -0.096  0.00  0.00     0.173 C 
ENDROOT
BRANCH   1   2
ATOM      2  C   UNL d   1       0.377   1.194  -0.798  0.00  0.00     0.249 C 
ATOM      3  N   UNL d   1       0.070   2.252   0.048  0.00  0.00    -0.270 N 
ATOM      4  H   UNL d   1       0.263   2.214   1.043  0.00  0.00     0.190 HD
ATOM      5  O   UNL d   1       0.186   1.197  -2.016  0.00  0.00    -0.271 OA
BRANCH   3   6
ATOM      6  N   UNL d   1      -0.508   3.360  -0.489  0.00  0.00    -0.308 N 
ATOM      7  C   UNL d   1      -0.734   4.360   0.301  0.00  0.00     0.126 C 
ATOM      8  HN  UNL d   1      -0.755   3.400  -1.478  1.00  0.00     0.186 HD
BRANCH   7   9
ATOM      9  C   UNL d   1      -1.358   5.545  -0.234  0.00  0.00     0.021 A 
ATOM     10  S   UNL d   1      -1.631   6.899   0.768  0.00  0.00    -0.101 SA
ATOM     11  C   UNL d   1      -2.341   7.782  -0.517  0.00  0.00     0.050 A 
ATOM     12  C   UNL d   1      -2.371   7.058  -1.688  0.00  0.00     0.008 A 
ATOM     13  C   UNL d   1      -1.800   5.765  -1.524  0.00  0.00     0.021 A 
ENDBRANCH   7   9
ENDBRANCH   3   6
ENDBRANCH   1   2
BRANCH   1  14
ATOM     14  C   UNL d   1       0.639  -1.339  -0.670  0.00  0.00     0.249 C 
ATOM     15  N   UNL d   1       0.370  -1.391  -2.029  0.00  0.00    -0.270 N 
ATOM     16  H   UNL d   1       0.261  -0.524  -2.562  0.00  0.00     0.190 HD
ATOM     17  O   UNL d   1       0.663  -2.331   0.064  0.00  0.00    -0.271 OA
BRANCH  15  18
ATOM     18  N   UNL d   1       0.061  -2.593  -2.594  0.00  0.00    -0.308 N 
ATOM     19  C   UNL d   1      -0.292  -2.590  -3.841  0.00  0.00     0.126 C 
ATOM     20  HN  UNL d   1       0.106  -3.459  -2.057  1.00  0.00     0.186 HD
BRANCH  19  21
ATOM     21  C   UNL d   1      -0.617  -3.844  -4.479  0.00  0.00     0.021 A 
ATOM     22  S   UNL d   1      -1.048  -3.885  -6.131  0.00  0.00    -0.101 SA
ATOM     23  C   UNL d   1      -1.242  -5.587  -6.104  0.00  0.00     0.050 A 
ATOM     24  C   UNL d   1      -0.990  -6.115  -4.858  0.00  0.00     0.008 A 
ATOM     25  C   UNL d   1      -0.630  -5.107  -3.919  0.00  0.00     0.021 A 
ENDBRANCH  19  21
ENDBRANCH  15  18
ENDBRANCH   1  14
BRANCH   1  26
ATOM     26  C   UNL d   1       2.557   0.148  -0.102  0.00  0.00     0.024 C 
BRANCH  26  27
ATOM     27  C   UNL d   1       3.083   1.216   0.865  0.00  0.00     0.001 C 
BRANCH  27  28
ATOM     28  C   UNL d   1       4.613   1.224   0.899  0.00  0.00    -0.005 C 
ATOM     29  C   UNL d   1       5.152   2.290   1.840  0.00  0.00     0.005 C 
ENDBRANCH  27  28
ENDBRANCH  26  27
ENDBRANCH   1  26
TORSDOF 9
