REMARK  6 active torsions:
REMARK  status: ('A' for Active; 'I' for Inactive)
REMARK    1  A    between atoms: C_3  and  C_1 
REMARK    2  A    between atoms: C_2  and  N_4 
REMARK    3  A    between atoms: N_5  and  C_2 
REMARK    4  A    between atoms: N_4  and  C_8 
REMARK    5  A    between atoms: C_12  and  N_5 
REMARK    6  A    between atoms: O_18  and  C_13 
ROOT
ATOM      1  C   UNL d   1      -0.062  -3.058   4.030  0.00  0.00     0.176 C 
ATOM      2  S   UNL d   1       0.001  -4.272   5.196  0.00  0.00    -0.041 SA
ENDROOT
BRANCH   1   3
ATOM      3  N   UNL d   1      -0.113  -1.798   4.537  0.00  0.00    -0.333 N 
ATOM      4  H   UNL d   1      -0.041  -1.840   5.551  0.00  0.00     0.168 HD
BRANCH   3   5
ATOM      5  C   UNL d   1      -0.483  -0.539   4.032  0.00  0.00     0.035 A 
ATOM      6  C   UNL d   1      -0.632   0.466   5.001  0.00  0.00     0.045 A 
ATOM      7  C   UNL d   1      -1.122   1.741   4.679  0.00  0.00     0.050 A 
ATOM      8  C   UNL d   1      -1.419   2.022   3.344  0.00  0.00     0.016 A 
ATOM      9  C   UNL d   1      -1.242   1.041   2.365  0.00  0.00     0.003 A 
ATOM     10  C   UNL d   1      -0.789  -0.242   2.707  0.00  0.00     0.029 A 
BRANCH   7  11
ATOM     11  C   UNL d   1      -1.396   2.752   5.766  0.00  0.00     0.417 C 
ATOM     12  F   UNL d   1      -0.864   2.409   6.972  0.00  0.00    -0.166 F 
ATOM     13  F   UNL d   1      -2.731   2.921   5.986  0.00  0.00    -0.166 F 
ATOM     14  F   UNL d   1      -0.904   3.988   5.479  0.00  0.00    -0.166 F 
ENDBRANCH   7  11
ENDBRANCH   3   5
ENDBRANCH   1   3
BRANCH   1  15
ATOM     15  N   UNL d   1       0.008  -3.227   2.672  0.00  0.00    -0.333 N 
ATOM     16  H   UNL d   1       0.724  -2.647   2.254  0.00  0.00     0.168 HD
BRANCH  15  17
ATOM     17  C   UNL d   1      -0.244  -4.460   2.020  0.00  0.00     0.034 A 
ATOM     18  C   UNL d   1      -1.406  -5.189   2.295  0.00  0.00     0.032 A 
ATOM     19  C   UNL d   1      -1.612  -6.448   1.724  0.00  0.00     0.039 A 
ATOM     20  C   UNL d   1      -0.655  -6.988   0.868  0.00  0.00     0.068 A 
ATOM     21  C   UNL d   1       0.474  -6.230   0.543  0.00  0.00     0.039 A 
ATOM     22  C   UNL d   1       0.673  -4.958   1.097  0.00  0.00     0.032 A 
BRANCH  20  23
ATOM     23  O   UNL d   1      -0.709  -8.227   0.290  0.00  0.00    -0.356 OA
ATOM     24  C   UNL d   1      -1.765  -9.083   0.714  0.00  0.00     0.210 C 
ENDBRANCH  20  23
ENDBRANCH  15  17
ENDBRANCH   1  15
TORSDOF 6
