REMARK  8 active torsions:
REMARK  status: ('A' for Active; 'I' for Inactive)
REMARK    1  A    between atoms: O_4  and  C_1 
REMARK    2  A    between atoms: C_9  and  O_4 
REMARK       I    between atoms: C_14  and  N_16 
REMARK    3  A    between atoms: C_29  and  C_14 
REMARK    4  A    between atoms: N_16  and  C_21 
REMARK    5  A    between atoms: C_17  and  C_30 
REMARK    6  A    between atoms: O_26  and  C_17 
REMARK    7  A    between atoms: O_25  and  C_29 
REMARK    8  A    between atoms: C_30  and  O_25 
ROOT
ATOM      1  N   UNL d   1       3.154   3.527  -1.153  0.00  0.00    -0.344 N 
ATOM      2  HN  UNL d   1       2.772   3.183  -2.034  1.00  0.00     0.167 HD
ATOM      3  C   UNL d   1       2.462   3.449   0.005  0.00  0.00     0.149 A 
ATOM      4  C   UNL d   1       4.943   4.622   0.087  0.00  0.00     0.050 A 
ATOM      5  C   UNL d   1       4.383   4.090  -1.076  0.00  0.00     0.119 A 
ATOM      6  C   UNL d   1       2.893   4.010   1.196  0.00  0.00     0.059 A 
ATOM      7  C   UNL d   1       4.154   4.602   1.233  0.00  0.00     0.035 A 
ENDROOT
BRANCH   3   8
ATOM      8  O   UNL d   1       1.200   2.885   0.014  0.00  0.00    -0.276 OA
BRANCH   8   9
ATOM      9  C   UNL d   1       1.035   1.694  -0.685  0.00  0.00     0.163 A 
ATOM     10  C   UNL d   1      -0.257   1.400  -1.126  0.00  0.00     0.042 A 
ATOM     11  C   UNL d   1      -0.386   0.172  -1.786  0.00  0.00     0.049 A 
ATOM     12  C   UNL d   1      -1.388   2.232  -0.938  0.00  0.00     0.020 A 
ATOM     13  C   UNL d   1      -1.637  -0.198  -2.257  0.00  0.00     0.054 A 
ATOM     14  N   UNL d   1       0.650  -0.657  -1.970  0.00  0.00    -0.351 N 
ATOM     15  C   UNL d   1      -2.754   0.620  -2.071  0.00  0.00     0.036 A 
ATOM     16  C   UNL d   1      -2.636   1.834  -1.407  0.00  0.00     0.025 A 
ATOM     17 CL   UNL d   1      -4.290   0.116  -2.657  0.00  0.00    -0.084 Cl
ATOM     18  C   UNL d   1       1.833  -0.277  -1.466  0.00  0.00     0.182 A 
ATOM     19  HN  UNL d   1       0.544  -1.539  -2.471  1.00  0.00     0.166 HD
ATOM     20  N   UNL d   1       2.080   0.852  -0.800  0.00  0.00    -0.332 N 
ATOM     21  HN  UNL d   1       2.997   1.063  -0.406  1.00  0.00     0.168 HD
ENDBRANCH   8   9
ENDBRANCH   3   8
BRANCH   4  22
ATOM     22  N   UNL d   1       6.253   5.144   0.044  0.00  0.00    -0.324 N 
ATOM     23  C   UNL d   1       7.029   5.505   1.133  0.00  0.00     0.245 C 
ATOM     24  O   UNL d   1       6.722   5.392   2.316  0.00  0.00    -0.271 OA
ATOM     25  H   UNL d   1       6.698   5.198  -0.864  0.00  0.00     0.169 HD
BRANCH  23  26
ATOM     26  C   UNL d   1       8.415   6.015   0.734  0.00  0.00     0.271 C 
BRANCH  26  27
ATOM     27  O   UNL d   1       8.338   7.057  -0.243  0.00  0.00    -0.372 OA
BRANCH  27  28
ATOM     28  C   UNL d   1       9.583   7.758  -0.347  0.00  0.00     0.277 C 
BRANCH  28  29
ATOM     29  C   UNL d   1      10.522   7.029  -1.294  0.00  0.00     0.164 C 
ATOM     30  O   UNL d   1      11.725   6.909  -1.132  0.00  0.00    -0.648 OA
BRANCH  29  31
ATOM     31  O   UNL d   1       9.860   6.521  -2.365  0.00  0.00    -0.775 OA
ATOM     32  H   UNL d   1       8.905   6.735  -2.298  0.00  0.00     0.167 HD
ENDBRANCH  29  31
ENDBRANCH  28  29
ENDBRANCH  27  28
ENDBRANCH  26  27
ENDBRANCH  23  26
ENDBRANCH   4  22
TORSDOF 8
