REMARK  3 active torsions:
REMARK  status: ('A' for Active; 'I' for Inactive)
REMARK    1  A    between atoms: N_12  and  C_4 
REMARK    2  A    between atoms: C_11  and  C_6 
REMARK    3  A    between atoms: C_14  and  C_9 
ROOT
ATOM      1  C   UNL d   1      -0.036  -0.667   0.072  0.00  0.00     0.087 C 
ATOM      2  C   UNL d   1      -2.530   0.627   0.107  0.00  0.00     0.080 C 
ATOM      3  C   UNL d   1      -0.008   0.679   0.007  0.00  0.00    -0.032 C 
ATOM      4  C   UNL d   1      -2.451  -0.717   0.184  0.00  0.00     0.138 C 
ATOM      5  O   UNL d   1      -1.226  -1.382   0.104  0.00  0.00    -0.297 OA
ATOM      6  C   UNL d   1      -1.293   1.480  -0.081  0.00  0.00     0.098 C 
ATOM      7  C   UNL d   1       1.194  -1.469   0.071  0.00  0.00    -0.023 C 
ATOM      8  C   UNL d   1      -3.783   1.299   0.219  0.00  0.00     0.100 C 
ATOM      9  C   UNL d   1       1.231  -2.757   0.472  0.00  0.00     0.021 C 
ATOM     10  N   UNL d   1      -4.807   1.845   0.302  0.00  0.00    -0.191 NA
ATOM     11  C   UNL d   1       1.278   1.475   0.011  0.00  0.00     0.038 C 
ATOM     12  C   UNL d   1       2.425  -0.707  -0.385  0.00  0.00     0.042 C 
ATOM     13  C   UNL d   1       2.503   0.628   0.344  0.00  0.00     0.009 C 
ENDROOT
BRANCH   4  14
ATOM     14  N   UNL d   1      -3.522  -1.571   0.334  0.00  0.00    -0.282 NA
ATOM     15  H   UNL d   1      -4.416  -1.205   0.014  0.00  0.00     0.126 HD
ATOM     16  H   UNL d   1      -3.322  -2.500  -0.029  0.00  0.00     0.126 HD
ENDBRANCH   4  14
BRANCH   6  17
ATOM     17  C   UNL d   1      -1.357   2.270  -1.388  0.00  0.00    -0.045 A 
ATOM     18  C   UNL d   1      -1.316   1.616  -2.632  0.00  0.00     0.008 A 
ATOM     19  C   UNL d   1      -1.381   2.344  -3.819  0.00  0.00     0.001 A 
ATOM     20  C   UNL d   1      -1.488   3.732  -3.780  0.00  0.00     0.000 A 
ATOM     21  C   UNL d   1      -1.525   4.394  -2.554  0.00  0.00     0.001 A 
ATOM     22  C   UNL d   1      -1.458   3.670  -1.363  0.00  0.00     0.008 A 
ENDBRANCH   6  17
BRANCH   9  23
ATOM     23  C   UNL d   1       2.459  -3.558   0.572  0.00  0.00    -0.036 A 
ATOM     24  C   UNL d   1       3.190  -3.556   1.767  0.00  0.00     0.011 A 
ATOM     25  C   UNL d   1       4.379  -4.283   1.870  0.00  0.00     0.001 A 
ATOM     26  C   UNL d   1       4.844  -5.016   0.780  0.00  0.00     0.000 A 
ATOM     27  C   UNL d   1       4.122  -5.022  -0.413  0.00  0.00     0.001 A 
ATOM     28  C   UNL d   1       2.933  -4.294  -0.519  0.00  0.00     0.011 A 
ENDBRANCH   9  23
TORSDOF 3
