REMARK  5 active torsions:
REMARK  status: ('A' for Active; 'I' for Inactive)
REMARK    1  A    between atoms: C_9  and  C_1 
REMARK    2  A    between atoms: C_4  and  C_10 
REMARK    3  A    between atoms: O_17  and  C_18 
REMARK    4  A    between atoms: C_20  and  O_17 
REMARK    5  A    between atoms: C_19  and  C_20 
ROOT
ATOM      1  C   UNL d   1       0.737  -8.400   4.337  0.00  0.00    -0.001 A 
ATOM      2  C   UNL d   1      -0.434  -7.914   3.737  0.00  0.00     0.015 A 
ATOM      3  C   UNL d   1       1.870  -7.573   4.351  0.00  0.00     0.015 A 
ATOM      4  C   UNL d   1       0.681  -5.840   3.138  0.00  0.00    -0.034 A 
ATOM      5  C   UNL d   1      -0.463  -6.646   3.148  0.00  0.00     0.010 A 
ATOM      6  C   UNL d   1       1.844  -6.308   3.759  0.00  0.00     0.010 A 
ENDROOT
BRANCH   4   7
ATOM      7  C   UNL d   1       0.654  -4.483   2.484  0.00  0.00     0.214 C 
BRANCH   7   8
ATOM      8  O   UNL d   1       0.261  -3.507   3.445  0.00  0.00    -0.347 OA
BRANCH   8   9
ATOM      9  C   UNL d   1       0.213  -2.210   3.010  0.00  0.00     0.070 A 
ATOM     10  C   UNL d   1       0.497  -1.777   1.712  0.00  0.00     0.052 A 
ATOM     11  C   UNL d   1       0.425  -0.414   1.376  0.00  0.00     0.050 A 
ATOM     12  C   UNL d   1       0.053   0.512   2.361  0.00  0.00     0.016 A 
ATOM     13  C   UNL d   1      -0.235   0.084   3.656  0.00  0.00     0.004 A 
ATOM     14  C   UNL d   1      -0.153  -1.272   3.977  0.00  0.00     0.037 A 
BRANCH  11  15
ATOM     15  C   UNL d   1       0.747   0.049  -0.023  0.00  0.00     0.417 C 
ATOM     16  F   UNL d   1       1.125  -0.963  -0.855  0.00  0.00    -0.166 F 
ATOM     17  F   UNL d   1       1.765   0.952  -0.053  0.00  0.00    -0.166 F 
ATOM     18  F   UNL d   1      -0.311   0.653  -0.630  0.00  0.00    -0.166 F 
ENDBRANCH  11  15
ENDBRANCH   8   9
ENDBRANCH   7   8
ENDBRANCH   4   7
BRANCH   1  19
ATOM     19  C   UNL d   1       0.812  -9.723   4.966  0.00  0.00     0.102 A 
ATOM     20  N   UNL d   1       1.599 -10.054   5.973  0.00  0.00    -0.345 N 
ATOM     21  C   UNL d   1       1.388 -11.390   6.270  0.00  0.00     0.188 A 
ATOM     22  HN  UNL d   1       2.252  -9.432   6.451  1.00  0.00     0.167 HD
ATOM     23  N   UNL d   1       0.529 -12.113   5.555  0.00  0.00    -0.321 N 
ATOM     24  S   UNL d   1      -0.100 -11.077   4.407  0.00  0.00     0.005 SA
ATOM     25  HN  UNL d   1       0.302 -13.100   5.682  1.00  0.00     0.175 HD
ENDBRANCH   1  19
TORSDOF 5
