REMARK  6 active torsions:
REMARK  status: ('A' for Active; 'I' for Inactive)
REMARK    1  A    between atoms: C_12  and  C_5 
REMARK    2  A    between atoms: S_13  and  C_9 
REMARK    3  A    between atoms: O_17  and  C_12 
REMARK    4  A    between atoms: C_20  and  S_13 
REMARK    5  A    between atoms: C_15  and  C_20 
REMARK    6  A    between atoms: C_21  and  O_17 
ROOT
ATOM      1  C   UNL d   1       1.573  -0.886  -0.043  0.00  0.00     0.161 A 
ATOM      2  N   UNL d   1       0.884   0.306  -0.083  0.00  0.00    -0.221 N 
ATOM      3  N   UNL d   1       0.940  -2.089   0.024  0.00  0.00    -0.333 N 
ATOM      4  HN  UNL d   1       1.470  -2.960   0.050  1.00  0.00     0.168 HD
ATOM      5  C   UNL d   1       2.896  -0.488  -0.042  0.00  0.00     0.167 A 
ATOM      6  N   UNL d   1       1.716   1.363  -0.144  0.00  0.00    -0.013 NA
ATOM      7  N   UNL d   1       2.955   0.890  -0.119  0.00  0.00    -0.275 N 
ATOM      8  HN  UNL d   1       3.807   1.449  -0.151  1.00  0.00     0.184 HD
ATOM      9  C   UNL d   1      -0.357  -2.097   0.052  0.00  0.00     0.084 A 
ATOM     10  C   UNL d   1      -1.195  -0.851   0.009  0.00  0.00     0.026 A 
ATOM     11  C   UNL d   1      -0.511   0.377  -0.046  0.00  0.00     0.069 A 
ATOM     12  C   UNL d   1      -2.593  -0.830   0.030  0.00  0.00     0.016 A 
ATOM     13  C   UNL d   1      -1.183   1.601  -0.055  0.00  0.00     0.032 A 
ATOM     14  C   UNL d   1      -3.276   0.393   0.014  0.00  0.00     0.001 A 
ATOM     15  C   UNL d   1      -2.575   1.602  -0.022  0.00  0.00     0.002 A 
ENDROOT
BRANCH   5  16
ATOM     16  C   UNL d   1       4.065  -1.333   0.096  0.00  0.00     0.315 C 
ATOM     17  O   UNL d   1       4.028  -2.549   0.246  0.00  0.00    -0.257 OA
BRANCH  16  18
ATOM     18  O   UNL d   1       5.220  -0.598   0.124  0.00  0.00    -0.317 OA
BRANCH  18  19
ATOM     19  C   UNL d   1       6.376  -1.283   0.621  0.00  0.00     0.175 C 
ATOM     20  C   UNL d   1       6.391  -1.164   2.135  0.00  0.00     0.034 C 
ENDBRANCH  18  19
ENDBRANCH  16  18
ENDBRANCH   5  16
BRANCH   9  21
ATOM     21  S   UNL d   1      -1.161  -3.658   0.150  0.00  0.00    -0.108 SA
BRANCH  21  22
ATOM     22  C   UNL d   1       0.192  -4.656   0.846  0.00  0.00     0.107 C 
BRANCH  22  23
ATOM     23  C   UNL d   1      -0.259  -6.079   0.990  0.00  0.00    -0.026 C 
ATOM     24  C   UNL d   1      -0.352  -6.731   2.157  0.00  0.00     0.007 C 
ENDBRANCH  22  23
ENDBRANCH  21  22
ENDBRANCH   9  21
TORSDOF 6
