REMARK  7 active torsions:
REMARK  status: ('A' for Active; 'I' for Inactive)
REMARK    1  A    between atoms: C_12  and  C_2 
REMARK    2  A    between atoms: O_11  and  N_5 
REMARK    3  A    between atoms: C_7  and  C_13 
REMARK    4  A    between atoms: N_22  and  C_7 
REMARK    5  A    between atoms: C_9  and  O_11 
REMARK    6  A    between atoms: C_14  and  C_9 
REMARK    7  A    between atoms: O_26  and  C_23 
ROOT
ATOM      1  N   UNL d   1       6.823  -4.186   0.949  0.00  0.00    -0.246 N 
ATOM      2  HN  UNL d   1       7.555  -4.892   1.026  1.00  0.00     0.196 HD
ATOM      3  C   UNL d   1       5.979  -4.123  -0.041  0.00  0.00     0.109 C 
ENDROOT
BRANCH   3   4
ATOM      4  C   UNL d   1       6.126  -5.138  -1.149  0.00  0.00     0.004 A 
ATOM      5  C   UNL d   1       7.178  -6.063  -1.101  0.00  0.00     0.015 A 
ATOM      6  C   UNL d   1       7.367  -6.996  -2.129  0.00  0.00     0.014 A 
ATOM      7  C   UNL d   1       6.500  -7.029  -3.230  0.00  0.00    -0.008 A 
ATOM      8  C   UNL d   1       5.446  -6.107  -3.276  0.00  0.00     0.014 A 
ATOM      9  C   UNL d   1       5.259  -5.169  -2.249  0.00  0.00     0.015 A 
BRANCH   7  10
ATOM     10  C   UNL d   1       6.686  -7.973  -4.328  0.00  0.00     0.063 A 
ATOM     11  N   UNL d   1       6.239  -7.677  -5.614  0.00  0.00    -0.292 N 
ATOM     12  N   UNL d   1       6.507  -8.650  -6.469  0.00  0.00    -0.061 NA
ATOM     13  HN  UNL d   1       5.762  -6.812  -5.866  1.00  0.00     0.183 HD
ATOM     14  S   UNL d   1       7.282  -9.947  -5.755  0.00  0.00    -0.010 SA
ATOM     15  C   UNL d   1       7.288  -9.213  -4.203  0.00  0.00     0.096 A 
ENDBRANCH   7  10
ENDBRANCH   3   4
BRANCH   3  16
ATOM     16  N   UNL d   1       4.983  -3.175  -0.105  0.00  0.00    -0.286 NA
ATOM     17  H   UNL d   1       4.827  -2.720   0.786  0.00  0.00     0.125 HD
ATOM     18  H   UNL d   1       4.119  -3.436  -0.561  0.00  0.00     0.125 HD
ENDBRANCH   3  16
BRANCH   1  19
ATOM     19  O   UNL d   1       6.612  -3.167   1.906  0.00  0.00    -0.193 OA
BRANCH  19  20
ATOM     20  C   UNL d   1       7.569  -3.250   2.879  0.00  0.00     0.315 C 
ATOM     21  O   UNL d   1       8.460  -4.083   2.984  0.00  0.00    -0.257 OA
BRANCH  20  22
ATOM     22  C   UNL d   1       7.397  -2.152   3.878  0.00  0.00     0.041 A 
ATOM     23  C   UNL d   1       8.253  -2.131   4.992  0.00  0.00     0.020 A 
ATOM     24  C   UNL d   1       8.139  -1.135   5.970  0.00  0.00     0.038 A 
ATOM     25  C   UNL d   1       7.165  -0.146   5.844  0.00  0.00     0.068 A 
ATOM     26  C   UNL d   1       6.330  -0.144   4.724  0.00  0.00     0.038 A 
ATOM     27  C   UNL d   1       6.434  -1.142   3.748  0.00  0.00     0.020 A 
BRANCH  25  28
ATOM     28  O   UNL d   1       6.968   0.886   6.719  0.00  0.00    -0.356 OA
ATOM     29  C   UNL d   1       7.335   0.633   8.071  0.00  0.00     0.210 C 
ENDBRANCH  25  28
ENDBRANCH  20  22
ENDBRANCH  19  20
ENDBRANCH   1  19
TORSDOF 7
