REMARK  2 active torsions:
REMARK  status: ('A' for Active; 'I' for Inactive)
REMARK    1  A    between atoms: N_2  and  C_1 
REMARK       I    between atoms: C_4  and  N_2 
REMARK    2  A    between atoms: O_11  and  C_5 
ROOT
ATOM      1  C   UNL d   1       1.624   1.363  -0.009  0.00  0.00     0.070 A 
ATOM      2  C   UNL d   1       0.223   1.209  -0.014  0.00  0.00     0.056 A 
ATOM      3  C   UNL d   1       2.415   0.190   0.003  0.00  0.00     0.095 A 
ATOM      4  C   UNL d   1       1.778  -1.069   0.002  0.00  0.00     0.041 A 
ATOM      5  C   UNL d   1      -0.381  -0.050  -0.015  0.00  0.00     0.036 A 
ATOM      6  C   UNL d   1       0.393  -1.196  -0.009  0.00  0.00     0.026 A 
ATOM      7 CL   UNL d   1      -2.097  -0.182  -0.025  0.00  0.00    -0.084 Cl
ENDROOT
BRANCH   1   8
ATOM      8  N   UNL d   1       2.192   2.664  -0.021  0.00  0.00    -0.325 N 
ATOM      9  C   UNL d   1       1.552   3.890  -0.032  0.00  0.00     0.218 C 
ATOM     10  O   UNL d   1       0.344   4.097  -0.038  0.00  0.00    -0.274 OA
ATOM     11  C   UNL d   1       2.509   5.059  -0.038  0.00  0.00     0.117 C 
ATOM     12  H   UNL d   1       3.192   2.719  -0.030  0.00  0.00     0.169 HD
ENDBRANCH   1   8
BRANCH   3  13
ATOM     13  O   UNL d   1       3.770   0.005   0.019  0.00  0.00    -0.354 OA
ATOM     14  C   UNL d   1       4.701   1.063   0.028  0.00  0.00     0.210 C 
ENDBRANCH   3  13
TORSDOF 2
