REMARK  4 active torsions:
REMARK  status: ('A' for Active; 'I' for Inactive)
REMARK    1  A    between atoms: C_2  and  C_1 
REMARK    2  A    between atoms: C_5  and  C_1 
REMARK    3  A    between atoms: C_15  and  C_4 
REMARK    4  A    between atoms: N_6  and  C_5 
ROOT
ATOM      1  C   UNL d   1       0.980   0.022   0.096  0.00  0.00     0.054 C 
ATOM      2  C   UNL d   1       0.322  -0.568   1.113  0.00  0.00     0.035 C 
ENDROOT
BRANCH   1   3
ATOM      3  C   UNL d   1       0.289   0.675  -0.963  0.00  0.00     0.053 A 
ATOM      4  N   UNL d   1      -0.089   0.002  -2.106  0.00  0.00    -0.360 N 
ATOM      5  C   UNL d   1      -0.736   0.875  -2.952  0.00  0.00     0.091 A 
ATOM      6  C   UNL d   1       0.124  -1.390  -2.444  0.00  0.00     0.155 C 
ATOM      7  C   UNL d   1      -0.761   2.114  -2.359  0.00  0.00     0.019 A 
ATOM      8  C   UNL d   1      -0.110   1.992  -1.111  0.00  0.00     0.032 A 
ENDBRANCH   1   3
BRANCH   1   9
ATOM      9  C   UNL d   1       2.500   0.022   0.096  0.00  0.00    -0.035 C 
BRANCH   9  10
ATOM     10  N   UNL d   1       3.760   0.022   0.096  0.00  0.00    -0.365 N 
ATOM     11  HN2 UNL d   1       2.740   0.022   0.096  1.00  0.00     0.165 HD
ATOM     12  HN1 UNL d   1       4.780   0.022   0.096  1.00  0.00     0.165 HD
ENDBRANCH   9  10
ENDBRANCH   1   9
BRANCH   2  13
ATOM     13  C   UNL d   1      -1.137  -0.656   1.259  0.00  0.00    -0.032 A 
ATOM     14  C   UNL d   1      -1.816  -1.787   0.782  0.00  0.00     0.051 A 
ATOM     15  C   UNL d   1      -3.184  -1.837   0.950  0.00  0.00     0.105 A 
ATOM     16  O   UNL d   1      -3.995  -2.856   0.555  0.00  0.00    -0.323 OA
ATOM     17  C   UNL d   1      -3.878  -0.822   1.563  0.00  0.00     0.105 A 
ATOM     18  C   UNL d   1      -5.275  -2.379   1.021  0.00  0.00     0.352 A 
ATOM     19  O   UNL d   1      -5.212  -1.076   1.637  0.00  0.00    -0.323 OA
ATOM     20  C   UNL d   1      -3.244   0.305   2.038  0.00  0.00     0.040 A 
ATOM     21  C   UNL d   1      -1.855   0.386   1.882  0.00  0.00     0.014 A 
ENDBRANCH   2  13
TORSDOF 4
