REMARK  6 active torsions:
REMARK  status: ('A' for Active; 'I' for Inactive)
REMARK    1  A    between atoms: C_3  and  C_1 
REMARK    2  A    between atoms: C_12  and  N_2 
REMARK    3  A    between atoms: S_18  and  C_6 
REMARK    4  A    between atoms: C_22  and  S_18 
REMARK    5  A    between atoms: C_19  and  C_22 
REMARK       I    between atoms: N_20  and  C_19 
REMARK    6  A    between atoms: C_23  and  N_20 
ROOT
ATOM      1  C   UNL d   1      -0.037  -1.365  -0.106  0.00  0.00     0.145 A 
ATOM      2  N   UNL d   1       1.256  -0.915  -0.317  0.00  0.00    -0.305 N 
ATOM      3  N   UNL d   1      -0.863  -0.360  -0.347  0.00  0.00    -0.282 N 
ATOM      4  HN  UNL d   1      -1.879  -0.398  -0.275  1.00  0.00     0.188 HD
ATOM      5  C   UNL d   1       1.139   0.402  -0.689  0.00  0.00     0.163 A 
ATOM      6  N   UNL d   1      -0.129   0.742  -0.710  0.00  0.00    -0.278 N 
ATOM      7  HN  UNL d   1      -0.501   1.660  -0.952  1.00  0.00     0.189 HD
ENDROOT
BRANCH   5   8
ATOM      8  S   UNL d   1       2.464   1.464  -1.023  0.00  0.00    -0.083 SA
BRANCH   8   9
ATOM      9  C   UNL d   1       1.607   3.047  -1.243  0.00  0.00     0.185 C 
BRANCH   9  10
ATOM     10  C   UNL d   1       2.556   4.168  -1.645  0.00  0.00     0.231 C 
ATOM     11  N   UNL d   1       3.579   3.810  -2.508  0.00  0.00    -0.327 N 
ATOM     12  H   UNL d   1       3.535   2.879  -2.903  0.00  0.00     0.169 HD
ATOM     13  O   UNL d   1       2.321   5.321  -1.278  0.00  0.00    -0.272 OA
BRANCH  11  14
ATOM     14  C   UNL d   1       4.628   4.646  -2.949  0.00  0.00     0.034 A 
ATOM     15  C   UNL d   1       4.973   5.837  -2.301  0.00  0.00     0.032 A 
ATOM     16  C   UNL d   1       6.017   6.632  -2.784  0.00  0.00     0.044 A 
ATOM     17  C   UNL d   1       6.711   6.237  -3.918  0.00  0.00     0.116 A 
ATOM     18  C   UNL d   1       6.396   5.048  -4.565  0.00  0.00     0.044 A 
ATOM     19  F   UNL d   1       7.697   7.009  -4.391  0.00  0.00    -0.206 F 
ATOM     20  C   UNL d   1       5.366   4.241  -4.072  0.00  0.00     0.032 A 
ENDBRANCH  11  14
ENDBRANCH   9  10
ENDBRANCH   8   9
ENDBRANCH   5   8
BRANCH   2  21
ATOM     21  C   UNL d   1       2.473  -1.653  -0.067  0.00  0.00     0.094 A 
ATOM     22  C   UNL d   1       3.775  -1.511  -0.809  0.00  0.00     0.028 A 
ATOM     23  C   UNL d   1       2.961  -2.767  -0.957  0.00  0.00     0.028 A 
ENDBRANCH   2  21
BRANCH   1  24
ATOM     24  C   UNL d   1      -0.498  -2.687   0.201  0.00  0.00     0.092 A 
ATOM     25  C   UNL d   1      -1.673  -3.321  -0.204  0.00  0.00     0.044 A 
ATOM     26  N   UNL d   1      -1.824  -4.626   0.263  0.00  0.00    -0.298 N 
ATOM     27  C   UNL d   1      -2.764  -2.805  -1.073  0.00  0.00     0.071 C 
ATOM     28  N   UNL d   1      -0.820  -4.995   1.035  0.00  0.00    -0.269 N 
ATOM     29  HN  UNL d   1      -2.618  -5.225   0.035  1.00  0.00     0.187 HD
ATOM     30  S   UNL d   1       0.310  -3.792   1.238  0.00  0.00     0.007 SA
ATOM     31  HN  UNL d   1      -0.745  -5.919   1.461  1.00  0.00     0.195 HD
ENDBRANCH   1  24
TORSDOF 6
