REMARK  7 active torsions:
REMARK  status: ('A' for Active; 'I' for Inactive)
REMARK    1  A    between atoms: C_3  and  C_1 
REMARK    2  A    between atoms: N_8  and  C_2 
REMARK    3  A    between atoms: O_16  and  C_3 
REMARK       I    between atoms: C_4  and  N_9 
REMARK    4  A    between atoms: C_5  and  C_4 
REMARK    5  A    between atoms: C_11  and  C_7 
REMARK    6  A    between atoms: N_9  and  N_8 
REMARK    7  A    between atoms: O_17  and  C_11 
ROOT
ATOM      1  N   UNL d   1       2.745   1.224   0.180  0.00  0.00    -0.296 N 
ATOM      2  H   UNL d   1       2.626   2.233   0.019  0.00  0.00     0.187 HD
ENDROOT
BRANCH   1   3
ATOM      3  C   UNL d   1       1.665   0.407   0.044  0.00  0.00     0.071 A 
ATOM      4  C   UNL d   1       1.590  -0.975   0.180  0.00  0.00     0.108 A 
ATOM      5  S   UNL d   1      -0.039  -1.516  -0.047  0.00  0.00    -0.094 SA
ATOM      6  C   UNL d   1      -0.623   0.059  -0.297  0.00  0.00     0.053 A 
ATOM      7  C   UNL d   1       0.384   0.990  -0.223  0.00  0.00     0.039 A 
BRANCH   4   8
ATOM      8  C   UNL d   1       2.635  -1.945   0.479  0.00  0.00     0.302 C 
ATOM      9  O   UNL d   1       3.842  -1.711   0.514  0.00  0.00    -0.259 OA
BRANCH   8  10
ATOM     10  O   UNL d   1       2.110  -3.184   0.728  0.00  0.00    -0.322 OA
ATOM     11  C   UNL d   1       3.063  -4.202   1.031  0.00  0.00     0.213 C 
ENDBRANCH   8  10
ENDBRANCH   4   8
ENDBRANCH   1   3
BRANCH   1  12
ATOM     12  N   UNL d   1       4.073   0.854  -0.083  0.00  0.00    -0.266 N 
ATOM     13  C   UNL d   1       4.969   1.883  -0.277  0.00  0.00     0.265 C 
ATOM     14  O   UNL d   1       4.611   3.062  -0.319  0.00  0.00    -0.266 OA
ATOM     15  H   UNL d   1       4.347  -0.100   0.160  0.00  0.00     0.190 HD
BRANCH  13  16
ATOM     16  C   UNL d   1       6.409   1.503  -0.441  0.00  0.00     0.014 C 
ATOM     17  C   UNL d   1       7.281   2.515  -0.266  0.00  0.00     0.093 C 
ATOM     18  C   UNL d   1       6.786   0.114  -0.860  0.00  0.00     0.054 C 
BRANCH  17  19
ATOM     19  C   UNL d   1       8.742   2.370  -0.412  0.00  0.00     0.165 C 
ATOM     20  O   UNL d   1       9.352   1.317  -0.357  0.00  0.00    -0.647 OA
BRANCH  19  21
ATOM     21  O   UNL d   1       9.344   3.558  -0.619  0.00  0.00    -0.773 OA
ATOM     22  H   UNL d   1       8.744   4.324  -0.710  0.00  0.00     0.167 HD
ENDBRANCH  19  21
ENDBRANCH  17  19
ENDBRANCH  13  16
ENDBRANCH   1  12
TORSDOF 7
