REMARK  4 active torsions:
REMARK  status: ('A' for Active; 'I' for Inactive)
REMARK    1  A    between atoms: C_2  and  C_1 
REMARK    2  A    between atoms: N_7  and  C_3 
REMARK       I    between atoms: C_4  and  N_6 
REMARK    3  A    between atoms: C_5  and  C_4 
REMARK    4  A    between atoms: N_6  and  N_7 
ROOT
ATOM      1  N   UNL d   1      -0.107   2.183  -1.350  0.00  0.00    -0.187 NA
ATOM      2  H   UNL d   1      -0.403   2.986  -1.913  0.00  0.00     0.154 HD
ENDROOT
BRANCH   1   3
ATOM      3  N   UNL d   1       0.880   2.543  -0.419  0.00  0.00    -0.281 N 
ATOM      4  C   UNL d   1       0.761   3.767   0.213  0.00  0.00     0.266 C 
ATOM      5  O   UNL d   1      -0.078   4.611  -0.088  0.00  0.00    -0.266 OA
ATOM      6  H   UNL d   1       1.473   1.776  -0.107  0.00  0.00     0.184 HD
BRANCH   4   7
ATOM      7  C   UNL d   1       1.722   4.037   1.313  0.00  0.00     0.035 A 
ATOM      8  C   UNL d   1       1.321   4.888   2.352  0.00  0.00     0.042 A 
ATOM      9  C   UNL d   1       2.205   5.201   3.390  0.00  0.00     0.056 A 
ATOM     10 CL   UNL d   1       1.642   6.253   4.639  0.00  0.00    -0.083 Cl
ATOM     11  C   UNL d   1       3.500   4.669   3.387  0.00  0.00     0.055 A 
ATOM     12  C   UNL d   1       3.901   3.820   2.350  0.00  0.00     0.026 A 
ATOM     13 CL   UNL d   1       4.657   5.033   4.617  0.00  0.00    -0.083 Cl
ATOM     14  C   UNL d   1       3.016   3.502   1.315  0.00  0.00     0.019 A 
ENDBRANCH   4   7
ENDBRANCH   1   3
BRANCH   1  15
ATOM     15  C   UNL d   1       0.254   1.052  -2.112  0.00  0.00     0.113 A 
ATOM     16  C   UNL d   1      -0.569   0.577  -3.132  0.00  0.00     0.087 A 
ATOM     17  C   UNL d   1      -0.207  -0.621  -3.779  0.00  0.00     0.021 A 
ATOM     18  C   UNL d   1       0.941  -1.302  -3.403  0.00  0.00     0.018 A 
ATOM     19  C   UNL d   1       1.698  -0.766  -2.384  0.00  0.00     0.089 A 
ATOM     20  N   UNL d   1       1.377   0.374  -1.734  0.00  0.00    -0.355 N 
ATOM     21  HN  UNL d   1       1.963   0.722  -0.974  1.00  0.00     0.166 HD
BRANCH  16  22
ATOM     22  C   UNL d   1      -1.827   1.266  -3.565  0.00  0.00     0.420 C 
ATOM     23  F   UNL d   1      -2.083   2.455  -2.957  0.00  0.00    -0.166 F 
ATOM     24  F   UNL d   1      -2.934   0.495  -3.370  0.00  0.00    -0.166 F 
ATOM     25  F   UNL d   1      -1.813   1.546  -4.902  0.00  0.00    -0.166 F 
ENDBRANCH  16  22
ENDBRANCH   1  15
TORSDOF 4
