REMARK  6 active torsions:
REMARK  status: ('A' for Active; 'I' for Inactive)
REMARK    1  A    between atoms: C_2  and  N_1 
REMARK    2  A    between atoms: N_12  and  C_3 
REMARK    3  A    between atoms: O_15  and  C_4 
REMARK    4  A    between atoms: N_5  and  N_12 
REMARK    5  A    between atoms: C_8  and  C_14 
REMARK    6  A    between atoms: O_17  and  C_13 
ROOT
ATOM      1  N   UNL d   1      -2.459  -1.072  -3.015  0.00  0.00    -0.326 N 
ATOM      2  HN  UNL d   1      -2.940  -0.866  -3.891  1.00  0.00     0.180 HD
ATOM      3  C   UNL d   1      -1.197  -0.844  -2.840  0.00  0.00     0.116 C 
ENDROOT
BRANCH   1   4
ATOM      4  N   UNL d   1      -3.092  -1.612  -1.933  0.00  0.00    -0.189 NA
ATOM      5  H   UNL d   1      -3.298  -0.934  -1.190  0.00  0.00     0.154 HD
BRANCH   4   6
ATOM      6  C   UNL d   1      -4.263  -2.366  -2.234  0.00  0.00     0.132 A 
ATOM      7  C   UNL d   1      -5.153  -2.790  -1.242  0.00  0.00     0.142 A 
ATOM      8  C   UNL d   1      -6.234  -3.627  -1.569  0.00  0.00     0.041 A 
ATOM      9  C   UNL d   1      -6.402  -4.036  -2.887  0.00  0.00     0.020 A 
ATOM     10  C   UNL d   1      -5.488  -3.594  -3.820  0.00  0.00     0.089 A 
ATOM     11  N   UNL d   1      -4.443  -2.792  -3.518  0.00  0.00    -0.354 N 
ATOM     12  HN  UNL d   1      -3.790  -2.507  -4.248  1.00  0.00     0.166 HD
BRANCH   7  13
ATOM     13  N   UNL d   1      -5.005  -2.356   0.140  0.00  0.00    -0.112 N 
ATOM     14  O   UNL d   1      -4.346  -1.330   0.364  0.00  0.00    -0.532 OA
ATOM     15  O   UNL d   1      -5.579  -3.021   1.015  0.00  0.00    -0.532 OA
ENDBRANCH   7  13
ENDBRANCH   4   6
ENDBRANCH   1   4
BRANCH   3  16
ATOM     16  C   UNL d   1      -0.363  -0.361  -3.958  0.00  0.00     0.017 A 
ATOM     17  C   UNL d   1       1.014  -0.647  -4.013  0.00  0.00     0.113 A 
ATOM     18  C   UNL d   1       1.775  -0.138  -5.079  0.00  0.00     0.102 A 
ATOM     19  C   UNL d   1       1.133   0.613  -6.079  0.00  0.00     0.040 A 
ATOM     20  C   UNL d   1      -0.236   0.867  -6.035  0.00  0.00     0.004 A 
ATOM     21  C   UNL d   1      -0.986   0.377  -4.973  0.00  0.00     0.016 A 
BRANCH  17  22
ATOM     22  O   UNL d   1       1.608  -1.364  -3.003  0.00  0.00    -0.352 OA
ATOM     23  C   UNL d   1       1.307  -2.761  -3.095  0.00  0.00     0.210 C 
ENDBRANCH  17  22
BRANCH  18  24
ATOM     24  O   UNL d   1       3.115  -0.263  -5.328  0.00  0.00    -0.353 OA
ATOM     25  C   UNL d   1       3.923  -1.021  -4.444  0.00  0.00     0.210 C 
ENDBRANCH  18  24
ENDBRANCH   3  16
TORSDOF 6
