REMARK  2 active torsions:
REMARK  status: ('A' for Active; 'I' for Inactive)
REMARK    1  A    between atoms: C_10  and  C_5 
REMARK    2  A    between atoms: C_11  and  C_6 
ROOT
ATOM      1  N   UNL d   1       0.057  -0.631  -0.002  0.00  0.00    -0.258 N 
ATOM      2  C   UNL d   1       0.172   0.720  -0.037  0.00  0.00     0.155 A 
ATOM      3  N   UNL d   1       1.390   1.154  -0.110  0.00  0.00    -0.334 N 
ATOM      4  HN  UNL d   1       1.716   2.121  -0.118  1.00  0.00     0.168 HD
ATOM      5  C   UNL d   1       1.343  -1.155  -0.081  0.00  0.00     0.082 A 
ATOM      6  C   UNL d   1       2.143  -0.002  -0.172  0.00  0.00     0.073 A 
ATOM      7  S   UNL d   1      -1.331   1.544   0.023  0.00  0.00    -0.084 SA
ATOM      8  C   UNL d   1      -1.225  -1.155   0.108  0.00  0.00     0.240 C 
ATOM      9  C   UNL d   1      -2.243  -0.039  -0.008  0.00  0.00     0.186 C 
ATOM     10  O   UNL d   1      -1.447  -2.347   0.234  0.00  0.00    -0.272 OA
ENDROOT
BRANCH   5  11
ATOM     11  C   UNL d   1       1.696  -2.583  -0.098  0.00  0.00    -0.006 A 
ATOM     12  C   UNL d   1       1.021  -3.492  -0.922  0.00  0.00     0.014 A 
ATOM     13  C   UNL d   1       1.436  -4.824  -1.017  0.00  0.00     0.001 A 
ATOM     14  C   UNL d   1       2.554  -5.259  -0.312  0.00  0.00     0.000 A 
ATOM     15  C   UNL d   1       3.235  -4.373   0.517  0.00  0.00     0.001 A 
ATOM     16  C   UNL d   1       2.795  -3.051   0.640  0.00  0.00     0.014 A 
ENDBRANCH   5  11
BRANCH   6  17
ATOM     17  C   UNL d   1       3.592   0.072  -0.320  0.00  0.00    -0.007 A 
ATOM     18  C   UNL d   1       4.303  -0.807  -1.148  0.00  0.00     0.014 A 
ATOM     19  C   UNL d   1       5.694  -0.720  -1.251  0.00  0.00     0.001 A 
ATOM     20  C   UNL d   1       6.384   0.266  -0.549  0.00  0.00     0.000 A 
ATOM     21  C   UNL d   1       5.684   1.169   0.247  0.00  0.00     0.001 A 
ATOM     22  C   UNL d   1       4.298   1.073   0.360  0.00  0.00     0.014 A 
ENDBRANCH   6  17
TORSDOF 2
