REMARK  5 active torsions:
REMARK  status: ('A' for Active; 'I' for Inactive)
REMARK    1  A    between atoms: C_4  and  C_1 
REMARK       I    between atoms: N_11  and  C_4 
REMARK    2  A    between atoms: C_5  and  N_8 
REMARK    3  A    between atoms: C_12  and  C_6 
REMARK    4  A    between atoms: C_7  and  C_12 
REMARK    5  A    between atoms: N_8  and  N_11 
ROOT
ATOM      1  C   UNL d   1       1.183   0.850  -0.178  0.00  0.00     0.109 A 
ATOM      2  N   UNL d   1       1.370  -0.533  -0.304  0.00  0.00    -0.349 N 
ATOM      3  HN  UNL d   1       2.256  -0.983  -0.538  1.00  0.00     0.166 HD
ATOM      4  C   UNL d   1       0.236  -1.170  -0.077  0.00  0.00     0.055 A 
ATOM      5  C   UNL d   1      -0.115   1.223   0.107  0.00  0.00     0.086 A 
ATOM      6  S   UNL d   1      -1.119  -0.152   0.235  0.00  0.00    -0.086 SA
ENDROOT
BRANCH   1   7
ATOM      7  C   UNL d   1       2.287   1.806  -0.314  0.00  0.00     0.283 C 
ATOM      8  N   UNL d   1       3.420   1.253  -0.879  0.00  0.00    -0.281 N 
ATOM      9  H   UNL d   1       3.464   0.245  -1.029  0.00  0.00     0.184 HD
ATOM     10  O   UNL d   1       2.214   2.979   0.046  0.00  0.00    -0.265 OA
BRANCH   8  11
ATOM     11  N   UNL d   1       4.622   1.961  -0.841  0.00  0.00    -0.200 NA
ATOM     12  H   UNL d   1       4.525   2.860  -0.344  0.00  0.00     0.153 HD
BRANCH  11  13
ATOM     13  C   UNL d   1       5.317   2.154  -2.076  0.00  0.00     0.071 A 
ATOM     14  C   UNL d   1       5.218   1.336  -3.223  0.00  0.00     0.058 A 
ATOM     15 CL   UNL d   1       4.109   0.010  -3.385  0.00  0.00    -0.082 Cl
ATOM     16  C   UNL d   1       6.048   1.547  -4.340  0.00  0.00     0.026 A 
ATOM     17  C   UNL d   1       7.019   2.544  -4.335  0.00  0.00     0.003 A 
ATOM     18  C   UNL d   1       7.163   3.347  -3.212  0.00  0.00     0.026 A 
ATOM     19  C   UNL d   1       6.329   3.152  -2.103  0.00  0.00     0.058 A 
ATOM     20 CL   UNL d   1       6.587   4.191  -0.737  0.00  0.00    -0.082 Cl
ENDBRANCH  11  13
ENDBRANCH   8  11
ENDBRANCH   1   7
BRANCH   4  21
ATOM     21  C   UNL d   1       0.082  -2.668  -0.011  0.00  0.00     0.107 C 
BRANCH  21  22
ATOM     22  C   UNL d   1      -0.076  -3.329  -1.367  0.00  0.00    -0.009 A 
ATOM     23  C   UNL d   1       1.044  -3.750  -2.110  0.00  0.00     0.042 A 
ATOM     24 CL   UNL d   1       2.662  -3.584  -1.516  0.00  0.00    -0.084 Cl
ATOM     25  C   UNL d   1       0.898  -4.348  -3.369  0.00  0.00     0.024 A 
ATOM     26  C   UNL d   1      -0.366  -4.534  -3.918  0.00  0.00     0.003 A 
ATOM     27  C   UNL d   1      -1.487  -4.128  -3.201  0.00  0.00     0.024 A 
ATOM     28  C   UNL d   1      -1.347  -3.537  -1.942  0.00  0.00     0.042 A 
ATOM     29 CL   UNL d   1      -2.814  -3.108  -1.129  0.00  0.00    -0.084 Cl
ENDBRANCH  21  22
ENDBRANCH   4  21
TORSDOF 5
