REMARK  5 active torsions:
REMARK  status: ('A' for Active; 'I' for Inactive)
REMARK    1  A    between atoms: C_2  and  C_1 
REMARK       I    between atoms: N_3  and  C_2 
REMARK    2  A    between atoms: C_9  and  N_3 
REMARK       I    between atoms: N_7  and  C_5 
REMARK    3  A    between atoms: C_9  and  C_5 
REMARK    4  A    between atoms: C_16  and  N_7 
REMARK    5  A    between atoms: C_15  and  C_16 
ROOT
ATOM      1  C   UNL d   1      -1.264  -4.109   0.042  0.00  0.00     0.172 C 
ATOM      2  C   UNL d   1      -1.787  -5.476  -0.401  0.00  0.00     0.042 C 
ENDROOT
BRANCH   1   3
ATOM      3  N   UNL d   1      -0.490  -4.159   1.286  0.00  0.00    -0.344 N 
ATOM      4  C   UNL d   1       0.686  -4.870   1.396  0.00  0.00     0.254 C 
ATOM      5  O   UNL d   1       1.099  -5.616   0.517  0.00  0.00    -0.268 OA
ATOM      6  H   UNL d   1      -0.619  -3.385   1.924  0.00  0.00     0.163 HD
BRANCH   4   7
ATOM      7  C   UNL d   1       1.445  -4.760   2.685  0.00  0.00     0.053 A 
ATOM      8  C   UNL d   1       1.395  -3.677   3.579  0.00  0.00     0.051 A 
ATOM      9  C   UNL d   1       2.112  -3.716   4.784  0.00  0.00     0.048 A 
ATOM     10 CL   UNL d   1       0.507  -2.222   3.278  0.00  0.00    -0.083 Cl
ATOM     11  C   UNL d   1       2.892  -4.826   5.099  0.00  0.00     0.035 A 
ATOM     12  C   UNL d   1       2.979  -5.894   4.214  0.00  0.00     0.025 A 
ATOM     13 CL   UNL d   1       3.750  -4.873   6.587  0.00  0.00    -0.084 Cl
ATOM     14  C   UNL d   1       2.263  -5.859   3.014  0.00  0.00     0.020 A 
ENDBRANCH   4   7
ENDBRANCH   1   3
BRANCH   1  15
ATOM     15  C   UNL d   1      -2.443  -3.110   0.111  0.00  0.00     0.240 C 
ATOM     16  N   UNL d   1      -3.339  -3.131   1.144  0.00  0.00    -0.355 N 
ATOM     17  H   UNL d   1      -4.045  -2.410   1.056  0.00  0.00     0.162 HD
ATOM     18  O   UNL d   1      -2.686  -2.353  -0.832  0.00  0.00    -0.271 OA
BRANCH  16  19
ATOM     19  C   UNL d   1      -3.258  -3.842   2.401  0.00  0.00     0.162 C 
BRANCH  19  20
ATOM     20  C   UNL d   1      -4.588  -4.037   3.070  0.00  0.00    -0.025 A 
ATOM     21  C   UNL d   1      -4.673  -4.009   4.461  0.00  0.00     0.096 A 
ATOM     22  N   UNL d   1      -5.798  -4.263   5.165  0.00  0.00    -0.375 N 
ATOM     23  C   UNL d   1      -6.902  -4.571   4.452  0.00  0.00     0.087 A 
ATOM     24  HN  UNL d   1      -5.813  -4.224   6.184  1.00  0.00     0.164 HD
ATOM     25  C   UNL d   1      -6.930  -4.629   3.069  0.00  0.00     0.018 A 
ATOM     26  C   UNL d   1      -5.754  -4.363   2.371  0.00  0.00     0.011 A 
ENDBRANCH  19  20
ENDBRANCH  16  19
ENDBRANCH   1  15
TORSDOF 5
