REMARK  2 active torsions:
REMARK  status: ('A' for Active; 'I' for Inactive)
REMARK    1  A    between atoms: N_15  and  C_4 
REMARK    2  A    between atoms: C_14  and  C_7 
ROOT
ATOM      1  C   UNL d   1       1.436   0.899   0.024  0.00  0.00     0.073 A 
ATOM      2  C   UNL d   1       0.636   2.163  -0.018  0.00  0.00     0.301 A 
ATOM      3  C   UNL d   1       0.776  -0.342   0.058  0.00  0.00    -0.004 A 
ATOM      4  C   UNL d   1       2.855   0.976  -0.030  0.00  0.00     0.045 A 
ATOM      5  C   UNL d   1       3.612  -0.226  -0.041  0.00  0.00     0.077 A 
ATOM      6  O   UNL d   1      -0.742   2.050   0.056  0.00  0.00    -0.274 OA
ATOM      7  C   UNL d   1       2.989  -1.494   0.029  0.00  0.00    -0.003 A 
ATOM      8  C   UNL d   1       1.575  -1.507   0.090  0.00  0.00     0.027 A 
ATOM      9  C   UNL d   1      -0.697  -0.387   0.056  0.00  0.00     0.009 A 
ATOM     10  C   UNL d   1      -1.406   0.814   0.057  0.00  0.00     0.090 A 
ATOM     11  C   UNL d   1       5.038  -0.107  -0.188  0.00  0.00     0.102 C 
ATOM     12  N   UNL d   1       6.183   0.033  -0.312  0.00  0.00    -0.191 NA
ATOM     13  O   UNL d   1       1.159   3.266  -0.139  0.00  0.00    -0.259 OA
ATOM     14  C   UNL d   1      -1.469  -1.562   0.034  0.00  0.00     0.015 A 
ATOM     15  C   UNL d   1      -2.802   0.880   0.041  0.00  0.00     0.038 A 
ATOM     16  C   UNL d   1      -2.872  -1.518   0.018  0.00  0.00     0.001 A 
ATOM     17  C   UNL d   1      -3.538  -0.297   0.022  0.00  0.00     0.003 A 
ENDROOT
BRANCH   4  18
ATOM     18  N   UNL d   1       3.517   2.213   0.165  0.00  0.00    -0.301 NA
ATOM     19  H   UNL d   1       2.930   3.033  -0.038  0.00  0.00     0.124 HD
ATOM     20  H   UNL d   1       4.452   2.313  -0.223  0.00  0.00     0.124 HD
ENDBRANCH   4  18
BRANCH   7  21
ATOM     21  C   UNL d   1       3.733  -2.792   0.023  0.00  0.00    -0.024 A 
ATOM     22  C   UNL d   1       4.941  -2.972   0.723  0.00  0.00     0.012 A 
ATOM     23  C   UNL d   1       5.676  -4.160   0.635  0.00  0.00     0.001 A 
ATOM     24  C   UNL d   1       5.188  -5.230  -0.104  0.00  0.00     0.000 A 
ATOM     25  C   UNL d   1       3.964  -5.112  -0.751  0.00  0.00     0.001 A 
ATOM     26  C   UNL d   1       3.254  -3.905  -0.698  0.00  0.00     0.012 A 
ENDBRANCH   7  21
TORSDOF 2
