REMARK  4 active torsions:
REMARK  status: ('A' for Active; 'I' for Inactive)
REMARK    1  A    between atoms: C_13  and  C_1 
REMARK    2  A    between atoms: O_8  and  C_3 
REMARK    3  A    between atoms: C_7  and  O_8 
REMARK    4  A    between atoms: C_9  and  C_7 
ROOT
ATOM      1  C   UNL d   1      -0.693   2.490   0.072  0.00  0.00     0.077 C 
ATOM      2  C   UNL d   1       0.718   2.151   0.448  0.00  0.00     0.262 C 
ATOM      3  C   UNL d   1      -1.591   1.508  -0.123  0.00  0.00     0.108 C 
ATOM      4  N   UNL d   1       1.131   0.853   0.232  0.00  0.00    -0.312 N 
ATOM      5  C   UNL d   1      -1.173   0.088  -0.039  0.00  0.00     0.027 A 
ATOM      6  C   UNL d   1       0.201  -0.206   0.076  0.00  0.00     0.057 A 
ATOM      7  C   UNL d   1       0.659  -1.535   0.075  0.00  0.00    -0.030 A 
ATOM      8  C   UNL d   1      -2.084  -0.980  -0.100  0.00  0.00     0.023 A 
ATOM      9  O   UNL d   1       1.492   3.025   0.845  0.00  0.00    -0.267 OA
ATOM     10  C   UNL d   1      -0.270  -2.579   0.020  0.00  0.00     0.016 A 
ATOM     11  C   UNL d   1      -1.641  -2.312  -0.052  0.00  0.00    -0.060 A 
ATOM     12  C   UNL d   1       2.547   0.580   0.391  0.00  0.00     0.133 C 
ATOM     13  C   UNL d   1       2.122  -1.862   0.222  0.00  0.00     0.042 C 
ATOM     14  C   UNL d   1       2.994  -0.716  -0.256  0.00  0.00     0.025 C 
ATOM     15  C   UNL d   1      -2.605  -3.463  -0.064  0.00  0.00     0.048 C 
ENDROOT
BRANCH   3  16
ATOM     16  O   UNL d   1      -2.868   1.780  -0.662  0.00  0.00    -0.273 OA
BRANCH  16  17
ATOM     17  C   UNL d   1      -3.889   1.966   0.228  0.00  0.00     0.303 C 
ATOM     18  O   UNL d   1      -3.854   1.767   1.431  0.00  0.00    -0.259 OA
BRANCH  17  19
ATOM     19  C   UNL d   1      -5.060   2.496  -0.518  0.00  0.00     0.100 A 
ATOM     20  C   UNL d   1      -5.311   2.058  -1.825  0.00  0.00     0.134 A 
ATOM     21  F   UNL d   1      -4.558   1.100  -2.388  0.00  0.00    -0.205 F 
ATOM     22  C   UNL d   1      -6.359   2.570  -2.584  0.00  0.00     0.043 A 
ATOM     23  C   UNL d   1      -7.202   3.536  -2.039  0.00  0.00     0.005 A 
ATOM     24  C   UNL d   1      -6.994   3.959  -0.727  0.00  0.00     0.025 A 
ATOM     25  C   UNL d   1      -5.931   3.447   0.036  0.00  0.00     0.053 A 
ATOM     26 CL   UNL d   1      -5.762   4.077   1.636  0.00  0.00    -0.083 Cl
ENDBRANCH  17  19
ENDBRANCH  16  17
ENDBRANCH   3  16
BRANCH   1  27
ATOM     27  C   UNL d   1      -0.926   3.918  -0.215  0.00  0.00    -0.018 A 
ATOM     28  C   UNL d   1      -1.047   4.832   0.838  0.00  0.00     0.012 A 
ATOM     29  C   UNL d   1      -0.797   6.186   0.612  0.00  0.00     0.001 A 
ATOM     30  C   UNL d   1      -0.451   6.630  -0.664  0.00  0.00     0.000 A 
ATOM     31  C   UNL d   1      -0.410   5.734  -1.732  0.00  0.00     0.001 A 
ATOM     32  C   UNL d   1      -0.659   4.381  -1.512  0.00  0.00     0.012 A 
ENDBRANCH   1  27
TORSDOF 4
