REMARK  5 active torsions:
REMARK  status: ('A' for Active; 'I' for Inactive)
REMARK       I    between atoms: N_2  and  C_1 
REMARK       I    between atoms: N_4  and  C_1 
REMARK    1  A    between atoms: C_7  and  N_2 
REMARK    2  A    between atoms: C_13  and  N_2 
REMARK    3  A    between atoms: C_3  and  C_5 
REMARK    4  A    between atoms: C_8  and  N_4 
REMARK    5  A    between atoms: C_14  and  C_7 
ROOT
ATOM      1  C   UNL d   1       0.832   0.008  -0.069  0.00  0.00     0.323 C 
ATOM      2  N   UNL d   1       0.121   0.609   0.985  0.00  0.00    -0.326 N 
ATOM      3  N   UNL d   1       2.207  -0.016   0.072  0.00  0.00    -0.309 N 
ATOM      4  O   UNL d   1       0.253  -0.530  -1.011  0.00  0.00    -0.247 OA
ATOM      5  H   UNL d   1       2.568   0.154   0.993  0.00  0.00     0.170 HD
ENDROOT
BRANCH   2   6
ATOM      6  C   UNL d   1      -1.322   0.292   1.011  0.00  0.00     0.166 C 
BRANCH   6   7
ATOM      7  C   UNL d   1      -2.198   1.176   0.144  0.00  0.00    -0.040 A 
ATOM      8  C   UNL d   1      -2.479   0.817  -1.185  0.00  0.00     0.009 A 
ATOM      9  C   UNL d   1      -3.329   1.587  -1.979  0.00  0.00     0.001 A 
ATOM     10  C   UNL d   1      -3.919   2.733  -1.455  0.00  0.00     0.000 A 
ATOM     11  C   UNL d   1      -3.652   3.108  -0.140  0.00  0.00     0.001 A 
ATOM     12  C   UNL d   1      -2.799   2.335   0.654  0.00  0.00     0.009 A 
ENDBRANCH   6   7
ENDBRANCH   2   6
BRANCH   2  13
ATOM     13  C   UNL d   1       0.749   1.159   2.209  0.00  0.00     0.081 C 
ATOM     14  C   UNL d   1      -0.062   2.240   2.928  0.00  0.00     0.032 C 
ATOM     15  C   UNL d   1       1.100   0.036   3.194  0.00  0.00     0.032 C 
ENDBRANCH   2  13
BRANCH   3  16
ATOM     16  C   UNL d   1       3.077  -0.736  -0.779  0.00  0.00     0.037 A 
ATOM     17  C   UNL d   1       2.810  -0.962  -2.133  0.00  0.00     0.045 A 
ATOM     18  C   UNL d   1       3.653  -1.773  -2.909  0.00  0.00     0.050 A 
ATOM     19  C   UNL d   1       4.771  -2.366  -2.303  0.00  0.00     0.016 A 
ATOM     20  C   UNL d   1       5.068  -2.107  -0.966  0.00  0.00     0.003 A 
ATOM     21  C   UNL d   1       4.236  -1.276  -0.213  0.00  0.00     0.029 A 
BRANCH  18  22
ATOM     22  C   UNL d   1       3.333  -2.047  -4.356  0.00  0.00     0.417 C 
ATOM     23  F   UNL d   1       2.601  -1.063  -4.949  0.00  0.00    -0.166 F 
ATOM     24  F   UNL d   1       4.452  -2.184  -5.124  0.00  0.00    -0.166 F 
ATOM     25  F   UNL d   1       2.625  -3.198  -4.526  0.00  0.00    -0.166 F 
ENDBRANCH  18  22
ENDBRANCH   3  16
TORSDOF 5
