REMARK  5 active torsions:
REMARK  status: ('A' for Active; 'I' for Inactive)
REMARK    1  A    between atoms: C_5  and  S_1 
REMARK    2  A    between atoms: N_12  and  S_1 
REMARK    3  A    between atoms: C_7  and  C_19 
REMARK    4  A    between atoms: N_13  and  C_9 
REMARK    5  A    between atoms: C_19  and  N_12 
ROOT
ATOM      1  S   UNL d   1       0.967   0.085  -0.033  0.00  0.00     0.260 S 
ATOM      2  O   UNL d   1       0.731  -1.341  -0.026  0.00  0.00    -0.200 OA
ATOM      3  O   UNL d   1       0.382   0.961   0.962  0.00  0.00    -0.200 OA
ENDROOT
BRANCH   1   4
ATOM      4  C   UNL d   1       0.473   0.685  -1.610  0.00  0.00     0.095 A 
ATOM      5  C   UNL d   1       0.675   2.003  -1.946  0.00  0.00     0.115 A 
ATOM      6  N   UNL d   1       0.302   2.549  -3.130  0.00  0.00    -0.351 N 
ATOM      7  C   UNL d   1      -0.330   1.769  -4.034  0.00  0.00     0.103 A 
ATOM      8  HN  UNL d   1       0.496   3.529  -3.334  1.00  0.00     0.166 HD
ATOM      9  C   UNL d   1      -0.583   0.424  -3.751  0.00  0.00     0.050 A 
ATOM     10  C   UNL d   1      -0.191  -0.126  -2.527  0.00  0.00     0.030 A 
BRANCH   7  11
ATOM     11  N   UNL d   1      -0.823   2.349  -5.184  0.00  0.00    -0.363 N 
ATOM     12  C   UNL d   1      -1.023   3.804  -5.209  0.00  0.00     0.150 C 
ATOM     13  C   UNL d   1      -0.001   4.503  -6.111  0.00  0.00     0.187 C 
ATOM     14  O   UNL d   1       0.024   3.920  -7.425  0.00  0.00    -0.388 OA
ATOM     15  C   UNL d   1       0.394   2.535  -7.338  0.00  0.00     0.187 C 
ATOM     16  C   UNL d   1      -0.609   1.726  -6.496  0.00  0.00     0.150 C 
ENDBRANCH   7  11
ENDBRANCH   1   4
BRANCH   1  17
ATOM     17  N   UNL d   1       2.615   0.286   0.004  0.00  0.00    -0.310 N 
ATOM     18  H   UNL d   1       3.209  -0.343  -0.541  0.00  0.00     0.172 HD
BRANCH  17  19
ATOM     19  C   UNL d   1       3.200   1.542   0.455  0.00  0.00     0.189 C 
BRANCH  19  20
ATOM     20  C   UNL d   1       4.695   1.449   0.375  0.00  0.00     0.035 A 
ATOM     21  N   UNL d   1       5.278   0.673  -0.624  0.00  0.00    -0.351 N 
ATOM     22  C   UNL d   1       6.596   0.715  -0.531  0.00  0.00     0.091 A 
ATOM     23  HN  UNL d   1       4.761   0.147  -1.328  1.00  0.00     0.166 HD
ATOM     24  C   UNL d   1       7.434  -0.033  -1.441  0.00  0.00     0.038 A 
ATOM     25  S   UNL d   1       7.197   1.707   0.741  0.00  0.00    -0.081 SA
ATOM     26  S   UNL d   1       9.149  -0.080  -1.344  0.00  0.00    -0.099 SA
ATOM     27  C   UNL d   1       6.986  -0.815  -2.493  0.00  0.00     0.022 A 
ATOM     28  C   UNL d   1       9.275  -1.134  -2.681  0.00  0.00     0.050 A 
ATOM     29  C   UNL d   1       8.044  -1.449  -3.206  0.00  0.00     0.008 A 
ATOM     30  C   UNL d   1       5.596   2.094   1.200  0.00  0.00     0.078 A 
ENDBRANCH  19  20
ENDBRANCH  17  19
ENDBRANCH   1  17
TORSDOF 5
