REMARK  5 active torsions:
REMARK  status: ('A' for Active; 'I' for Inactive)
REMARK    1  A    between atoms: C_10  and  C_2 
REMARK    2  A    between atoms: S_8  and  C_5 
REMARK    3  A    between atoms: C_14  and  S_8 
REMARK    4  A    between atoms: C_9  and  C_14 
REMARK    5  A    between atoms: O_15  and  C_9 
ROOT
ATOM      1  N   UNL d   1      -1.200  -0.071   0.016  0.00  0.00    -0.320 N 
ATOM      2  C   UNL d   1      -0.416   1.056   0.013  0.00  0.00     0.132 A 
ATOM      3  N   UNL d   1       0.849   0.664  -0.001  0.00  0.00    -0.283 N 
ATOM      4  HN  UNL d   1       1.661   1.281  -0.010  1.00  0.00     0.188 HD
ATOM      5  C   UNL d   1      -0.351  -1.135   0.019  0.00  0.00     0.161 A 
ATOM      6  N   UNL d   1       0.888  -0.715  -0.003  0.00  0.00    -0.278 N 
ATOM      7  HN  UNL d   1       1.725  -1.298  -0.018  1.00  0.00     0.189 HD
ATOM      8  H   UNL d   1      -2.209  -0.130   0.043  0.00  0.00     0.169 HD
ENDROOT
BRANCH   2   9
ATOM      9  C   UNL d   1      -0.902   2.437   0.029  0.00  0.00     0.012 A 
ATOM     10  C   UNL d   1      -2.262   2.759   0.074  0.00  0.00     0.032 A 
ATOM     11  C   UNL d   1      -2.625   4.100   0.095  0.00  0.00     0.088 A 
ATOM     12  N   UNL d   1      -1.747   5.121   0.074  0.00  0.00    -0.375 N 
ATOM     13  C   UNL d   1      -0.438   4.792   0.028  0.00  0.00     0.088 A 
ATOM     14  HN  UNL d   1      -2.054   6.093   0.092  1.00  0.00     0.164 HD
ATOM     15  C   UNL d   1       0.022   3.487   0.004  0.00  0.00     0.032 A 
ENDBRANCH   2   9
BRANCH   5  16
ATOM     16  S   UNL d   1      -0.909  -2.762  -0.064  0.00  0.00    -0.082 SA
BRANCH  16  17
ATOM     17  C   UNL d   1      -1.700  -2.996   1.550  0.00  0.00     0.192 C 
BRANCH  17  18
ATOM     18  C   UNL d   1      -2.977  -2.192   1.709  0.00  0.00     0.149 C 
ATOM     19  O   UNL d   1      -3.390  -1.338   0.934  0.00  0.00    -0.649 OA
BRANCH  18  20
ATOM     20  O   UNL d   1      -3.636  -2.470   2.859  0.00  0.00    -0.776 OA
ATOM     21  H   UNL d   1      -3.222  -3.148   3.429  0.00  0.00     0.167 HD
ENDBRANCH  18  20
ENDBRANCH  17  18
ENDBRANCH  16  17
ENDBRANCH   5  16
TORSDOF 5
