REMARK  5 active torsions:
REMARK  status: ('A' for Active; 'I' for Inactive)
REMARK    1  A    between atoms: N_16  and  C_8 
REMARK    2  A    between atoms: S_15  and  C_11 
REMARK    3  A    between atoms: C_18  and  S_15 
REMARK    4  A    between atoms: C_27  and  N_16 
REMARK    5  A    between atoms: C_20  and  C_18 
ROOT
ATOM      1  C   UNL d   1       1.306  -0.781  -0.009  0.00  0.00     0.090 A 
ATOM      2  C   UNL d   1       0.780   0.500  -0.046  0.00  0.00     0.044 A 
ATOM      3  C   UNL d   1      -1.136  -0.858  -0.021  0.00  0.00     0.020 A 
ATOM      4  N   UNL d   1       2.602  -1.112   0.011  0.00  0.00    -0.330 N 
ATOM      5  HN  UNL d   1       2.934  -2.077   0.036  1.00  0.00     0.168 HD
ATOM      6  N   UNL d   1       3.049   1.238   0.002  0.00  0.00    -0.327 N 
ATOM      7  HN  UNL d   1       3.754   1.975   0.031  1.00  0.00     0.169 HD
ATOM      8  C   UNL d   1       1.727   1.552  -0.030  0.00  0.00     0.095 A 
ATOM      9  C   UNL d   1      -0.669   0.443  -0.085  0.00  0.00    -0.025 A 
ATOM     10  S   UNL d   1       0.116  -2.001   0.006  0.00  0.00    -0.074 SA
ATOM     11  C   UNL d   1       3.419  -0.058  -0.005  0.00  0.00     0.146 A 
ATOM     12  N   UNL d   1      -3.459  -0.135   0.427  0.00  0.00     0.089 N 
ATOM     13  C   UNL d   1      -2.586  -1.256   0.007  0.00  0.00     0.318 C 
ATOM     14  C   UNL d   1      -1.650   1.583  -0.115  0.00  0.00     0.071 C 
ATOM     15  C   UNL d   1      -3.104   1.095  -0.311  0.00  0.00     0.277 C 
ATOM     16  C   UNL d   1      -3.421   0.062   1.877  0.00  0.00     0.310 C 
ENDROOT
BRANCH  11  17
ATOM     17  S   UNL d   1       5.139  -0.483  -0.182  0.00  0.00    -0.089 SA
BRANCH  17  18
ATOM     18  C   UNL d   1       5.938   0.846   0.759  0.00  0.00     0.121 C 
BRANCH  18  19
ATOM     19  C   UNL d   1       7.430   0.594   0.873  0.00  0.00    -0.048 A 
ATOM     20  C   UNL d   1       8.310   1.031  -0.133  0.00  0.00     0.011 A 
ATOM     21  C   UNL d   1       9.679   0.770  -0.047  0.00  0.00     0.043 A 
ATOM     22  C   UNL d   1      10.178   0.067   1.043  0.00  0.00     0.116 A 
ATOM     23  C   UNL d   1       9.328  -0.385   2.048  0.00  0.00     0.043 A 
ATOM     24  F   UNL d   1      11.489  -0.184   1.127  0.00  0.00    -0.206 F 
ATOM     25  C   UNL d   1       7.954  -0.126   1.961  0.00  0.00     0.011 A 
ENDBRANCH  18  19
ENDBRANCH  17  18
ENDBRANCH  11  17
BRANCH   8  26
ATOM     26  N   UNL d   1       1.319   2.883  -0.092  0.00  0.00    -0.278 NA
ATOM     27  H   UNL d   1       0.337   2.990   0.111  0.00  0.00     0.129 HD
BRANCH  26  28
ATOM     28  C   UNL d   1       2.144   3.890   0.547  0.00  0.00     0.089 C 
ATOM     29  C   UNL d   1       1.431   5.233   0.415  0.00  0.00     0.021 C 
ENDBRANCH  26  28
ENDBRANCH   8  26
TORSDOF 5
