REMARK  7 active torsions:
REMARK  status: ('A' for Active; 'I' for Inactive)
REMARK    1  A    between atoms: C_2  and  S_1 
REMARK    2  A    between atoms: N_8  and  S_1 
REMARK    3  A    between atoms: C_3  and  C_6 
REMARK    4  A    between atoms: O_13  and  C_3 
REMARK    5  A    between atoms: C_6  and  O_7 
REMARK    6  A    between atoms: O_7  and  C_12 
REMARK    7  A    between atoms: C_17  and  O_13 
ROOT
ATOM      1  C   UNL d   1       0.477   0.589  -1.437  0.00  0.00     0.074 A 
ATOM      2  C   UNL d   1       0.430  -0.122  -2.637  0.00  0.00     0.027 A 
ATOM      3  C   UNL d   1       0.133   1.941  -1.398  0.00  0.00     0.027 A 
ATOM      4  C   UNL d   1      -0.353   1.868  -3.776  0.00  0.00     0.070 A 
ATOM      5  C   UNL d   1       0.024   0.522  -3.809  0.00  0.00     0.038 A 
ATOM      6  C   UNL d   1      -0.273   2.578  -2.573  0.00  0.00     0.038 A 
ENDROOT
BRANCH   4   7
ATOM      7  O   UNL d   1      -0.810   2.591  -4.846  0.00  0.00    -0.336 OA
BRANCH   7   8
ATOM      8  C   UNL d   1      -1.472   1.856  -5.879  0.00  0.00     0.224 C 
ATOM      9  C   UNL d   1      -1.903   2.856  -6.943  0.00  0.00     0.051 C 
BRANCH   8  10
ATOM     10  C   UNL d   1      -2.711   1.082  -5.404  0.00  0.00     0.288 C 
ATOM     11  O   UNL d   1      -3.385   1.340  -4.415  0.00  0.00    -0.262 OA
BRANCH  10  12
ATOM     12  O   UNL d   1      -2.902  -0.002  -6.223  0.00  0.00    -0.320 OA
BRANCH  12  13
ATOM     13  C   UNL d   1      -3.776  -1.012  -5.703  0.00  0.00     0.174 C 
ATOM     14  C   UNL d   1      -2.947  -1.982  -4.877  0.00  0.00     0.034 C 
ENDBRANCH  12  13
ENDBRANCH  10  12
ENDBRANCH   8  10
ENDBRANCH   7   8
ENDBRANCH   4   7
BRANCH   1  15
ATOM     15  S   UNL d   1       0.965  -0.231   0.050  0.00  0.00     0.239 S 
ATOM     16  O   UNL d   1       1.400  -1.573  -0.264  0.00  0.00    -0.206 OA
ATOM     17  O   UNL d   1      -0.006   0.051   1.081  0.00  0.00    -0.206 OA
BRANCH  15  18
ATOM     18  N   UNL d   1       2.362   0.596   0.477  0.00  0.00    -0.225 NA
ATOM     19  H   UNL d   1       3.169  -0.022   0.387  0.00  0.00     0.136 HD
ATOM     20  H   UNL d   1       2.251   0.993   1.411  0.00  0.00     0.136 HD
ENDBRANCH  15  18
ENDBRANCH   1  15
TORSDOF 7
