REMARK  5 active torsions:
REMARK  status: ('A' for Active; 'I' for Inactive)
REMARK    1  A    between atoms: C_13  and  C_3 
REMARK    2  A    between atoms: C_14  and  N_4 
REMARK    3  A    between atoms: C_15  and  C_10 
REMARK    4  A    between atoms: O_20  and  C_13 
REMARK    5  A    between atoms: C_27  and  O_20 
ROOT
ATOM      1  C   UNL d   1      -1.303  -0.019  -0.050  0.00  0.00     0.118 C 
ATOM      2  C   UNL d   1      -2.589   0.073  -0.451  0.00  0.00     0.098 C 
ATOM      3  C   UNL d   1       0.826   0.425   0.999  0.00  0.00     0.167 C 
ATOM      4  N   UNL d   1      -0.546  -1.151   0.335  0.00  0.00    -0.247 N 
ATOM      5  S   UNL d   1      -0.304   1.433   0.165  0.00  0.00    -0.044 SA
ATOM      6  N   UNL d   1       0.636  -0.854   1.031  0.00  0.00    -0.281 N 
ATOM      7  HN  UNL d   1       1.244  -1.534   1.487  1.00  0.00     0.188 HD
ATOM      8  N   UNL d   1      -4.560   0.789  -1.464  0.00  0.00    -0.296 N 
ATOM      9  HN  UNL d   1      -5.285   1.365  -1.893  1.00  0.00     0.187 HD
ATOM     10  C   UNL d   1      -3.473   1.210  -0.863  0.00  0.00     0.077 C 
ATOM     11  C   UNL d   1      -3.476  -1.099  -0.668  0.00  0.00     0.275 C 
ATOM     12  N   UNL d   1      -4.526  -0.578  -1.402  0.00  0.00    -0.265 N 
ATOM     13  O   UNL d   1      -3.366  -2.244  -0.276  0.00  0.00    -0.266 OA
ATOM     14  H   UNL d   1      -5.338  -1.122  -1.669  0.00  0.00     0.190 HD
ENDROOT
BRANCH   4  15
ATOM     15  C   UNL d   1      -0.450  -2.393  -0.366  0.00  0.00     0.057 A 
ATOM     16  C   UNL d   1      -0.721  -2.518  -1.738  0.00  0.00     0.033 A 
ATOM     17  C   UNL d   1      -0.589  -3.752  -2.387  0.00  0.00     0.026 A 
ATOM     18  C   UNL d   1      -0.169  -4.872  -1.674  0.00  0.00     0.034 A 
ATOM     19  C   UNL d   1       0.131  -4.770  -0.320  0.00  0.00     0.026 A 
ATOM     20 CL   UNL d   1      -0.008  -6.386  -2.475  0.00  0.00    -0.084 Cl
ATOM     21  C   UNL d   1      -0.005  -3.537   0.324  0.00  0.00     0.033 A 
ENDBRANCH   4  15
BRANCH  10  22
ATOM     22  C   UNL d   1      -3.275   2.640  -0.587  0.00  0.00    -0.007 A 
ATOM     23  C   UNL d   1      -2.938   3.093   0.693  0.00  0.00     0.014 A 
ATOM     24  C   UNL d   1      -2.768   4.459   0.929  0.00  0.00     0.001 A 
ATOM     25  C   UNL d   1      -3.006   5.377  -0.093  0.00  0.00     0.000 A 
ATOM     26  C   UNL d   1      -3.423   4.934  -1.347  0.00  0.00     0.001 A 
ATOM     27  C   UNL d   1      -3.560   3.567  -1.596  0.00  0.00     0.014 A 
ENDBRANCH  10  22
BRANCH   3  28
ATOM     28  C   UNL d   1       1.937   1.247   1.593  0.00  0.00     0.318 C 
ATOM     29  O   UNL d   1       2.259   2.357   1.209  0.00  0.00    -0.257 OA
BRANCH  28  30
ATOM     30  O   UNL d   1       2.540   0.523   2.564  0.00  0.00    -0.316 OA
BRANCH  30  31
ATOM     31  C   UNL d   1       3.753   1.092   3.078  0.00  0.00     0.175 C 
ATOM     32  C   UNL d   1       4.906   0.742   2.155  0.00  0.00     0.034 C 
ENDBRANCH  30  31
ENDBRANCH  28  30
ENDBRANCH   3  28
TORSDOF 5
