REMARK  7 active torsions:
REMARK  status: ('A' for Active; 'I' for Inactive)
REMARK    1  A    between atoms: C_8  and  N_1 
REMARK    2  A    between atoms: S_10  and  C_2 
REMARK    3  A    between atoms: O_21  and  C_3 
REMARK    4  A    between atoms: C_11  and  C_8 
REMARK       I    between atoms: N_9  and  C_12 
REMARK    5  A    between atoms: C_13  and  N_9 
REMARK    6  A    between atoms: C_20  and  S_10 
REMARK    7  A    between atoms: C_12  and  C_20 
ROOT
ATOM      1  N   UNL d   1       0.402   0.362  -0.356  0.00  0.00    -0.285 N 
ATOM      2  C   UNL d   1       1.183  -0.761  -0.305  0.00  0.00     0.165 A 
ATOM      3  C   UNL d   1      -0.193   0.433   0.877  0.00  0.00     0.240 A 
ATOM      4  N   UNL d   1       0.998  -1.370   0.845  0.00  0.00    -0.277 N 
ATOM      5  HN  UNL d   1       1.435  -2.244   1.137  1.00  0.00     0.189 HD
ATOM      6  N   UNL d   1       0.114  -0.624   1.586  0.00  0.00    -0.263 N 
ATOM      7  HN  UNL d   1      -0.239  -0.851   2.516  1.00  0.00     0.190 HD
ENDROOT
BRANCH   2   8
ATOM      8  S   UNL d   1       2.271  -1.284  -1.545  0.00  0.00    -0.083 SA
BRANCH   8   9
ATOM      9  C   UNL d   1       2.795  -2.853  -0.790  0.00  0.00     0.185 C 
BRANCH   9  10
ATOM     10  C   UNL d   1       3.766  -3.611  -1.674  0.00  0.00     0.231 C 
ATOM     11  N   UNL d   1       5.060  -3.119  -1.648  0.00  0.00    -0.325 N 
ATOM     12  H   UNL d   1       5.263  -2.363  -1.000  0.00  0.00     0.169 HD
ATOM     13  O   UNL d   1       3.401  -4.628  -2.264  0.00  0.00    -0.272 OA
BRANCH  11  14
ATOM     14  C   UNL d   1       6.199  -3.743  -2.224  0.00  0.00     0.056 A 
ATOM     15  C   UNL d   1       7.477  -3.421  -1.732  0.00  0.00     0.060 A 
ATOM     16 CL   UNL d   1       7.678  -2.255  -0.468  0.00  0.00    -0.082 Cl
ATOM     17  C   UNL d   1       8.618  -4.070  -2.216  0.00  0.00     0.026 A 
ATOM     18  C   UNL d   1       8.500  -5.028  -3.222  0.00  0.00     0.002 A 
ATOM     19  C   UNL d   1       7.245  -5.327  -3.745  0.00  0.00     0.002 A 
ATOM     20  C   UNL d   1       6.103  -4.690  -3.249  0.00  0.00     0.031 A 
ENDBRANCH  11  14
ENDBRANCH   9  10
ENDBRANCH   8   9
ENDBRANCH   2   8
BRANCH   1  21
ATOM     21  C   UNL d   1       0.130   1.236  -1.474  0.00  0.00     0.200 C 
BRANCH  21  22
ATOM     22  C   UNL d   1       0.943   2.469  -1.372  0.00  0.00     0.070 A 
ATOM     23  O   UNL d   1       0.528   3.397  -0.461  0.00  0.00    -0.325 OA
ATOM     24  C   UNL d   1       1.405   4.436  -0.532  0.00  0.00     0.142 A 
ATOM     25  C   UNL d   1       2.374   4.185  -1.475  0.00  0.00     0.027 A 
ATOM     26  C   UNL d   1       2.077   2.913  -2.020  0.00  0.00     0.036 A 
ENDBRANCH  21  22
ENDBRANCH   1  21
BRANCH   3  27
ATOM     27  O   UNL d   1      -0.968   1.415   1.309  0.00  0.00    -0.331 OA
ATOM     28  H   UNL d   1      -0.676   2.239   0.881  0.00  0.00     0.221 HD
ENDBRANCH   3  27
TORSDOF 7
