REMARK  4 active torsions:
REMARK  status: ('A' for Active; 'I' for Inactive)
REMARK    1  A    between atoms: C_7  and  C_1 
REMARK       I    between atoms: N_13  and  C_7 
REMARK    2  A    between atoms: N_10  and  C_14 
REMARK    3  A    between atoms: C_24  and  N_13 
REMARK    4  A    between atoms: C_25  and  C_24 
ROOT
ATOM      1  C   UNL d   1      -0.543  -1.936  -1.161  0.00  0.00     0.254 C 
ATOM      2  N   UNL d   1       0.481  -2.865  -1.192  0.00  0.00    -0.353 N 
ATOM      3  O   UNL d   1      -0.975  -1.515  -0.091  0.00  0.00    -0.268 OA
ATOM      4  H   UNL d   1       0.856  -3.214  -2.070  0.00  0.00     0.163 HD
ENDROOT
BRANCH   2   5
ATOM      5  C   UNL d   1       1.021  -3.288   0.082  0.00  0.00     0.161 C 
BRANCH   5   6
ATOM      6  C   UNL d   1       2.171  -4.248   0.006  0.00  0.00    -0.040 A 
ATOM      7  C   UNL d   1       3.480  -3.768  -0.056  0.00  0.00     0.011 A 
ATOM      8  C   UNL d   1       4.565  -4.650  -0.047  0.00  0.00     0.030 A 
ATOM      9  C   UNL d   1       4.396  -6.041   0.018  0.00  0.00     0.030 A 
ATOM     10  C   UNL d   1       3.073  -6.503   0.086  0.00  0.00     0.030 A 
ATOM     11  C   UNL d   1       1.976  -5.629   0.079  0.00  0.00     0.011 A 
BRANCH   9  12
ATOM     12  N   UNL d   1       5.478  -6.894  -0.034  0.00  0.00    -0.378 N 
ATOM     13  C   UNL d   1       5.371  -8.276  -0.523  0.00  0.00     0.153 C 
ATOM     14  C   UNL d   1       6.567  -8.594  -1.454  0.00  0.00     0.291 C 
ATOM     15  N   UNL d   1       7.877  -8.344  -0.811  0.00  0.00     0.087 N 
ATOM     16  C   UNL d   1       7.930  -6.931  -0.370  0.00  0.00     0.291 C 
ATOM     17  C   UNL d   1       8.970  -8.642  -1.731  0.00  0.00     0.310 C 
ATOM     18  C   UNL d   1       6.772  -6.577   0.593  0.00  0.00     0.153 C 
ENDBRANCH   9  12
ENDBRANCH   5   6
ENDBRANCH   2   5
BRANCH   1  19
ATOM     19  C   UNL d   1      -1.144  -1.410  -2.398  0.00  0.00     0.061 A 
ATOM     20  C   UNL d   1      -0.825  -1.792  -3.722  0.00  0.00     0.082 A 
ATOM     21  N   UNL d   1       0.087  -2.693  -4.136  0.00  0.00    -0.310 N 
ATOM     22  C   UNL d   1      -1.559  -1.142  -4.891  0.00  0.00     0.068 A 
ATOM     23  S   UNL d   1       0.015  -2.722  -5.798  0.00  0.00     0.068 SA
ATOM     24  HN  UNL d   1       0.703  -3.250  -3.545  1.00  0.00     0.176 HD
ATOM     25  N   UNL d   1      -1.165  -1.595  -6.089  0.00  0.00    -0.310 N 
ATOM     26  HN  UNL d   1      -1.520  -1.304  -7.000  1.00  0.00     0.176 HD
ATOM     27  C   UNL d   1      -2.564  -0.161  -4.684  0.00  0.00     0.032 A 
ATOM     28  C   UNL d   1      -2.835   0.176  -3.354  0.00  0.00     0.003 A 
ATOM     29  C   UNL d   1      -2.158  -0.421  -2.270  0.00  0.00     0.019 A 
ENDBRANCH   1  19
TORSDOF 4
