REMARK  4 active torsions:
REMARK  status: ('A' for Active; 'I' for Inactive)
REMARK    1  A    between atoms: C_15  and  C_6 
REMARK    2  A    between atoms: C_13  and  C_7 
REMARK    3  A    between atoms: S_14  and  C_15 
REMARK    4  A    between atoms: C_16  and  S_14 
ROOT
ATOM      1  C   UNL d   1       0.501  -1.018   0.017  0.00  0.00     0.189 A 
ATOM      2  N   UNL d   1       0.709  -0.074   0.917  0.00  0.00    -0.322 N 
ATOM      3  HN  UNL d   1       1.287  -0.114   1.756  1.00  0.00     0.169 HD
ATOM      4  C   UNL d   1       1.113  -2.315   0.085  0.00  0.00     0.058 A 
ATOM      5  S   UNL d   1       0.855  -3.525  -1.094  0.00  0.00    -0.090 SA
ATOM      6  C   UNL d   1      -0.045   0.973   0.447  0.00  0.00     0.113 A 
ATOM      7  C   UNL d   1       1.908  -4.649  -0.311  0.00  0.00    -0.009 A 
ATOM      8  N   UNL d   1      -0.675   0.730  -0.709  0.00  0.00    -0.246 N 
ATOM      9  HN  UNL d   1      -1.262   1.361  -1.254  1.00  0.00     0.196 HD
ATOM     10  O   UNL d   1      -0.335  -0.596  -0.987  0.00  0.00    -0.217 OA
ATOM     11  C   UNL d   1       1.973  -2.756   1.067  0.00  0.00     0.024 A 
ATOM     12  C   UNL d   1       2.427  -4.086   0.843  0.00  0.00     0.017 A 
ENDROOT
BRANCH   6  13
ATOM     13  C   UNL d   1      -0.087   2.291   1.143  0.00  0.00     0.158 C 
BRANCH  13  14
ATOM     14  S   UNL d   1      -1.765   2.668   1.761  0.00  0.00    -0.122 SA
BRANCH  14  15
ATOM     15  C   UNL d   1      -1.600   4.266   2.544  0.00  0.00     0.001 A 
ATOM     16  C   UNL d   1      -0.411   4.998   2.664  0.00  0.00     0.020 A 
ATOM     17  C   UNL d   1      -0.404   6.240   3.315  0.00  0.00     0.025 A 
ATOM     18  C   UNL d   1      -1.581   6.759   3.848  0.00  0.00     0.034 A 
ATOM     19  C   UNL d   1      -2.771   6.048   3.734  0.00  0.00     0.025 A 
ATOM     20 CL   UNL d   1      -1.566   8.279   4.651  0.00  0.00    -0.084 Cl
ATOM     21  C   UNL d   1      -2.775   4.810   3.084  0.00  0.00     0.020 A 
ENDBRANCH  14  15
ENDBRANCH  13  14
ENDBRANCH   6  13
BRANCH   7  22
ATOM     22  C   UNL d   1       2.166  -6.044  -0.901  0.00  0.00    -0.018 C 
ATOM     23  C   UNL d   1       2.815  -5.932  -2.294  0.00  0.00     0.020 C 
ATOM     24  C   UNL d   1       3.129  -6.853  -0.001  0.00  0.00     0.020 C 
ATOM     25  C   UNL d   1       0.853  -6.845  -1.009  0.00  0.00     0.020 C 
ENDBRANCH   7  22
TORSDOF 4
