REMARK  4 active torsions:
REMARK  status: ('A' for Active; 'I' for Inactive)
REMARK    1  A    between atoms: C_10  and  N_2 
REMARK    2  A    between atoms: C_15  and  C_10 
REMARK    3  A    between atoms: O_19  and  C_15 
REMARK    4  A    between atoms: C_23  and  O_19 
ROOT
ATOM      1  C   UNL d   1      -0.069  -1.008  -0.015  0.00  0.00     0.137 A 
ATOM      2  N   UNL d   1      -1.258  -1.690  -0.020  0.00  0.00    -0.321 N 
ATOM      3  C   UNL d   1      -0.361   0.347   0.001  0.00  0.00     0.090 A 
ATOM      4  C   UNL d   1      -1.775   0.487   0.003  0.00  0.00     0.024 A 
ATOM      5  C   UNL d   1      -2.322  -0.806  -0.004  0.00  0.00     0.049 A 
ATOM      6  N   UNL d   1       1.165  -1.550  -0.027  0.00  0.00    -0.339 N 
ATOM      7  HN  UNL d   1       1.343  -2.554  -0.046  1.00  0.00     0.167 HD
ATOM      8  N   UNL d   1       0.622   1.285   0.002  0.00  0.00    -0.351 N 
ATOM      9  HN  UNL d   1       0.431   2.287   0.005  1.00  0.00     0.166 HD
ATOM     10  C   UNL d   1       2.135  -0.618  -0.012  0.00  0.00     0.060 A 
ATOM     11  C   UNL d   1       1.867   0.779   0.000  0.00  0.00     0.059 A 
ATOM     12  C   UNL d   1      -3.710  -1.027   0.009  0.00  0.00     0.034 A 
ATOM     13  C   UNL d   1      -2.644   1.596   0.010  0.00  0.00     0.058 A 
ATOM     14  C   UNL d   1      -4.018   1.374   0.013  0.00  0.00     0.117 A 
ATOM     15  C   UNL d   1      -4.548   0.090   0.015  0.00  0.00     0.044 A 
ATOM     16  F   UNL d   1      -4.851   2.423   0.016  0.00  0.00    -0.206 F 
ATOM     17  C   UNL d   1       2.936   1.667   0.007  0.00  0.00     0.032 A 
ATOM     18  C   UNL d   1       3.458  -1.046  -0.011  0.00  0.00     0.032 A 
ATOM     19  C   UNL d   1       4.260   1.220   0.004  0.00  0.00     0.002 A 
ATOM     20  C   UNL d   1       4.521  -0.142  -0.003  0.00  0.00     0.002 A 
ENDROOT
BRANCH   2  21
ATOM     21  C   UNL d   1      -1.345  -3.138  -0.077  0.00  0.00     0.241 C 
BRANCH  21  22
ATOM     22  C   UNL d   1      -1.186  -3.776   1.277  0.00  0.00     0.277 C 
ATOM     23  O   UNL d   1      -1.143  -3.196   2.352  0.00  0.00    -0.263 OA
BRANCH  22  24
ATOM     24  O   UNL d   1      -1.103  -5.131   1.117  0.00  0.00    -0.321 OA
BRANCH  24  25
ATOM     25  C   UNL d   1      -0.741  -5.877   2.287  0.00  0.00     0.174 C 
ATOM     26  C   UNL d   1       0.767  -6.033   2.309  0.00  0.00     0.034 C 
ENDBRANCH  24  25
ENDBRANCH  22  24
ENDBRANCH  21  22
ENDBRANCH   2  21
TORSDOF 4
