REMARK  8 active torsions:
REMARK  status: ('A' for Active; 'I' for Inactive)
REMARK    1  A    between atoms: N_2  and  C_1 
REMARK    2  A    between atoms: C_10  and  N_2 
REMARK    3  A    between atoms: C_4  and  C_10 
REMARK    4  A    between atoms: C_5  and  C_4 
REMARK    5  A    between atoms: O_15  and  C_5 
REMARK       I    between atoms: C_6  and  N_7 
REMARK    6  A    between atoms: N_7  and  C_8 
REMARK    7  A    between atoms: O_16  and  C_9 
REMARK    8  A    between atoms: C_19  and  O_15 
ROOT
ATOM      1  C   UNL d   1       1.441  -0.241   0.208  0.00  0.00     0.044 C 
ATOM      2  C   UNL d   1       0.540  -1.267   0.548  0.00  0.00     0.055 C 
ATOM      3  C   UNL d   1      -0.843  -1.109   0.474  0.00  0.00     0.036 C 
ATOM      4  C   UNL d   1       0.916   1.052   0.017  0.00  0.00     0.089 C 
ATOM      5  C   UNL d   1      -0.479   1.234   0.053  0.00  0.00     0.041 C 
ATOM      6  C   UNL d   1      -1.354   0.165   0.256  0.00  0.00     0.032 C 
ENDROOT
BRANCH   1   7
ATOM      7  N   UNL d   1       2.823  -0.528   0.137  0.00  0.00    -0.286 NA
ATOM      8  H   UNL d   1       3.219  -0.364   1.064  0.00  0.00     0.128 HD
BRANCH   7   9
ATOM      9  C   UNL d   1       3.228  -1.875  -0.365  0.00  0.00     0.065 C 
ATOM     10  C   UNL d   1       4.761  -1.893  -0.398  0.00  0.00     0.027 C 
BRANCH   9  11
ATOM     11  C   UNL d   1       2.645  -2.145  -1.764  0.00  0.00     0.130 C 
BRANCH  11  12
ATOM     12  C   UNL d   1       2.958  -3.525  -2.286  0.00  0.00     0.260 C 
ATOM     13  O   UNL d   1       3.344  -4.474  -1.620  0.00  0.00    -0.265 OA
BRANCH  12  14
ATOM     14  O   UNL d   1       2.727  -3.548  -3.631  0.00  0.00    -0.322 OA
BRANCH  14  15
ATOM     15  C   UNL d   1       2.991  -4.785  -4.308  0.00  0.00     0.174 C 
ATOM     16  C   UNL d   1       1.751  -5.657  -4.311  0.00  0.00     0.034 C 
ENDBRANCH  14  15
ENDBRANCH  12  14
ENDBRANCH  11  12
ENDBRANCH   9  11
ENDBRANCH   7   9
ENDBRANCH   1   7
BRANCH   4  17
ATOM     17  O   UNL d   1       1.572   2.220  -0.258  0.00  0.00    -0.354 OA
ATOM     18  C   UNL d   1       2.990   2.224  -0.289  0.00  0.00     0.210 C 
ENDBRANCH   4  17
BRANCH   3  19
ATOM     19  N   UNL d   1      -1.733  -2.203   0.549  0.00  0.00    -0.327 N 
ATOM     20  C   UNL d   1      -1.383  -3.538   0.407  0.00  0.00     0.218 C 
ATOM     21  O   UNL d   1      -0.252  -3.989   0.232  0.00  0.00    -0.274 OA
ATOM     22  C   UNL d   1      -2.560  -4.474   0.416  0.00  0.00     0.117 C 
ATOM     23  H   UNL d   1      -2.720  -1.976   0.523  0.00  0.00     0.169 HD
ENDBRANCH   3  19
TORSDOF 8
