REMARK  8 active torsions:
REMARK  status: ('A' for Active; 'I' for Inactive)
REMARK       I    between atoms: N_4  and  C_1 
REMARK    1  A    between atoms: C_10  and  C_1 
REMARK    2  A    between atoms: O_16  and  C_3 
REMARK    3  A    between atoms: C_6  and  N_4 
REMARK    4  A    between atoms: C_5  and  C_12 
REMARK    5  A    between atoms: O_15  and  C_5 
REMARK    6  A    between atoms: C_7  and  C_10 
REMARK    7  A    between atoms: C_12  and  C_7 
REMARK    8  A    between atoms: O_17  and  C_8 
ROOT
ATOM      1  C   UNL d   1       0.466  -0.152   0.051  0.00  0.00     0.222 C 
ATOM      2  N   UNL d   1       0.036  -1.415   0.424  0.00  0.00    -0.327 N 
ATOM      3  O   UNL d   1      -0.252   0.838  -0.056  0.00  0.00    -0.273 OA
ATOM      4  H   UNL d   1       0.751  -2.117   0.575  0.00  0.00     0.169 HD
ENDROOT
BRANCH   2   5
ATOM      5  C   UNL d   1      -1.282  -1.776   0.799  0.00  0.00     0.037 A 
ATOM      6  C   UNL d   1      -2.396  -0.949   0.622  0.00  0.00     0.069 A 
ATOM      7  C   UNL d   1      -3.660  -1.323   1.101  0.00  0.00     0.103 A 
ATOM      8  C   UNL d   1      -3.817  -2.555   1.760  0.00  0.00     0.101 A 
ATOM      9  C   UNL d   1      -2.721  -3.415   1.876  0.00  0.00     0.042 A 
ATOM     10  C   UNL d   1      -1.464  -3.027   1.396  0.00  0.00     0.032 A 
BRANCH   7  11
ATOM     11  O   UNL d   1      -4.794  -0.556   0.989  0.00  0.00    -0.353 OA
ATOM     12  C   UNL d   1      -4.678   0.715   0.366  0.00  0.00     0.210 C 
ENDBRANCH   7  11
BRANCH   8  13
ATOM     13  O   UNL d   1      -5.073  -2.826   2.239  0.00  0.00    -0.353 OA
ATOM     14  C   UNL d   1      -5.206  -3.881   3.180  0.00  0.00     0.210 C 
ENDBRANCH   8  13
ENDBRANCH   2   5
BRANCH   1  15
ATOM     15  C   UNL d   1       1.964  -0.080  -0.238  0.00  0.00     0.112 C 
BRANCH  15  16
ATOM     16  C   UNL d   1       2.636   1.297   0.054  0.00  0.00    -0.030 C 
ATOM     17  C   UNL d   1       4.146   1.181  -0.254  0.00  0.00     0.016 C 
ATOM     18  C   UNL d   1       2.089   2.400  -0.884  0.00  0.00     0.016 C 
BRANCH  16  19
ATOM     19  C   UNL d   1       2.413   1.768   1.517  0.00  0.00     0.119 C 
BRANCH  19  20
ATOM     20  C   UNL d   1       2.889   0.834   2.609  0.00  0.00     0.140 C 
ATOM     21  O   UNL d   1       3.537  -0.189   2.449  0.00  0.00    -0.650 OA
BRANCH  20  22
ATOM     22  O   UNL d   1       2.519   1.257   3.842  0.00  0.00    -0.776 OA
ATOM     23  H   UNL d   1       1.989   2.078   3.833  0.00  0.00     0.167 HD
ENDBRANCH  20  22
ENDBRANCH  19  20
ENDBRANCH  16  19
ENDBRANCH  15  16
ENDBRANCH   1  15
TORSDOF 8
