REMARK  4 active torsions:
REMARK  status: ('A' for Active; 'I' for Inactive)
REMARK    1  A    between atoms: C_2  and  N_1 
REMARK    2  A    between atoms: N_9  and  C_3 
REMARK       I    between atoms: C_4  and  N_8 
REMARK       I    between atoms: N_7  and  C_4 
REMARK    3  A    between atoms: C_5  and  C_6 
REMARK    4  A    between atoms: C_10  and  N_7 
ROOT
ATOM      1  C   UNL d   1      -2.982   4.764   0.074  0.00  0.00     0.323 C 
ATOM      2  N   UNL d   1      -2.499   6.041  -0.142  0.00  0.00    -0.308 N 
ATOM      3  N   UNL d   1      -2.818   3.896  -0.996  0.00  0.00    -0.332 N 
ATOM      4  N   UNL d   1      -1.282   1.389  -1.230  0.00  0.00    -0.364 N 
ATOM      5  O   UNL d   1      -3.567   4.431   1.103  0.00  0.00    -0.247 OA
ATOM      6  C   UNL d   1      -3.437   2.569  -0.888  0.00  0.00     0.147 C 
ATOM      7  C   UNL d   1      -2.494   1.470  -0.374  0.00  0.00     0.144 C 
ATOM      8  C   UNL d   1      -0.413   3.673  -1.686  0.00  0.00     0.040 C 
ATOM      9  C   UNL d   1      -1.842   4.047  -2.078  0.00  0.00     0.129 C 
ATOM     10  C   UNL d   1      -0.256   2.384  -0.875  0.00  0.00     0.126 C 
ATOM     11  H   UNL d   1      -2.595   6.307  -1.111  0.00  0.00     0.170 HD
ENDROOT
BRANCH   2  12
ATOM     12  C   UNL d   1      -2.765   7.081   0.782  0.00  0.00     0.051 A 
ATOM     13  C   UNL d   1      -2.499   7.014   2.159  0.00  0.00     0.074 A 
ATOM     14  C   UNL d   1      -2.972   8.061   2.982  0.00  0.00     0.018 A 
ATOM     15  C   UNL d   1      -3.644   9.161   2.450  0.00  0.00     0.001 A 
ATOM     16  C   UNL d   1      -3.830   9.253   1.077  0.00  0.00     0.002 A 
ATOM     17  C   UNL d   1      -3.382   8.226   0.248  0.00  0.00     0.030 A 
BRANCH  13  18
ATOM     18  C   UNL d   1      -1.666   5.946   2.830  0.00  0.00     0.419 C 
ATOM     19  F   UNL d   1      -1.089   5.017   2.018  0.00  0.00    -0.166 F 
ATOM     20  F   UNL d   1      -0.607   6.511   3.495  0.00  0.00    -0.166 F 
ATOM     21  F   UNL d   1      -2.348   5.258   3.790  0.00  0.00    -0.166 F 
ENDBRANCH  13  18
ENDBRANCH   2  12
BRANCH   4  22
ATOM     22  C   UNL d   1      -0.844   0.096  -1.523  0.00  0.00     0.137 A 
ATOM     23  C   UNL d   1      -0.040  -0.218  -2.624  0.00  0.00     0.146 A 
ATOM     24  C   UNL d   1       0.304  -1.540  -2.937  0.00  0.00     0.041 A 
ATOM     25  C   UNL d   1      -0.177  -2.558  -2.127  0.00  0.00     0.020 A 
ATOM     26  C   UNL d   1      -0.957  -2.198  -1.045  0.00  0.00     0.090 A 
ATOM     27  N   UNL d   1      -1.288  -0.919  -0.741  0.00  0.00    -0.350 N 
ATOM     28  HN  UNL d   1      -1.870  -0.721   0.073  1.00  0.00     0.166 HD
BRANCH  23  29
ATOM     29  N   UNL d   1       0.408   0.806  -3.528  0.00  0.00    -0.112 N 
ATOM     30  O   UNL d   1      -0.431   1.314  -4.288  0.00  0.00    -0.532 OA
ATOM     31  O   UNL d   1       1.622   1.067  -3.522  0.00  0.00    -0.532 OA
ENDBRANCH  23  29
ENDBRANCH   4  22
TORSDOF 4
