REMARK  1 active torsions:
REMARK  status: ('A' for Active; 'I' for Inactive)
REMARK    1  A    between atoms: C_14  and  N_2 
ROOT
ATOM      1  C   UNL d   1       0.764   0.434  -0.036  0.00  0.00     0.074 A 
ATOM      2  N   UNL d   1       3.064   1.167   0.038  0.00  0.00    -0.254 N 
ATOM      3  C   UNL d   1       1.250  -0.836  -0.090  0.00  0.00     0.093 A 
ATOM      4  C   UNL d   1       3.523  -0.177  -0.018  0.00  0.00     0.186 A 
ATOM      5  C   UNL d   1       1.696   1.545   0.044  0.00  0.00     0.268 A 
ATOM      6  N   UNL d   1       2.566  -1.165  -0.099  0.00  0.00    -0.326 N 
ATOM      7  C   UNL d   1      -0.659   0.416  -0.073  0.00  0.00    -0.023 A 
ATOM      8  C   UNL d   1      -1.151  -0.882  -0.060  0.00  0.00     0.020 A 
ATOM      9  S   UNL d   1       0.092  -2.051  -0.118  0.00  0.00    -0.073 SA
ATOM     10  S   UNL d   1       5.110  -0.738   0.078  0.00  0.00    -0.040 SA
ATOM     11  N   UNL d   1      -3.446  -0.096   0.424  0.00  0.00     0.089 N 
ATOM     12  C   UNL d   1      -2.610  -1.241  -0.016  0.00  0.00     0.318 C 
ATOM     13  C   UNL d   1      -1.592   1.591  -0.052  0.00  0.00     0.071 C 
ATOM     14  O   UNL d   1       1.274   2.699   0.097  0.00  0.00    -0.267 OA
ATOM     15  C   UNL d   1      -3.049   1.136  -0.301  0.00  0.00     0.277 C 
ATOM     16  C   UNL d   1      -3.372   0.089   1.876  0.00  0.00     0.310 C 
ATOM     17  H   UNL d   1       2.848  -2.138  -0.113  0.00  0.00     0.169 HD
ENDROOT
BRANCH   2  18
ATOM     18  C   UNL d   1       3.999   2.252   0.103  0.00  0.00     0.045 A 
ATOM     19  C   UNL d   1       3.951   3.160   1.171  0.00  0.00     0.030 A 
ATOM     20  C   UNL d   1       4.858   4.220   1.239  0.00  0.00     0.002 A 
ATOM     21  C   UNL d   1       5.804   4.392   0.231  0.00  0.00     0.000 A 
ATOM     22  C   UNL d   1       5.844   3.510  -0.847  0.00  0.00     0.002 A 
ATOM     23  C   UNL d   1       4.945   2.445  -0.914  0.00  0.00     0.030 A 
ENDBRANCH   2  18
TORSDOF 1
