REMARK  5 active torsions:
REMARK  status: ('A' for Active; 'I' for Inactive)
REMARK    1  A    between atoms: C_7  and  C_1 
REMARK    2  A    between atoms: C_10  and  N_2 
REMARK    3  A    between atoms: O_8  and  C_7 
REMARK    4  A    between atoms: C_13  and  O_8 
REMARK    5  A    between atoms: C_15  and  C_13 
ROOT
ATOM      1  C   UNL d   1       2.257  -0.965  -0.403  0.00  0.00     0.105 A 
ATOM      2  N   UNL d   1       1.240   1.233  -0.010  0.00  0.00    -0.350 N 
ATOM      3  C   UNL d   1       2.294   0.365  -0.253  0.00  0.00     0.113 A 
ATOM      4  C   UNL d   1       0.947  -1.618  -0.261  0.00  0.00     0.202 A 
ATOM      5  C   UNL d   1      -0.236  -0.729  -0.101  0.00  0.00     0.042 A 
ATOM      6  C   UNL d   1      -0.069   0.677   0.002  0.00  0.00     0.049 A 
ATOM      7  O   UNL d   1       0.808  -2.836  -0.324  0.00  0.00    -0.286 OA
ATOM      8  C   UNL d   1      -1.508  -1.327  -0.100  0.00  0.00     0.018 A 
ATOM      9  C   UNL d   1      -1.250   1.438   0.062  0.00  0.00     0.030 A 
ATOM     10  C   UNL d   1      -2.649  -0.540  -0.030  0.00  0.00     0.001 A 
ATOM     11  C   UNL d   1      -2.520   0.842   0.041  0.00  0.00     0.002 A 
ENDROOT
BRANCH   1  12
ATOM     12  C   UNL d   1       3.505  -1.609  -0.841  0.00  0.00     0.298 C 
ATOM     13  O   UNL d   1       4.339  -1.012  -1.515  0.00  0.00    -0.259 OA
BRANCH  12  14
ATOM     14  O   UNL d   1       3.589  -2.908  -0.473  0.00  0.00    -0.317 OA
BRANCH  14  15
ATOM     15  C   UNL d   1       4.379  -3.735  -1.343  0.00  0.00     0.183 C 
BRANCH  15  16
ATOM     16  C   UNL d   1       5.900  -3.521  -1.273  0.00  0.00     0.002 C 
ATOM     17  C   UNL d   1       6.468  -3.875   0.099  0.00  0.00     0.011 C 
ATOM     18  C   UNL d   1       6.582  -4.339  -2.370  0.00  0.00     0.011 C 
ENDBRANCH  15  16
ENDBRANCH  14  15
ENDBRANCH  12  14
ENDBRANCH   1  12
BRANCH   2  19
ATOM     19  C   UNL d   1       1.462   2.659   0.385  0.00  0.00     0.089 C 
ATOM     20  C   UNL d   1       2.460   3.418  -0.517  0.00  0.00     0.026 C 
ATOM     21  C   UNL d   1       3.941   3.349  -0.133  0.00  0.00     0.002 C 
ATOM     22  C   UNL d   1       4.196   3.422   1.367  0.00  0.00     0.000 C 
ATOM     23  C   UNL d   1       3.290   2.502   2.174  0.00  0.00     0.002 C 
ATOM     24  C   UNL d   1       1.818   2.764   1.876  0.00  0.00     0.026 C 
ENDBRANCH   2  19
TORSDOF 5
