REMARK  11 active torsions:
REMARK  status: ('A' for Active; 'I' for Inactive)
REMARK    1  A    between atoms: N_5  and  C_1 
REMARK    2  A    between atoms: N_6  and  C_1 
REMARK    3  A    between atoms: C_2  and  C_7 
REMARK    4  A    between atoms: C_3  and  N_5 
REMARK    5  A    between atoms: C_4  and  N_6 
REMARK    6  A    between atoms: O_29  and  C_10 
REMARK    7  A    between atoms: N_24  and  C_12 
REMARK    8  A    between atoms: O_31  and  C_14 
REMARK    9  A    between atoms: C_32  and  N_24 
REMARK   10  A    between atoms: C_25  and  C_33 
REMARK   11  A    between atoms: C_33  and  C_32 
ROOT
ATOM      1  C   UNL d   1      -1.223  -1.104   0.632  0.00  0.00     0.061 A 
ATOM      2  C   UNL d   1      -3.319  -1.009  -0.623  0.00  0.00     0.050 A 
ATOM      3  C   UNL d   1      -1.926  -0.887  -0.567  0.00  0.00     0.048 A 
ATOM      4  C   UNL d   1      -1.917  -1.463   1.815  0.00  0.00     0.055 A 
ATOM      5  C   UNL d   1      -4.010  -1.312   0.551  0.00  0.00     0.018 A 
ATOM      6  C   UNL d   1      -3.318  -1.519   1.748  0.00  0.00     0.032 A 
ENDROOT
BRANCH   1   7
ATOM      7  N   UNL d   1       0.190  -1.119   0.612  0.00  0.00    -0.331 N 
ATOM      8  H   UNL d   1       0.641  -1.660   1.334  0.00  0.00     0.168 HD
BRANCH   7   9
ATOM      9  C   UNL d   1       1.062  -0.394  -0.168  0.00  0.00     0.176 C 
ATOM     10  S   UNL d   1       0.839   1.163  -0.734  0.00  0.00    -0.041 SA
BRANCH   9  11
ATOM     11  N   UNL d   1       2.288  -0.988  -0.350  0.00  0.00    -0.332 N 
ATOM     12  H   UNL d   1       3.059  -0.352  -0.543  0.00  0.00     0.168 HD
BRANCH  11  13
ATOM     13  C   UNL d   1       2.567  -2.367  -0.527  0.00  0.00     0.057 A 
ATOM     14  C   UNL d   1       1.568  -3.270  -0.915  0.00  0.00     0.055 A 
ATOM     15  C   UNL d   1       1.879  -4.611  -1.139  0.00  0.00     0.036 A 
ATOM     16 CL   UNL d   1       0.644  -5.696  -1.649  0.00  0.00    -0.084 Cl
ATOM     17  C   UNL d   1       3.181  -5.073  -0.974  0.00  0.00     0.026 A 
ATOM     18  C   UNL d   1       4.189  -4.180  -0.605  0.00  0.00     0.028 A 
ATOM     19  C   UNL d   1       3.887  -2.830  -0.401  0.00  0.00     0.060 A 
ATOM     20 CL   UNL d   1       5.171  -1.763   0.047  0.00  0.00    -0.082 Cl
ENDBRANCH  11  13
ENDBRANCH   9  11
ENDBRANCH   7   9
ENDBRANCH   1   7
BRANCH   4  21
ATOM     21  N   UNL d   1      -1.254  -1.627   3.046  0.00  0.00    -0.388 N 
ATOM     22  H   UNL d   1      -0.246  -1.567   2.994  0.00  0.00     0.159 HD
BRANCH  21  23
ATOM     23  C   UNL d   1      -1.720  -2.654   3.984  0.00  0.00     0.124 C 
BRANCH  23  24
ATOM     24  C   UNL d   1      -1.386  -2.251   5.428  0.00  0.00     0.058 C 
BRANCH  24  25
ATOM     25  C   UNL d   1      -2.035  -3.192   6.417  0.00  0.00    -0.054 A 
ATOM     26  C   UNL d   1      -3.332  -2.929   6.899  0.00  0.00     0.046 A 
ATOM     27  C   UNL d   1      -3.989  -3.823   7.760  0.00  0.00     0.102 A 
ATOM     28  C   UNL d   1      -3.333  -5.012   8.124  0.00  0.00     0.101 A 
ATOM     29  C   UNL d   1      -2.032  -5.256   7.667  0.00  0.00     0.040 A 
ATOM     30  C   UNL d   1      -1.388  -4.362   6.812  0.00  0.00     0.010 A 
BRANCH  27  31
ATOM     31  O   UNL d   1      -5.233  -3.596   8.283  0.00  0.00    -0.353 OA
ATOM     32  C   UNL d   1      -5.892  -2.379   7.955  0.00  0.00     0.210 C 
ENDBRANCH  27  31
BRANCH  28  33
ATOM     33  O   UNL d   1      -3.808  -6.000   8.950  0.00  0.00    -0.353 OA
ATOM     34  C   UNL d   1      -5.209  -6.241   8.917  0.00  0.00     0.210 C 
ENDBRANCH  28  33
ENDBRANCH  24  25
ENDBRANCH  23  24
ENDBRANCH  21  23
ENDBRANCH   4  21
BRANCH   2  35
ATOM     35  C   UNL d   1      -4.070  -0.845  -1.919  0.00  0.00     0.417 C 
ATOM     36  F   UNL d   1      -3.273  -0.564  -2.986  0.00  0.00    -0.166 F 
ATOM     37  F   UNL d   1      -4.760  -1.970  -2.258  0.00  0.00    -0.166 F 
ATOM     38  F   UNL d   1      -4.993   0.155  -1.865  0.00  0.00    -0.166 F 
ENDBRANCH   2  35
TORSDOF 11
