REMARK  4 active torsions:
REMARK  status: ('A' for Active; 'I' for Inactive)
REMARK    1  A    between atoms: S_11  and  C_3 
REMARK    2  A    between atoms: C_7  and  C_8 
REMARK    3  A    between atoms: C_9  and  C_7 
REMARK    4  A    between atoms: C_10  and  S_11 
ROOT
ATOM      1  N   UNL d   1      -1.736   1.429   0.060  0.00  0.00    -0.335 N 
ATOM      2  HN  UNL d   1      -1.856   2.441   0.106  1.00  0.00     0.168 HD
ATOM      3  C   UNL d   1      -2.674   0.513   0.017  0.00  0.00     0.149 A 
ATOM      4  N   UNL d   1      -2.155  -0.748  -0.048  0.00  0.00    -0.335 N 
ATOM      5  C   UNL d   1      -0.552   0.723   0.028  0.00  0.00     0.061 A 
ATOM      6  C   UNL d   1      -0.789  -0.647  -0.043  0.00  0.00     0.061 A 
ATOM      7  C   UNL d   1       0.774   1.182   0.055  0.00  0.00     0.038 A 
ATOM      8  C   UNL d   1       0.225  -1.604  -0.089  0.00  0.00     0.032 A 
ATOM      9  C   UNL d   1       1.826   0.246   0.011  0.00  0.00    -0.060 A 
ATOM     10  C   UNL d   1       1.540  -1.126  -0.061  0.00  0.00     0.009 A 
ATOM     11  C   UNL d   1       3.256   0.703   0.042  0.00  0.00     0.048 C 
ATOM     12  H   UNL d   1      -2.697  -1.597  -0.090  0.00  0.00     0.168 HD
ENDROOT
BRANCH   3  13
ATOM     13  S   UNL d   1      -4.393   0.690   0.027  0.00  0.00    -0.066 SA
BRANCH  13  14
ATOM     14  C   UNL d   1      -4.544   2.414   0.137  0.00  0.00     0.057 C 
ATOM     15  C   UNL d   1      -5.762   2.978   0.109  0.00  0.00     0.063 C 
BRANCH  15  16
ATOM     16  C   UNL d   1      -5.910   4.452   0.203  0.00  0.00     0.182 C 
ATOM     17  O   UNL d   1      -5.030   5.167   0.669  0.00  0.00    -0.288 OA
BRANCH  16  18
ATOM     18  C   UNL d   1      -7.196   5.050  -0.253  0.00  0.00     0.015 A 
ATOM     19  C   UNL d   1      -7.946   4.488  -1.293  0.00  0.00     0.034 A 
ATOM     20  C   UNL d   1      -9.118   5.118  -1.716  0.00  0.00     0.011 A 
ATOM     21 BR   UNL d   1     -10.120   4.371  -3.135  0.00  0.00    -0.051 Br
ATOM     22  C   UNL d   1      -9.550   6.300  -1.115  0.00  0.00     0.019 A 
ATOM     23  C   UNL d   1      -8.803   6.862  -0.081  0.00  0.00     0.002 A 
ATOM     24  C   UNL d   1      -7.626   6.243   0.346  0.00  0.00     0.015 A 
ENDBRANCH  16  18
ENDBRANCH  15  16
ENDBRANCH  13  14
ENDBRANCH   3  13
TORSDOF 4
