REMARK  3 active torsions:
REMARK  status: ('A' for Active; 'I' for Inactive)
REMARK       I    between atoms: N_2  and  C_1 
REMARK    1  A    between atoms: C_3  and  C_1 
REMARK       I    between atoms: C_4  and  N_2 
REMARK    2  A    between atoms: C_5  and  C_4 
REMARK       I    between atoms: N_6  and  C_5 
REMARK    3  A    between atoms: C_7  and  N_6 
ROOT
ATOM      1  C   UNL d   1      -0.637  -0.111  -0.721  0.00  0.00     0.263 C 
ATOM      2  N   UNL d   1       0.661   0.234  -1.037  0.00  0.00    -0.285 N 
ATOM      3  C   UNL d   1       1.119   0.466  -2.319  0.00  0.00     0.316 C 
ATOM      4  O   UNL d   1      -1.558  -0.161  -1.525  0.00  0.00    -0.267 OA
ATOM      5  O   UNL d   1       0.488   0.612  -3.356  0.00  0.00    -0.262 OA
ATOM      6  H   UNL d   1       1.395   0.150  -0.339  0.00  0.00     0.172 HD
ENDROOT
BRANCH   3   7
ATOM      7  C   UNL d   1       2.650   0.573  -2.380  0.00  0.00     0.315 C 
ATOM      8  N   UNL d   1       3.093   0.747  -3.669  0.00  0.00    -0.305 N 
ATOM      9  H   UNL d   1       2.366   0.804  -4.375  0.00  0.00     0.171 HD
ATOM     10  O   UNL d   1       3.261   0.485  -1.324  0.00  0.00    -0.262 OA
BRANCH   8  11
ATOM     11  C   UNL d   1       4.425   0.804  -4.076  0.00  0.00     0.108 A 
ATOM     12  N   UNL d   1       5.413   0.695  -3.172  0.00  0.00    -0.352 N 
ATOM     13  C   UNL d   1       6.684   0.726  -3.625  0.00  0.00     0.090 A 
ATOM     14  HN  UNL d   1       5.209   0.593  -2.178  1.00  0.00     0.166 HD
ATOM     15  C   UNL d   1       7.026   0.861  -4.959  0.00  0.00     0.024 A 
ATOM     16  C   UNL d   1       6.000   0.980  -5.896  0.00  0.00    -0.057 A 
ATOM     17  C   UNL d   1       4.678   0.952  -5.440  0.00  0.00     0.055 A 
ATOM     18  C   UNL d   1       6.324   1.112  -7.353  0.00  0.00     0.048 C 
ENDBRANCH   8  11
ENDBRANCH   3   7
BRANCH   1  19
ATOM     19  C   UNL d   1      -0.900  -0.468   0.697  0.00  0.00     0.092 A 
ATOM     20  C   UNL d   1      -2.087  -0.105   1.350  0.00  0.00     0.052 A 
ATOM     21 CL   UNL d   1      -3.270   0.951   0.661  0.00  0.00    -0.083 Cl
ATOM     22  C   UNL d   1      -2.339  -0.557   2.655  0.00  0.00     0.025 A 
ATOM     23  C   UNL d   1      -1.414  -1.363   3.318  0.00  0.00     0.005 A 
ATOM     24  C   UNL d   1      -0.225  -1.707   2.683  0.00  0.00     0.043 A 
ATOM     25  C   UNL d   1       0.021  -1.262   1.385  0.00  0.00     0.133 A 
ATOM     26  F   UNL d   1       1.174  -1.625   0.804  0.00  0.00    -0.205 F 
ENDBRANCH   1  19
TORSDOF 3
