REMARK  8 active torsions:
REMARK  status: ('A' for Active; 'I' for Inactive)
REMARK    1  A    between atoms: N_2  and  S_1 
REMARK    2  A    between atoms: C_9  and  S_1 
REMARK    3  A    between atoms: C_3  and  N_2 
REMARK    4  A    between atoms: C_6  and  C_15 
REMARK    5  A    between atoms: C_10  and  C_7 
REMARK    6  A    between atoms: C_14  and  C_10 
REMARK    7  A    between atoms: O_24  and  C_14 
REMARK    8  A    between atoms: C_25  and  O_24 
ROOT
ATOM      1  N   UNL d   1       0.423   1.716   0.167  0.00  0.00    -0.160 NA
ATOM      2  H   UNL d   1       1.101   0.959   0.130  0.00  0.00     0.148 HD
ENDROOT
BRANCH   1   3
ATOM      3  S   UNL d   1       0.633   2.670  -1.222  0.00  0.00     0.247 S 
ATOM      4  O   UNL d   1      -0.120   3.899  -1.104  0.00  0.00    -0.205 OA
ATOM      5  O   UNL d   1       0.451   1.789  -2.357  0.00  0.00    -0.205 OA
BRANCH   3   6
ATOM      6  C   UNL d   1       2.375   3.059  -1.181  0.00  0.00     0.074 A 
ATOM      7  C   UNL d   1       3.301   2.023  -1.348  0.00  0.00     0.025 A 
ATOM      8  C   UNL d   1       4.667   2.308  -1.316  0.00  0.00     0.018 A 
ATOM      9  C   UNL d   1       5.117   3.627  -1.140  0.00  0.00     0.048 A 
ATOM     10  C   UNL d   1       4.172   4.656  -0.991  0.00  0.00     0.018 A 
ATOM     11  C   UNL d   1       2.802   4.376  -1.008  0.00  0.00     0.025 A 
BRANCH   9  12
ATOM     12  C   UNL d   1       6.599   3.919  -1.145  0.00  0.00     0.417 C 
ATOM     13  F   UNL d   1       6.915   5.166  -0.696  0.00  0.00    -0.166 F 
ATOM     14  F   UNL d   1       7.305   3.054  -0.361  0.00  0.00    -0.166 F 
ATOM     15  F   UNL d   1       7.146   3.817  -2.387  0.00  0.00    -0.166 F 
ENDBRANCH   9  12
ENDBRANCH   3   6
ENDBRANCH   1   3
BRANCH   1  16
ATOM     16  C   UNL d   1       0.653   2.453   1.347  0.00  0.00     0.137 C 
ATOM     17  N   UNL d   1       1.798   2.294   1.960  0.00  0.00    -0.343 N 
ATOM     18  C   UNL d   1       1.851   3.153   3.050  0.00  0.00     0.026 C 
ATOM     19  HN  UNL d   1       2.534   1.644   1.682  1.00  0.00     0.167 HD
ATOM     20  C   UNL d   1       0.663   3.809   3.324  0.00  0.00     0.078 C 
ATOM     21  S   UNL d   1      -0.500   3.440   2.119  0.00  0.00    -0.069 SA
BRANCH  18  22
ATOM     22  C   UNL d   1       3.135   3.295   3.796  0.00  0.00     0.168 C 
BRANCH  22  23
ATOM     23  C   UNL d   1       3.977   4.423   3.238  0.00  0.00     0.264 C 
ATOM     24  O   UNL d   1       3.686   5.141   2.290  0.00  0.00    -0.265 OA
BRANCH  23  25
ATOM     25  O   UNL d   1       5.147   4.493   3.937  0.00  0.00    -0.322 OA
BRANCH  25  26
ATOM     26  C   UNL d   1       6.171   5.308   3.343  0.00  0.00     0.174 C 
ATOM     27  C   UNL d   1       7.003   4.419   2.441  0.00  0.00     0.034 C 
ENDBRANCH  25  26
ENDBRANCH  23  25
ENDBRANCH  22  23
ENDBRANCH  18  22
ENDBRANCH   1  16
TORSDOF 8
