REMARK  4 active torsions:
REMARK  status: ('A' for Active; 'I' for Inactive)
REMARK    1  A    between atoms: N_3  and  S_1 
REMARK    2  A    between atoms: C_7  and  S_1 
REMARK    3  A    between atoms: C_2  and  N_3 
REMARK    4  A    between atoms: O_18  and  C_13 
ROOT
ATOM      1  N   UNL d   1       0.585  -1.485  -0.263  0.00  0.00    -0.164 NA
ATOM      2  H   UNL d   1       0.283  -1.538  -1.235  0.00  0.00     0.147 HD
ENDROOT
BRANCH   1   3
ATOM      3  C   UNL d   1       1.615  -2.384   0.014  0.00  0.00     0.130 A 
ATOM      4  N   UNL d   1       2.536  -2.687  -0.906  0.00  0.00    -0.248 N 
ATOM      5  O   UNL d   1       3.401  -3.575  -0.285  0.00  0.00    -0.236 OA
ATOM      6  HN  UNL d   1       2.590  -2.339  -1.863  1.00  0.00     0.196 HD
ATOM      7  C   UNL d   1       2.938  -3.861   0.961  0.00  0.00     0.115 A 
ATOM      8  C   UNL d   1       1.772  -3.153   1.196  0.00  0.00     0.074 A 
ATOM      9  C   UNL d   1       3.521  -4.745   1.865  0.00  0.00     0.040 A 
ATOM     10  C   UNL d   1       1.080  -3.357   2.406  0.00  0.00     0.084 A 
ATOM     11  C   UNL d   1       1.637  -4.257   3.333  0.00  0.00     0.038 A 
ATOM     12  C   UNL d   1       2.839  -4.927   3.070  0.00  0.00     0.006 A 
BRANCH  10  13
ATOM     13  O   UNL d   1      -0.118  -2.718   2.569  0.00  0.00    -0.355 OA
ATOM     14  C   UNL d   1      -0.598  -2.588   3.902  0.00  0.00     0.210 C 
ENDBRANCH  10  13
ENDBRANCH   1   3
BRANCH   1  15
ATOM     15  S   UNL d   1       0.901   0.159  -0.001  0.00  0.00     0.247 S 
ATOM     16  O   UNL d   1       0.155   0.866  -1.020  0.00  0.00    -0.205 OA
ATOM     17  O   UNL d   1       2.322   0.380   0.163  0.00  0.00    -0.205 OA
BRANCH  15  18
ATOM     18  C   UNL d   1       0.124   0.501   1.559  0.00  0.00     0.075 A 
ATOM     19  C   UNL d   1       0.889   0.424   2.731  0.00  0.00     0.037 A 
ATOM     20  C   UNL d   1       0.329   0.777   3.969  0.00  0.00    -0.025 A 
ATOM     21  C   UNL d   1       1.067   0.676   5.159  0.00  0.00     0.012 A 
ATOM     22  C   UNL d   1      -1.009   1.234   4.019  0.00  0.00    -0.026 A 
ATOM     23  C   UNL d   1       0.493   1.018   6.385  0.00  0.00     0.001 A 
ATOM     24  C   UNL d   1      -0.821   1.474   6.435  0.00  0.00     0.001 A 
ATOM     25  C   UNL d   1      -1.567   1.583   5.260  0.00  0.00     0.012 A 
ATOM     26  C   UNL d   1      -1.752   1.327   2.828  0.00  0.00     0.014 A 
ATOM     27  C   UNL d   1      -1.192   0.962   1.602  0.00  0.00     0.026 A 
ENDBRANCH  15  18
ENDBRANCH   1  15
TORSDOF 4
