REMARK  3 active torsions:
REMARK  status: ('A' for Active; 'I' for Inactive)
REMARK    1  A    between atoms: C_9  and  C_2 
REMARK    2  A    between atoms: C_7  and  N_10 
REMARK       I    between atoms: N_13  and  C_9 
REMARK    3  A    between atoms: N_10  and  N_13 
ROOT
ATOM      1  C   UNL d   1       3.633  -0.966   0.058  0.00  0.00     0.273 C 
ATOM      2  N   UNL d   1       3.786  -2.337   0.068  0.00  0.00    -0.282 N 
ATOM      3  O   UNL d   1       4.600  -0.201   0.011  0.00  0.00    -0.266 OA
ATOM      4  H   UNL d   1       2.998  -2.958   0.272  0.00  0.00     0.184 HD
ENDROOT
BRANCH   1   5
ATOM      5  C   UNL d   1       2.233  -0.467   0.091  0.00  0.00     0.116 A 
ATOM      6  C   UNL d   1       1.028  -1.330   0.138  0.00  0.00     0.266 A 
ATOM      7  N   UNL d   1      -0.171  -0.679  -0.008  0.00  0.00    -0.293 N 
ATOM      8  O   UNL d   1       1.120  -2.544   0.303  0.00  0.00    -0.267 OA
ATOM      9  C   UNL d   1      -0.230   0.682  -0.061  0.00  0.00     0.149 A 
ATOM     10  C   UNL d   1      -1.422  -1.388  -0.148  0.00  0.00     0.145 C 
ATOM     11  N   UNL d   1       0.787   1.470  -0.013  0.00  0.00    -0.345 N 
ATOM     12  S   UNL d   1      -1.860   1.250  -0.214  0.00  0.00    -0.092 SA
ATOM     13  C   UNL d   1       2.018   0.859   0.042  0.00  0.00     0.113 A 
ATOM     14  HN  UNL d   1       0.686   2.485  -0.015  1.00  0.00     0.167 HD
ATOM     15  C   UNL d   1      -2.583  -0.407  -0.116  0.00  0.00     0.103 C 
ENDBRANCH   1   5
BRANCH   2  16
ATOM     16  N   UNL d   1       5.067  -2.842   0.284  0.00  0.00    -0.200 NA
ATOM     17  H   UNL d   1       5.792  -2.110   0.222  0.00  0.00     0.153 HD
BRANCH  16  18
ATOM     18  C   UNL d   1       5.469  -4.041  -0.372  0.00  0.00     0.071 A 
ATOM     19  C   UNL d   1       4.618  -5.004  -0.959  0.00  0.00     0.060 A 
ATOM     20  C   UNL d   1       5.117  -6.233  -1.422  0.00  0.00     0.049 A 
ATOM     21 CL   UNL d   1       2.915  -4.792  -1.192  0.00  0.00    -0.082 Cl
ATOM     22  C   UNL d   1       6.465  -6.539  -1.295  0.00  0.00     0.037 A 
ATOM     23  C   UNL d   1       7.337  -5.624  -0.728  0.00  0.00     0.049 A 
ATOM     24 CL   UNL d   1       7.049  -8.065  -1.830  0.00  0.00    -0.084 Cl
ATOM     25  C   UNL d   1       6.842  -4.397  -0.275  0.00  0.00     0.060 A 
ATOM     26 CL   UNL d   1       7.992  -3.305   0.434  0.00  0.00    -0.082 Cl
ENDBRANCH  16  18
ENDBRANCH   2  16
TORSDOF 3
