REMARK  4 active torsions:
REMARK  status: ('A' for Active; 'I' for Inactive)
REMARK    1  A    between atoms: C_5  and  C_1 
REMARK       I    between atoms: C_2  and  N_4 
REMARK    2  A    between atoms: C_10  and  C_2 
REMARK    3  A    between atoms: N_4  and  C_13 
REMARK    4  A    between atoms: C_13  and  C_14 
ROOT
ATOM      1  C   UNL d   1      -0.067   2.682  -0.186  0.00  0.00    -0.019 A 
ATOM      2  C   UNL d   1      -1.183   3.122  -0.915  0.00  0.00     0.013 A 
ATOM      3  C   UNL d   1       0.693   3.647   0.493  0.00  0.00     0.013 A 
ATOM      4  C   UNL d   1      -0.771   5.431  -0.271  0.00  0.00    -0.040 A 
ATOM      5  C   UNL d   1       0.351   5.003   0.446  0.00  0.00     0.010 A 
ATOM      6  C   UNL d   1      -1.529   4.479  -0.962  0.00  0.00     0.010 A 
ENDROOT
BRANCH   4   7
ATOM      7  C   UNL d   1      -1.139   6.889  -0.313  0.00  0.00     0.161 C 
BRANCH   7   8
ATOM      8  N   UNL d   1      -0.483   7.573  -1.402  0.00  0.00    -0.356 N 
ATOM      9  C   UNL d   1      -0.659   8.928  -1.588  0.00  0.00     0.222 C 
ATOM     10  O   UNL d   1      -1.359   9.592  -0.819  0.00  0.00    -0.273 OA
ATOM     11  H   UNL d   1       0.063   7.034  -2.061  0.00  0.00     0.162 HD
BRANCH   9  12
ATOM     12  C   UNL d   1       0.085   9.505  -2.827  0.00  0.00     0.078 C 
ATOM     13  C   UNL d   1       0.550  10.987  -2.754  0.00  0.00     0.014 C 
ATOM     14  C   UNL d   1       0.154  11.128  -4.234  0.00  0.00     0.002 C 
ATOM     15  C   UNL d   1      -0.795   9.934  -4.032  0.00  0.00     0.014 C 
ENDBRANCH   9  12
ENDBRANCH   7   8
ENDBRANCH   4   7
BRANCH   1  16
ATOM     16  C   UNL d   1       0.264   1.244  -0.128  0.00  0.00     0.015 A 
ATOM     17  S   UNL d   1       1.899   0.717  -0.014  0.00  0.00    -0.101 SA
ATOM     18  C   UNL d   1       1.452  -0.930   0.015  0.00  0.00     0.050 A 
ATOM     19  C   UNL d   1       0.092  -1.096  -0.087  0.00  0.00     0.008 A 
ATOM     20  C   UNL d   1      -0.591   0.153  -0.174  0.00  0.00     0.020 A 
ENDBRANCH   1  16
TORSDOF 4
