REMARK  4 active torsions:
REMARK  status: ('A' for Active; 'I' for Inactive)
REMARK    1  A    between atoms: O_4  and  C_1 
REMARK    2  A    between atoms: C_5  and  C_1 
REMARK    3  A    between atoms: C_7  and  O_4 
REMARK    4  A    between atoms: C_6  and  C_5 
ROOT
ATOM      1  C   UNL d   1       0.865   0.007  -0.153  0.00  0.00     0.288 C 
ATOM      2  O   UNL d   1       2.057   0.048  -0.430  0.00  0.00    -0.260 OA
ENDROOT
BRANCH   1   3
ATOM      3  O   UNL d   1      -0.153   0.739  -0.735  0.00  0.00    -0.274 OA
BRANCH   3   4
ATOM      4  C   UNL d   1       0.146   1.303  -1.981  0.00  0.00     0.101 A 
ATOM      5  C   UNL d   1       0.282   0.510  -3.125  0.00  0.00     0.068 A 
ATOM      6 CL   UNL d   1       0.173  -1.212  -3.068  0.00  0.00    -0.081 Cl
ATOM      7  C   UNL d   1       0.450   1.123  -4.367  0.00  0.00     0.026 A 
ATOM      8  C   UNL d   1       0.455   2.517  -4.462  0.00  0.00     0.002 A 
ATOM      9  C   UNL d   1       0.298   3.301  -3.318  0.00  0.00     0.003 A 
ATOM     10  C   UNL d   1       0.141   2.696  -2.070  0.00  0.00     0.039 A 
ENDBRANCH   3   4
ENDBRANCH   1   3
BRANCH   1  11
ATOM     11  C   UNL d   1       0.321  -0.888   0.897  0.00  0.00     0.084 C 
BRANCH  11  12
ATOM     12  C   UNL d   1      -0.993  -1.005   1.149  0.00  0.00     0.025 C 
ATOM     13  C   UNL d   1      -1.519  -1.884   2.140  0.00  0.00     0.005 A 
ATOM     14  S   UNL d   1      -3.237  -1.963   2.327  0.00  0.00    -0.102 SA
ATOM     15  C   UNL d   1      -0.903  -2.738   3.039  0.00  0.00     0.019 A 
ATOM     16  C   UNL d   1      -3.130  -3.095   3.597  0.00  0.00     0.050 A 
ATOM     17  C   UNL d   1      -1.827  -3.429   3.880  0.00  0.00     0.008 A 
ENDBRANCH  11  12
ENDBRANCH   1  11
TORSDOF 4
