REMARK  4 active torsions:
REMARK  status: ('A' for Active; 'I' for Inactive)
REMARK       I    between atoms: N_7  and  C_1 
REMARK       I    between atoms: N_9  and  C_1 
REMARK    1  A    between atoms: O_5  and  C_2 
REMARK    2  A    between atoms: C_4  and  O_5 
REMARK    3  A    between atoms: C_8  and  N_7 
REMARK    4  A    between atoms: C_16  and  N_9 
ROOT
ATOM      1  C   UNL d   1       0.609   2.239  -2.873  0.00  0.00     0.175 A 
ATOM      2  C   UNL d   1       1.007   1.033  -2.273  0.00  0.00     0.088 A 
ATOM      3  N   UNL d   1       1.364   2.893  -3.791  0.00  0.00    -0.345 N 
ATOM      4  HN  UNL d   1       1.060   3.782  -4.188  1.00  0.00     0.167 HD
ATOM      5  C   UNL d   1       2.253   0.516  -2.637  0.00  0.00     0.035 A 
ATOM      6  C   UNL d   1       2.529   2.326  -4.160  0.00  0.00     0.090 A 
ATOM      7  C   UNL d   1       3.012   1.151  -3.617  0.00  0.00     0.019 A 
ENDROOT
BRANCH   2   8
ATOM      8  N   UNL d   1       0.257   0.279  -1.346  0.00  0.00    -0.305 N 
ATOM      9  C   UNL d   1      -1.084  -0.035  -1.337  0.00  0.00     0.325 C 
ATOM     10  N   UNL d   1      -1.768   0.274  -2.479  0.00  0.00    -0.309 N 
ATOM     11  O   UNL d   1      -1.518  -0.668  -0.382  0.00  0.00    -0.247 OA
ATOM     12  H   UNL d   1      -1.254   0.780  -3.176  0.00  0.00     0.170 HD
ATOM     13  H   UNL d   1       0.764  -0.307  -0.694  0.00  0.00     0.171 HD
BRANCH  10  14
ATOM     14  C   UNL d   1      -3.093  -0.025  -2.834  0.00  0.00     0.036 A 
ATOM     15  C   UNL d   1      -3.987  -0.723  -2.026  0.00  0.00     0.029 A 
ATOM     16  C   UNL d   1      -5.285  -0.975  -2.480  0.00  0.00     0.002 A 
ATOM     17  C   UNL d   1      -5.693  -0.531  -3.738  0.00  0.00     0.000 A 
ATOM     18  C   UNL d   1      -4.804   0.165  -4.549  0.00  0.00     0.002 A 
ATOM     19  C   UNL d   1      -3.509   0.413  -4.098  0.00  0.00     0.029 A 
ENDBRANCH  10  14
ENDBRANCH   2   8
BRANCH   1  20
ATOM     20  O   UNL d   1      -0.588   2.827  -2.464  0.00  0.00    -0.291 OA
BRANCH  20  21
ATOM     21  C   UNL d   1      -1.228   3.687  -3.328  0.00  0.00     0.084 A 
ATOM     22  C   UNL d   1      -1.893   4.788  -2.799  0.00  0.00    -0.017 A 
ATOM     23  C   UNL d   1      -2.539   5.710  -3.634  0.00  0.00    -0.043 A 
ATOM     24  C   UNL d   1      -2.009   5.180  -1.360  0.00  0.00     0.042 C 
ATOM     25  C   UNL d   1      -3.074   6.869  -2.853  0.00  0.00     0.040 C 
ATOM     26  C   UNL d   1      -2.580   5.532  -5.016  0.00  0.00    -0.055 A 
ATOM     27  C   UNL d   1      -2.919   6.417  -1.397  0.00  0.00     0.009 C 
ATOM     28  C   UNL d   1      -1.979   4.382  -5.540  0.00  0.00     0.010 A 
ATOM     29  C   UNL d   1      -3.290   6.491  -5.922  0.00  0.00     0.049 C 
ATOM     30  C   UNL d   1      -1.311   3.473  -4.707  0.00  0.00     0.038 A 
ENDBRANCH  20  21
ENDBRANCH   1  20
TORSDOF 4
