REMARK  7 active torsions:
REMARK  status: ('A' for Active; 'I' for Inactive)
REMARK    1  A    between atoms: C_2  and  C_1 
REMARK       I    between atoms: N_3  and  C_2 
REMARK    2  A    between atoms: C_9  and  N_3 
REMARK    3  A    between atoms: C_4  and  C_9 
REMARK    4  A    between atoms: O_10  and  C_4 
REMARK    5  A    between atoms: O_12  and  C_5 
REMARK    6  A    between atoms: O_11  and  C_6 
REMARK    7  A    between atoms: C_16  and  O_10 
ROOT
ATOM      1  C   UNL d   1       1.550  -0.162   0.059  0.00  0.00     0.098 A 
ATOM      2  C   UNL d   1       0.672  -1.241   0.302  0.00  0.00     0.086 A 
ATOM      3  C   UNL d   1       1.040   1.038  -0.473  0.00  0.00     0.086 A 
ATOM      4  C   UNL d   1      -1.210   0.176  -0.308  0.00  0.00     0.005 A 
ATOM      5  C   UNL d   1      -0.339   1.218  -0.602  0.00  0.00     0.038 A 
ATOM      6  C   UNL d   1      -0.705  -1.059   0.097  0.00  0.00     0.038 A 
ENDROOT
BRANCH   1   7
ATOM      7  C   UNL d   1       2.963  -0.186   0.533  0.00  0.00     0.257 C 
ATOM      8  N   UNL d   1       3.701  -1.319   0.296  0.00  0.00    -0.347 N 
ATOM      9  H   UNL d   1       3.287  -2.084  -0.225  0.00  0.00     0.163 HD
ATOM     10  O   UNL d   1       3.430   0.791   1.110  0.00  0.00    -0.267 OA
BRANCH   8  11
ATOM     11  C   UNL d   1       5.100  -1.391   0.674  0.00  0.00     0.233 C 
BRANCH  11  12
ATOM     12  C   UNL d   1       6.029  -1.305  -0.531  0.00  0.00     0.276 C 
ATOM     13  O   UNL d   1       5.714  -1.603  -1.678  0.00  0.00    -0.263 OA
BRANCH  12  14
ATOM     14  O   UNL d   1       7.293  -0.998  -0.112  0.00  0.00    -0.321 OA
BRANCH  14  15
ATOM     15  C   UNL d   1       8.342  -1.254  -1.056  0.00  0.00     0.174 C 
ATOM     16  C   UNL d   1       8.859  -2.660  -0.810  0.00  0.00     0.034 C 
ENDBRANCH  14  15
ENDBRANCH  12  14
ENDBRANCH  11  12
ENDBRANCH   8  11
ENDBRANCH   1   7
BRANCH   2  17
ATOM     17  O   UNL d   1       1.214  -2.427   0.733  0.00  0.00    -0.355 OA
ATOM     18  C   UNL d   1       0.312  -3.408   1.236  0.00  0.00     0.210 C 
ENDBRANCH   2  17
BRANCH   3  19
ATOM     19  O   UNL d   1       1.792   2.114  -0.875  0.00  0.00    -0.355 OA
ATOM     20  C   UNL d   1       2.801   1.770  -1.829  0.00  0.00     0.210 C 
ENDBRANCH   3  19
TORSDOF 7
