REMARK  6 active torsions:
REMARK  status: ('A' for Active; 'I' for Inactive)
REMARK    1  A    between atoms: C_7  and  C_1 
REMARK    2  A    between atoms: C_8  and  N_2 
REMARK    3  A    between atoms: C_11  and  C_4 
REMARK    4  A    between atoms: N_6  and  C_9 
REMARK    5  A    between atoms: O_19  and  C_7 
REMARK    6  A    between atoms: C_22  and  O_19 
ROOT
ATOM      1  C   UNL d   1      -0.318   1.174   0.004  0.00  0.00     0.064 A 
ATOM      2  N   UNL d   1       1.027  -0.650  -0.025  0.00  0.00    -0.314 N 
ATOM      3  C   UNL d   1       1.007   0.747   0.024  0.00  0.00     0.030 A 
ATOM      4  C   UNL d   1      -0.296  -1.113  -0.041  0.00  0.00     0.051 A 
ATOM      5  C   UNL d   1      -1.115   0.005  -0.059  0.00  0.00     0.050 A 
ATOM      6  C   UNL d   1       2.223   1.605   0.202  0.00  0.00     0.070 C 
ENDROOT
BRANCH   2   7
ATOM      7  C   UNL d   1       2.205  -1.459  -0.017  0.00  0.00     0.040 A 
ATOM      8  C   UNL d   1       2.285  -2.584   0.816  0.00  0.00     0.032 A 
ATOM      9  C   UNL d   1       3.407  -3.416   0.766  0.00  0.00     0.038 A 
ATOM     10  C   UNL d   1       4.457  -3.108  -0.106  0.00  0.00     0.103 A 
ATOM     11  C   UNL d   1       4.399  -1.970  -0.922  0.00  0.00     0.038 A 
ATOM     12  C   UNL d   1       3.268  -1.148  -0.878  0.00  0.00     0.032 A 
BRANCH  10  13
ATOM     13  N   UNL d   1       5.624  -3.996  -0.180  0.00  0.00    -0.116 N 
ATOM     14  O   UNL d   1       6.605  -3.603  -0.826  0.00  0.00    -0.532 OA
ATOM     15  O   UNL d   1       5.554  -5.087   0.404  0.00  0.00    -0.532 OA
ENDBRANCH  10  13
ENDBRANCH   2   7
BRANCH   4  16
ATOM     16  C   UNL d   1      -0.751  -2.515  -0.071  0.00  0.00    -0.009 A 
ATOM     17  C   UNL d   1      -0.185  -3.469  -0.927  0.00  0.00     0.014 A 
ATOM     18  C   UNL d   1      -0.589  -4.807  -0.872  0.00  0.00     0.001 A 
ATOM     19  C   UNL d   1      -1.599  -5.197   0.004  0.00  0.00     0.000 A 
ATOM     20  C   UNL d   1      -2.213  -4.249   0.819  0.00  0.00     0.001 A 
ATOM     21  C   UNL d   1      -1.790  -2.919   0.783  0.00  0.00     0.014 A 
ENDBRANCH   4  16
BRANCH   1  22
ATOM     22  C   UNL d   1      -0.786   2.558   0.107  0.00  0.00     0.295 C 
ATOM     23  O   UNL d   1      -0.041   3.531   0.116  0.00  0.00    -0.259 OA
BRANCH  22  24
ATOM     24  O   UNL d   1      -2.139   2.624   0.269  0.00  0.00    -0.318 OA
BRANCH  24  25
ATOM     25  C   UNL d   1      -2.655   3.895   0.687  0.00  0.00     0.174 C 
ATOM     26  C   UNL d   1      -2.697   3.924   2.205  0.00  0.00     0.034 C 
ENDBRANCH  24  25
ENDBRANCH  22  24
ENDBRANCH   1  22
TORSDOF 6
