REMARK  2 active torsions:
REMARK  status: ('A' for Active; 'I' for Inactive)
REMARK    1  A    between atoms: C_10  and  C_3 
REMARK    2  A    between atoms: C_8  and  C_7 
ROOT
ATOM      1  N   UNL d   1      -0.805   0.083  -0.106  0.00  0.00    -0.331 N 
ATOM      2  HN  UNL d   1      -1.795  -0.149  -0.187  1.00  0.00     0.168 HD
ATOM      3  C   UNL d   1      -0.256   1.251  -0.025  0.00  0.00     0.162 A 
ATOM      4  C   UNL d   1       0.268  -0.766  -0.058  0.00  0.00     0.113 A 
ATOM      5  O   UNL d   1       1.095   1.305   0.045  0.00  0.00    -0.256 OA
ATOM      6  C   UNL d   1       1.533   0.012   0.025  0.00  0.00     0.316 A 
ATOM      7  C   UNL d   1       0.249  -2.104  -0.017  0.00  0.00     0.073 C 
ATOM      8  O   UNL d   1       2.679  -0.381   0.069  0.00  0.00    -0.257 OA
ENDROOT
BRANCH   3   9
ATOM      9  C   UNL d   1      -0.975   2.531   0.021  0.00  0.00     0.015 A 
ATOM     10  C   UNL d   1      -2.377   2.504   0.047  0.00  0.00     0.016 A 
ATOM     11  C   UNL d   1      -3.102   3.693   0.122  0.00  0.00     0.001 A 
ATOM     12  C   UNL d   1      -2.429   4.912   0.169  0.00  0.00     0.000 A 
ATOM     13  C   UNL d   1      -1.034   4.945   0.137  0.00  0.00     0.001 A 
ATOM     14  C   UNL d   1      -0.303   3.756   0.063  0.00  0.00     0.016 A 
ENDBRANCH   3   9
BRANCH   7  15
ATOM     15  C   UNL d   1      -0.958  -2.857  -0.046  0.00  0.00     0.077 A 
ATOM     16  O   UNL d   1      -1.057  -4.101   0.541  0.00  0.00    -0.323 OA
ATOM     17  C   UNL d   1      -2.326  -4.550   0.388  0.00  0.00     0.142 A 
ATOM     18  C   UNL d   1      -3.072  -3.647  -0.323  0.00  0.00     0.027 A 
ATOM     19  C   UNL d   1      -2.200  -2.573  -0.610  0.00  0.00     0.039 A 
ENDBRANCH   7  15
TORSDOF 2
