REMARK  3 active torsions:
REMARK  status: ('A' for Active; 'I' for Inactive)
REMARK    1  A    between atoms: C_7  and  C_1 
REMARK    2  A    between atoms: C_11  and  C_5 
REMARK    3  A    between atoms: C_12  and  N_9 
ROOT
ATOM      1  C   UNL d   1       1.908   1.022   0.016  0.00  0.00     0.080 A 
ATOM      2  N   UNL d   1       1.334  -1.208  -0.048  0.00  0.00    -0.334 N 
ATOM      3  HN  UNL d   1       1.387  -2.224  -0.111  1.00  0.00     0.168 HD
ATOM      4  C   UNL d   1       0.271  -0.463   0.027  0.00  0.00     0.147 A 
ATOM      5  C   UNL d   1       2.380  -0.295  -0.023  0.00  0.00     0.073 A 
ATOM      6  N   UNL d   1       0.557   0.860   0.081  0.00  0.00    -0.324 N 
ATOM      7  S   UNL d   1      -1.414  -0.796   0.010  0.00  0.00    -0.092 SA
ATOM      8  C   UNL d   1      -0.560   1.773   0.163  0.00  0.00     0.142 C 
ATOM      9  C   UNL d   1      -1.812   0.982  -0.232  0.00  0.00     0.102 C 
ENDROOT
BRANCH   1  10
ATOM     10  C   UNL d   1       2.620   2.265  -0.022  0.00  0.00     0.120 C 
ATOM     11  N   UNL d   1       2.067   3.367   0.368  0.00  0.00    -0.364 N 
ATOM     12  HN  UNL d   1       1.097   3.385   0.685  1.00  0.00     0.165 HD
BRANCH  11  13
ATOM     13  C   UNL d   1       2.842   4.540   0.343  0.00  0.00     0.032 A 
ATOM     14  C   UNL d   1       3.667   4.891  -0.736  0.00  0.00     0.031 A 
ATOM     15  C   UNL d   1       4.384   6.091  -0.729  0.00  0.00     0.026 A 
ATOM     16  C   UNL d   1       4.263   6.962   0.350  0.00  0.00     0.034 A 
ATOM     17  C   UNL d   1       3.445   6.635   1.428  0.00  0.00     0.026 A 
ATOM     18 CL   UNL d   1       5.112   8.458   0.339  0.00  0.00    -0.084 Cl
ATOM     19  C   UNL d   1       2.739   5.427   1.421  0.00  0.00     0.031 A 
ENDBRANCH  11  13
ENDBRANCH   1  10
BRANCH   5  20
ATOM     20  C   UNL d   1       3.773  -0.725  -0.060  0.00  0.00    -0.007 A 
ATOM     21  C   UNL d   1       4.116  -1.894  -0.752  0.00  0.00     0.014 A 
ATOM     22  C   UNL d   1       5.446  -2.314  -0.829  0.00  0.00     0.001 A 
ATOM     23  C   UNL d   1       6.452  -1.568  -0.215  0.00  0.00     0.000 A 
ATOM     24  C   UNL d   1       6.123  -0.421   0.499  0.00  0.00     0.001 A 
ATOM     25  C   UNL d   1       4.791  -0.014   0.595  0.00  0.00     0.014 A 
ENDBRANCH   5  20
TORSDOF 3
