REMARK  3 active torsions:
REMARK  status: ('A' for Active; 'I' for Inactive)
REMARK    1  A    between atoms: C_2  and  S_1 
REMARK    2  A    between atoms: N_6  and  S_1 
REMARK    3  A    between atoms: C_5  and  N_12 
ROOT
ATOM      1  N   UNL d   1       0.662  -0.828   0.757  0.00  0.00    -0.302 N 
ATOM      2  N   UNL d   1       1.439  -3.642   1.361  0.00  0.00     0.105 N 
ATOM      3  C   UNL d   1       1.565  -1.158   1.876  0.00  0.00     0.165 C 
ATOM      4  C   UNL d   1      -0.251  -1.933   0.379  0.00  0.00     0.165 C 
ATOM      5  C   UNL d   1       0.459  -3.316   0.308  0.00  0.00     0.294 C 
ATOM      6  C   UNL d   1       2.302  -2.476   1.625  0.00  0.00     0.294 C 
ENDROOT
BRANCH   2   7
ATOM      7  C   UNL d   1       0.907  -4.392   2.518  0.00  0.00     0.290 C 
ATOM      8  C   UNL d   1      -0.229  -3.747   3.307  0.00  0.00    -0.009 C 
ATOM      9  C   UNL d   1       0.210  -3.395   4.600  0.00  0.00    -0.017 C 
ATOM     10  C   UNL d   1      -1.552  -3.557   2.934  0.00  0.00     0.010 C 
ATOM     11  C   UNL d   1      -0.622  -2.697   5.460  0.00  0.00     0.013 C 
ATOM     12  C   UNL d   1       1.542  -3.926   4.802  0.00  0.00    -0.017 A 
ATOM     13  C   UNL d   1      -1.922  -2.401   5.037  0.00  0.00     0.001 C 
ATOM     14  C   UNL d   1      -2.392  -2.852   3.796  0.00  0.00     0.001 C 
ATOM     15  C   UNL d   1       1.955  -4.584   3.621  0.00  0.00    -0.009 A 
ATOM     16  C   UNL d   1       2.359  -3.911   5.920  0.00  0.00     0.013 A 
ATOM     17  C   UNL d   1       3.175  -5.243   3.550  0.00  0.00     0.010 A 
ATOM     18  C   UNL d   1       3.998  -5.223   4.676  0.00  0.00     0.001 A 
ATOM     19  C   UNL d   1       3.596  -4.560   5.848  0.00  0.00     0.001 A 
ENDBRANCH   2   7
BRANCH   1  20
ATOM     20  S   UNL d   1       1.178   0.214  -0.464  0.00  0.00     0.278 S 
ATOM     21  O   UNL d   1       0.009   0.826  -1.058  0.00  0.00    -0.199 OA
ATOM     22  O   UNL d   1       2.281   1.016   0.030  0.00  0.00    -0.199 OA
BRANCH  20  23
ATOM     23  C   UNL d   1       1.861  -0.722  -1.773  0.00  0.00     0.165 A 
ATOM     24  N   UNL d   1       1.134  -1.682  -2.471  0.00  0.00    -0.340 N 
ATOM     25  C   UNL d   1       1.963  -2.155  -3.369  0.00  0.00     0.183 A 
ATOM     26  HN  UNL d   1       0.164  -1.958  -2.317  1.00  0.00     0.167 HD
ATOM     27  N   UNL d   1       3.188  -1.561  -3.282  0.00  0.00    -0.354 N 
ATOM     28  C   UNL d   1       3.148  -0.648  -2.268  0.00  0.00     0.135 A 
ATOM     29  C   UNL d   1       4.313  -1.855  -4.131  0.00  0.00     0.156 C 
ENDBRANCH  20  23
ENDBRANCH   1  20
TORSDOF 3
