REMARK  2 active torsions:
REMARK  status: ('A' for Active; 'I' for Inactive)
REMARK    1  A    between atoms: N_2  and  C_1 
REMARK    2  A    between atoms: C_3  and  C_5 
ROOT
ATOM      1  C   UNL d   1       0.280   2.795   0.233  0.00  0.00     0.178 C 
ATOM      2  N   UNL d   1       0.723   3.611  -0.923  0.00  0.00    -0.270 NA
ATOM      3  N   UNL d   1      -0.968   3.382   0.760  0.00  0.00    -0.270 NA
ATOM      4  C   UNL d   1       0.243   4.888  -0.506  0.00  0.00     0.031 A 
ATOM      5  C   UNL d   1      -0.728   4.755   0.485  0.00  0.00     0.031 A 
ATOM      6  C   UNL d   1       0.577   6.114  -1.039  0.00  0.00     0.025 A 
ATOM      7  C   UNL d   1      -1.377   5.856   1.002  0.00  0.00     0.025 A 
ATOM      8  C   UNL d   1      -0.999   7.116   0.526  0.00  0.00     0.002 A 
ATOM      9  C   UNL d   1      -0.033   7.244  -0.490  0.00  0.00     0.002 A 
ATOM     10  H   UNL d   1       0.147   3.345  -1.721  0.00  0.00     0.129 HD
ATOM     11  H   UNL d   1      -1.082   3.234   1.757  0.00  0.00     0.129 HD
ENDROOT
BRANCH   1  12
ATOM     12  C   UNL d   1       0.214   1.316  -0.068  0.00  0.00     0.017 A 
ATOM     13  C   UNL d   1      -0.797   0.571  -0.648  0.00  0.00     0.054 A 
ATOM     14  C   UNL d   1      -0.446  -0.814  -0.796  0.00  0.00     0.110 A 
ATOM     15  C   UNL d   1       0.819  -1.073  -0.307  0.00  0.00     0.086 A 
ATOM     16  S   UNL d   1       1.573   0.328   0.310  0.00  0.00    -0.101 SA
BRANCH  14  17
ATOM     17  N   UNL d   1      -1.278  -1.839  -1.378  0.00  0.00    -0.115 N 
ATOM     18  O   UNL d   1      -2.395  -1.488  -1.778  0.00  0.00    -0.532 OA
ATOM     19  O   UNL d   1      -0.817  -2.985  -1.434  0.00  0.00    -0.532 OA
ENDBRANCH  14  17
ENDBRANCH   1  12
TORSDOF 2
