REMARK  6 active torsions:
REMARK  status: ('A' for Active; 'I' for Inactive)
REMARK    1  A    between atoms: C_3  and  N_1 
REMARK    2  A    between atoms: C_2  and  C_4 
REMARK    3  A    between atoms: O_6  and  C_2 
REMARK    4  A    between atoms: C_11  and  O_6 
REMARK    5  A    between atoms: O_10  and  C_12 
REMARK    6  A    between atoms: C_13  and  O_10 
ROOT
ATOM      1  C   UNL d   1      -1.504  -5.803   1.999  0.00  0.00     0.079 C 
ATOM      2  C   UNL d   1      -3.663  -6.519   0.387  0.00  0.00     0.076 C 
ATOM      3  C   UNL d   1      -1.312  -5.988   0.630  0.00  0.00     0.040 C 
ATOM      4  C   UNL d   1      -2.735  -6.103   2.584  0.00  0.00     0.040 C 
ATOM      5  C   UNL d   1      -2.392  -6.360  -0.174  0.00  0.00     0.040 C 
ATOM      6  C   UNL d   1      -3.818  -6.461   1.773  0.00  0.00     0.040 C 
ENDROOT
BRANCH   1   7
ATOM      7  O   UNL d   1      -0.480  -5.341   2.856  0.00  0.00    -0.275 OA
BRANCH   7   8
ATOM      8  C   UNL d   1       0.297  -4.266   2.430  0.00  0.00     0.298 C 
ATOM      9  O   UNL d   1       0.238  -3.703   1.349  0.00  0.00    -0.259 OA
BRANCH   8  10
ATOM     10  C   UNL d   1       1.262  -3.843   3.484  0.00  0.00     0.042 A 
ATOM     11  C   UNL d   1       1.234  -4.336   4.793  0.00  0.00     0.053 A 
ATOM     12  C   UNL d   1       2.165  -3.856   5.731  0.00  0.00     0.103 A 
ATOM     13  C   UNL d   1       3.132  -2.906   5.369  0.00  0.00     0.036 A 
ATOM     14  C   UNL d   1       3.153  -2.413   4.067  0.00  0.00     0.003 A 
ATOM     15  C   UNL d   1       2.220  -2.873   3.135  0.00  0.00     0.018 A 
BRANCH  12  16
ATOM     16  N   UNL d   1       2.118  -4.335   7.118  0.00  0.00    -0.116 N 
ATOM     17  O   UNL d   1       1.194  -5.107   7.425  0.00  0.00    -0.532 OA
ATOM     18  O   UNL d   1       2.992  -3.938   7.897  0.00  0.00    -0.532 OA
ENDBRANCH  12  16
ENDBRANCH   8  10
ENDBRANCH   7   8
ENDBRANCH   1   7
BRANCH   2  19
ATOM     19  O   UNL d   1      -4.793  -6.760  -0.365  0.00  0.00    -0.311 OA
BRANCH  19  20
ATOM     20  C   UNL d   1      -4.974  -6.056  -1.541  0.00  0.00     0.076 A 
ATOM     21  C   UNL d   1      -5.744  -6.681  -2.525  0.00  0.00     0.037 A 
ATOM     22  C   UNL d   1      -5.937  -6.064  -3.765  0.00  0.00     0.003 A 
ATOM     23  C   UNL d   1      -5.364  -4.819  -4.023  0.00  0.00     0.000 A 
ATOM     24  C   UNL d   1      -4.639  -4.169  -3.028  0.00  0.00     0.003 A 
ATOM     25  C   UNL d   1      -4.470  -4.772  -1.780  0.00  0.00     0.037 A 
ENDBRANCH  19  20
ENDBRANCH   2  19
TORSDOF 6
