REMARK  8 active torsions:
REMARK  status: ('A' for Active; 'I' for Inactive)
REMARK    1  A    between atoms: C_3  and  C_1 
REMARK    2  A    between atoms: C_17  and  C_5 
REMARK       I    between atoms: C_8  and  N_10 
REMARK    3  A    between atoms: C_19  and  C_8 
REMARK    4  A    between atoms: C_9  and  C_20 
REMARK    5  A    between atoms: O_18  and  C_9 
REMARK    6  A    between atoms: N_10  and  C_17 
REMARK    7  A    between atoms: S_16  and  C_19 
REMARK    8  A    between atoms: C_20  and  S_16 
ROOT
ATOM      1  C   UNL d   1       0.959  -4.939  -0.006  0.00  0.00     0.227 C 
ATOM      2  N   UNL d   1       1.072  -3.571  -0.066  0.00  0.00    -0.356 N 
ATOM      3  O   UNL d   1      -0.117  -5.535   0.074  0.00  0.00    -0.273 OA
ATOM      4  H   UNL d   1       1.977  -3.143   0.095  0.00  0.00     0.162 HD
ENDROOT
BRANCH   2   5
ATOM      5  C   UNL d   1      -0.102  -2.731   0.004  0.00  0.00     0.168 C 
BRANCH   5   6
ATOM      6  C   UNL d   1       0.305  -1.293   0.032  0.00  0.00     0.001 A 
ATOM      7  S   UNL d   1       0.510  -0.483   1.527  0.00  0.00    -0.092 SA
ATOM      8  C   UNL d   1       0.808   1.032   0.772  0.00  0.00     0.022 A 
ATOM      9  C   UNL d   1       0.817   0.891  -0.605  0.00  0.00     0.021 A 
ATOM     10  C   UNL d   1       0.534  -0.442  -1.030  0.00  0.00     0.018 A 
BRANCH   8  11
ATOM     11  C   UNL d   1       0.989   2.243   1.544  0.00  0.00     0.021 A 
ATOM     12  S   UNL d   1       0.604   3.789   0.891  0.00  0.00    -0.101 SA
ATOM     13  C   UNL d   1       1.017   4.593   2.340  0.00  0.00     0.050 A 
ATOM     14  C   UNL d   1       1.458   3.719   3.305  0.00  0.00     0.008 A 
ATOM     15  C   UNL d   1       1.443   2.368   2.847  0.00  0.00     0.021 A 
ENDBRANCH   8  11
ENDBRANCH   5   6
ENDBRANCH   2   5
BRANCH   1  16
ATOM     16  C   UNL d   1       2.274  -5.696   0.019  0.00  0.00     0.177 C 
BRANCH  16  17
ATOM     17  S   UNL d   1       2.776  -6.045   1.735  0.00  0.00    -0.149 SA
BRANCH  17  18
ATOM     18  C   UNL d   1       1.345  -7.004   2.343  0.00  0.00     0.184 C 
BRANCH  18  19
ATOM     19  C   UNL d   1       1.093  -8.258   1.536  0.00  0.00     0.149 C 
ATOM     20  O   UNL d   1       1.684  -9.313   1.712  0.00  0.00    -0.649 OA
BRANCH  19  21
ATOM     21  O   UNL d   1       0.159  -8.116   0.566  0.00  0.00    -0.776 OA
ATOM     22  H   UNL d   1      -0.213  -7.205   0.473  0.00  0.00     0.167 HD
ENDBRANCH  19  21
ENDBRANCH  18  19
ENDBRANCH  17  18
ENDBRANCH  16  17
ENDBRANCH   1  16
TORSDOF 8
