REMARK  4 active torsions:
REMARK  status: ('A' for Active; 'I' for Inactive)
REMARK    1  A    between atoms: C_3  and  C_1 
REMARK    2  A    between atoms: C_16  and  N_2 
REMARK    3  A    between atoms: C_15  and  C_8 
REMARK    4  A    between atoms: N_18  and  C_11 
ROOT
ATOM      1  C   UNL d   1      -0.482  -2.752   0.014  0.00  0.00     0.054 A 
ATOM      2  C   UNL d   1      -1.067  -3.378  -1.085  0.00  0.00     0.060 A 
ATOM      3  N   UNL d   1      -1.290  -4.724  -1.099  0.00  0.00    -0.331 N 
ATOM      4  HN  UNL d   1      -1.695  -5.176  -1.919  1.00  0.00     0.168 HD
ATOM      5  C   UNL d   1      -0.969  -5.435  -0.020  0.00  0.00     0.155 A 
ATOM      6  C   UNL d   1      -0.204  -3.600   1.076  0.00  0.00     0.108 A 
ATOM      7  N   UNL d   1      -0.408  -4.930   1.074  0.00  0.00    -0.342 N 
ATOM      8  HN  UNL d   1      -0.146  -5.517   1.866  1.00  0.00     0.167 HD
ENDROOT
BRANCH   1   9
ATOM      9  C   UNL d   1      -0.233  -1.319   0.133  0.00  0.00     0.152 A 
ATOM     10  N   UNL d   1       0.895  -0.696   0.671  0.00  0.00    -0.224 N 
ATOM     11  N   UNL d   1       0.622   0.623   0.805  0.00  0.00     0.001 NA
ATOM     12  N   UNL d   1      -0.559   0.814   0.245  0.00  0.00    -0.007 NA
ATOM     13  N   UNL d   1      -1.107  -0.370  -0.156  0.00  0.00    -0.269 N 
ATOM     14  HN  UNL d   1      -2.018  -0.499  -0.596  1.00  0.00     0.185 HD
BRANCH  10  15
ATOM     15  C   UNL d   1       2.138  -1.228   1.093  0.00  0.00     0.056 A 
ATOM     16  C   UNL d   1       2.679  -2.381   0.508  0.00  0.00     0.031 A 
ATOM     17  C   UNL d   1       3.853  -2.935   1.022  0.00  0.00     0.002 A 
ATOM     18  C   UNL d   1       4.493  -2.340   2.107  0.00  0.00     0.000 A 
ATOM     19  C   UNL d   1       3.982  -1.168   2.663  0.00  0.00     0.002 A 
ATOM     20  C   UNL d   1       2.817  -0.599   2.146  0.00  0.00     0.031 A 
ENDBRANCH  10  15
ENDBRANCH   1   9
BRANCH   2  21
ATOM     21  C   UNL d   1      -1.532  -2.700  -2.324  0.00  0.00    -0.007 A 
ATOM     22  C   UNL d   1      -0.840  -1.635  -2.926  0.00  0.00     0.037 A 
ATOM     23  C   UNL d   1      -1.357  -0.974  -4.043  0.00  0.00     0.035 A 
ATOM     24 CL   UNL d   1      -0.516   0.381  -4.694  0.00  0.00    -0.084 Cl
ATOM     25  C   UNL d   1      -2.547  -1.390  -4.628  0.00  0.00     0.024 A 
ATOM     26  C   UNL d   1      -3.225  -2.480  -4.090  0.00  0.00     0.003 A 
ATOM     27  C   UNL d   1      -2.724  -3.120  -2.951  0.00  0.00     0.014 A 
ENDBRANCH   2  21
BRANCH   5  28
ATOM     28  N   UNL d   1      -1.201  -6.792  -0.043  0.00  0.00    -0.274 NA
ATOM     29  H   UNL d   1      -0.583  -7.269   0.597  0.00  0.00     0.127 HD
ATOM     30  H   UNL d   1      -1.249  -7.131  -0.996  0.00  0.00     0.127 HD
ENDBRANCH   5  28
TORSDOF 4
