REMARK  5 active torsions:
REMARK  status: ('A' for Active; 'I' for Inactive)
REMARK    1  A    between atoms: N_2  and  S_1 
REMARK    2  A    between atoms: C_4  and  S_1 
REMARK       I    between atoms: C_3  and  N_2 
REMARK       I    between atoms: N_7  and  C_3 
REMARK    3  A    between atoms: C_13  and  N_7 
REMARK    4  A    between atoms: C_8  and  O_10 
REMARK    5  A    between atoms: O_10  and  C_14 
ROOT
ATOM      1  N   UNL d   1       0.573   1.295  -0.950  0.00  0.00    -0.232 N 
ATOM      2  C   UNL d   1       0.812   2.620  -0.635  0.00  0.00     0.334 C 
ATOM      3  N   UNL d   1       1.561   2.927   0.478  0.00  0.00    -0.308 N 
ATOM      4  O   UNL d   1       0.328   3.537  -1.285  0.00  0.00    -0.246 OA
ATOM      5  H   UNL d   1       0.868   0.560  -0.330  0.00  0.00     0.183 HD
ATOM      6  H   UNL d   1       1.470   3.913   0.690  0.00  0.00     0.170 HD
ENDROOT
BRANCH   1   7
ATOM      7  S   UNL d   1      -0.643   0.723  -1.918  0.00  0.00     0.266 S 
ATOM      8  O   UNL d   1      -1.905   1.120  -1.331  0.00  0.00    -0.200 OA
ATOM      9  O   UNL d   1      -0.339  -0.687  -2.083  0.00  0.00    -0.200 OA
BRANCH   7  10
ATOM     10  C   UNL d   1      -0.470   1.482  -3.509  0.00  0.00     0.080 A 
ATOM     11  C   UNL d   1       0.402   0.941  -4.458  0.00  0.00     0.026 A 
ATOM     12  C   UNL d   1       0.343   1.392  -5.782  0.00  0.00     0.008 A 
ATOM     13  C   UNL d   1      -0.595   2.364  -6.164  0.00  0.00    -0.062 A 
ATOM     14  C   UNL d   1      -1.434   2.923  -5.194  0.00  0.00     0.008 A 
ATOM     15  C   UNL d   1      -0.724   2.762  -7.605  0.00  0.00     0.048 C 
ATOM     16  C   UNL d   1      -1.376   2.482  -3.872  0.00  0.00     0.026 A 
ENDBRANCH   7  10
ENDBRANCH   1   7
BRANCH   3  17
ATOM     17  C   UNL d   1       2.207   2.127   1.439  0.00  0.00     0.036 A 
ATOM     18  C   UNL d   1       2.657   0.823   1.225  0.00  0.00     0.032 A 
ATOM     19  C   UNL d   1       3.173   0.054   2.280  0.00  0.00     0.039 A 
ATOM     20  C   UNL d   1       3.299   0.601   3.554  0.00  0.00     0.075 A 
ATOM     21  C   UNL d   1       2.944   1.936   3.748  0.00  0.00     0.039 A 
ATOM     22  C   UNL d   1       2.415   2.697   2.699  0.00  0.00     0.032 A 
BRANCH  20  23
ATOM     23  O   UNL d   1       3.749  -0.041   4.671  0.00  0.00    -0.290 OA
BRANCH  23  24
ATOM     24  C   UNL d   1       4.248  -1.357   4.505  0.00  0.00     0.505 C 
ATOM     25  F   UNL d   1       5.404  -1.303   3.799  0.00  0.00    -0.184 F 
ATOM     26  F   UNL d   1       4.565  -1.829   5.737  0.00  0.00    -0.184 F 
ENDBRANCH  23  24
ENDBRANCH  20  23
ENDBRANCH   3  17
TORSDOF 5
