REMARK  6 active torsions:
REMARK  status: ('A' for Active; 'I' for Inactive)
REMARK       I    between atoms: N_4  and  C_1 
REMARK    1  A    between atoms: C_6  and  C_1 
REMARK    2  A    between atoms: C_2  and  C_3 
REMARK    3  A    between atoms: C_5  and  N_4 
REMARK    4  A    between atoms: C_15  and  C_6 
REMARK    5  A    between atoms: C_16  and  C_6 
REMARK    6  A    between atoms: O_17  and  C_11 
ROOT
ATOM      1  C   UNL d   1       1.115  -0.226  -0.092  0.00  0.00     0.231 C 
ATOM      2  N   UNL d   1       2.257  -0.916  -0.488  0.00  0.00    -0.326 N 
ATOM      3  O   UNL d   1       0.860   0.939  -0.375  0.00  0.00    -0.272 OA
ATOM      4  H   UNL d   1       2.366  -1.852  -0.118  0.00  0.00     0.169 HD
ENDROOT
BRANCH   1   5
ATOM      5  C   UNL d   1       0.178  -1.106   0.766  0.00  0.00     0.115 C 
BRANCH   5   6
ATOM      6  C   UNL d   1       0.528  -1.038   2.247  0.00  0.00    -0.045 A 
ATOM      7  C   UNL d   1       0.579   0.181   2.939  0.00  0.00     0.008 A 
ATOM      8  C   UNL d   1       0.857   0.211   4.307  0.00  0.00     0.001 A 
ATOM      9  C   UNL d   1       1.099  -0.974   4.999  0.00  0.00     0.000 A 
ATOM     10  C   UNL d   1       1.063  -2.192   4.323  0.00  0.00     0.001 A 
ATOM     11  C   UNL d   1       0.777  -2.224   2.958  0.00  0.00     0.008 A 
ENDBRANCH   5   6
BRANCH   5  12
ATOM     12  C   UNL d   1      -1.337  -0.926   0.521  0.00  0.00     0.003 C 
ATOM     13  C   UNL d   1      -1.758  -1.292  -0.906  0.00  0.00     0.006 C 
ATOM     14  C   UNL d   1      -3.161  -0.711  -1.068  0.00  0.00     0.000 C 
ATOM     15  C   UNL d   1      -3.341   0.300   0.062  0.00  0.00     0.000 C 
ATOM     16  C   UNL d   1      -1.966   0.455   0.705  0.00  0.00     0.006 C 
ENDBRANCH   5  12
ENDBRANCH   1   5
BRANCH   2  17
ATOM     17  C   UNL d   1       3.265  -0.489  -1.381  0.00  0.00     0.038 A 
ATOM     18  C   UNL d   1       3.317   0.780  -1.958  0.00  0.00     0.046 A 
ATOM     19  C   UNL d   1       4.337   1.117  -2.864  0.00  0.00     0.052 A 
ATOM     20  C   UNL d   1       5.304   0.155  -3.191  0.00  0.00     0.053 A 
ATOM     21  C   UNL d   1       5.249  -1.123  -2.640  0.00  0.00     0.071 A 
ATOM     22  C   UNL d   1       4.248  -1.433  -1.718  0.00  0.00     0.066 A 
BRANCH  19  23
ATOM     23  C   UNL d   1       4.400   2.481  -3.506  0.00  0.00     0.417 C 
ATOM     24  F   UNL d   1       3.395   3.317  -3.130  0.00  0.00    -0.166 F 
ATOM     25  F   UNL d   1       5.559   3.138  -3.219  0.00  0.00    -0.166 F 
ATOM     26  F   UNL d   1       4.339   2.414  -4.866  0.00  0.00    -0.166 F 
ENDBRANCH  19  23
BRANCH  21  27
ATOM     27  O   UNL d   1       6.228  -1.981  -3.059  0.00  0.00    -0.356 OA
ATOM     28  C   UNL d   1       5.894  -3.365  -3.014  0.00  0.00     0.210 C 
ENDBRANCH  21  27
ENDBRANCH   2  17
TORSDOF 6
