REMARK  4 active torsions:
REMARK  status: ('A' for Active; 'I' for Inactive)
REMARK    1  A    between atoms: C_2  and  C_1 
REMARK       I    between atoms: N_8  and  C_2 
REMARK    2  A    between atoms: C_11  and  C_5 
REMARK    3  A    between atoms: C_9  and  N_8 
REMARK    4  A    between atoms: N_13  and  C_12 
ROOT
ATOM      1  C   UNL d   1      -0.081  -1.205   0.259  0.00  0.00     0.093 A 
ATOM      2  N   UNL d   1      -1.256   0.747   0.332  0.00  0.00    -0.259 N 
ATOM      3  HN  UNL d   1      -2.015   1.427   0.382  1.00  0.00     0.195 HD
ATOM      4  C   UNL d   1      -1.375  -0.593   0.367  0.00  0.00     0.083 A 
ATOM      5  O   UNL d   1       0.081   1.022   0.215  0.00  0.00    -0.241 OA
ATOM      6  C   UNL d   1       0.789  -0.133   0.172  0.00  0.00     0.090 A 
ATOM      7  C   UNL d   1       2.247   0.031   0.000  0.00  0.00     0.080 C 
ENDROOT
BRANCH   1   8
ATOM      8  C   UNL d   1       0.242  -2.619   0.178  0.00  0.00     0.261 C 
ATOM      9  N   UNL d   1       1.446  -2.970   0.765  0.00  0.00    -0.321 N 
ATOM     10  H   UNL d   1       1.875  -2.253   1.334  0.00  0.00     0.169 HD
ATOM     11  O   UNL d   1      -0.544  -3.404  -0.334  0.00  0.00    -0.267 OA
BRANCH   9  12
ATOM     12  C   UNL d   1       2.047  -4.253   0.883  0.00  0.00     0.056 A 
ATOM     13  C   UNL d   1       1.702  -5.410   0.152  0.00  0.00     0.033 A 
ATOM     14  C   UNL d   1       2.389  -6.610   0.418  0.00  0.00     0.025 A 
ATOM     15  C   UNL d   1       3.363  -6.693   1.411  0.00  0.00     0.002 A 
ATOM     16  C   UNL d   1       3.711  -5.554   2.123  0.00  0.00     0.002 A 
ATOM     17  C   UNL d   1       3.068  -4.344   1.851  0.00  0.00     0.031 A 
BRANCH  13  18
ATOM     18  N   UNL d   1       0.907  -5.393  -1.010  0.00  0.00    -0.301 NA
ATOM     19  H   UNL d   1       0.243  -4.613  -1.012  0.00  0.00     0.124 HD
ATOM     20  H   UNL d   1       0.394  -6.258  -1.145  0.00  0.00     0.124 HD
ENDBRANCH  13  18
ENDBRANCH   9  12
ENDBRANCH   1   8
BRANCH   4  21
ATOM     21  C   UNL d   1      -2.705  -1.191   0.546  0.00  0.00    -0.006 A 
ATOM     22  C   UNL d   1      -3.827  -0.597  -0.055  0.00  0.00     0.014 A 
ATOM     23  C   UNL d   1      -5.111  -1.100   0.170  0.00  0.00     0.001 A 
ATOM     24  C   UNL d   1      -5.290  -2.206   0.996  0.00  0.00     0.000 A 
ATOM     25  C   UNL d   1      -4.186  -2.813   1.591  0.00  0.00     0.001 A 
ATOM     26  C   UNL d   1      -2.900  -2.308   1.369  0.00  0.00     0.014 A 
ENDBRANCH   4  21
TORSDOF 4
