REMARK  9 active torsions:
REMARK  status: ('A' for Active; 'I' for Inactive)
REMARK    1  A    between atoms: C_2  and  N_1 
REMARK    2  A    between atoms: S_3  and  N_1 
REMARK    3  A    between atoms: S_4  and  N_1 
REMARK    4  A    between atoms: C_13  and  S_3 
REMARK    5  A    between atoms: C_12  and  S_4 
REMARK    6  A    between atoms: C_10  and  C_5 
REMARK    7  A    between atoms: C_8  and  C_18 
REMARK    8  A    between atoms: C_9  and  C_19 
REMARK    9  A    between atoms: O_35  and  C_10 
ROOT
ATOM      1  N   UNL d   1       1.085   0.160   0.132  0.00  0.00    -0.155 N 
ENDROOT
BRANCH   1   2
ATOM      2  C   UNL d   1       0.358  -1.040   0.365  0.00  0.00     0.092 A 
ATOM      3  C   UNL d   1       0.129  -2.094  -0.517  0.00  0.00     0.109 A 
ATOM      4  S   UNL d   1      -0.777  -3.353   0.224  0.00  0.00    -0.093 SA
ATOM      5  C   UNL d   1      -0.917  -2.498   1.680  0.00  0.00     0.059 A 
ATOM      6  C   UNL d   1      -0.255  -1.287   1.659  0.00  0.00    -0.025 A 
ATOM      7  C   UNL d   1      -0.213  -0.393   2.857  0.00  0.00     0.051 C 
BRANCH   3   8
ATOM      8  C   UNL d   1       0.513  -2.312  -1.899  0.00  0.00     0.302 C 
ATOM      9  O   UNL d   1       0.702  -3.406  -2.424  0.00  0.00    -0.259 OA
BRANCH   8  10
ATOM     10  O   UNL d   1       0.654  -1.125  -2.543  0.00  0.00    -0.322 OA
ATOM     11  C   UNL d   1       1.117  -1.235  -3.891  0.00  0.00     0.213 C 
ENDBRANCH   8  10
ENDBRANCH   3   8
ENDBRANCH   1   2
BRANCH   1  12
ATOM     12  S   UNL d   1       0.261   1.454  -0.606  0.00  0.00     0.278 S 
ATOM     13  O   UNL d   1       1.132   2.242  -1.448  0.00  0.00    -0.199 OA
ATOM     14  O   UNL d   1      -1.010   0.979  -1.127  0.00  0.00    -0.199 OA
BRANCH  12  15
ATOM     15  C   UNL d   1      -0.156   2.496   0.794  0.00  0.00     0.081 A 
ATOM     16  C   UNL d   1       0.762   3.438   1.267  0.00  0.00     0.026 A 
ATOM     17  C   UNL d   1       0.388   4.313   2.295  0.00  0.00     0.018 A 
ATOM     18  C   UNL d   1      -0.904   4.265   2.847  0.00  0.00     0.048 A 
ATOM     19  C   UNL d   1      -1.814   3.313   2.360  0.00  0.00     0.018 A 
ATOM     20  C   UNL d   1      -1.447   2.440   1.332  0.00  0.00     0.026 A 
BRANCH  18  21
ATOM     21  C   UNL d   1      -1.309   5.248   3.924  0.00  0.00     0.417 C 
ATOM     22  F   UNL d   1      -2.589   5.081   4.358  0.00  0.00    -0.166 F 
ATOM     23  F   UNL d   1      -0.525   5.155   5.033  0.00  0.00    -0.166 F 
ATOM     24  F   UNL d   1      -1.221   6.541   3.507  0.00  0.00    -0.166 F 
ENDBRANCH  18  21
ENDBRANCH  12  15
ENDBRANCH   1  12
BRANCH   1  25
ATOM     25  S   UNL d   1       2.750   0.161  -0.124  0.00  0.00     0.278 S 
ATOM     26  O   UNL d   1       3.062  -0.192  -1.493  0.00  0.00    -0.199 OA
ATOM     27  O   UNL d   1       3.301   1.361   0.480  0.00  0.00    -0.199 OA
BRANCH  25  28
ATOM     28  C   UNL d   1       3.392  -1.191   0.868  0.00  0.00     0.081 A 
ATOM     29  C   UNL d   1       3.613  -2.442   0.276  0.00  0.00     0.026 A 
ATOM     30  C   UNL d   1       4.297  -3.436   0.983  0.00  0.00     0.018 A 
ATOM     31  C   UNL d   1       4.792  -3.182   2.271  0.00  0.00     0.048 A 
ATOM     32  C   UNL d   1       4.559  -1.924   2.853  0.00  0.00     0.018 A 
ATOM     33  C   UNL d   1       3.866  -0.930   2.156  0.00  0.00     0.026 A 
BRANCH  31  34
ATOM     34  C   UNL d   1       5.608  -4.215   3.016  0.00  0.00     0.417 C 
ATOM     35  F   UNL d   1       5.759  -5.386   2.338  0.00  0.00    -0.166 F 
ATOM     36  F   UNL d   1       6.868  -3.777   3.291  0.00  0.00    -0.166 F 
ATOM     37  F   UNL d   1       5.057  -4.545   4.216  0.00  0.00    -0.166 F 
ENDBRANCH  31  34
ENDBRANCH  25  28
ENDBRANCH   1  25
TORSDOF 9
