REMARK  4 active torsions:
REMARK  status: ('A' for Active; 'I' for Inactive)
REMARK    1  A    between atoms: N_4  and  C_1 
REMARK    2  A    between atoms: S_12  and  C_3 
REMARK       I    between atoms: C_9  and  N_4 
REMARK    3  A    between atoms: C_11  and  C_9 
REMARK    4  A    between atoms: C_13  and  S_12 
ROOT
ATOM      1  C   UNL d   1      -1.030   0.914  -0.287  0.00  0.00     0.168 A 
ATOM      2  S   UNL d   1      -0.737  -0.440  -1.287  0.00  0.00    -0.026 SA
ATOM      3  C   UNL d   1      -0.164  -1.257   0.100  0.00  0.00     0.135 A 
ATOM      4  N   UNL d   1      -0.612   0.764   0.952  0.00  0.00    -0.278 N 
ATOM      5  HN  UNL d   1      -0.645   1.499   1.658  1.00  0.00     0.189 HD
ATOM      6  N   UNL d   1      -0.120  -0.512   1.185  0.00  0.00    -0.286 N 
ATOM      7  HN  UNL d   1       0.233  -0.834   2.086  1.00  0.00     0.188 HD
ENDROOT
BRANCH   3   8
ATOM      8  S   UNL d   1       0.155  -2.976   0.122  0.00  0.00    -0.063 SA
BRANCH   8   9
ATOM      9  C   UNL d   1       1.951  -2.997   0.057  0.00  0.00     0.021 A 
ATOM     10  C   UNL d   1       2.656  -3.751  -0.926  0.00  0.00     0.008 A 
ATOM     11  C   UNL d   1       4.064  -3.809  -0.800  0.00  0.00     0.045 A 
ATOM     12  C   UNL d   1       2.053  -4.454  -2.003  0.00  0.00     0.017 A 
ATOM     13  C   UNL d   1       4.803  -4.558  -1.705  0.00  0.00     0.054 A 
ATOM     14  N   UNL d   1       4.734  -3.182   0.176  0.00  0.00    -0.365 N 
ATOM     15  C   UNL d   1       4.192  -5.252  -2.744  0.00  0.00     0.036 A 
ATOM     16  C   UNL d   1       2.816  -5.199  -2.904  0.00  0.00     0.025 A 
ATOM     17 CL   UNL d   1       5.145  -6.185  -3.831  0.00  0.00    -0.084 Cl
ATOM     18  C   UNL d   1       4.035  -2.481   1.089  0.00  0.00     0.090 A 
ATOM     19  HN  UNL d   1       5.751  -3.235   0.227  1.00  0.00     0.165 HD
ATOM     20  C   UNL d   1       2.662  -2.366   1.079  0.00  0.00     0.037 A 
ENDBRANCH   8   9
ENDBRANCH   3   8
BRANCH   1  21
ATOM     21  N   UNL d   1      -1.667   2.055  -0.723  0.00  0.00    -0.306 N 
ATOM     22  C   UNL d   1      -2.206   2.249  -1.970  0.00  0.00     0.227 C 
ATOM     23  O   UNL d   1      -2.166   1.473  -2.916  0.00  0.00    -0.273 OA
ATOM     24  H   UNL d   1      -1.771   2.761  -0.012  0.00  0.00     0.171 HD
BRANCH  22  25
ATOM     25  C   UNL d   1      -2.917   3.541  -2.196  0.00  0.00     0.078 A 
ATOM     26  C   UNL d   1      -2.093   4.802  -2.330  0.00  0.00     0.015 A 
ATOM     27  C   UNL d   1      -3.096   4.675  -1.220  0.00  0.00     0.015 A 
ENDBRANCH  22  25
ENDBRANCH   1  21
TORSDOF 4
