REMARK  4 active torsions:
REMARK  status: ('A' for Active; 'I' for Inactive)
REMARK    1  A    between atoms: C_5  and  C_1 
REMARK    2  A    between atoms: C_2  and  C_4 
REMARK       I    between atoms: C_3  and  N_6 
REMARK    3  A    between atoms: C_12  and  C_3 
REMARK    4  A    between atoms: N_6  and  C_7 
ROOT
ATOM      1  C   UNL d   1       0.175   2.587  -2.608  0.00  0.00     0.050 A 
ATOM      2  C   UNL d   1       0.546   0.676  -1.143  0.00  0.00     0.050 A 
ATOM      3  C   UNL d   1      -0.659   0.380  -3.250  0.00  0.00     0.036 A 
ATOM      4  C   UNL d   1       0.682   2.043  -1.418  0.00  0.00     0.032 A 
ATOM      5  C   UNL d   1      -0.481   1.741  -3.525  0.00  0.00     0.045 A 
ATOM      6  C   UNL d   1      -0.113  -0.141  -2.074  0.00  0.00     0.045 A 
ENDROOT
BRANCH   3   7
ATOM      7  N   UNL d   1      -1.403  -0.398  -4.167  0.00  0.00    -0.323 N 
ATOM      8  C   UNL d   1      -1.926  -1.658  -3.907  0.00  0.00     0.256 C 
ATOM      9  O   UNL d   1      -1.836  -2.270  -2.845  0.00  0.00    -0.267 OA
ATOM     10  H   UNL d   1      -1.710   0.062  -5.013  0.00  0.00     0.169 HD
BRANCH   8  11
ATOM     11  C   UNL d   1      -2.719  -2.295  -4.992  0.00  0.00     0.032 A 
ATOM     12  C   UNL d   1      -2.419  -2.122  -6.348  0.00  0.00     0.017 A 
ATOM     13  C   UNL d   1      -3.164  -2.808  -7.313  0.00  0.00     0.001 A 
ATOM     14  C   UNL d   1      -4.201  -3.662  -6.930  0.00  0.00     0.000 A 
ATOM     15  C   UNL d   1      -4.500  -3.837  -5.581  0.00  0.00     0.001 A 
ATOM     16  C   UNL d   1      -3.760  -3.157  -4.615  0.00  0.00     0.017 A 
ENDBRANCH   8  11
ENDBRANCH   3   7
BRANCH   2  17
ATOM     17  C   UNL d   1       1.072   0.063   0.133  0.00  0.00     0.417 C 
ATOM     18  F   UNL d   1       1.634   0.975   0.976  0.00  0.00    -0.166 F 
ATOM     19  F   UNL d   1       2.033  -0.874  -0.095  0.00  0.00    -0.166 F 
ATOM     20  F   UNL d   1       0.100  -0.558   0.856  0.00  0.00    -0.166 F 
ENDBRANCH   2  17
BRANCH   1  21
ATOM     21  C   UNL d   1       0.303   4.063  -2.901  0.00  0.00     0.417 C 
ATOM     22  F   UNL d   1       0.888   4.769  -1.894  0.00  0.00    -0.166 F 
ATOM     23  F   UNL d   1       1.048   4.309  -4.013  0.00  0.00    -0.166 F 
ATOM     24  F   UNL d   1      -0.903   4.654  -3.119  0.00  0.00    -0.166 F 
ENDBRANCH   1  21
TORSDOF 4
