REMARK  2 active torsions:
REMARK  status: ('A' for Active; 'I' for Inactive)
REMARK    1  A    between atoms: C_13  and  N_1 
REMARK    2  A    between atoms: C_6  and  C_14 
ROOT
ATOM      1  C   UNL d   1       1.282   2.314   0.137  0.00  0.00     0.059 A 
ATOM      2  C   UNL d   1       2.705   4.771   0.204  0.00  0.00    -0.008 A 
ATOM      3  C   UNL d   1       2.283   2.593  -0.801  0.00  0.00     0.032 A 
ATOM      4  C   UNL d   1       1.007   3.285   1.111  0.00  0.00     0.032 A 
ATOM      5  C   UNL d   1       1.716   4.492   1.153  0.00  0.00     0.016 A 
ATOM      6  C   UNL d   1       2.981   3.809  -0.774  0.00  0.00     0.016 A 
ENDROOT
BRANCH   1   7
ATOM      7  N   UNL d   1       0.560   1.095   0.119  0.00  0.00    -0.224 N 
ATOM      8  C   UNL d   1       0.802  -0.037  -0.676  0.00  0.00     0.248 A 
ATOM      9  C   UNL d   1      -0.262  -1.013  -0.274  0.00  0.00     0.158 A 
ATOM     10  O   UNL d   1       1.666  -0.263  -1.510  0.00  0.00    -0.271 OA
ATOM     11  C   UNL d   1      -1.049  -0.197   0.696  0.00  0.00     0.009 A 
ATOM     12  N   UNL d   1      -0.552   0.975   0.933  0.00  0.00    -0.299 N 
ATOM     13  C   UNL d   1      -2.293  -0.716   1.329  0.00  0.00     0.065 C 
ATOM     14  HN  UNL d   1      -0.908   1.670   1.589  1.00  0.00     0.187 HD
ENDBRANCH   1   7
BRANCH   2  15
ATOM     15  C   UNL d   1       3.433   6.031   0.265  0.00  0.00     0.063 A 
ATOM     16  N   UNL d   1       3.670   6.669   1.479  0.00  0.00    -0.292 N 
ATOM     17  N   UNL d   1       4.350   7.792   1.323  0.00  0.00    -0.061 NA
ATOM     18  HN  UNL d   1       3.355   6.312   2.381  1.00  0.00     0.183 HD
ATOM     19  S   UNL d   1       4.702   8.122  -0.277  0.00  0.00    -0.010 SA
ATOM     20  C   UNL d   1       3.924   6.701  -0.843  0.00  0.00     0.096 A 
ENDBRANCH   2  15
TORSDOF 2
