REMARK  4 active torsions:
REMARK  status: ('A' for Active; 'I' for Inactive)
REMARK    1  A    between atoms: C_10  and  C_1 
REMARK    2  A    between atoms: O_7  and  C_3 
REMARK    3  A    between atoms: C_8  and  O_7 
REMARK    4  A    between atoms: C_13  and  C_8 
ROOT
ATOM      1  C   UNL d   1      -1.436   2.513   0.151  0.00  0.00     0.077 A 
ATOM      2  C   UNL d   1       0.061   2.466   0.049  0.00  0.00     0.262 A 
ATOM      3  C   UNL d   1      -2.150   1.373   0.173  0.00  0.00     0.108 A 
ATOM      4  N   UNL d   1       0.677   1.220   0.027  0.00  0.00    -0.312 N 
ATOM      5  C   UNL d   1      -1.467   0.064   0.030  0.00  0.00     0.026 A 
ATOM      6  C   UNL d   1      -0.057   0.015   0.017  0.00  0.00     0.057 A 
ATOM      7  O   UNL d   1       0.706   3.516   0.003  0.00  0.00    -0.267 OA
ATOM      8  C   UNL d   1       0.603  -1.220  -0.020  0.00  0.00    -0.030 A 
ATOM      9  C   UNL d   1       2.125   1.235  -0.010  0.00  0.00     0.133 C 
ATOM     10  C   UNL d   1      -2.191  -1.137  -0.059  0.00  0.00     0.017 A 
ATOM     11  C   UNL d   1       2.888  -0.073  -0.089  0.00  0.00     0.025 C 
ATOM     12  C   UNL d   1      -1.537  -2.364  -0.094  0.00  0.00     0.002 A 
ATOM     13  C   UNL d   1      -0.150  -2.405  -0.061  0.00  0.00     0.009 A 
ATOM     14  C   UNL d   1       2.092  -1.353   0.047  0.00  0.00     0.042 C 
ENDROOT
BRANCH   3  15
ATOM     15  O   UNL d   1      -3.563   1.378   0.322  0.00  0.00    -0.273 OA
BRANCH  15  16
ATOM     16  C   UNL d   1      -3.983   0.947   1.551  0.00  0.00     0.298 C 
ATOM     17  O   UNL d   1      -3.272   0.541   2.465  0.00  0.00    -0.259 OA
BRANCH  16  18
ATOM     18  C   UNL d   1      -5.459   0.972   1.677  0.00  0.00     0.039 A 
ATOM     19  C   UNL d   1      -6.241   1.971   1.092  0.00  0.00     0.017 A 
ATOM     20  C   UNL d   1      -7.609   2.050   1.393  0.00  0.00     0.001 A 
ATOM     21  C   UNL d   1      -8.194   1.124   2.262  0.00  0.00     0.000 A 
ATOM     22  C   UNL d   1      -7.426   0.100   2.813  0.00  0.00     0.001 A 
ATOM     23  C   UNL d   1      -6.062   0.025   2.522  0.00  0.00     0.017 A 
ENDBRANCH  16  18
ENDBRANCH  15  16
ENDBRANCH   3  15
BRANCH   1  24
ATOM     24  C   UNL d   1      -2.066   3.842   0.254  0.00  0.00    -0.018 A 
ATOM     25  C   UNL d   1      -2.278   4.430   1.508  0.00  0.00     0.012 A 
ATOM     26  C   UNL d   1      -2.740   5.745   1.599  0.00  0.00     0.001 A 
ATOM     27  C   UNL d   1      -2.997   6.478   0.441  0.00  0.00     0.000 A 
ATOM     28  C   UNL d   1      -2.801   5.896  -0.811  0.00  0.00     0.001 A 
ATOM     29  C   UNL d   1      -2.338   4.582  -0.906  0.00  0.00     0.012 A 
ENDBRANCH   1  24
TORSDOF 4
