REMARK  5 active torsions:
REMARK  status: ('A' for Active; 'I' for Inactive)
REMARK    1  A    between atoms: C_2  and  C_1 
REMARK    2  A    between atoms: C_6  and  C_5 
REMARK    3  A    between atoms: C_16  and  C_6 
REMARK    4  A    between atoms: S_11  and  C_7 
REMARK    5  A    between atoms: C_8  and  S_11 
ROOT
ATOM      1  C   UNL d   1       1.631  -1.980   2.122  0.00  0.00     0.063 A 
ATOM      2  N   UNL d   1       1.341  -4.371   1.884  0.00  0.00    -0.360 N 
ATOM      3  HN  UNL d   1       1.717  -5.315   1.972  1.00  0.00     0.166 HD
ATOM      4  C   UNL d   1       0.082  -4.159   1.436  0.00  0.00     0.073 A 
ATOM      5  C   UNL d   1       2.084  -3.288   2.211  0.00  0.00     0.105 A 
ATOM      6  C   UNL d   1       0.325  -1.784   1.663  0.00  0.00     0.020 A 
ATOM      7  C   UNL d   1      -0.460  -2.884   1.318  0.00  0.00     0.038 A 
ENDROOT
BRANCH   4   8
ATOM      8  S   UNL d   1      -0.938  -5.574   1.048  0.00  0.00    -0.084 SA
BRANCH   8   9
ATOM      9  C   UNL d   1       0.263  -6.711   0.529  0.00  0.00     0.056 C 
ATOM     10  C   UNL d   1       0.090  -8.026   0.718  0.00  0.00     0.063 C 
BRANCH  10  11
ATOM     11  C   UNL d   1       1.137  -8.975   0.262  0.00  0.00     0.182 C 
ATOM     12  O   UNL d   1       1.919  -8.694  -0.639  0.00  0.00    -0.288 OA
BRANCH  11  13
ATOM     13  C   UNL d   1       1.178 -10.312   0.910  0.00  0.00     0.014 A 
ATOM     14  C   UNL d   1       1.655 -11.401   0.169  0.00  0.00     0.015 A 
ATOM     15  C   UNL d   1       1.728 -12.668   0.752  0.00  0.00     0.001 A 
ATOM     16  C   UNL d   1       1.339 -12.850   2.079  0.00  0.00     0.000 A 
ATOM     17  C   UNL d   1       0.878 -11.767   2.826  0.00  0.00     0.001 A 
ATOM     18  C   UNL d   1       0.799 -10.498   2.247  0.00  0.00     0.015 A 
ENDBRANCH  11  13
ENDBRANCH  10  11
ENDBRANCH   8   9
ENDBRANCH   4   8
BRANCH   1  19
ATOM     19  C   UNL d   1       2.511  -0.832   2.507  0.00  0.00     0.418 C 
ATOM     20  F   UNL d   1       3.738  -1.211   2.960  0.00  0.00    -0.166 F 
ATOM     21  F   UNL d   1       1.968  -0.070   3.496  0.00  0.00    -0.166 F 
ATOM     22  F   UNL d   1       2.743   0.016   1.468  0.00  0.00    -0.166 F 
ENDBRANCH   1  19
TORSDOF 5
