REMARK  3 active torsions:
REMARK  status: ('A' for Active; 'I' for Inactive)
REMARK    1  A    between atoms: N_10  and  C_1 
REMARK    2  A    between atoms: S_12  and  C_8 
REMARK    3  A    between atoms: N_13  and  C_9 
ROOT
ATOM      1  C   UNL d   1      -2.205  -0.875   1.131  0.00  0.00     0.684 A 
ATOM      2  N   UNL d   1      -1.567   0.253   0.850  0.00  0.00    -0.170 N 
ATOM      3  HN  UNL d   1      -1.882   0.880   0.110  1.00  0.00     0.186 HD
ATOM      4  N   UNL d   1      -1.801  -1.717   2.076  0.00  0.00    -0.166 N 
ATOM      5  HN  UNL d   1      -2.322  -2.564   2.306  1.00  0.00     0.187 HD
ATOM      6  N   UNL d   1       0.002  -0.277   2.519  0.00  0.00    -0.312 N 
ATOM      7  HN  UNL d   1       0.841  -0.048   3.051  1.00  0.00     0.170 HD
ATOM      8  C   UNL d   1      -0.496   0.520   1.585  0.00  0.00     0.161 A 
ATOM      9  C   UNL d   1      -0.680  -1.391   2.702  0.00  0.00     0.171 A 
ENDROOT
BRANCH   1  10
ATOM     10  N   UNL d   1      -3.377  -1.104   0.439  0.00  0.00    -0.216 N 
ATOM     11  C   UNL d   1      -4.288  -2.152   0.896  0.00  0.00     0.151 C 
ATOM     12  C   UNL d   1      -5.734  -1.787   0.523  0.00  0.00     0.094 C 
ATOM     13  S   UNL d   1      -5.990  -1.492  -1.268  0.00  0.00    -0.166 SA
ATOM     14  C   UNL d   1      -4.587  -0.354  -1.551  0.00  0.00     0.094 C 
ATOM     15  C   UNL d   1      -3.281  -0.937  -1.015  0.00  0.00     0.151 C 
ENDBRANCH   1  10
BRANCH   8  16
ATOM     16  S   UNL d   1       0.334   2.072   1.327  0.00  0.00    -0.098 SA
ATOM     17  C   UNL d   1      -0.829   2.874   0.191  0.00  0.00     0.099 C 
ENDBRANCH   8  16
BRANCH   9  18
ATOM     18  N   UNL d   1      -0.199  -2.266   3.655  0.00  0.00    -0.273 NA
ATOM     19  H   UNL d   1       0.390  -1.778   4.316  0.00  0.00     0.127 HD
ATOM     20  H   UNL d   1      -0.946  -2.837   4.027  0.00  0.00     0.127 HD
ENDBRANCH   9  18
TORSDOF 3
