REMARK  9 active torsions:
REMARK  status: ('A' for Active; 'I' for Inactive)
REMARK       I    between atoms: N_6  and  C_1 
REMARK    1  A    between atoms: C_10  and  C_1 
REMARK    2  A    between atoms: C_4  and  C_10 
REMARK    3  A    between atoms: C_13  and  C_4 
REMARK    4  A    between atoms: O_12  and  C_5 
REMARK    5  A    between atoms: C_17  and  N_6 
REMARK    6  A    between atoms: C_7  and  C_13 
REMARK    7  A    between atoms: O_21  and  C_7 
REMARK    8  A    between atoms: C_8  and  C_9 
REMARK    9  A    between atoms: C_19  and  O_12 
ROOT
ATOM      1  N   UNL d   1       1.384  -0.476  -4.847  0.00  0.00    -0.344 N 
ATOM      2  HN  UNL d   1       1.102  -0.077  -5.742  1.00  0.00     0.167 HD
ATOM      3  C   UNL d   1       2.414  -1.342  -4.756  0.00  0.00     0.148 A 
ATOM      4  C   UNL d   1       1.101  -0.638  -2.444  0.00  0.00     0.050 A 
ATOM      5  C   UNL d   1       0.740  -0.160  -3.701  0.00  0.00     0.119 A 
ATOM      6  C   UNL d   1       2.892  -1.830  -3.549  0.00  0.00     0.059 A 
ATOM      7  C   UNL d   1       2.225  -1.462  -2.376  0.00  0.00     0.035 A 
ENDROOT
BRANCH   4   8
ATOM      8  N   UNL d   1       0.405  -0.327  -1.257  0.00  0.00    -0.326 N 
ATOM      9  C   UNL d   1      -0.854   0.257  -1.201  0.00  0.00     0.222 C 
ATOM     10  O   UNL d   1      -1.566   0.490  -2.169  0.00  0.00    -0.273 OA
ATOM     11  H   UNL d   1       0.811  -0.646  -0.385  0.00  0.00     0.169 HD
BRANCH   9  12
ATOM     12  C   UNL d   1      -1.273   0.607   0.216  0.00  0.00     0.113 C 
BRANCH  12  13
ATOM     13  C   UNL d   1      -2.701   1.200   0.358  0.00  0.00    -0.023 C 
ATOM     14  C   UNL d   1      -2.812   2.553  -0.391  0.00  0.00     0.010 C 
ATOM     15  C   UNL d   1      -3.708   3.465   0.443  0.00  0.00     0.001 C 
ATOM     16  C   UNL d   1      -3.939   2.765   1.772  0.00  0.00     0.001 C 
ATOM     17  C   UNL d   1      -2.930   1.628   1.824  0.00  0.00     0.010 C 
BRANCH  13  18
ATOM     18  C   UNL d   1      -3.827   0.248  -0.141  0.00  0.00     0.119 C 
BRANCH  18  19
ATOM     19  C   UNL d   1      -3.854  -1.136   0.476  0.00  0.00     0.140 C 
ATOM     20  O   UNL d   1      -3.127  -1.534   1.372  0.00  0.00    -0.650 OA
BRANCH  19  21
ATOM     21  O   UNL d   1      -4.807  -1.923  -0.076  0.00  0.00    -0.776 OA
ATOM     22  H   UNL d   1      -5.304  -1.490  -0.796  0.00  0.00     0.167 HD
ENDBRANCH  19  21
ENDBRANCH  18  19
ENDBRANCH  13  18
ENDBRANCH  12  13
ENDBRANCH   9  12
ENDBRANCH   4   8
BRANCH   3  23
ATOM     23  O   UNL d   1       3.028  -1.781  -5.922  0.00  0.00    -0.294 OA
BRANCH  23  24
ATOM     24  C   UNL d   1       2.233  -1.852  -7.048  0.00  0.00     0.077 A 
ATOM     25  C   UNL d   1       2.785  -1.444  -8.257  0.00  0.00     0.038 A 
ATOM     26  C   UNL d   1       2.021  -1.499  -9.431  0.00  0.00     0.011 A 
ATOM     27  C   UNL d   1       0.692  -1.973  -9.426  0.00  0.00    -0.050 A 
ATOM     28  C   UNL d   1       0.169  -2.400  -8.196  0.00  0.00     0.011 A 
ATOM     29  C   UNL d   1       0.934  -2.361  -7.028  0.00  0.00     0.038 A 
BRANCH  27  30
ATOM     30  C   UNL d   1      -0.126  -2.034 -10.728  0.00  0.00    -0.024 C 
ATOM     31  C   UNL d   1      -1.561  -2.577 -10.533  0.00  0.00     0.019 C 
ATOM     32  C   UNL d   1      -0.255  -0.625 -11.345  0.00  0.00     0.019 C 
ATOM     33  C   UNL d   1       0.581  -2.967 -11.733  0.00  0.00     0.019 C 
ENDBRANCH  27  30
ENDBRANCH  23  24
ENDBRANCH   3  23
TORSDOF 9
