REMARK  4 active torsions:
REMARK  status: ('A' for Active; 'I' for Inactive)
REMARK    1  A    between atoms: C_8  and  C_1 
REMARK    2  A    between atoms: C_9  and  N_2 
REMARK    3  A    between atoms: S_11  and  C_5 
REMARK    4  A    between atoms: O_13  and  C_10 
ROOT
ATOM      1  C   UNL d   1      -0.049  -1.273   0.016  0.00  0.00     0.142 A 
ATOM      2  N   UNL d   1       1.167  -0.587  -0.155  0.00  0.00    -0.275 N 
ATOM      3  N   UNL d   1      -1.005  -0.378   0.207  0.00  0.00    -0.282 N 
ATOM      4  HN  UNL d   1      -1.987  -0.592   0.381  1.00  0.00     0.188 HD
ATOM      5  C   UNL d   1       0.814   0.752  -0.083  0.00  0.00     0.165 A 
ATOM      6  N   UNL d   1      -0.473   0.877   0.135  0.00  0.00    -0.278 N 
ATOM      7  HN  UNL d   1      -0.985   1.754   0.233  1.00  0.00     0.189 HD
ENDROOT
BRANCH   1   8
ATOM      8  C   UNL d   1      -0.271  -2.729   0.098  0.00  0.00     0.043 A 
ATOM      9  C   UNL d   1      -1.405  -3.376  -0.433  0.00  0.00     0.082 A 
ATOM     10  C   UNL d   1      -1.544  -4.771  -0.319  0.00  0.00     0.038 A 
ATOM     11  C   UNL d   1      -0.572  -5.542   0.314  0.00  0.00     0.003 A 
ATOM     12  C   UNL d   1       0.521  -4.917   0.894  0.00  0.00     0.001 A 
ATOM     13  C   UNL d   1       0.651  -3.528   0.811  0.00  0.00     0.018 A 
BRANCH   9  14
ATOM     14  O   UNL d   1      -2.520  -2.771  -0.953  0.00  0.00    -0.355 OA
ATOM     15  C   UNL d   1      -2.317  -1.924  -2.076  0.00  0.00     0.210 C 
ENDBRANCH   9  14
ENDBRANCH   1   8
BRANCH   2  16
ATOM     16  C   UNL d   1       2.474  -1.141  -0.308  0.00  0.00     0.043 A 
ATOM     17  C   UNL d   1       2.690  -2.256  -1.126  0.00  0.00     0.030 A 
ATOM     18  C   UNL d   1       3.944  -2.871  -1.158  0.00  0.00     0.002 A 
ATOM     19  C   UNL d   1       4.995  -2.361  -0.393  0.00  0.00     0.000 A 
ATOM     20  C   UNL d   1       4.796  -1.232   0.396  0.00  0.00     0.002 A 
ATOM     21  C   UNL d   1       3.538  -0.623   0.448  0.00  0.00     0.030 A 
ENDBRANCH   2  16
BRANCH   5  22
ATOM     22  S   UNL d   1       1.837   2.119  -0.404  0.00  0.00    -0.105 SA
ATOM     23  H   UNL d   1       2.903   1.498  -0.924  0.00  0.00     0.110 HD
ENDBRANCH   5  22
TORSDOF 4
