REMARK  6 active torsions:
REMARK  status: ('A' for Active; 'I' for Inactive)
REMARK    1  A    between atoms: O_5  and  C_1 
REMARK    2  A    between atoms: C_2  and  O_5 
REMARK       I    between atoms: N_10  and  C_2 
REMARK    3  A    between atoms: C_3  and  O_6 
REMARK       I    between atoms: N_9  and  C_3 
REMARK    4  A    between atoms: O_6  and  C_4 
REMARK    5  A    between atoms: C_7  and  N_9 
REMARK    6  A    between atoms: C_8  and  N_10 
ROOT
ATOM      1  C   UNL d   1      -1.214  -2.082   0.689  0.00  0.00     0.153 C 
ATOM      2  C   UNL d   1      -2.581  -2.142   0.432  0.00  0.00     0.118 C 
ATOM      3  C   UNL d   1      -0.468  -1.016   0.187  0.00  0.00     0.153 C 
ATOM      4  F   UNL d   1       0.872  -1.069   0.176  0.00  0.00    -0.203 F 
ATOM      5  C   UNL d   1      -3.237  -0.992  -0.032  0.00  0.00     0.040 C 
ATOM      6  C   UNL d   1      -2.494   0.133  -0.409  0.00  0.00     0.006 C 
ATOM      7  C   UNL d   1      -1.100   0.088  -0.380  0.00  0.00     0.045 C 
ENDROOT
BRANCH   1   8
ATOM      8  O   UNL d   1      -0.493  -3.151   1.305  0.00  0.00    -0.255 OA
BRANCH   8   9
ATOM      9  C   UNL d   1      -0.509  -3.866   2.544  0.00  0.00     0.370 C 
ATOM     10  N   UNL d   1      -1.595  -3.672   3.384  0.00  0.00    -0.302 N 
ATOM     11  H   UNL d   1      -2.348  -3.093   3.030  0.00  0.00     0.171 HD
ATOM     12  O   UNL d   1       0.435  -4.616   2.773  0.00  0.00    -0.238 OA
BRANCH  10  13
ATOM     13  C   UNL d   1      -1.793  -4.291   4.667  0.00  0.00     0.040 A 
ATOM     14  C   UNL d   1      -0.814  -5.056   5.322  0.00  0.00     0.053 A 
ATOM     15  C   UNL d   1      -1.065  -5.642   6.574  0.00  0.00     0.037 A 
ATOM     16 CL   UNL d   1       0.164  -6.574   7.344  0.00  0.00    -0.084 Cl
ATOM     17  C   UNL d   1      -2.290  -5.483   7.206  0.00  0.00     0.048 A 
ATOM     18  C   UNL d   1      -3.265  -4.723   6.569  0.00  0.00     0.037 A 
ATOM     19  C   UNL d   1      -3.026  -4.125   5.317  0.00  0.00     0.053 A 
ATOM     20 CL   UNL d   1      -4.794  -4.517   7.341  0.00  0.00    -0.084 Cl
ENDBRANCH  10  13
ENDBRANCH   8   9
ENDBRANCH   1   8
BRANCH   2  21
ATOM     21  O   UNL d   1      -3.131  -3.444   0.363  0.00  0.00    -0.258 OA
BRANCH  21  22
ATOM     22  C   UNL d   1      -4.435  -3.678  -0.081  0.00  0.00     0.370 C 
ATOM     23  N   UNL d   1      -4.424  -4.648  -1.069  0.00  0.00    -0.302 N 
ATOM     24  H   UNL d   1      -3.515  -4.868  -1.438  0.00  0.00     0.171 HD
ATOM     25  O   UNL d   1      -5.397  -3.063   0.342  0.00  0.00    -0.238 OA
BRANCH  23  26
ATOM     26  C   UNL d   1      -5.555  -5.205  -1.711  0.00  0.00     0.040 A 
ATOM     27  C   UNL d   1      -5.383  -5.856  -2.930  0.00  0.00     0.053 A 
ATOM     28  C   UNL d   1      -6.492  -6.394  -3.604  0.00  0.00     0.037 A 
ATOM     29 CL   UNL d   1      -6.276  -7.145  -5.145  0.00  0.00    -0.084 Cl
ATOM     30  C   UNL d   1      -7.763  -6.332  -3.050  0.00  0.00     0.048 A 
ATOM     31  C   UNL d   1      -7.925  -5.716  -1.814  0.00  0.00     0.037 A 
ATOM     32  C   UNL d   1      -6.839  -5.150  -1.142  0.00  0.00     0.053 A 
ATOM     33 CL   UNL d   1      -9.485  -5.669  -1.089  0.00  0.00    -0.084 Cl
ENDBRANCH  23  26
ENDBRANCH  21  22
ENDBRANCH   2  21
TORSDOF 6
