REMARK  6 active torsions:
REMARK  status: ('A' for Active; 'I' for Inactive)
REMARK    1  A    between atoms: C_6  and  N_1 
REMARK    2  A    between atoms: N_10  and  C_6 
REMARK    3  A    between atoms: C_7  and  C_11 
REMARK    4  A    between atoms: O_16  and  C_7 
REMARK    5  A    between atoms: C_15  and  N_10 
REMARK    6  A    between atoms: C_21  and  O_16 
ROOT
ATOM      1  N   UNL d   1       3.958   1.250  -0.191  0.00  0.00    -0.276 NA
ATOM      2  H   UNL d   1       3.867   0.323   0.235  0.00  0.00     0.129 HD
ENDROOT
BRANCH   1   3
ATOM      3  C   UNL d   1       3.011   2.179   0.401  0.00  0.00     0.230 C 
BRANCH   3   4
ATOM      4  N   UNL d   1       1.721   1.551   0.525  0.00  0.00    -0.267 N 
ATOM      5  C   UNL d   1       0.560   2.270   0.417  0.00  0.00     0.262 C 
ATOM      6  C   UNL d   1      -0.524   1.384   0.833  0.00  0.00     0.048 A 
ATOM      7  O   UNL d   1       0.403   3.437   0.117  0.00  0.00    -0.267 OA
ATOM      8  C   UNL d   1      -1.889   1.595   0.870  0.00  0.00     0.018 A 
ATOM      9  C   UNL d   1       0.048   0.203   1.266  0.00  0.00     0.048 A 
ATOM     10  C   UNL d   1      -2.684   0.551   1.354  0.00  0.00     0.001 A 
ATOM     11  C   UNL d   1      -2.101  -0.656   1.794  0.00  0.00     0.001 A 
ATOM     12  C   UNL d   1      -0.714  -0.839   1.758  0.00  0.00     0.018 A 
ATOM     13  C   UNL d   1       1.500   0.343   1.126  0.00  0.00     0.262 C 
ATOM     14  O   UNL d   1       2.304  -0.474   1.521  0.00  0.00    -0.267 OA
ENDBRANCH   3   4
ENDBRANCH   1   3
BRANCH   1  15
ATOM     15  C   UNL d   1       5.310   1.605  -0.277  0.00  0.00     0.009 A 
ATOM     16  C   UNL d   1       5.907   2.647   0.444  0.00  0.00     0.024 A 
ATOM     17  C   UNL d   1       7.270   2.941   0.301  0.00  0.00     0.019 A 
ATOM     18  C   UNL d   1       8.064   2.184  -0.559  0.00  0.00     0.039 A 
ATOM     19  C   UNL d   1       7.488   1.136  -1.282  0.00  0.00     0.019 A 
ATOM     20  C   UNL d   1       6.127   0.845  -1.126  0.00  0.00     0.024 A 
BRANCH  18  21
ATOM     21  C   UNL d   1       9.482   2.577  -0.742  0.00  0.00     0.293 C 
ATOM     22  O   UNL d   1       9.891   3.716  -0.604  0.00  0.00    -0.259 OA
BRANCH  21  23
ATOM     23  O   UNL d   1      10.201   1.497  -1.134  0.00  0.00    -0.318 OA
BRANCH  23  24
ATOM     24  C   UNL d   1      11.459   1.795  -1.753  0.00  0.00     0.174 C 
ATOM     25  C   UNL d   1      11.199   1.961  -3.239  0.00  0.00     0.034 C 
ENDBRANCH  23  24
ENDBRANCH  21  23
ENDBRANCH  18  21
ENDBRANCH   1  15
TORSDOF 6
