REMARK  4 active torsions:
REMARK  status: ('A' for Active; 'I' for Inactive)
REMARK       I    between atoms: N_2  and  C_1 
REMARK    1  A    between atoms: C_3  and  C_1 
REMARK    2  A    between atoms: C_9  and  N_2 
REMARK    3  A    between atoms: N_7  and  C_4 
REMARK    4  A    between atoms: N_8  and  C_10 
ROOT
ATOM      1  C   UNL d   1       0.495  -0.312  -1.020  0.00  0.00     0.257 C 
ATOM      2  N   UNL d   1       0.334  -1.316  -0.085  0.00  0.00    -0.321 N 
ATOM      3  O   UNL d   1       1.366  -0.274  -1.887  0.00  0.00    -0.267 OA
ATOM      4  H   UNL d   1      -0.343  -1.204   0.653  0.00  0.00     0.169 HD
ENDROOT
BRANCH   1   5
ATOM      5  C   UNL d   1      -0.425   0.850  -0.905  0.00  0.00     0.047 A 
ATOM      6  C   UNL d   1      -0.095   2.030  -1.560  0.00  0.00     0.106 A 
ATOM      7  N   UNL d   1      -0.820   3.179  -1.492  0.00  0.00    -0.356 N 
ATOM      8  C   UNL d   1      -1.950   3.184  -0.754  0.00  0.00     0.082 A 
ATOM      9  HN  UNL d   1      -0.516   4.018  -1.986  1.00  0.00     0.166 HD
ATOM     10  C   UNL d   1      -2.348   2.029  -0.072  0.00  0.00     0.043 A 
ATOM     11  C   UNL d   1      -1.593   0.858  -0.153  0.00  0.00     0.022 A 
BRANCH   8  12
ATOM     12  N   UNL d   1      -2.676   4.364  -0.589  0.00  0.00    -0.265 NA
ATOM     13  C   UNL d   1      -2.044   5.571  -1.159  0.00  0.00     0.123 C 
ATOM     14  C   UNL d   1      -2.811   6.811  -0.662  0.00  0.00     0.182 C 
ATOM     15  O   UNL d   1      -4.208   6.745  -1.005  0.00  0.00    -0.389 OA
ATOM     16  C   UNL d   1      -4.806   5.563  -0.447  0.00  0.00     0.182 C 
ATOM     17  C   UNL d   1      -4.106   4.288  -0.947  0.00  0.00     0.123 C 
ENDBRANCH   8  12
ENDBRANCH   1   5
BRANCH   2  18
ATOM     18  C   UNL d   1       1.135  -2.470   0.093  0.00  0.00     0.061 A 
ATOM     19  C   UNL d   1       1.086  -3.146   1.346  0.00  0.00     0.057 A 
ATOM     20  C   UNL d   1       1.813  -4.350   1.440  0.00  0.00     0.031 A 
ATOM     21  C   UNL d   1       2.544  -4.869   0.364  0.00  0.00     0.002 A 
ATOM     22  C   UNL d   1       2.583  -4.185  -0.842  0.00  0.00     0.002 A 
ATOM     23  C   UNL d   1       1.887  -2.986  -0.974  0.00  0.00     0.032 A 
BRANCH  19  24
ATOM     24  N   UNL d   1       0.375  -2.669   2.447  0.00  0.00    -0.375 N 
ATOM     25  C   UNL d   1       0.419  -1.258   2.878  0.00  0.00     0.149 C 
ATOM     26  C   UNL d   1       0.808  -1.115   4.359  0.00  0.00     0.187 C 
ATOM     27  O   UNL d   1       0.026  -1.964   5.209  0.00  0.00    -0.388 OA
ATOM     28  C   UNL d   1       0.218  -3.335   4.830  0.00  0.00     0.187 C 
ATOM     29  C   UNL d   1      -0.283  -3.583   3.401  0.00  0.00     0.149 C 
ENDBRANCH  19  24
ENDBRANCH   2  18
TORSDOF 4
