REMARK  7 active torsions:
REMARK  status: ('A' for Active; 'I' for Inactive)
REMARK    1  A    between atoms: C_3  and  C_1 
REMARK    2  A    between atoms: C_4  and  C_1 
REMARK    3  A    between atoms: N_8  and  C_2 
REMARK    4  A    between atoms: O_12  and  C_3 
REMARK    5  A    between atoms: N_5  and  C_4 
REMARK    6  A    between atoms: C_9  and  N_8 
REMARK    7  A    between atoms: C_16  and  O_12 
ROOT
ATOM      1  C   UNL d   1       0.945   0.081  -0.022  0.00  0.00     0.112 C 
ATOM      2  C   UNL d   1       0.251  -0.277   1.071  0.00  0.00     0.090 C 
ENDROOT
BRANCH   1   3
ATOM      3  C   UNL d   1       0.223   0.420  -1.264  0.00  0.00     0.303 C 
ATOM      4  O   UNL d   1      -0.993   0.361  -1.392  0.00  0.00    -0.258 OA
BRANCH   3   5
ATOM      5  O   UNL d   1       1.112   0.702  -2.245  0.00  0.00    -0.317 OA
BRANCH   5   6
ATOM      6  C   UNL d   1       0.606   0.648  -3.586  0.00  0.00     0.174 C 
ATOM      7  C   UNL d   1       0.725  -0.784  -4.074  0.00  0.00     0.034 C 
ENDBRANCH   5   6
ENDBRANCH   3   5
ENDBRANCH   1   3
BRANCH   1   8
ATOM      8  C   UNL d   1       2.465   0.081  -0.022  0.00  0.00    -0.030 C 
BRANCH   8   9
ATOM      9  N   UNL d   1       3.726   0.081  -0.022  0.00  0.00    -0.365 N 
ATOM     10  HN2 UNL d   1       2.706   0.081  -0.022  1.00  0.00     0.165 HD
ATOM     11  HN1 UNL d   1       4.746   0.081  -0.022  1.00  0.00     0.165 HD
ENDBRANCH   8   9
ENDBRANCH   1   8
BRANCH   2  12
ATOM     12  N   UNL d   1       0.696  -0.748   2.292  0.00  0.00    -0.267 NA
ATOM     13  H   UNL d   1       1.429  -1.461   2.219  0.00  0.00     0.133 HD
BRANCH  12  14
ATOM     14  C   UNL d   1       1.063   0.112   3.372  0.00  0.00     0.034 A 
ATOM     15  C   UNL d   1       1.691  -0.423   4.516  0.00  0.00     0.055 A 
ATOM     16 CL   UNL d   1       2.124  -2.098   4.586  0.00  0.00    -0.082 Cl
ATOM     17  C   UNL d   1       1.996   0.382   5.617  0.00  0.00     0.026 A 
ATOM     18  C   UNL d   1       1.673   1.737   5.594  0.00  0.00     0.002 A 
ATOM     19  C   UNL d   1       1.040   2.281   4.479  0.00  0.00     0.002 A 
ATOM     20  C   UNL d   1       0.721   1.472   3.385  0.00  0.00     0.025 A 
ENDBRANCH  12  14
ENDBRANCH   2  12
TORSDOF 7
