REMARK  5 active torsions:
REMARK  status: ('A' for Active; 'I' for Inactive)
REMARK    1  A    between atoms: N_8  and  C_3 
REMARK    2  A    between atoms: N_12  and  C_4 
REMARK    3  A    between atoms: C_9  and  C_5 
REMARK    4  A    between atoms: O_14  and  C_9 
REMARK    5  A    between atoms: C_19  and  O_14 
ROOT
ATOM      1  N   UNL d   1       0.350  -1.080   0.199  0.00  0.00    -0.181 N 
ATOM      2  HN  UNL d   1       0.911  -1.930   0.253  1.00  0.00     0.185 HD
ATOM      3  C   UNL d   1      -0.993  -1.149   0.170  0.00  0.00     0.681 A 
ATOM      4  C   UNL d   1       0.942   0.128   0.157  0.00  0.00     0.111 A 
ATOM      5  C   UNL d   1       0.214   1.296   0.083  0.00  0.00     0.094 A 
ATOM      6  N   UNL d   1      -1.765  -0.057   0.081  0.00  0.00    -0.201 N 
ATOM      7  HN  UNL d   1      -2.781  -0.130   0.041  1.00  0.00     0.183 HD
ATOM      8  C   UNL d   1      -1.149   1.140   0.049  0.00  0.00     0.127 A 
ENDROOT
BRANCH   3   9
ATOM      9  N   UNL d   1      -1.601  -2.365   0.316  0.00  0.00    -0.214 N 
ATOM     10  C   UNL d   1      -3.047  -2.502   0.158  0.00  0.00     0.167 C 
ATOM     11  C   UNL d   1      -3.550  -3.559   1.156  0.00  0.00     0.188 C 
ATOM     12  O   UNL d   1      -2.850  -4.807   1.003  0.00  0.00    -0.388 OA
ATOM     13  C   UNL d   1      -1.439  -4.620   1.216  0.00  0.00     0.188 C 
ATOM     14  C   UNL d   1      -0.844  -3.608   0.221  0.00  0.00     0.167 C 
ENDBRANCH   3   9
BRANCH   4  15
ATOM     15  N   UNL d   1       2.331   0.095   0.295  0.00  0.00    -0.287 NA
ATOM     16  H   UNL d   1       2.636  -0.873   0.247  0.00  0.00     0.125 HD
ATOM     17  H   UNL d   1       2.800   0.700  -0.373  0.00  0.00     0.125 HD
ENDBRANCH   4  15
BRANCH   5  18
ATOM     18  C   UNL d   1       0.746   2.662   0.005  0.00  0.00     0.298 C 
ATOM     19  O   UNL d   1       0.091   3.640   0.325  0.00  0.00    -0.259 OA
BRANCH  18  20
ATOM     20  O   UNL d   1       1.954   2.672  -0.611  0.00  0.00    -0.318 OA
BRANCH  20  21
ATOM     21  C   UNL d   1       2.423   3.971  -1.002  0.00  0.00     0.174 C 
ATOM     22  C   UNL d   1       1.902   4.277  -2.394  0.00  0.00     0.034 C 
ENDBRANCH  20  21
ENDBRANCH  18  20
ENDBRANCH   5  18
TORSDOF 5
