REMARK  7 active torsions:
REMARK  status: ('A' for Active; 'I' for Inactive)
REMARK    1  A    between atoms: N_3  and  S_1 
REMARK    2  A    between atoms: C_4  and  S_1 
REMARK    3  A    between atoms: C_2  and  N_3 
REMARK    4  A    between atoms: C_5  and  C_7 
REMARK    5  A    between atoms: C_6  and  C_8 
REMARK    6  A    between atoms: O_26  and  C_10 
REMARK    7  A    between atoms: O_27  and  C_18 
ROOT
ATOM      1  S   UNL d   1       1.006  -0.026  -0.035  0.00  0.00     0.263 S 
ATOM      2  O   UNL d   1       0.632   0.587  -1.286  0.00  0.00    -0.200 OA
ATOM      3  O   UNL d   1       2.329   0.113   0.524  0.00  0.00    -0.200 OA
ENDROOT
BRANCH   1   4
ATOM      4  N   UNL d   1       0.567  -1.668  -0.083  0.00  0.00    -0.276 N 
ATOM      5  H   UNL d   1      -0.311  -1.913   0.364  0.00  0.00     0.179 HD
BRANCH   4   6
ATOM      6  C   UNL d   1       0.824  -2.360  -1.328  0.00  0.00     0.097 A 
ATOM      7  C   UNL d   1       2.130  -2.739  -1.699  0.00  0.00     0.066 A 
ATOM      8  C   UNL d   1       2.363  -3.454  -2.880  0.00  0.00     0.063 A 
ATOM      9 CL   UNL d   1       3.496  -2.494  -0.668  0.00  0.00    -0.082 Cl
ATOM     10  C   UNL d   1       1.309  -3.817  -3.715  0.00  0.00     0.072 A 
ATOM     11  C   UNL d   1       0.013  -3.441  -3.368  0.00  0.00     0.076 A 
ATOM     12  C   UNL d   1      -0.237  -2.715  -2.185  0.00  0.00     0.099 A 
BRANCH  10  13
ATOM     13  O   UNL d   1       1.679  -4.557  -4.802  0.00  0.00    -0.356 OA
ATOM     14  C   UNL d   1       0.645  -5.035  -5.654  0.00  0.00     0.210 C 
ENDBRANCH  10  13
BRANCH  12  15
ATOM     15  O   UNL d   1      -1.573  -2.579  -1.891  0.00  0.00    -0.353 OA
ATOM     16  C   UNL d   1      -2.025  -1.264  -1.593  0.00  0.00     0.210 C 
ENDBRANCH  12  15
ENDBRANCH   4   6
ENDBRANCH   1   4
BRANCH   1  17
ATOM     17  C   UNL d   1      -0.101   0.637   1.213  0.00  0.00     0.081 A 
ATOM     18  C   UNL d   1      -0.042   0.132   2.517  0.00  0.00     0.041 A 
ATOM     19  C   UNL d   1      -0.818   0.716   3.531  0.00  0.00     0.050 A 
ATOM     20  C   UNL d   1      -1.638   1.815   3.214  0.00  0.00     0.032 A 
ATOM     21  C   UNL d   1      -1.690   2.340   1.909  0.00  0.00     0.050 A 
ATOM     22  C   UNL d   1      -0.922   1.729   0.904  0.00  0.00     0.041 A 
BRANCH  19  23
ATOM     23  C   UNL d   1      -0.754   0.220   4.960  0.00  0.00     0.417 C 
ATOM     24  F   UNL d   1       0.093  -0.830   5.131  0.00  0.00    -0.166 F 
ATOM     25  F   UNL d   1      -0.344   1.187   5.824  0.00  0.00    -0.166 F 
ATOM     26  F   UNL d   1      -1.968  -0.198   5.409  0.00  0.00    -0.166 F 
ENDBRANCH  19  23
BRANCH  21  27
ATOM     27  C   UNL d   1      -2.522   3.572   1.634  0.00  0.00     0.417 C 
ATOM     28  F   UNL d   1      -2.462   3.991   0.338  0.00  0.00    -0.166 F 
ATOM     29  F   UNL d   1      -3.844   3.375   1.901  0.00  0.00    -0.166 F 
ATOM     30  F   UNL d   1      -2.141   4.635   2.390  0.00  0.00    -0.166 F 
ENDBRANCH  21  27
ENDBRANCH   1  17
TORSDOF 7
