REMARK  4 active torsions:
REMARK  status: ('A' for Active; 'I' for Inactive)
REMARK    1  A    between atoms: C_2  and  C_1 
REMARK    2  A    between atoms: N_3  and  C_1 
REMARK    3  A    between atoms: N_8  and  N_3 
REMARK    4  A    between atoms: O_11  and  N_4 
ROOT
ATOM      1  C   UNL d   1       0.854  -0.181  -0.118  0.00  0.00     0.149 C 
ATOM      2  N   UNL d   1       1.967  -0.767  -0.480  0.00  0.00    -0.251 N 
ATOM      3  HN  UNL d   1       2.378  -1.572  -0.007  1.00  0.00     0.196 HD
ENDROOT
BRANCH   1   4
ATOM      4  C   UNL d   1       0.179  -0.727   1.092  0.00  0.00     0.054 A 
ATOM      5  C   UNL d   1      -1.101  -1.291   1.009  0.00  0.00     0.049 A 
ATOM      6 CL   UNL d   1      -1.955  -1.487  -0.482  0.00  0.00    -0.083 Cl
ATOM      7  C   UNL d   1      -1.729  -1.772   2.167  0.00  0.00     0.025 A 
ATOM      8  C   UNL d   1      -1.081  -1.716   3.399  0.00  0.00     0.003 A 
ATOM      9  C   UNL d   1       0.200  -1.176   3.481  0.00  0.00     0.025 A 
ATOM     10  C   UNL d   1       0.830  -0.677   2.334  0.00  0.00     0.049 A 
ATOM     11 CL   UNL d   1       2.398   0.025   2.555  0.00  0.00    -0.083 Cl
ENDBRANCH   1   4
BRANCH   1  12
ATOM     12  N   UNL d   1       0.334   0.897  -0.814  0.00  0.00    -0.303 N 
ATOM     13  H   UNL d   1       0.990   1.265  -1.503  0.00  0.00     0.182 HD
BRANCH  12  14
ATOM     14  N   UNL d   1      -0.649   1.735  -0.251  0.00  0.00    -0.238 NA
ATOM     15  C   UNL d   1      -0.012   2.776   0.557  0.00  0.00     0.135 C 
ATOM     16  C   UNL d   1      -1.403   2.339  -1.355  0.00  0.00     0.135 C 
ENDBRANCH  12  14
ENDBRANCH   1  12
BRANCH   2  17
ATOM     17  O   UNL d   1       2.520  -0.137  -1.608  0.00  0.00    -0.288 OA
ATOM     18  H   UNL d   1       3.337  -0.652  -1.743  0.00  0.00     0.244 HD
ENDBRANCH   2  17
TORSDOF 4
