REMARK  4 active torsions:
REMARK  status: ('A' for Active; 'I' for Inactive)
REMARK    1  A    between atoms: C_13  and  C_3 
REMARK    2  A    between atoms: C_17  and  N_5 
REMARK    3  A    between atoms: C_18  and  N_9 
REMARK    4  A    between atoms: C_14  and  C_13 
ROOT
ATOM      1  C   UNL d   1      -1.350  -0.056  -0.080  0.00  0.00     0.117 C 
ATOM      2  C   UNL d   1      -2.579  -0.026  -0.635  0.00  0.00     0.093 C 
ATOM      3  C   UNL d   1       0.639   0.522   1.189  0.00  0.00     0.143 C 
ATOM      4  C   UNL d   1      -3.415  -1.198  -1.022  0.00  0.00     0.282 C 
ATOM      5  N   UNL d   1      -0.556  -1.130   0.369  0.00  0.00    -0.248 N 
ATOM      6  S   UNL d   1      -0.485   1.458   0.255  0.00  0.00    -0.046 SA
ATOM      7  N   UNL d   1       0.541  -0.770   1.175  0.00  0.00    -0.282 N 
ATOM      8  HN  UNL d   1       1.156  -1.419   1.667  1.00  0.00     0.188 HD
ATOM      9  N   UNL d   1      -4.334  -0.640  -1.922  0.00  0.00    -0.220 N 
ATOM     10  N   UNL d   1      -4.352   0.744  -1.913  0.00  0.00    -0.294 N 
ATOM     11  HN  UNL d   1      -4.986   1.350  -2.434  1.00  0.00     0.187 HD
ATOM     12  C   UNL d   1      -3.398   1.118  -1.107  0.00  0.00     0.041 C 
ATOM     13  O   UNL d   1      -3.307  -2.340  -0.610  0.00  0.00    -0.265 OA
ATOM     14  C   UNL d   1      -3.268   2.548  -0.687  0.00  0.00     0.071 C 
ENDROOT
BRANCH   5  15
ATOM     15  C   UNL d   1      -0.424  -2.417  -0.228  0.00  0.00     0.057 A 
ATOM     16  C   UNL d   1      -0.539  -2.626  -1.613  0.00  0.00     0.031 A 
ATOM     17  C   UNL d   1      -0.427  -3.910  -2.159  0.00  0.00     0.002 A 
ATOM     18  C   UNL d   1      -0.179  -5.003  -1.332  0.00  0.00     0.000 A 
ATOM     19  C   UNL d   1      -0.029  -4.813   0.039  0.00  0.00     0.002 A 
ATOM     20  C   UNL d   1      -0.141  -3.531   0.582  0.00  0.00     0.031 A 
ENDBRANCH   5  15
BRANCH   3  21
ATOM     21  C   UNL d   1       1.576   1.434   1.931  0.00  0.00     0.224 C 
ATOM     22  O   UNL d   1       1.156   2.534   2.291  0.00  0.00    -0.284 OA
BRANCH  21  23
ATOM     23  C   UNL d   1       2.916   0.945   2.223  0.00  0.00     0.057 A 
ATOM     24  S   UNL d   1       3.983   2.003   3.071  0.00  0.00    -0.098 SA
ATOM     25  C   UNL d   1       5.224   0.837   3.128  0.00  0.00     0.050 A 
ATOM     26  C   UNL d   1       4.861  -0.329   2.496  0.00  0.00     0.009 A 
ATOM     27  C   UNL d   1       3.537  -0.263   1.960  0.00  0.00     0.023 A 
ENDBRANCH  21  23
ENDBRANCH   3  21
BRANCH   9  28
ATOM     28  C   UNL d   1      -5.244  -1.313  -2.776  0.00  0.00     0.060 A 
ATOM     29  C   UNL d   1      -5.368  -2.708  -2.780  0.00  0.00     0.031 A 
ATOM     30  C   UNL d   1      -6.235  -3.348  -3.673  0.00  0.00     0.002 A 
ATOM     31  C   UNL d   1      -6.982  -2.604  -4.583  0.00  0.00     0.000 A 
ATOM     32  C   UNL d   1      -6.872  -1.218  -4.594  0.00  0.00     0.002 A 
ATOM     33  C   UNL d   1      -6.016  -0.580  -3.693  0.00  0.00     0.031 A 
ENDBRANCH   9  28
TORSDOF 4
