REMARK  5 active torsions:
REMARK  status: ('A' for Active; 'I' for Inactive)
REMARK    1  A    between atoms: C_14  and  C_1 
REMARK    2  A    between atoms: C_4  and  C_2 
REMARK    3  A    between atoms: C_3  and  C_4 
REMARK       I    between atoms: N_15  and  C_14 
REMARK    4  A    between atoms: C_25  and  N_15 
REMARK    5  A    between atoms: C_24  and  C_25 
ROOT
ATOM      1  C   UNL d   1       0.071   1.389   0.871  0.00  0.00     0.071 C 
ATOM      2  C   UNL d   1      -0.904   1.847  -0.069  0.00  0.00     0.056 C 
ATOM      3  C   UNL d   1       0.652   0.119   0.664  0.00  0.00     0.074 C 
ATOM      4  C   UNL d   1      -1.131   1.129  -1.279  0.00  0.00     0.072 C 
ATOM      5  C   UNL d   1       0.379  -0.608  -0.520  0.00  0.00     0.080 C 
ATOM      6  C   UNL d   1      -0.459  -0.084  -1.508  0.00  0.00     0.080 C 
ATOM      7 CL   UNL d   1       1.663  -0.624   1.874  0.00  0.00    -0.081 Cl
ATOM      8 CL   UNL d   1      -2.295   1.665  -2.469  0.00  0.00    -0.081 Cl
ATOM      9 CL   UNL d   1      -0.702  -0.951  -3.005  0.00  0.00    -0.081 Cl
ATOM     10 CL   UNL d   1       1.058  -2.205  -0.740  0.00  0.00    -0.081 Cl
ENDROOT
BRANCH   2  11
ATOM     11  C   UNL d   1      -1.755   3.042   0.173  0.00  0.00     0.196 C 
ATOM     12  O   UNL d   1      -1.740   3.836  -0.773  0.00  0.00    -0.287 OA
BRANCH  11  13
ATOM     13  C   UNL d   1      -2.639   3.302   1.398  0.00  0.00     0.028 A 
ATOM     14  C   UNL d   1      -3.129   2.269   2.264  0.00  0.00    -0.041 A 
ATOM     15  C   UNL d   1      -4.016   2.599   3.344  0.00  0.00    -0.049 A 
ATOM     16  C   UNL d   1      -2.817   0.797   2.148  0.00  0.00     0.050 C 
ATOM     17  C   UNL d   1      -4.588   1.532   4.267  0.00  0.00     0.049 C 
ATOM     18  C   UNL d   1      -4.389   3.940   3.597  0.00  0.00    -0.049 A 
ATOM     19  C   UNL d   1      -3.912   4.968   2.757  0.00  0.00    -0.049 A 
ATOM     20  C   UNL d   1      -5.303   4.240   4.771  0.00  0.00     0.049 C 
ATOM     21  C   UNL d   1      -3.038   4.662   1.665  0.00  0.00    -0.041 A 
ATOM     22  C   UNL d   1      -4.347   6.393   3.053  0.00  0.00     0.049 C 
ATOM     23  C   UNL d   1      -2.591   5.855   0.833  0.00  0.00     0.050 C 
ENDBRANCH  11  13
ENDBRANCH   2  11
BRANCH   1  24
ATOM     24  C   UNL d   1       0.414   2.292   2.013  0.00  0.00     0.254 C 
ATOM     25  N   UNL d   1       0.851   1.788   3.232  0.00  0.00    -0.352 N 
ATOM     26  H   UNL d   1       0.991   0.802   3.373  0.00  0.00     0.163 HD
ATOM     27  O   UNL d   1       0.274   3.499   1.851  0.00  0.00    -0.268 OA
BRANCH  25  28
ATOM     28  C   UNL d   1       0.779   2.687   4.372  0.00  0.00     0.162 C 
BRANCH  28  29
ATOM     29  C   UNL d   1       1.481   2.318   5.649  0.00  0.00    -0.025 A 
ATOM     30  C   UNL d   1       1.360   3.230   6.703  0.00  0.00     0.096 A 
ATOM     31  N   UNL d   1       1.947   3.108   7.915  0.00  0.00    -0.375 N 
ATOM     32  C   UNL d   1       2.712   2.013   8.094  0.00  0.00     0.087 A 
ATOM     33  HN  UNL d   1       1.819   3.803   8.650  1.00  0.00     0.164 HD
ATOM     34  C   UNL d   1       2.890   1.040   7.128  0.00  0.00     0.018 A 
ATOM     35  C   UNL d   1       2.269   1.192   5.885  0.00  0.00     0.011 A 
ENDBRANCH  28  29
ENDBRANCH  25  28
ENDBRANCH   1  24
TORSDOF 5
