REMARK  3 active torsions:
REMARK  status: ('A' for Active; 'I' for Inactive)
REMARK    1  A    between atoms: C_10  and  C_5 
REMARK    2  A    between atoms: C_9  and  C_13 
REMARK    3  A    between atoms: O_20  and  C_9 
ROOT
ATOM      1  C   UNL d   1      -0.301   0.345  -0.566  0.00  0.00     0.688 A 
ATOM      2  N   UNL d   1      -1.556   0.580  -0.893  0.00  0.00    -0.189 N 
ATOM      3  HN  UNL d   1      -1.889   1.131  -1.685  1.00  0.00     0.184 HD
ATOM      4  N   UNL d   1      -0.245  -0.453   0.572  0.00  0.00    -0.166 N 
ATOM      5  C   UNL d   1      -2.330  -0.068   0.045  0.00  0.00     0.076 A 
ATOM      6  C   UNL d   1      -1.530  -0.712   0.964  0.00  0.00     0.145 A 
ATOM      7  N   UNL d   1       0.848   0.764  -1.180  0.00  0.00    -0.201 N 
ATOM      8  HN  UNL d   1       0.832   1.353  -2.012  1.00  0.00     0.183 HD
ATOM      9  C   UNL d   1       0.952  -0.870   1.137  0.00  0.00     0.116 A 
ATOM     10  C   UNL d   1       2.104  -0.492   0.570  0.00  0.00     0.036 A 
ATOM     11  C   UNL d   1       1.960   0.367  -0.639  0.00  0.00     0.107 A 
ENDROOT
BRANCH   5  12
ATOM     12  C   UNL d   1      -3.787  -0.058   0.027  0.00  0.00    -0.007 A 
ATOM     13  C   UNL d   1      -4.466   0.609  -1.006  0.00  0.00     0.015 A 
ATOM     14  C   UNL d   1      -5.867   0.635  -1.050  0.00  0.00     0.019 A 
ATOM     15  C   UNL d   1      -6.608  -0.025  -0.064  0.00  0.00     0.037 A 
ATOM     16  C   UNL d   1      -5.940  -0.676   0.978  0.00  0.00     0.019 A 
ATOM     17  C   UNL d   1      -4.542  -0.693   1.021  0.00  0.00     0.015 A 
BRANCH  15  18
ATOM     18  C   UNL d   1      -8.095  -0.030  -0.038  0.00  0.00     0.176 C 
ATOM     19  O   UNL d   1      -8.736  -0.126   0.994  0.00  0.00    -0.646 OA
BRANCH  18  20
ATOM     20  O   UNL d   1      -8.671   0.030  -1.257  0.00  0.00    -0.773 OA
ATOM     21  H   UNL d   1      -8.062  -0.077  -2.009  0.00  0.00     0.167 HD
ENDBRANCH  18  20
ENDBRANCH  15  18
ENDBRANCH   5  12
TORSDOF 3
