REMARK  3 active torsions:
REMARK  status: ('A' for Active; 'I' for Inactive)
REMARK    1  A    between atoms: S_7  and  C_1 
REMARK    2  A    between atoms: C_6  and  S_7 
REMARK    3  A    between atoms: N_18  and  C_9 
ROOT
ATOM      1  N   UNL d   1      -5.185   0.350   1.187  0.00  0.00    -0.326 N 
ATOM      2  HN  UNL d   1      -4.791   0.005   2.063  1.00  0.00     0.169 HD
ATOM      3  C   UNL d   1      -4.780  -0.139  -0.001  0.00  0.00     0.152 A 
ATOM      4  C   UNL d   1      -6.128   1.311   1.178  0.00  0.00     0.102 A 
ATOM      5  C   UNL d   1      -6.680   1.793   0.005  0.00  0.00     0.098 A 
ATOM      6  N   UNL d   1      -5.262   0.264  -1.189  0.00  0.00    -0.345 N 
ATOM      7  HN  UNL d   1      -4.934  -0.138  -2.067  1.00  0.00     0.167 HD
ATOM      8  C   UNL d   1      -7.660   2.823  -0.028  0.00  0.00     0.104 C 
ATOM      9  N   UNL d   1      -8.431   3.693  -0.062  0.00  0.00    -0.191 NA
ATOM     10  C   UNL d   1      -6.204   1.229  -1.157  0.00  0.00     0.116 A 
ENDROOT
BRANCH   4  11
ATOM     11  N   UNL d   1      -6.592   1.696   2.434  0.00  0.00    -0.287 NA
ATOM     12  H   UNL d   1      -6.006   1.283   3.156  0.00  0.00     0.125 HD
ATOM     13  H   UNL d   1      -6.744   2.689   2.567  0.00  0.00     0.125 HD
ENDBRANCH   4  11
BRANCH   3  14
ATOM     14  S   UNL d   1      -3.689  -1.531   0.009  0.00  0.00    -0.029 SA
BRANCH  14  15
ATOM     15  C   UNL d   1      -2.106  -0.773   0.012  0.00  0.00     0.120 A 
ATOM     16  N   UNL d   1      -1.046  -1.556   0.028  0.00  0.00    -0.344 N 
ATOM     17  C   UNL d   1       0.116  -0.805   0.024  0.00  0.00     0.050 A 
ATOM     18  HN  UNL d   1      -1.078  -2.576   0.040  1.00  0.00     0.167 HD
ATOM     19  C   UNL d   1       1.433  -1.311   0.040  0.00  0.00     0.031 A 
ATOM     20  C   UNL d   1      -0.073   0.577   0.005  0.00  0.00     0.034 A 
ATOM     21  C   UNL d   1       2.519  -0.430   0.034  0.00  0.00     0.002 A 
ATOM     22  C   UNL d   1       2.308   0.945   0.011  0.00  0.00     0.002 A 
ATOM     23  C   UNL d   1       1.012   1.471  -0.005  0.00  0.00     0.021 A 
ATOM     24  S   UNL d   1      -1.763   0.907  -0.004  0.00  0.00    -0.063 SA
ENDBRANCH  14  15
ENDBRANCH   3  14
TORSDOF 3
