REMARK  3 active torsions:
REMARK  status: ('A' for Active; 'I' for Inactive)
REMARK    1  A    between atoms: C_2  and  C_1 
REMARK    2  A    between atoms: C_7  and  C_2 
REMARK    3  A    between atoms: N_8  and  C_3 
ROOT
ATOM      1  N   UNL d   1      -3.823   1.477   0.909  0.00  0.00    -0.375 N 
ATOM      2  HN  UNL d   1      -4.822   1.493   1.114  1.00  0.00     0.164 HD
ATOM      3  C   UNL d   1      -1.102   1.405   0.313  0.00  0.00     0.017 A 
ATOM      4  C   UNL d   1      -2.993   0.608   1.522  0.00  0.00     0.088 A 
ATOM      5  C   UNL d   1      -3.273   2.325   0.012  0.00  0.00     0.088 A 
ATOM      6  C   UNL d   1      -1.637   0.534   1.266  0.00  0.00     0.032 A 
ATOM      7  C   UNL d   1      -1.930   2.334  -0.313  0.00  0.00     0.032 A 
ENDROOT
BRANCH   3   8
ATOM      8  C   UNL d   1       0.338   1.372  -0.058  0.00  0.00     0.183 C 
ATOM      9  O   UNL d   1       0.903   2.380  -0.462  0.00  0.00    -0.288 OA
BRANCH   8  10
ATOM     10  C   UNL d   1       1.010   0.049   0.027  0.00  0.00     0.072 C 
ATOM     11  C   UNL d   1       2.341  -0.074   0.046  0.00  0.00     0.088 C 
BRANCH  11  12
ATOM     12  N   UNL d   1       3.098  -1.236   0.123  0.00  0.00    -0.398 N 
ATOM     13  C   UNL d   1       2.546  -2.588   0.185  0.00  0.00     0.148 C 
ATOM     14  C   UNL d   1       4.563  -1.201   0.095  0.00  0.00     0.148 C 
ENDBRANCH  11  12
ENDBRANCH   8  10
ENDBRANCH   3   8
TORSDOF 3
