REMARK  2 active torsions:
REMARK  status: ('A' for Active; 'I' for Inactive)
REMARK    1  A    between atoms: N_8  and  C_1 
REMARK    2  A    between atoms: C_11  and  C_5 
ROOT
ATOM      1  C   UNL d   1      -0.252   1.313   0.070  0.00  0.00     0.129 A 
ATOM      2  N   UNL d   1      -1.606   1.311   0.055  0.00  0.00    -0.325 N 
ATOM      3  HN  UNL d   1      -2.137   2.181   0.075  1.00  0.00     0.169 HD
ATOM      4  C   UNL d   1       0.483   0.117   0.079  0.00  0.00     0.100 A 
ATOM      5  C   UNL d   1      -2.229   0.108   0.010  0.00  0.00     0.134 A 
ATOM      6  N   UNL d   1      -1.581  -1.075  -0.021  0.00  0.00    -0.343 N 
ATOM      7  HN  UNL d   1      -2.097  -1.953  -0.076  1.00  0.00     0.167 HD
ATOM      8  C   UNL d   1      -0.237  -1.063   0.023  0.00  0.00     0.032 A 
ATOM      9 CL   UNL d   1       2.210   0.088   0.240  0.00  0.00    -0.078 Cl
ATOM     10  C   UNL d   1       0.427  -2.409   0.016  0.00  0.00     0.070 C 
ENDROOT
BRANCH   1  11
ATOM     11  N   UNL d   1       0.422   2.536   0.127  0.00  0.00    -0.362 N 
ATOM     12  C   UNL d   1      -0.265   3.686   0.729  0.00  0.00     0.154 C 
ATOM     13  C   UNL d   1       0.809   4.756   1.081  0.00  0.00     0.291 C 
ATOM     14  N   UNL d   1       1.670   5.153  -0.064  0.00  0.00     0.087 N 
ATOM     15  C   UNL d   1       2.215   3.952  -0.742  0.00  0.00     0.291 C 
ATOM     16  C   UNL d   1       2.770   6.002   0.397  0.00  0.00     0.310 C 
ATOM     17  C   UNL d   1       1.121   2.925  -1.112  0.00  0.00     0.154 C 
ENDBRANCH   1  11
BRANCH   5  18
ATOM     18  C   UNL d   1      -3.717   0.064  -0.006  0.00  0.00     0.076 A 
ATOM     19  N   UNL d   1      -4.298  -1.174   0.030  0.00  0.00    -0.363 N 
ATOM     20  C   UNL d   1      -5.646  -1.258   0.011  0.00  0.00     0.088 A 
ATOM     21  HN  UNL d   1      -3.725  -2.016   0.070  1.00  0.00     0.165 HD
ATOM     22  C   UNL d   1      -6.480  -0.161  -0.045  0.00  0.00     0.017 A 
ATOM     23  C   UNL d   1      -5.896   1.100  -0.081  0.00  0.00     0.004 A 
ATOM     24  C   UNL d   1      -4.504   1.216  -0.059  0.00  0.00     0.033 A 
ENDBRANCH   5  18
TORSDOF 2
