REMARK  8 active torsions:
REMARK  status: ('A' for Active; 'I' for Inactive)
REMARK    1  A    between atoms: C_2  and  C_1 
REMARK    2  A    between atoms: C_14  and  C_1 
REMARK    3  A    between atoms: N_3  and  C_10 
REMARK    4  A    between atoms: C_11  and  C_4 
REMARK    5  A    between atoms: C_7  and  C_5 
REMARK    6  A    between atoms: C_15  and  C_5 
REMARK    7  A    between atoms: C_9  and  C_7 
REMARK    8  A    between atoms: C_17  and  C_9 
ROOT
ATOM      1  C   UNL d   1       1.014   0.106   0.634  0.00  0.00    -0.004 C 
ATOM      2  C   UNL d   1       0.446   1.156  -0.035  0.00  0.00     0.066 C 
ATOM      3  C   UNL d   1       0.779   2.535   0.178  0.00  0.00     0.101 C 
ATOM      4  N   UNL d   1       1.029   3.660   0.303  0.00  0.00    -0.191 NA
ENDROOT
BRANCH   2   5
ATOM      5  C   UNL d   1      -0.666   0.967  -1.003  0.00  0.00    -0.014 A 
ATOM      6  C   UNL d   1      -1.974   1.318  -0.619  0.00  0.00     0.015 A 
ATOM      7  C   UNL d   1      -3.037   1.190  -1.515  0.00  0.00     0.037 A 
ATOM      8  C   UNL d   1      -2.793   0.708  -2.808  0.00  0.00     0.102 A 
ATOM      9  C   UNL d   1      -1.495   0.352  -3.201  0.00  0.00     0.037 A 
ATOM     10  C   UNL d   1      -0.434   0.482  -2.298  0.00  0.00     0.015 A 
BRANCH   8  11
ATOM     11  N   UNL d   1      -3.904   0.580  -3.758  0.00  0.00    -0.116 N 
ATOM     12  O   UNL d   1      -5.043   0.860  -3.352  0.00  0.00    -0.532 OA
ATOM     13  O   UNL d   1      -3.639   0.204  -4.906  0.00  0.00    -0.532 OA
ENDBRANCH   8  11
ENDBRANCH   2   5
BRANCH   1  14
ATOM     14  C   UNL d   1       0.437  -1.240   0.407  0.00  0.00     0.022 C 
ATOM     15  C   UNL d   1       1.030  -2.397   0.036  0.00  0.00    -0.040 C 
BRANCH  15  16
ATOM     16  C   UNL d   1       2.506  -2.552  -0.320  0.00  0.00     0.123 C 
BRANCH  16  17
ATOM     17  C   UNL d   1       3.223  -3.472   0.669  0.00  0.00     0.163 C 
ATOM     18  O   UNL d   1       2.641  -4.098   1.554  0.00  0.00    -0.292 OA
BRANCH  17  19
ATOM     19  C   UNL d   1       4.706  -3.649   0.588  0.00  0.00     0.010 A 
ATOM     20  C   UNL d   1       5.348  -4.056   1.766  0.00  0.00     0.015 A 
ATOM     21  C   UNL d   1       6.719  -4.292   1.794  0.00  0.00     0.001 A 
ATOM     22  C   UNL d   1       7.468  -4.130   0.632  0.00  0.00     0.000 A 
ATOM     23  C   UNL d   1       6.840  -3.725  -0.552  0.00  0.00     0.001 A 
ATOM     24  C   UNL d   1       5.461  -3.480  -0.579  0.00  0.00     0.015 A 
ENDBRANCH  17  19
ENDBRANCH  16  17
ENDBRANCH  15  16
BRANCH  15  25
ATOM     25  C   UNL d   1       0.178  -3.636  -0.003  0.00  0.00    -0.029 A 
ATOM     26  C   UNL d   1       0.370  -4.640  -0.963  0.00  0.00     0.012 A 
ATOM     27  C   UNL d   1      -0.353  -5.841  -0.913  0.00  0.00     0.001 A 
ATOM     28  C   UNL d   1      -1.292  -6.055   0.091  0.00  0.00     0.000 A 
ATOM     29  C   UNL d   1      -1.513  -5.070   1.046  0.00  0.00     0.001 A 
ATOM     30  C   UNL d   1      -0.779  -3.879   1.002  0.00  0.00     0.012 A 
ENDBRANCH  15  25
ENDBRANCH   1  14
BRANCH   1  31
ATOM     31  C   UNL d   1       1.981   0.318   1.782  0.00  0.00    -0.024 A 
ATOM     32  C   UNL d   1       1.894  -0.514   2.916  0.00  0.00     0.012 A 
ATOM     33  C   UNL d   1       2.639  -0.260   4.074  0.00  0.00     0.001 A 
ATOM     34  C   UNL d   1       3.482   0.843   4.133  0.00  0.00     0.000 A 
ATOM     35  C   UNL d   1       3.633   1.646   3.010  0.00  0.00     0.001 A 
ATOM     36  C   UNL d   1       2.922   1.360   1.836  0.00  0.00     0.012 A 
ENDBRANCH   1  31
TORSDOF 8
