REMARK  2 active torsions:
REMARK  status: ('A' for Active; 'I' for Inactive)
REMARK    1  A    between atoms: N_7  and  C_1 
REMARK       I    between atoms: C_8  and  N_7 
REMARK    2  A    between atoms: C_10  and  C_8 
ROOT
ATOM      1  C   UNL d   1      -3.045  -1.102   0.145  0.00  0.00     0.152 A 
ATOM      2  C   UNL d   1      -0.951  -0.611   0.019  0.00  0.00     0.058 A 
ATOM      3  C   UNL d   1      -1.453   0.658   0.136  0.00  0.00     0.018 A 
ATOM      4  N   UNL d   1      -1.844  -1.635  -0.010  0.00  0.00    -0.335 N 
ATOM      5  HN  UNL d   1      -1.630  -2.625  -0.129  1.00  0.00     0.168 HD
ATOM      6  S   UNL d   1      -3.118   0.624   0.271  0.00  0.00    -0.056 SA
ATOM      7  C   UNL d   1       0.477  -0.515  -0.033  0.00  0.00    -0.002 A 
ATOM      8  C   UNL d   1       0.830   0.862   0.040  0.00  0.00    -0.041 A 
ATOM      9  C   UNL d   1      -0.422   1.729   0.144  0.00  0.00     0.088 A 
ATOM     10  C   UNL d   1       1.427  -1.511  -0.106  0.00  0.00     0.014 A 
ATOM     11  C   UNL d   1       2.156   1.251   0.028  0.00  0.00     0.008 A 
ATOM     12  C   UNL d   1       2.768  -1.116  -0.112  0.00  0.00     0.001 A 
ATOM     13  C   UNL d   1       3.127   0.246  -0.048  0.00  0.00     0.001 A 
ENDROOT
BRANCH   1  14
ATOM     14  N   UNL d   1      -4.168  -1.884   0.163  0.00  0.00    -0.301 N 
ATOM     15  C   UNL d   1      -5.442  -1.513   0.523  0.00  0.00     0.281 C 
ATOM     16  O   UNL d   1      -5.791  -0.404   0.913  0.00  0.00    -0.265 OA
ATOM     17  H   UNL d   1      -3.999  -2.863  -0.029  0.00  0.00     0.171 HD
BRANCH  15  18
ATOM     18  C   UNL d   1      -6.385  -2.616   0.437  0.00  0.00     0.142 A 
ATOM     19  O   UNL d   1      -5.983  -3.811  -0.107  0.00  0.00    -0.317 OA
ATOM     20  C   UNL d   1      -7.054  -4.646  -0.073  0.00  0.00     0.143 A 
ATOM     21  C   UNL d   1      -8.137  -4.019   0.496  0.00  0.00     0.027 A 
ATOM     22  C   UNL d   1      -7.709  -2.711   0.822  0.00  0.00     0.045 A 
ENDBRANCH  15  18
ENDBRANCH   1  14
TORSDOF 2
