REMARK  1 active torsions:
REMARK  status: ('A' for Active; 'I' for Inactive)
REMARK    1  A    between atoms: C_8  and  C_3 
ROOT
ATOM      1  N   UNL d   1      -0.522   1.152   0.486  0.00  0.00    -0.338 N 
ATOM      2  HN  UNL d   1      -1.031   1.900   0.957  1.00  0.00     0.168 HD
ATOM      3  C   UNL d   1       0.685   1.255  -0.040  0.00  0.00     0.102 A 
ATOM      4  S   UNL d   1       1.219  -0.249  -0.690  0.00  0.00     0.006 SA
ATOM      5  N   UNL d   1      -0.199  -1.041  -0.312  0.00  0.00    -0.315 N 
ATOM      6  HN  UNL d   1      -0.423  -2.018  -0.503  1.00  0.00     0.175 HD
ATOM      7  C   UNL d   1      -0.983  -0.144   0.290  0.00  0.00     0.084 A 
ATOM      8  C   UNL d   1      -2.345  -0.514   0.741  0.00  0.00     0.089 C 
ENDROOT
BRANCH   3   9
ATOM      9  C   UNL d   1       1.516   2.464  -0.048  0.00  0.00    -0.001 A 
ATOM     10  C   UNL d   1       1.374   3.399   0.991  0.00  0.00     0.016 A 
ATOM     11  C   UNL d   1       2.140   4.570   1.017  0.00  0.00     0.024 A 
ATOM     12  C   UNL d   1       3.050   4.822  -0.005  0.00  0.00     0.034 A 
ATOM     13  C   UNL d   1       3.198   3.916  -1.052  0.00  0.00     0.024 A 
ATOM     14 CL   UNL d   1       3.988   6.263   0.018  0.00  0.00    -0.084 Cl
ATOM     15  C   UNL d   1       2.436   2.743  -1.073  0.00  0.00     0.016 A 
ENDBRANCH   3   9
TORSDOF 1
