REMARK  4 active torsions:
REMARK  status: ('A' for Active; 'I' for Inactive)
REMARK    1  A    between atoms: C_9  and  C_1 
REMARK    2  A    between atoms: C_2  and  N_10 
REMARK    3  A    between atoms: N_7  and  C_8 
REMARK       I    between atoms: C_11  and  N_7 
REMARK    4  A    between atoms: N_10  and  C_9 
ROOT
ATOM      1  C   UNL d   1      -0.164  -0.573  -1.049  0.00  0.00     0.139 C 
ATOM      2  C   UNL d   1       0.961   0.290  -0.926  0.00  0.00     0.112 C 
ATOM      3  C   UNL d   1      -1.407  -0.024  -1.462  0.00  0.00     0.112 C 
ATOM      4  N   UNL d   1       1.876   1.001  -0.859  0.00  0.00    -0.191 NA
ATOM      5  N   UNL d   1      -2.434   0.403  -1.796  0.00  0.00    -0.191 NA
ENDROOT
BRANCH   1   6
ATOM      6  C   UNL d   1      -0.072  -1.897  -0.826  0.00  0.00     0.122 C 
BRANCH   6   7
ATOM      7  N   UNL d   1       1.012  -2.623  -0.373  0.00  0.00    -0.362 N 
ATOM      8  H   UNL d   1       1.631  -2.083   0.243  0.00  0.00     0.165 HD
BRANCH   7   9
ATOM      9  C   UNL d   1       1.077  -4.014  -0.127  0.00  0.00     0.062 A 
ATOM     10  C   UNL d   1       2.000  -4.589   0.790  0.00  0.00     0.061 A 
ATOM     11  C   UNL d   1       2.082  -5.997   0.885  0.00  0.00     0.035 A 
ATOM     12  C   UNL d   1       1.262  -6.829   0.125  0.00  0.00     0.044 A 
ATOM     13  C   UNL d   1       0.365  -6.262  -0.759  0.00  0.00     0.118 A 
ATOM     14  C   UNL d   1       0.277  -4.883  -0.898  0.00  0.00     0.074 A 
ATOM     15  F   UNL d   1      -0.415  -7.052  -1.508  0.00  0.00    -0.206 F 
BRANCH  10  16
ATOM     16  N   UNL d   1       2.892  -3.902   1.663  0.00  0.00    -0.326 N 
ATOM     17  C   UNL d   1       2.890  -2.584   2.067  0.00  0.00     0.218 C 
ATOM     18  O   UNL d   1       2.080  -1.726   1.729  0.00  0.00    -0.274 OA
ATOM     19  C   UNL d   1       4.004  -2.233   3.021  0.00  0.00     0.117 C 
ATOM     20  H   UNL d   1       3.552  -4.498   2.148  0.00  0.00     0.169 HD
ENDBRANCH  10  16
ENDBRANCH   7   9
ENDBRANCH   6   7
ENDBRANCH   1   6
TORSDOF 4
