REMARK  10 active torsions:
REMARK  status: ('A' for Active; 'I' for Inactive)
REMARK    1  A    between atoms: C_1  and  C_8 
REMARK    2  A    between atoms: C_2  and  O_10 
REMARK    3  A    between atoms: C_3  and  O_9 
REMARK    4  A    between atoms: C_4  and  O_11 
REMARK    5  A    between atoms: C_5  and  O_7 
REMARK    6  A    between atoms: C_12  and  O_7 
REMARK    7  A    between atoms: O_21  and  C_8 
REMARK    8  A    between atoms: C_13  and  O_9 
REMARK    9  A    between atoms: C_15  and  O_10 
REMARK   10  A    between atoms: C_14  and  O_11 
ROOT
ATOM      1  C   UNL d   1      -0.692  -1.226   0.368  0.00  0.00     0.256 C 
ATOM      2  C   UNL d   1       0.773  -1.309  -0.107  0.00  0.00     0.203 C 
ATOM      3  C   UNL d   1       1.543  -0.004   0.213  0.00  0.00     0.198 C 
ATOM      4  C   UNL d   1       0.757   1.251  -0.222  0.00  0.00     0.219 C 
ATOM      5  C   UNL d   1      -0.716   1.175   0.232  0.00  0.00     0.302 C 
ATOM      6  O   UNL d   1      -1.317  -0.062  -0.193  0.00  0.00    -0.340 OA
ENDROOT
BRANCH   1   7
ATOM      7  C   UNL d   1      -0.917  -1.438   1.885  0.00  0.00     0.290 C 
ATOM      8  O   UNL d   1      -1.951  -1.133   2.473  0.00  0.00    -0.262 OA
BRANCH   7   9
ATOM      9  O   UNL d   1       0.154  -2.014   2.495  0.00  0.00    -0.324 OA
ATOM     10  C   UNL d   1       0.021  -2.148   3.913  0.00  0.00     0.213 C 
ENDBRANCH   7   9
ENDBRANCH   1   7
BRANCH   2  11
ATOM     11  O   UNL d   1       0.828  -1.452  -1.558  0.00  0.00    -0.310 OA
BRANCH  11  12
ATOM     12  C   UNL d   1       0.368  -2.603  -2.107  0.00  0.00     0.255 C 
ATOM     13  O   UNL d   1      -0.068  -3.557  -1.480  0.00  0.00    -0.266 OA
ATOM     14  C   UNL d   1       0.501  -2.554  -3.599  0.00  0.00     0.126 C 
ENDBRANCH  11  12
ENDBRANCH   2  11
BRANCH   3  15
ATOM     15  O   UNL d   1       1.882   0.094   1.613  0.00  0.00    -0.311 OA
BRANCH  15  16
ATOM     16  C   UNL d   1       3.020  -0.569   1.975  0.00  0.00     0.255 C 
ATOM     17  O   UNL d   1       3.701  -1.253   1.224  0.00  0.00    -0.266 OA
ATOM     18  C   UNL d   1       3.308  -0.383   3.432  0.00  0.00     0.126 C 
ENDBRANCH  15  16
ENDBRANCH   3  15
BRANCH   5  19
ATOM     19  O   UNL d   1      -0.874   1.276   1.646  0.00  0.00    -0.287 OA
BRANCH  19  20
ATOM     20  C   UNL d   1      -1.140   2.505   2.141  0.00  0.00     0.257 C 
ATOM     21  O   UNL d   1      -0.855   3.559   1.589  0.00  0.00    -0.266 OA
ATOM     22  C   UNL d   1      -1.938   2.384   3.398  0.00  0.00     0.126 C 
ENDBRANCH  19  20
ENDBRANCH   5  19
BRANCH   4  23
ATOM     23  O   UNL d   1       0.839   1.299  -1.674  0.00  0.00    -0.308 OA
BRANCH  23  24
ATOM     24  C   UNL d   1       0.544   2.477  -2.276  0.00  0.00     0.255 C 
ATOM     25  O   UNL d   1       0.243   3.503  -1.690  0.00  0.00    -0.266 OA
ATOM     26  C   UNL d   1       0.673   2.359  -3.764  0.00  0.00     0.126 C 
ENDBRANCH  23  24
ENDBRANCH   4  23
TORSDOF 10
