REMARK  17 active torsions:
REMARK  status: ('A' for Active; 'I' for Inactive)
REMARK    1  A    between atoms: C_8  and  N_4 
REMARK    2  A    between atoms: C_9  and  C_8 
REMARK    3  A    between atoms: C_23  and  C_9 
REMARK    4  A    between atoms: C_10  and  C_11 
REMARK    5  A    between atoms: C_11  and  C_22 
REMARK    6  A    between atoms: C_12  and  C_24 
REMARK    7  A    between atoms: C_13  and  C_12 
REMARK    8  A    between atoms: C_14  and  C_13 
REMARK    9  A    between atoms: C_15  and  C_14 
REMARK   10  A    between atoms: C_16  and  C_15 
REMARK   11  A    between atoms: C_17  and  C_16 
REMARK   12  A    between atoms: C_18  and  C_17 
REMARK   13  A    between atoms: C_19  and  C_18 
REMARK   14  A    between atoms: C_20  and  C_19 
REMARK   15  A    between atoms: C_21  and  C_20 
REMARK   16  A    between atoms: C_22  and  C_21 
REMARK   17  A    between atoms: C_24  and  C_23 
ROOT
ATOM      1  C   UNL d   1       0.535  -3.808   5.763  0.00  0.00     0.000 C 
ENDROOT
BRANCH   1   2
ATOM      2  C   UNL d   1       0.533  -3.777   4.243  0.00  0.00     0.000 C 
BRANCH   2   3
ATOM      3  C   UNL d   1      -0.144  -2.515   3.725  0.00  0.00     0.002 C 
BRANCH   3   4
ATOM      4  C   UNL d   1      -0.097  -2.494   2.200  0.00  0.00     0.030 C 
BRANCH   4   5
ATOM      5  C   UNL d   1      -0.714  -1.208   1.648  0.00  0.00     0.276 C 
BRANCH   5   6
ATOM      6  N   UNL d   1      -0.754  -1.176   0.179  0.00  0.00     0.122 N 
ATOM      7  C   UNL d   1      -1.398   0.029  -0.315  0.00  0.00     0.399 C 
ATOM      8  N   UNL d   1      -0.542   1.164  -0.129  0.00  0.00    -0.342 N 
ATOM      9  C   UNL d   1       0.807   1.091  -0.196  0.00  0.00     0.170 C 
ATOM     10  H   UNL d   1      -0.944   2.091  -0.175  0.00  0.00     0.163 HD
ATOM     11  N   UNL d   1       1.336  -0.155  -0.210  0.00  0.00    -0.342 N 
ATOM     12  S   UNL d   1       1.761   2.447  -0.203  0.00  0.00    -0.041 SA
ATOM     13  C   UNL d   1       0.533  -1.307  -0.477  0.00  0.00     0.399 C 
ATOM     14  H   UNL d   1       2.339  -0.218  -0.323  0.00  0.00     0.163 HD
ENDBRANCH   5   6
ENDBRANCH   4   5
ENDBRANCH   3   4
ENDBRANCH   2   3
ENDBRANCH   1   2
BRANCH   1  15
ATOM     15  C   UNL d   1       1.211  -5.078   6.260  0.00  0.00     0.000 C 
BRANCH  15  16
ATOM     16  C   UNL d   1       1.212  -5.120   7.779  0.00  0.00     0.000 C 
BRANCH  16  17
ATOM     17  C   UNL d   1       1.880  -6.393   8.274  0.00  0.00     0.000 C 
BRANCH  17  18
ATOM     18  C   UNL d   1       1.876  -6.433   9.794  0.00  0.00     0.000 C 
BRANCH  18  19
ATOM     19  C   UNL d   1       2.543  -7.705  10.295  0.00  0.00     0.000 C 
BRANCH  19  20
ATOM     20  C   UNL d   1       2.534  -7.741  11.816  0.00  0.00     0.000 C 
BRANCH  20  21
ATOM     21  C   UNL d   1       3.200  -9.012  12.323  0.00  0.00     0.000 C 
BRANCH  21  22
ATOM     22  C   UNL d   1       3.190  -9.048  13.845  0.00  0.00     0.000 C 
BRANCH  22  23
ATOM     23  C   UNL d   1       3.856 -10.320  14.356  0.00  0.00     0.000 C 
BRANCH  23  24
ATOM     24  C   UNL d   1       3.849 -10.360  15.879  0.00  0.00     0.000 C 
BRANCH  24  25
ATOM     25  C   UNL d   1       4.518 -11.634  16.388  0.00  0.00    -0.000 C 
BRANCH  25  26
ATOM     26  C   UNL d   1       4.515 -11.683  17.912  0.00  0.00    -0.005 C 
ATOM     27  C   UNL d   1       5.182 -12.950  18.417  0.00  0.00     0.005 C 
ENDBRANCH  25  26
ENDBRANCH  24  25
ENDBRANCH  23  24
ENDBRANCH  22  23
ENDBRANCH  21  22
ENDBRANCH  20  21
ENDBRANCH  19  20
ENDBRANCH  18  19
ENDBRANCH  17  18
ENDBRANCH  16  17
ENDBRANCH  15  16
ENDBRANCH   1  15
TORSDOF 17
