REMARK  5 active torsions:
REMARK  status: ('A' for Active; 'I' for Inactive)
REMARK    1  A    between atoms: C_11  and  N_4 
REMARK    2  A    between atoms: C_14  and  C_9 
REMARK    3  A    between atoms: C_12  and  C_11 
REMARK    4  A    between atoms: O_16  and  C_12 
REMARK    5  A    between atoms: C_19  and  O_16 
ROOT
ATOM      1  C   UNL d   1      -0.209   0.622  -0.067  0.00  0.00     0.067 A 
ATOM      2  C   UNL d   1      -0.136  -0.750  -0.115  0.00  0.00     0.091 A 
ATOM      3  C   UNL d   1       1.035   1.371  -0.046  0.00  0.00     0.262 A 
ATOM      4  N   UNL d   1       2.174   0.565  -0.020  0.00  0.00    -0.300 N 
ATOM      5  N   UNL d   1       0.994  -1.500  -0.154  0.00  0.00    -0.346 N 
ATOM      6  HN  UNL d   1       0.982  -2.518  -0.218  1.00  0.00     0.167 HD
ATOM      7  C   UNL d   1      -1.558   1.093  -0.024  0.00  0.00     0.039 A 
ATOM      8  S   UNL d   1      -1.679  -1.464  -0.111  0.00  0.00    -0.071 SA
ATOM      9  C   UNL d   1      -2.480   0.057   0.002  0.00  0.00     0.018 A 
ATOM     10  C   UNL d   1       2.089  -0.811  -0.101  0.00  0.00     0.187 A 
ATOM     11  O   UNL d   1       1.067   2.598  -0.038  0.00  0.00    -0.267 OA
ENDROOT
BRANCH   4  12
ATOM     12  C   UNL d   1       3.476   1.202   0.100  0.00  0.00     0.244 C 
BRANCH  12  13
ATOM     13  C   UNL d   1       4.096   1.661  -1.213  0.00  0.00     0.277 C 
ATOM     14  O   UNL d   1       5.194   2.204  -1.268  0.00  0.00    -0.263 OA
BRANCH  13  15
ATOM     15  O   UNL d   1       3.284   1.440  -2.280  0.00  0.00    -0.321 OA
BRANCH  15  16
ATOM     16  C   UNL d   1       3.623   2.168  -3.470  0.00  0.00     0.174 C 
ATOM     17  C   UNL d   1       2.918   3.512  -3.417  0.00  0.00     0.034 C 
ENDBRANCH  15  16
ENDBRANCH  13  15
ENDBRANCH  12  13
ENDBRANCH   4  12
BRANCH   9  18
ATOM     18  C   UNL d   1      -3.951   0.117   0.085  0.00  0.00    -0.019 A 
ATOM     19  C   UNL d   1      -4.659   1.135  -0.570  0.00  0.00     0.013 A 
ATOM     20  C   UNL d   1      -6.056   1.201  -0.498  0.00  0.00     0.001 A 
ATOM     21  C   UNL d   1      -6.765   0.252   0.234  0.00  0.00     0.000 A 
ATOM     22  C   UNL d   1      -6.080  -0.761   0.898  0.00  0.00     0.001 A 
ATOM     23  C   UNL d   1      -4.685  -0.825   0.827  0.00  0.00     0.013 A 
ENDBRANCH   9  18
TORSDOF 5
