REMARK  6 active torsions:
REMARK  status: ('A' for Active; 'I' for Inactive)
REMARK    1  A    between atoms: C_3  and  C_1 
REMARK    2  A    between atoms: C_12  and  N_2 
REMARK    3  A    between atoms: S_16  and  C_6 
REMARK    4  A    between atoms: C_21  and  S_16 
REMARK    5  A    between atoms: C_19  and  C_21 
REMARK    6  A    between atoms: C_20  and  C_19 
ROOT
ATOM      1  C   UNL d   1      -0.153  -1.353  -0.021  0.00  0.00     0.145 A 
ATOM      2  N   UNL d   1       1.141  -0.855  -0.020  0.00  0.00    -0.305 N 
ATOM      3  N   UNL d   1      -0.990  -0.339  -0.145  0.00  0.00    -0.282 N 
ATOM      4  HN  UNL d   1      -2.007  -0.407  -0.189  1.00  0.00     0.188 HD
ATOM      5  C   UNL d   1       1.016   0.510  -0.134  0.00  0.00     0.163 A 
ATOM      6  N   UNL d   1      -0.261   0.824  -0.204  0.00  0.00    -0.278 N 
ATOM      7  HN  UNL d   1      -0.642   1.767  -0.287  1.00  0.00     0.189 HD
ENDROOT
BRANCH   5   8
ATOM      8  S   UNL d   1       2.311   1.642  -0.333  0.00  0.00    -0.085 SA
BRANCH   8   9
ATOM      9  C   UNL d   1       1.409   3.220  -0.366  0.00  0.00     0.166 C 
BRANCH   9  10
ATOM     10  C   UNL d   1       2.321   4.421  -0.606  0.00  0.00     0.169 C 
ATOM     11  O   UNL d   1       3.525   4.332  -0.846  0.00  0.00    -0.291 OA
BRANCH  10  12
ATOM     12  C   UNL d   1       1.699   5.785  -0.544  0.00  0.00     0.011 A 
ATOM     13  C   UNL d   1       0.322   5.971  -0.344  0.00  0.00     0.018 A 
ATOM     14  C   UNL d   1      -0.212   7.260  -0.253  0.00  0.00     0.043 A 
ATOM     15  C   UNL d   1       0.625   8.364  -0.367  0.00  0.00     0.116 A 
ATOM     16  C   UNL d   1       1.987   8.202  -0.585  0.00  0.00     0.043 A 
ATOM     17  F   UNL d   1       0.109   9.595  -0.263  0.00  0.00    -0.206 F 
ATOM     18  C   UNL d   1       2.525   6.916  -0.676  0.00  0.00     0.018 A 
ENDBRANCH  10  12
ENDBRANCH   9  10
ENDBRANCH   8   9
ENDBRANCH   5   8
BRANCH   2  19
ATOM     19  C   UNL d   1       2.333  -1.681   0.043  0.00  0.00     0.094 A 
ATOM     20  C   UNL d   1       3.002  -1.940   1.380  0.00  0.00     0.028 A 
ATOM     21  C   UNL d   1       3.767  -1.278   0.278  0.00  0.00     0.028 A 
ENDBRANCH   2  19
BRANCH   1  22
ATOM     22  C   UNL d   1      -0.590  -2.710   0.151  0.00  0.00     0.092 A 
ATOM     23  C   UNL d   1      -1.690  -3.371  -0.393  0.00  0.00     0.044 A 
ATOM     24  N   UNL d   1      -1.825  -4.703  -0.002  0.00  0.00    -0.298 N 
ATOM     25  C   UNL d   1      -2.722  -2.853  -1.327  0.00  0.00     0.071 C 
ATOM     26  N   UNL d   1      -0.897  -5.065   0.860  0.00  0.00    -0.269 N 
ATOM     27  HN  UNL d   1      -2.558  -5.324  -0.343  1.00  0.00     0.187 HD
ATOM     28  S   UNL d   1       0.137  -3.823   1.246  0.00  0.00     0.007 SA
ATOM     29  HN  UNL d   1      -0.821  -6.005   1.248  1.00  0.00     0.195 HD
ENDBRANCH   1  22
TORSDOF 6
