REMARK  4 active torsions:
REMARK  status: ('A' for Active; 'I' for Inactive)
REMARK    1  A    between atoms: C_8  and  S_1 
REMARK    2  A    between atoms: N_10  and  S_1 
REMARK    3  A    between atoms: S_2  and  C_9 
REMARK    4  A    between atoms: N_11  and  S_2 
ROOT
ATOM      1  C   UNL d   1      -1.432   3.186   0.643  0.00  0.00     0.027 A 
ATOM      2  C   UNL d   1      -2.661   5.195   0.964  0.00  0.00     0.027 A 
ATOM      3  C   UNL d   1      -2.782   3.720   0.938  0.00  0.00     0.194 A 
ATOM      4  C   UNL d   1      -1.310   5.511   0.726  0.00  0.00    -0.011 A 
ATOM      5  C   UNL d   1      -0.558   4.284   0.549  0.00  0.00    -0.011 A 
ATOM      6  C   UNL d   1       0.325   1.666   0.186  0.00  0.00     0.075 A 
ATOM      7  C   UNL d   1      -3.247   7.484   1.064  0.00  0.00     0.080 A 
ATOM      8  C   UNL d   1      -1.029   1.873   0.469  0.00  0.00     0.041 A 
ATOM      9  C   UNL d   1      -3.649   6.147   1.135  0.00  0.00     0.041 A 
ATOM     10  C   UNL d   1      -0.921   6.837   0.644  0.00  0.00     0.015 A 
ATOM     11  C   UNL d   1       0.789   4.068   0.312  0.00  0.00     0.015 A 
ATOM     12  O   UNL d   1      -3.793   3.078   1.125  0.00  0.00    -0.287 OA
ATOM     13  C   UNL d   1      -1.901   7.829   0.800  0.00  0.00     0.026 A 
ATOM     14  C   UNL d   1       1.233   2.748   0.142  0.00  0.00     0.026 A 
ENDROOT
BRANCH   6  15
ATOM     15  S   UNL d   1       0.944  -0.000   0.033  0.00  0.00     0.243 S 
ATOM     16  O   UNL d   1       0.038  -0.860   0.763  0.00  0.00    -0.206 OA
ATOM     17  O   UNL d   1       2.358   0.025   0.351  0.00  0.00    -0.206 OA
BRANCH  15  18
ATOM     18  N   UNL d   1       0.800  -0.371  -1.652  0.00  0.00    -0.206 NA
ATOM     19  C   UNL d   1       1.704   0.431  -2.530  0.00  0.00     0.107 C 
ATOM     20  C   UNL d   1       1.479   0.093  -4.002  0.00  0.00     0.015 C 
ATOM     21  C   UNL d   1       1.670  -1.394  -4.265  0.00  0.00     0.002 C 
ATOM     22  C   UNL d   1       0.760  -2.203  -3.351  0.00  0.00     0.015 C 
ATOM     23  C   UNL d   1       0.983  -1.843  -1.885  0.00  0.00     0.107 C 
ENDBRANCH  15  18
ENDBRANCH   6  15
BRANCH   7  24
ATOM     24  S   UNL d   1      -4.465   8.788   1.191  0.00  0.00     0.260 S 
ATOM     25  O   UNL d   1      -3.931   9.933   0.487  0.00  0.00    -0.200 OA
ATOM     26  O   UNL d   1      -5.746   8.218   0.826  0.00  0.00    -0.200 OA
BRANCH  24  27
ATOM     27  N   UNL d   1      -4.486   9.151   2.863  0.00  0.00    -0.307 N 
ATOM     28  C   UNL d   1      -5.115   8.133   3.740  0.00  0.00     0.135 C 
ATOM     29  C   UNL d   1      -5.355   8.707   5.135  0.00  0.00     0.021 C 
ATOM     30  C   UNL d   1      -4.072   9.270   5.734  0.00  0.00     0.003 C 
ATOM     31  C   UNL d   1      -3.467  10.308   4.796  0.00  0.00     0.021 C 
ATOM     32  C   UNL d   1      -3.229   9.719   3.410  0.00  0.00     0.135 C 
ENDBRANCH  24  27
ENDBRANCH   7  24
TORSDOF 4
