REMARK  5 active torsions:
REMARK  status: ('A' for Active; 'I' for Inactive)
REMARK    1  A    between atoms: N_2  and  C_1 
REMARK    2  A    between atoms: C_4  and  N_2 
REMARK    3  A    between atoms: C_8  and  N_2 
REMARK    4  A    between atoms: C_3  and  C_4 
REMARK    5  A    between atoms: C_13  and  C_8 
ROOT
ATOM      1  N   UNL d   1       0.459   0.806  -1.042  0.00  0.00    -0.350 N 
ENDROOT
BRANCH   1   2
ATOM      2  C   UNL d   1       1.306   0.409  -0.024  0.00  0.00     0.170 C 
ATOM      3  S   UNL d   1       0.888   0.282   1.602  0.00  0.00    -0.041 SA
ATOM      4  N   UNL d   1       2.602   0.090  -0.270  0.00  0.00    -0.371 N 
ATOM      5  C   UNL d   1       3.247  -0.488  -1.432  0.00  0.00     0.148 C 
ATOM      6  H   UNL d   1       3.091  -0.104   0.598  0.00  0.00     0.161 HD
ENDBRANCH   1   2
BRANCH   1   7
ATOM      7  C   UNL d   1      -1.014   0.828  -0.861  0.00  0.00     0.166 C 
BRANCH   7   8
ATOM      8  C   UNL d   1      -1.755  -0.374  -1.423  0.00  0.00    -0.018 A 
ATOM      9  C   UNL d   1      -3.162  -0.437  -1.341  0.00  0.00     0.043 A 
ATOM     10  C   UNL d   1      -3.875  -1.497  -1.912  0.00  0.00     0.048 A 
ATOM     11 CL   UNL d   1      -4.080   0.792  -0.543  0.00  0.00    -0.084 Cl
ATOM     12  C   UNL d   1      -3.187  -2.512  -2.566  0.00  0.00     0.035 A 
ATOM     13  C   UNL d   1      -1.798  -2.495  -2.628  0.00  0.00     0.024 A 
ATOM     14 CL   UNL d   1      -4.059  -3.795  -3.311  0.00  0.00    -0.084 Cl
ATOM     15  C   UNL d   1      -1.085  -1.436  -2.055  0.00  0.00     0.012 A 
ENDBRANCH   7   8
ENDBRANCH   1   7
BRANCH   1  16
ATOM     16  C   UNL d   1       0.921   1.455  -2.281  0.00  0.00     0.165 C 
BRANCH  16  17
ATOM     17  C   UNL d   1       1.020   2.961  -2.261  0.00  0.00    -0.025 A 
ATOM     18  C   UNL d   1       1.484   3.606  -3.407  0.00  0.00     0.096 A 
ATOM     19  N   UNL d   1       1.638   4.941  -3.534  0.00  0.00    -0.375 N 
ATOM     20  C   UNL d   1       1.306   5.688  -2.461  0.00  0.00     0.087 A 
ATOM     21  HN  UNL d   1       1.986   5.362  -4.395  1.00  0.00     0.164 HD
ATOM     22  C   UNL d   1       0.833   5.157  -1.276  0.00  0.00     0.018 A 
ATOM     23  C   UNL d   1       0.690   3.775  -1.171  0.00  0.00     0.011 A 
ENDBRANCH  16  17
ENDBRANCH   1  16
TORSDOF 5
