REMARK  6 active torsions:
REMARK  status: ('A' for Active; 'I' for Inactive)
REMARK    1  A    between atoms: C_8  and  C_3 
REMARK    2  A    between atoms: C_13  and  C_6 
REMARK    3  A    between atoms: C_9  and  C_14 
REMARK    4  A    between atoms: O_18  and  C_9 
REMARK    5  A    between atoms: C_14  and  C_13 
REMARK    6  A    between atoms: C_20  and  O_18 
ROOT
ATOM      1  N   UNL d   1       1.182   0.151  -0.534  0.00  0.00    -0.323 N 
ATOM      2  HN  UNL d   1       2.060   0.257  -1.041  1.00  0.00     0.169 HD
ATOM      3  C   UNL d   1       0.259   1.117  -0.197  0.00  0.00     0.137 A 
ATOM      4  N   UNL d   1      -0.805   0.643   0.473  0.00  0.00    -0.242 N 
ATOM      5  HN  UNL d   1      -1.612   1.160   0.823  1.00  0.00     0.196 HD
ATOM      6  C   UNL d   1       0.647  -0.940  -0.038  0.00  0.00     0.148 A 
ATOM      7  O   UNL d   1      -0.547  -0.724   0.578  0.00  0.00    -0.223 OA
ENDROOT
BRANCH   3   8
ATOM      8  C   UNL d   1       0.447   2.520  -0.550  0.00  0.00     0.010 A 
ATOM      9  C   UNL d   1       1.602   2.924  -1.238  0.00  0.00     0.017 A 
ATOM     10  C   UNL d   1       1.790   4.264  -1.592  0.00  0.00     0.025 A 
ATOM     11  C   UNL d   1       0.823   5.208  -1.259  0.00  0.00     0.034 A 
ATOM     12  C   UNL d   1      -0.327   4.827  -0.571  0.00  0.00     0.025 A 
ATOM     13 CL   UNL d   1       1.049   6.855  -1.701  0.00  0.00    -0.084 Cl
ATOM     14  C   UNL d   1      -0.514   3.487  -0.217  0.00  0.00     0.017 A 
ENDBRANCH   3   8
BRANCH   6  15
ATOM     15  C   UNL d   1       1.160  -2.326  -0.038  0.00  0.00     0.096 C 
BRANCH  15  16
ATOM     16  C   UNL d   1       2.683  -2.341  -0.058  0.00  0.00     0.119 C 
BRANCH  16  17
ATOM     17  C   UNL d   1       3.207  -3.736   0.122  0.00  0.00     0.259 C 
ATOM     18  O   UNL d   1       2.516  -4.738   0.231  0.00  0.00    -0.265 OA
BRANCH  17  19
ATOM     19  O   UNL d   1       4.564  -3.692   0.225  0.00  0.00    -0.322 OA
BRANCH  19  20
ATOM     20  C   UNL d   1       5.180  -4.873   0.756  0.00  0.00     0.174 C 
ATOM     21  C   UNL d   1       5.206  -4.751   2.269  0.00  0.00     0.034 C 
ENDBRANCH  19  20
ENDBRANCH  17  19
ENDBRANCH  16  17
ENDBRANCH  15  16
ENDBRANCH   6  15
TORSDOF 6
