REMARK  2 active torsions:
REMARK  status: ('A' for Active; 'I' for Inactive)
REMARK    1  A    between atoms: C_2  and  C_1 
REMARK    2  A    between atoms: C_7  and  C_2 
ROOT
ATOM      1  C   UNL d   1      -0.771   2.530   0.179  0.00  0.00     0.208 C 
ATOM      2  O   UNL d   1      -0.328   1.440  -0.179  0.00  0.00    -0.285 OA
ENDROOT
BRANCH   1   3
ATOM      3  C   UNL d   1      -2.107   2.665   0.730  0.00  0.00     0.083 A 
ATOM      4  N   UNL d   1      -2.786   1.583   1.248  0.00  0.00    -0.363 N 
ATOM      5  C   UNL d   1      -4.000   1.978   1.742  0.00  0.00     0.088 A 
ATOM      6  H   UNL d   1      -2.409   0.642   1.272  0.00  0.00     0.165 HD
ATOM      7  C   UNL d   1      -4.144   3.321   1.481  0.00  0.00     0.019 A 
ATOM      8  C   UNL d   1      -2.962   3.751   0.830  0.00  0.00     0.035 A 
ENDBRANCH   1   3
BRANCH   1   9
ATOM      9  C   UNL d   1       0.116   3.719   0.064  0.00  0.00     0.016 A 
ATOM     10  C   UNL d   1       0.994   3.805  -1.024  0.00  0.00     0.015 A 
ATOM     11  C   UNL d   1       1.862   4.893  -1.137  0.00  0.00     0.001 A 
ATOM     12  C   UNL d   1       1.865   5.889  -0.160  0.00  0.00     0.000 A 
ATOM     13  C   UNL d   1       1.007   5.797   0.936  0.00  0.00     0.001 A 
ATOM     14  C   UNL d   1       0.139   4.711   1.053  0.00  0.00     0.015 A 
ENDBRANCH   1   9
TORSDOF 2
