REMARK  3 active torsions:
REMARK  status: ('A' for Active; 'I' for Inactive)
REMARK       I    between atoms: N_2  and  C_1 
REMARK    1  A    between atoms: C_4  and  C_1 
REMARK       I    between atoms: C_3  and  N_2 
REMARK    2  A    between atoms: C_5  and  C_3 
REMARK       I    between atoms: N_6  and  C_5 
REMARK    3  A    between atoms: C_11  and  N_6 
ROOT
ATOM      1  C   UNL d   1      -0.720  -0.583   0.463  0.00  0.00     0.260 C 
ATOM      2  N   UNL d   1       0.571  -0.992   0.718  0.00  0.00    -0.285 N 
ATOM      3  C   UNL d   1       1.042  -1.599   1.864  0.00  0.00     0.316 C 
ATOM      4  O   UNL d   1      -1.643  -0.643   1.266  0.00  0.00    -0.267 OA
ATOM      5  O   UNL d   1       0.439  -2.005   2.844  0.00  0.00    -0.262 OA
ATOM      6  H   UNL d   1       1.286  -0.827   0.013  0.00  0.00     0.172 HD
ENDROOT
BRANCH   3   7
ATOM      7  C   UNL d   1       2.570  -1.774   1.800  0.00  0.00     0.314 C 
ATOM      8  N   UNL d   1       3.086  -2.497   2.853  0.00  0.00    -0.319 N 
ATOM      9  H   UNL d   1       2.392  -2.891   3.486  0.00  0.00     0.169 HD
ATOM     10  O   UNL d   1       3.152  -1.285   0.839  0.00  0.00    -0.262 OA
BRANCH   8  11
ATOM     11  C   UNL d   1       4.445  -2.738   3.124  0.00  0.00     0.035 A 
ATOM     12  C   UNL d   1       5.487  -2.091   2.451  0.00  0.00     0.031 A 
ATOM     13  C   UNL d   1       6.820  -2.344   2.791  0.00  0.00     0.026 A 
ATOM     14  C   UNL d   1       7.117  -3.255   3.799  0.00  0.00     0.034 A 
ATOM     15  C   UNL d   1       6.091  -3.914   4.472  0.00  0.00     0.026 A 
ATOM     16 CL   UNL d   1       8.756  -3.562   4.220  0.00  0.00    -0.084 Cl
ATOM     17  C   UNL d   1       4.757  -3.648   4.140  0.00  0.00     0.031 A 
ENDBRANCH   8  11
ENDBRANCH   3   7
BRANCH   1  18
ATOM     18  C   UNL d   1      -0.953   0.066  -0.864  0.00  0.00     0.054 A 
ATOM     19  C   UNL d   1      -0.290  -0.275  -2.054  0.00  0.00     0.049 A 
ATOM     20 CL   UNL d   1       0.846  -1.572  -2.176  0.00  0.00    -0.083 Cl
ATOM     21  C   UNL d   1      -0.561   0.428  -3.236  0.00  0.00     0.025 A 
ATOM     22  C   UNL d   1      -1.500   1.460  -3.246  0.00  0.00     0.002 A 
ATOM     23  C   UNL d   1      -2.181   1.788  -2.079  0.00  0.00     0.001 A 
ATOM     24  C   UNL d   1      -1.912   1.095  -0.896  0.00  0.00     0.019 A 
ENDBRANCH   1  18
TORSDOF 3
