REMARK  5 active torsions:
REMARK  status: ('A' for Active; 'I' for Inactive)
REMARK    1  A    between atoms: C_6  and  S_1 
REMARK    2  A    between atoms: N_12  and  S_1 
REMARK    3  A    between atoms: C_2  and  C_10 
REMARK    4  A    between atoms: N_13  and  C_11 
REMARK    5  A    between atoms: O_19  and  N_13 
ROOT
ATOM      1  C   UNL d   1       0.517  -1.556   0.814  0.00  0.00     0.074 A 
ATOM      2  C   UNL d   1       0.026  -3.923   2.239  0.00  0.00    -0.002 A 
ATOM      3  C   UNL d   1       0.726  -2.794   0.200  0.00  0.00     0.026 A 
ATOM      4  C   UNL d   1       0.037  -1.485   2.122  0.00  0.00     0.026 A 
ATOM      5  C   UNL d   1       0.473  -3.972   0.911  0.00  0.00     0.016 A 
ATOM      6  C   UNL d   1      -0.209  -2.667   2.826  0.00  0.00     0.016 A 
ENDROOT
BRANCH   2   7
ATOM      7  C   UNL d   1      -0.110  -5.136   3.039  0.00  0.00     0.086 A 
ATOM      8  O   UNL d   1      -0.426  -6.296   2.385  0.00  0.00    -0.309 OA
ATOM      9  C   UNL d   1      -0.465  -7.292   3.325  0.00  0.00     0.093 A 
ATOM     10  C   UNL d   1      -0.772  -8.634   2.918  0.00  0.00     0.151 C 
ATOM     11  C   UNL d   1      -0.167  -6.771   4.568  0.00  0.00     0.041 A 
ATOM     12  C   UNL d   1       0.048  -5.388   4.386  0.00  0.00     0.041 A 
BRANCH  10  13
ATOM     13  N   UNL d   1      -0.771  -9.592   3.791  0.00  0.00    -0.278 N 
ATOM     14  HN  UNL d   1      -0.566  -9.481   4.784  1.00  0.00     0.193 HD
BRANCH  13  15
ATOM     15  O   UNL d   1      -1.092 -10.802   3.165  0.00  0.00    -0.290 OA
ATOM     16  H   UNL d   1      -1.049 -11.437   3.906  0.00  0.00     0.244 HD
ENDBRANCH  13  15
ENDBRANCH  10  13
ENDBRANCH   2   7
BRANCH   1  17
ATOM     17  S   UNL d   1       0.902  -0.065  -0.053  0.00  0.00     0.239 S 
ATOM     18  O   UNL d   1       1.270  -0.383  -1.415  0.00  0.00    -0.206 OA
ATOM     19  O   UNL d   1       1.715   0.771   0.797  0.00  0.00    -0.206 OA
BRANCH  17  20
ATOM     20  N   UNL d   1      -0.595   0.687  -0.165  0.00  0.00    -0.225 NA
ATOM     21  H   UNL d   1      -0.932   0.645  -1.126  0.00  0.00     0.136 HD
ATOM     22  H   UNL d   1      -0.522   1.638   0.200  0.00  0.00     0.136 HD
ENDBRANCH  17  20
ENDBRANCH   1  17
TORSDOF 5
