REMARK  4 active torsions:
REMARK  status: ('A' for Active; 'I' for Inactive)
REMARK    1  A    between atoms: C_2  and  C_1 
REMARK    2  A    between atoms: C_3  and  C_1 
REMARK    3  A    between atoms: C_4  and  C_2 
REMARK    4  A    between atoms: C_5  and  C_3 
ROOT
ATOM      1  C   UNL d   1       1.111  -0.021   0.069  0.00  0.00     0.167 C 
ENDROOT
BRANCH   1   2
ATOM      2  C   UNL d   1       0.542   0.441   1.389  0.00  0.00     0.168 C 
ATOM      3  O   UNL d   1      -0.073  -0.341   2.114  0.00  0.00    -0.292 OA
BRANCH   2   4
ATOM      4  C   UNL d   1       0.677   1.866   1.801  0.00  0.00     0.025 A 
ATOM      5  C   UNL d   1       0.113   2.265   3.009  0.00  0.00     0.102 A 
ATOM      6  N   UNL d   1       0.137   3.539   3.478  0.00  0.00    -0.374 N 
ATOM      7  C   UNL d   1       0.761   4.457   2.711  0.00  0.00     0.087 A 
ATOM      8  HN  UNL d   1      -0.296   3.790   4.366  1.00  0.00     0.164 HD
ATOM      9  C   UNL d   1       1.357   4.160   1.496  0.00  0.00     0.018 A 
ATOM     10  C   UNL d   1       1.316   2.844   1.034  0.00  0.00     0.018 A 
ENDBRANCH   2   4
ENDBRANCH   1   2
BRANCH   1  11
ATOM     11  C   UNL d   1       2.592  -0.302   0.103  0.00  0.00     0.168 C 
ATOM     12  O   UNL d   1       3.284  -0.059   1.088  0.00  0.00    -0.292 OA
BRANCH  11  13
ATOM     13  C   UNL d   1       3.242  -0.848  -1.118  0.00  0.00     0.025 A 
ATOM     14  C   UNL d   1       4.588  -1.194  -1.067  0.00  0.00     0.102 A 
ATOM     15  N   UNL d   1       5.290  -1.667  -2.128  0.00  0.00    -0.374 N 
ATOM     16  C   UNL d   1       4.621  -1.802  -3.291  0.00  0.00     0.087 A 
ATOM     17  HN  UNL d   1       6.278  -1.908  -2.049  1.00  0.00     0.164 HD
ATOM     18  C   UNL d   1       3.280  -1.492  -3.443  0.00  0.00     0.018 A 
ATOM     19  C   UNL d   1       2.578  -1.009  -2.337  0.00  0.00     0.018 A 
ENDBRANCH  11  13
ENDBRANCH   1  11
TORSDOF 4
