REMARK  2 active torsions:
REMARK  status: ('A' for Active; 'I' for Inactive)
REMARK       I    between atoms: N_2  and  C_1 
REMARK    1  A    between atoms: C_3  and  C_1 
REMARK    2  A    between atoms: C_9  and  N_2 
ROOT
ATOM      1  C   UNL d   1       1.014   0.029  -0.009  0.00  0.00     0.256 C 
ATOM      2  N   UNL d   1       0.377   1.237   0.236  0.00  0.00    -0.323 N 
ATOM      3  O   UNL d   1       2.224  -0.138  -0.133  0.00  0.00    -0.267 OA
ATOM      4  H   UNL d   1      -0.585   1.201   0.537  0.00  0.00     0.169 HD
ENDROOT
BRANCH   2   5
ATOM      5  C   UNL d   1       1.030   2.488   0.328  0.00  0.00     0.037 A 
ATOM      6  C   UNL d   1       2.325   2.702  -0.150  0.00  0.00     0.069 A 
ATOM      7  C   UNL d   1       2.958   3.928   0.036  0.00  0.00     0.104 A 
ATOM      8  O   UNL d   1       4.238   4.027  -0.444  0.00  0.00    -0.346 OA
ATOM      9  C   UNL d   1       2.289   4.972   0.674  0.00  0.00     0.102 A 
ATOM     10  C   UNL d   1       4.920   5.144   0.128  0.00  0.00     0.202 C 
ATOM     11  C   UNL d   1       4.038   6.381   0.102  0.00  0.00     0.202 C 
ATOM     12  O   UNL d   1       2.859   6.199   0.897  0.00  0.00    -0.346 OA
ATOM     13  C   UNL d   1       0.984   4.784   1.125  0.00  0.00     0.042 A 
ATOM     14  C   UNL d   1       0.349   3.549   0.939  0.00  0.00     0.032 A 
ENDBRANCH   2   5
BRANCH   1  15
ATOM     15  C   UNL d   1       0.158  -1.177  -0.051  0.00  0.00     0.032 A 
ATOM     16  C   UNL d   1       0.715  -2.383   0.396  0.00  0.00     0.024 A 
ATOM     17  C   UNL d   1      -0.007  -3.582   0.327  0.00  0.00    -0.055 A 
ATOM     18  C   UNL d   1       0.643  -4.853   0.802  0.00  0.00     0.049 C 
ATOM     19  C   UNL d   1      -1.311  -3.564  -0.204  0.00  0.00    -0.056 A 
ATOM     20  C   UNL d   1      -1.861  -2.350  -0.650  0.00  0.00     0.008 A 
ATOM     21  C   UNL d   1      -2.116  -4.829  -0.323  0.00  0.00     0.049 C 
ATOM     22  C   UNL d   1      -1.133  -1.159  -0.577  0.00  0.00     0.017 A 
ENDBRANCH   1  15
TORSDOF 2
