REMARK  7 active torsions:
REMARK  status: ('A' for Active; 'I' for Inactive)
REMARK    1  A    between atoms: C_12  and  C_1 
REMARK    2  A    between atoms: N_10  and  C_2 
REMARK    3  A    between atoms: C_19  and  C_6 
REMARK       I    between atoms: C_9  and  N_10 
REMARK       I    between atoms: N_14  and  C_9 
REMARK    4  A    between atoms: C_17  and  C_11 
REMARK    5  A    between atoms: O_27  and  C_12 
REMARK    6  A    between atoms: C_18  and  N_14 
REMARK    7  A    between atoms: C_36  and  O_27 
ROOT
ATOM      1  C   UNL d   1      -2.119   0.102   0.308  0.00  0.00     0.175 A 
ATOM      2  C   UNL d   1      -1.362   1.271   0.294  0.00  0.00     0.072 A 
ATOM      3  C   UNL d   1       0.040   0.883   0.263  0.00  0.00     0.051 A 
ATOM      4  C   UNL d   1      -0.021  -0.527   0.210  0.00  0.00     0.162 A 
ATOM      5  O   UNL d   1      -1.299  -0.970   0.227  0.00  0.00    -0.285 OA
ATOM      6  C   UNL d   1       1.357   1.453   0.335  0.00  0.00    -0.007 A 
ATOM      7  N   UNL d   1       0.984  -1.421   0.189  0.00  0.00    -0.335 N 
ATOM      8  HN  UNL d   1       0.827  -2.428   0.158  1.00  0.00     0.168 HD
ATOM      9  C   UNL d   1       2.201  -0.880   0.213  0.00  0.00     0.045 A 
ATOM     10  C   UNL d   1       2.407   0.492   0.284  0.00  0.00     0.043 A 
ENDROOT
BRANCH   2  11
ATOM     11  N   UNL d   1      -1.966   2.518   0.506  0.00  0.00    -0.206 NA
ATOM     12  C   UNL d   1      -2.485   3.297  -0.492  0.00  0.00     0.303 C 
ATOM     13  N   UNL d   1      -1.732   3.482  -1.616  0.00  0.00    -0.313 N 
ATOM     14  O   UNL d   1      -3.562   3.853  -0.265  0.00  0.00    -0.253 OA
ATOM     15  H   UNL d   1      -0.732   3.355  -1.486  0.00  0.00     0.170 HD
ATOM     16  H   UNL d   1      -2.767   2.445   1.136  0.00  0.00     0.138 HD
BRANCH  13  17
ATOM     17  C   UNL d   1      -2.140   4.317  -2.693  0.00  0.00     0.037 A 
ATOM     18  C   UNL d   1      -3.492   4.483  -3.040  0.00  0.00     0.055 A 
ATOM     19  C   UNL d   1      -3.865   5.368  -4.065  0.00  0.00     0.058 A 
ATOM     20 CL   UNL d   1      -5.548   5.516  -4.431  0.00  0.00    -0.082 Cl
ATOM     21  C   UNL d   1      -2.886   6.096  -4.740  0.00  0.00     0.055 A 
ATOM     22  C   UNL d   1      -1.540   5.910  -4.414  0.00  0.00     0.028 A 
ATOM     23 CL   UNL d   1      -3.265   7.233  -5.981  0.00  0.00    -0.083 Cl
ATOM     24  C   UNL d   1      -1.169   5.015  -3.405  0.00  0.00     0.031 A 
ENDBRANCH  13  17
ENDBRANCH   2  11
BRANCH   1  25
ATOM     25  C   UNL d   1      -3.552  -0.105   0.377  0.00  0.00     0.319 C 
ATOM     26  O   UNL d   1      -4.382   0.795   0.345  0.00  0.00    -0.257 OA
BRANCH  25  27
ATOM     27  O   UNL d   1      -3.858  -1.429   0.485  0.00  0.00    -0.316 OA
BRANCH  27  28
ATOM     28  C   UNL d   1      -5.243  -1.768   0.322  0.00  0.00     0.175 C 
ATOM     29  C   UNL d   1      -6.073  -1.483   1.562  0.00  0.00     0.034 C 
ENDBRANCH  27  28
ENDBRANCH  25  27
ENDBRANCH   1  25
BRANCH   6  30
ATOM     30  C   UNL d   1       1.732   2.890   0.558  0.00  0.00    -0.025 A 
ATOM     31  C   UNL d   1       0.862   3.868   1.049  0.00  0.00     0.012 A 
ATOM     32  C   UNL d   1       1.288   5.165   1.383  0.00  0.00     0.001 A 
ATOM     33  C   UNL d   1       2.626   5.518   1.284  0.00  0.00     0.000 A 
ATOM     34  C   UNL d   1       3.526   4.594   0.788  0.00  0.00     0.001 A 
ATOM     35  C   UNL d   1       3.076   3.325   0.399  0.00  0.00     0.012 A 
ENDBRANCH   6  30
BRANCH   9  36
ATOM     36  C   UNL d   1       3.360  -1.793   0.238  0.00  0.00    -0.009 A 
ATOM     37  C   UNL d   1       4.384  -1.682  -0.718  0.00  0.00     0.015 A 
ATOM     38  C   UNL d   1       5.553  -2.443  -0.621  0.00  0.00     0.024 A 
ATOM     39  C   UNL d   1       5.710  -3.332   0.438  0.00  0.00     0.034 A 
ATOM     40  C   UNL d   1       4.700  -3.480   1.386  0.00  0.00     0.024 A 
ATOM     41 CL   UNL d   1       7.166  -4.237   0.583  0.00  0.00    -0.084 Cl
ATOM     42  C   UNL d   1       3.529  -2.720   1.283  0.00  0.00     0.015 A 
ENDBRANCH   9  36
TORSDOF 7
