REMARK  4 active torsions:
REMARK  status: ('A' for Active; 'I' for Inactive)
REMARK    1  A    between atoms: C_10  and  C_1 
REMARK    2  A    between atoms: N_14  and  C_8 
REMARK    3  A    between atoms: N_13  and  C_9 
REMARK    4  A    between atoms: O_16  and  C_12 
ROOT
ATOM      1  C   UNL d   1      -0.072   1.652   0.083  0.00  0.00     0.124 A 
ATOM      2  N   UNL d   1      -1.136   1.072   0.636  0.00  0.00    -0.318 N 
ATOM      3  HN  UNL d   1      -1.897   1.613   1.048  1.00  0.00     0.170 HD
ATOM      4  N   UNL d   1       0.923   0.977  -0.494  0.00  0.00    -0.318 N 
ATOM      5  HN  UNL d   1       1.732   1.441  -0.905  1.00  0.00     0.170 HD
ATOM      6  N   UNL d   1      -0.215  -1.002   0.056  0.00  0.00    -0.309 N 
ATOM      7  HN  UNL d   1      -0.267  -2.021   0.049  1.00  0.00     0.171 HD
ATOM      8  C   UNL d   1       0.785  -0.338  -0.495  0.00  0.00     0.158 A 
ATOM      9  C   UNL d   1      -1.142  -0.249   0.617  0.00  0.00     0.158 A 
ENDROOT
BRANCH   1  10
ATOM     10  C   UNL d   1       0.002   3.131   0.120  0.00  0.00     0.063 A 
ATOM     11  C   UNL d   1      -0.445   3.879   1.239  0.00  0.00     0.050 A 
ATOM     12 CL   UNL d   1      -1.000   3.156   2.720  0.00  0.00    -0.083 Cl
ATOM     13  C   UNL d   1      -0.422   5.282   1.244  0.00  0.00     0.025 A 
ATOM     14  C   UNL d   1       0.063   5.983   0.150  0.00  0.00     0.004 A 
ATOM     15  C   UNL d   1       0.536   5.283  -0.953  0.00  0.00     0.038 A 
ATOM     16  C   UNL d   1       0.521   3.877  -0.973  0.00  0.00     0.083 A 
BRANCH  16  17
ATOM     17  O   UNL d   1       0.931   3.189  -2.094  0.00  0.00    -0.355 OA
ATOM     18  C   UNL d   1       2.036   3.756  -2.795  0.00  0.00     0.210 C 
ENDBRANCH  16  17
ENDBRANCH   1  10
BRANCH   9  19
ATOM     19  N   UNL d   1      -2.169  -0.886   1.288  0.00  0.00    -0.274 NA
ATOM     20  H   UNL d   1      -2.532  -0.267   2.003  0.00  0.00     0.127 HD
ATOM     21  H   UNL d   1      -1.859  -1.796   1.595  0.00  0.00     0.127 HD
ENDBRANCH   9  19
BRANCH   8  22
ATOM     22  N   UNL d   1       1.736  -1.079  -1.175  0.00  0.00    -0.274 NA
ATOM     23  H   UNL d   1       1.326  -1.954  -1.469  0.00  0.00     0.127 HD
ATOM     24  H   UNL d   1       2.143  -0.504  -1.901  0.00  0.00     0.127 HD
ENDBRANCH   8  22
TORSDOF 4
