REMARK  11 active torsions:
REMARK  status: ('A' for Active; 'I' for Inactive)
REMARK    1  A    between atoms: C_3  and  S_1 
REMARK    2  A    between atoms: N_4  and  S_1 
REMARK    3  A    between atoms: C_2  and  C_13 
REMARK       I    between atoms: N_5  and  C_2 
REMARK    4  A    between atoms: C_22  and  N_4 
REMARK    5  A    between atoms: C_23  and  N_4 
REMARK    6  A    between atoms: N_12  and  N_5 
REMARK       I    between atoms: C_6  and  N_12 
REMARK    7  A    between atoms: C_9  and  C_6 
REMARK    8  A    between atoms: C_10  and  C_11 
REMARK    9  A    between atoms: O_21  and  C_10 
REMARK   10  A    between atoms: C_25  and  C_22 
REMARK   11  A    between atoms: C_24  and  C_23 
ROOT
ATOM      1  C   UNL d   1       0.433   0.792  -1.616  0.00  0.00     0.074 A 
ATOM      2  C   UNL d   1      -0.565   2.035  -3.928  0.00  0.00     0.033 A 
ATOM      3  C   UNL d   1      -0.194   0.021  -2.595  0.00  0.00     0.026 A 
ATOM      4  C   UNL d   1       0.492   2.184  -1.744  0.00  0.00     0.026 A 
ATOM      5  C   UNL d   1       0.003   2.804  -2.902  0.00  0.00     0.018 A 
ATOM      6  C   UNL d   1      -0.688   0.645  -3.748  0.00  0.00     0.018 A 
ENDROOT
BRANCH   2   7
ATOM      7  C   UNL d   1      -0.952   2.608  -5.258  0.00  0.00     0.270 C 
ATOM      8  N   UNL d   1      -0.982   3.983  -5.398  0.00  0.00    -0.263 N 
ATOM      9  H   UNL d   1      -0.910   4.659  -4.643  0.00  0.00     0.190 HD
ATOM     10  O   UNL d   1      -1.196   1.861  -6.204  0.00  0.00    -0.266 OA
BRANCH   8  11
ATOM     11  N   UNL d   1      -1.177   4.508  -6.689  0.00  0.00    -0.264 N 
ATOM     12  C   UNL d   1      -1.025   5.861  -6.887  0.00  0.00     0.260 C 
ATOM     13  O   UNL d   1      -0.748   6.653  -5.990  0.00  0.00    -0.267 OA
ATOM     14  H   UNL d   1      -1.314   3.826  -7.433  0.00  0.00     0.190 HD
BRANCH  12  15
ATOM     15  C   UNL d   1      -1.240   6.291  -8.288  0.00  0.00     0.082 C 
ATOM     16  C   UNL d   1      -1.067   7.584  -8.611  0.00  0.00     0.086 C 
BRANCH  16  17
ATOM     17  C   UNL d   1      -1.339   8.019  -9.992  0.00  0.00     0.165 C 
ATOM     18  O   UNL d   1      -1.735   7.280 -10.876  0.00  0.00    -0.647 OA
BRANCH  17  19
ATOM     19  O   UNL d   1      -1.109   9.333 -10.172  0.00  0.00    -0.773 OA
ATOM     20  H   UNL d   1      -0.799   9.826  -9.392  0.00  0.00     0.167 HD
ENDBRANCH  17  19
ENDBRANCH  16  17
ENDBRANCH  12  15
ENDBRANCH   8  11
ENDBRANCH   2   7
BRANCH   1  21
ATOM     21  S   UNL d   1       1.070   0.010  -0.146  0.00  0.00     0.243 S 
ATOM     22  O   UNL d   1       0.208  -1.114   0.128  0.00  0.00    -0.206 OA
ATOM     23  O   UNL d   1       1.271   1.047   0.848  0.00  0.00    -0.206 OA
BRANCH  21  24
ATOM     24  N   UNL d   1       2.653  -0.577  -0.593  0.00  0.00    -0.206 NA
BRANCH  24  25
ATOM     25  C   UNL d   1       3.542   0.508  -1.144  0.00  0.00     0.107 C 
BRANCH  25  26
ATOM     26  C   UNL d   1       4.936   0.050  -1.588  0.00  0.00     0.011 C 
ATOM     27  C   UNL d   1       4.926  -1.093  -2.590  0.00  0.00     0.006 C 
ENDBRANCH  25  26
ENDBRANCH  24  25
BRANCH  24  28
ATOM     28  C   UNL d   1       3.309  -1.331   0.538  0.00  0.00     0.107 C 
BRANCH  28  29
ATOM     29  C   UNL d   1       2.679  -2.694   0.821  0.00  0.00     0.011 C 
ATOM     30  C   UNL d   1       2.592  -3.582  -0.411  0.00  0.00     0.006 C 
ENDBRANCH  28  29
ENDBRANCH  24  28
ENDBRANCH  21  24
ENDBRANCH   1  21
TORSDOF 11
