REMARK  3 active torsions:
REMARK  status: ('A' for Active; 'I' for Inactive)
REMARK    1  A    between atoms: C_9  and  N_1 
REMARK    2  A    between atoms: N_8  and  N_2 
REMARK       I    between atoms: C_7  and  N_8 
REMARK       I    between atoms: N_10  and  C_7 
REMARK    3  A    between atoms: C_15  and  N_10 
ROOT
ATOM      1  N   UNL d   1      -1.053  -0.858   0.621  0.00  0.00    -0.305 N 
ATOM      2  N   UNL d   1       0.477   1.386   0.451  0.00  0.00    -0.247 N 
ATOM      3  C   UNL d   1      -1.717   0.346   0.328  0.00  0.00     0.244 C 
ATOM      4  C   UNL d   1       1.157   0.192   0.638  0.00  0.00     0.257 C 
ATOM      5  C   UNL d   1      -0.799   1.429  -0.255  0.00  0.00     0.255 C 
ATOM      6  C   UNL d   1       0.349  -1.024   0.215  0.00  0.00     0.237 C 
ATOM      7  O   UNL d   1       2.328   0.143   1.012  0.00  0.00    -0.270 OA
ATOM      8  O   UNL d   1      -2.933   0.504   0.388  0.00  0.00    -0.271 OA
ENDROOT
BRANCH   2   9
ATOM      9  N   UNL d   1       1.274   2.566   0.420  0.00  0.00    -0.246 N 
ATOM     10  C   UNL d   1       1.664   3.096  -0.814  0.00  0.00     0.339 C 
ATOM     11  N   UNL d   1       2.595   4.104  -0.643  0.00  0.00    -0.308 N 
ATOM     12  O   UNL d   1       1.163   2.747  -1.877  0.00  0.00    -0.245 OA
ATOM     13  H   UNL d   1       3.081   4.126   0.241  0.00  0.00     0.170 HD
ATOM     14  H   UNL d   1       2.002   2.543   1.129  0.00  0.00     0.192 HD
BRANCH  11  15
ATOM     15  C   UNL d   1       2.886   5.157  -1.536  0.00  0.00     0.036 A 
ATOM     16  C   UNL d   1       2.202   5.367  -2.733  0.00  0.00     0.030 A 
ATOM     17  C   UNL d   1       2.400   6.543  -3.464  0.00  0.00     0.009 A 
ATOM     18  C   UNL d   1       3.287   7.525  -3.013  0.00  0.00    -0.062 A 
ATOM     19  C   UNL d   1       4.041   7.273  -1.863  0.00  0.00     0.009 A 
ATOM     20  C   UNL d   1       3.399   8.829  -3.745  0.00  0.00     0.048 C 
ATOM     21  C   UNL d   1       3.841   6.098  -1.131  0.00  0.00     0.030 A 
ENDBRANCH  11  15
ENDBRANCH   2   9
BRANCH   1  22
ATOM     22  C   UNL d   1      -1.745  -1.996   1.137  0.00  0.00     0.076 A 
ATOM     23  C   UNL d   1      -1.429  -3.300   0.719  0.00  0.00     0.143 A 
ATOM     24  F   UNL d   1      -0.580  -3.501  -0.302  0.00  0.00    -0.204 F 
ATOM     25  C   UNL d   1      -1.997  -4.420   1.321  0.00  0.00     0.044 A 
ATOM     26  C   UNL d   1      -2.893  -4.254   2.373  0.00  0.00     0.003 A 
ATOM     27  C   UNL d   1      -3.249  -2.968   2.783  0.00  0.00     0.002 A 
ATOM     28  C   UNL d   1      -2.693  -1.845   2.156  0.00  0.00     0.033 A 
ENDBRANCH   1  22
TORSDOF 3
