REMARK  2 active torsions:
REMARK  status: ('A' for Active; 'I' for Inactive)
REMARK    1  A    between atoms: C_2  and  N_1 
REMARK    2  A    between atoms: C_10  and  C_8 
ROOT
ATOM      1  C   UNL d   1      -0.002   2.325   0.050  0.00  0.00     0.068 A 
ATOM      2  C   UNL d   1       0.696   3.000  -0.974  0.00  0.00     0.047 A 
ATOM      3  C   UNL d   1       0.659   4.396  -1.076  0.00  0.00     0.011 A 
ATOM      4  C   UNL d   1      -0.697   3.081   1.013  0.00  0.00     0.061 A 
ATOM      5  C   UNL d   1      -0.042   5.126  -0.105  0.00  0.00     0.017 A 
ATOM      6  C   UNL d   1      -0.706   4.476   0.936  0.00  0.00     0.027 A 
ATOM      7 CL   UNL d   1      -1.415   2.372   2.419  0.00  0.00    -0.082 Cl
ENDROOT
BRANCH   1   8
ATOM      8  N   UNL d   1       0.018   0.911   0.082  0.00  0.00    -0.244 N 
ATOM      9  C   UNL d   1      -1.100   0.127   0.141  0.00  0.00     0.255 C 
ATOM     10  C   UNL d   1      -0.647  -1.269   0.096  0.00  0.00     0.080 C 
ATOM     11  O   UNL d   1      -2.279   0.431   0.102  0.00  0.00    -0.268 OA
ATOM     12  C   UNL d   1       0.672  -1.265  -0.089  0.00  0.00     0.080 C 
ATOM     13  C   UNL d   1       1.110   0.134  -0.168  0.00  0.00     0.255 C 
ATOM     14  O   UNL d   1       2.260   0.452  -0.411  0.00  0.00    -0.268 OA
ENDBRANCH   1   8
BRANCH   3  15
ATOM     15  C   UNL d   1       1.320   5.170  -2.175  0.00  0.00     0.155 C 
ATOM     16  O   UNL d   1       1.329   6.400  -2.113  0.00  0.00    -0.293 OA
ATOM     17  C   UNL d   1       1.941   4.479  -3.362  0.00  0.00     0.096 C 
ENDBRANCH   3  15
TORSDOF 2
