REMARK  7 active torsions:
REMARK  status: ('A' for Active; 'I' for Inactive)
REMARK    1  A    between atoms: C_14  and  N_1 
REMARK    2  A    between atoms: C_2  and  C_13 
REMARK    3  A    between atoms: S_15  and  C_3 
REMARK    4  A    between atoms: O_25  and  C_5 
REMARK    5  A    between atoms: C_13  and  C_19 
REMARK    6  A    between atoms: C_16  and  C_14 
REMARK    7  A    between atoms: C_19  and  S_15 
ROOT
ATOM      1  N   UNL d   1       4.821   0.889  -2.178  0.00  0.00    -0.285 N 
ATOM      2  C   UNL d   1       3.938  -0.149  -2.194  0.00  0.00     0.165 A 
ATOM      3  C   UNL d   1       4.948   1.269  -3.489  0.00  0.00     0.240 A 
ATOM      4  N   UNL d   1       3.590  -0.419  -3.432  0.00  0.00    -0.277 N 
ATOM      5  HN  UNL d   1       2.947  -1.153  -3.730  1.00  0.00     0.189 HD
ATOM      6  N   UNL d   1       4.247   0.465  -4.253  0.00  0.00    -0.263 N 
ATOM      7  HN  UNL d   1       4.198   0.491  -5.272  1.00  0.00     0.190 HD
ENDROOT
BRANCH   2   8
ATOM      8  S   UNL d   1       3.323  -0.923  -0.780  0.00  0.00    -0.084 SA
BRANCH   8   9
ATOM      9  C   UNL d   1       3.130  -2.624  -1.390  0.00  0.00     0.166 C 
BRANCH   9  10
ATOM     10  C   UNL d   1       4.398  -3.423  -1.105  0.00  0.00     0.176 C 
ATOM     11  O   UNL d   1       5.375  -3.312  -1.850  0.00  0.00    -0.291 OA
BRANCH  10  12
ATOM     12  C   UNL d   1       4.402  -4.320   0.053  0.00  0.00     0.059 C 
ATOM     13  S   UNL d   1       3.573  -3.869   1.478  0.00  0.00    -0.085 SA
ATOM     14  C   UNL d   1       3.932  -5.339   2.271  0.00  0.00     0.016 A 
ATOM     15  C   UNL d   1       3.538  -5.708   3.571  0.00  0.00     0.021 A 
ATOM     16  C   UNL d   1       4.683  -6.185   1.454  0.00  0.00    -0.010 A 
ATOM     17  C   UNL d   1       3.831  -6.995   4.024  0.00  0.00     0.025 A 
ATOM     18  C   UNL d   1       4.505  -7.884   3.202  0.00  0.00     0.035 A 
ATOM     19  C   UNL d   1       4.958  -7.490   1.940  0.00  0.00     0.037 A 
ATOM     20 CL   UNL d   1       4.780  -9.496   3.738  0.00  0.00    -0.084 Cl
ATOM     21  C   UNL d   1       5.079  -5.523   0.222  0.00  0.00    -0.029 C 
ATOM     22  C   UNL d   1       6.078  -6.107  -0.733  0.00  0.00     0.050 C 
ENDBRANCH  10  12
ENDBRANCH   9  10
ENDBRANCH   8   9
ENDBRANCH   2   8
BRANCH   1  23
ATOM     23  C   UNL d   1       5.554   1.435  -1.057  0.00  0.00     0.200 C 
BRANCH  23  24
ATOM     24  C   UNL d   1       4.956   2.727  -0.644  0.00  0.00     0.070 A 
ATOM     25  O   UNL d   1       5.318   3.819  -1.381  0.00  0.00    -0.325 OA
ATOM     26  C   UNL d   1       4.654   4.883  -0.859  0.00  0.00     0.142 A 
ATOM     27  C   UNL d   1       3.872   4.489   0.202  0.00  0.00     0.027 A 
ATOM     28  C   UNL d   1       4.067   3.094   0.343  0.00  0.00     0.036 A 
ENDBRANCH  23  24
ENDBRANCH   1  23
BRANCH   3  29
ATOM     29  O   UNL d   1       5.660   2.289  -3.941  0.00  0.00    -0.331 OA
ATOM     30  H   UNL d   1       5.733   2.951  -3.232  0.00  0.00     0.221 HD
ENDBRANCH   3  29
TORSDOF 7
