REMARK  4 active torsions:
REMARK  status: ('A' for Active; 'I' for Inactive)
REMARK    1  A    between atoms: N_7  and  S_1 
REMARK    2  A    between atoms: C_9  and  S_1 
REMARK    3  A    between atoms: C_2  and  N_7 
REMARK    4  A    between atoms: C_13  and  C_4 
ROOT
ATOM      1  C   UNL d   1       0.808  -0.409   2.717  0.00  0.00     0.071 A 
ATOM      2  C   UNL d   1       2.024  -1.007   2.989  0.00  0.00     0.113 A 
ATOM      3  C   UNL d   1       0.412  -1.265   4.877  0.00  0.00    -0.006 A 
ATOM      4  S   UNL d   1       2.030  -1.745   4.532  0.00  0.00    -0.081 SA
ATOM      5  C   UNL d   1      -0.101  -0.544   3.811  0.00  0.00     0.047 A 
ATOM      6  C   UNL d   1       3.192  -0.973   2.162  0.00  0.00     0.109 C 
ATOM      7  N   UNL d   1       4.169  -0.928   1.539  0.00  0.00    -0.191 NA
ENDROOT
BRANCH   1   8
ATOM      8  N   UNL d   1       0.479   0.335   1.574  0.00  0.00    -0.279 N 
ATOM      9  H   UNL d   1       0.009   1.233   1.693  0.00  0.00     0.179 HD
BRANCH   8  10
ATOM     10  S   UNL d   1      -0.034  -0.407   0.142  0.00  0.00     0.263 S 
ATOM     11  O   UNL d   1       0.913  -1.442  -0.212  0.00  0.00    -0.200 OA
ATOM     12  O   UNL d   1      -0.363   0.669  -0.768  0.00  0.00    -0.200 OA
BRANCH  10  13
ATOM     13  C   UNL d   1      -1.571  -1.199   0.586  0.00  0.00     0.079 A 
ATOM     14  C   UNL d   1      -2.762  -0.467   0.535  0.00  0.00     0.026 A 
ATOM     15  C   UNL d   1      -3.986  -1.120   0.711  0.00  0.00     0.008 A 
ATOM     16  C   UNL d   1      -4.031  -2.505   0.923  0.00  0.00    -0.062 A 
ATOM     17  C   UNL d   1      -2.829  -3.224   0.990  0.00  0.00     0.008 A 
ATOM     18  C   UNL d   1      -5.355  -3.206   1.016  0.00  0.00     0.048 C 
ATOM     19  C   UNL d   1      -1.601  -2.577   0.819  0.00  0.00     0.026 A 
ENDBRANCH  10  13
ENDBRANCH   8  10
ENDBRANCH   1   8
BRANCH   3  20
ATOM     20  C   UNL d   1      -0.251  -1.627   6.214  0.00  0.00    -0.018 C 
ATOM     21  C   UNL d   1      -1.729  -1.176   6.239  0.00  0.00     0.020 C 
ATOM     22  C   UNL d   1      -0.229  -3.152   6.439  0.00  0.00     0.020 C 
ATOM     23  C   UNL d   1       0.471  -0.924   7.382  0.00  0.00     0.020 C 
ENDBRANCH   3  20
TORSDOF 4
