REMARK  2 active torsions:
REMARK  status: ('A' for Active; 'I' for Inactive)
REMARK    1  A    between atoms: C_13  and  N_3 
REMARK    2  A    between atoms: N_11  and  C_6 
ROOT
ATOM      1  C   UNL d   1       2.275  -1.976   0.115  0.00  0.00     0.056 C 
ATOM      2  C   UNL d   1       2.224  -1.921  -1.270  0.00  0.00     0.142 C 
ATOM      3  N   UNL d   1       3.390  -2.636  -1.547  0.00  0.00    -0.239 N 
ATOM      4  N   UNL d   1       4.374  -2.121  -0.738  0.00  0.00    -0.296 N 
ATOM      5  HN  UNL d   1       5.386  -2.118  -0.871  1.00  0.00     0.187 HD
ATOM      6  C   UNL d   1       1.031  -1.925   0.756  0.00  0.00     0.039 C 
ATOM      7  C   UNL d   1       3.639  -1.620   0.285  0.00  0.00     0.038 C 
ATOM      8  N   UNL d   1       1.240  -1.398  -2.014  0.00  0.00    -0.339 N 
ATOM      9  HN  UNL d   1       1.195  -1.465  -3.031  1.00  0.00     0.167 HD
ATOM     10  C   UNL d   1       0.148  -1.012   0.137  0.00  0.00     0.013 A 
ATOM     11  C   UNL d   1       0.307  -0.766  -1.252  0.00  0.00     0.045 A 
ATOM     12  C   UNL d   1       4.254  -0.691   1.262  0.00  0.00     0.071 C 
ATOM     13  C   UNL d   1      -0.910  -0.396   0.850  0.00  0.00     0.015 A 
ATOM     14  C   UNL d   1      -0.576   0.117  -1.850  0.00  0.00     0.030 A 
ATOM     15  C   UNL d   1      -1.772   0.485   0.221  0.00  0.00     0.001 A 
ATOM     16  C   UNL d   1      -1.598   0.755  -1.130  0.00  0.00     0.002 A 
ENDROOT
BRANCH   3  17
ATOM     17  C   UNL d   1       3.426  -3.998  -1.987  0.00  0.00     0.058 A 
ATOM     18  C   UNL d   1       2.285  -4.581  -2.556  0.00  0.00     0.031 A 
ATOM     19  C   UNL d   1       2.232  -5.963  -2.752  0.00  0.00     0.002 A 
ATOM     20  C   UNL d   1       3.310  -6.766  -2.383  0.00  0.00     0.000 A 
ATOM     21  C   UNL d   1       4.455  -6.188  -1.835  0.00  0.00     0.002 A 
ATOM     22  C   UNL d   1       4.521  -4.806  -1.644  0.00  0.00     0.031 A 
ENDBRANCH   3  17
BRANCH   6  23
ATOM     23  N   UNL d   1       0.476  -3.099   1.443  0.00  0.00    -0.278 NA
ATOM     24  C   UNL d   1       1.496  -4.193   1.589  0.00  0.00     0.122 C 
ATOM     25  C   UNL d   1       0.874  -5.501   2.111  0.00  0.00     0.182 C 
ATOM     26  O   UNL d   1      -0.202  -5.946   1.278  0.00  0.00    -0.389 OA
ATOM     27  C   UNL d   1      -1.230  -4.951   1.254  0.00  0.00     0.182 C 
ATOM     28  C   UNL d   1      -0.715  -3.625   0.681  0.00  0.00     0.122 C 
ENDBRANCH   6  23
TORSDOF 2
