REMARK  2 active torsions:
REMARK  status: ('A' for Active; 'I' for Inactive)
REMARK    1  A    between atoms: S_2  and  C_1 
REMARK    2  A    between atoms: N_7  and  S_2 
ROOT
ATOM      1  S   UNL d   1       2.130  -2.910   0.052  0.00  0.00     0.251 S 
ATOM      2  O   UNL d   1       3.045  -2.708   1.154  0.00  0.00    -0.205 OA
ATOM      3  O   UNL d   1       1.325  -4.111  -0.032  0.00  0.00    -0.205 OA
ENDROOT
BRANCH   1   4
ATOM      4  C   UNL d   1       0.993  -1.538   0.133  0.00  0.00     0.133 A 
ATOM      5  S   UNL d   1      -0.545  -1.782  -0.602  0.00  0.00    -0.068 SA
ATOM      6  C   UNL d   1      -1.029  -0.197  -0.263  0.00  0.00     0.054 A 
ATOM      7 BR   UNL d   1      -2.694   0.495  -0.769  0.00  0.00    -0.043 Br
ATOM      8  C   UNL d   1      -0.081   0.530   0.409  0.00  0.00     0.048 A 
ATOM      9  C   UNL d   1       1.081  -0.256   0.637  0.00  0.00     0.042 A 
ATOM     10 BR   UNL d   1       2.564   0.510   1.526  0.00  0.00    -0.049 Br
ENDBRANCH   1   4
BRANCH   1  11
ATOM     11  N   UNL d   1       3.020  -2.757  -1.406  0.00  0.00    -0.204 NA
ATOM     12  C   UNL d   1       2.234  -3.017  -2.650  0.00  0.00     0.117 C 
ATOM     13  C   UNL d   1       3.137  -3.247  -3.862  0.00  0.00     0.089 C 
ATOM     14  S   UNL d   1       4.152  -1.783  -4.232  0.00  0.00    -0.167 SA
ATOM     15  C   UNL d   1       4.922  -1.627  -2.590  0.00  0.00     0.089 C 
ATOM     16  C   UNL d   1       3.876  -1.535  -1.480  0.00  0.00     0.117 C 
ENDBRANCH   1  11
TORSDOF 2
