REMARK  6 active torsions:
REMARK  status: ('A' for Active; 'I' for Inactive)
REMARK    1  A    between atoms: C_9  and  C_1 
REMARK       I    between atoms: C_2  and  N_3 
REMARK    2  A    between atoms: C_4  and  C_2 
REMARK    3  A    between atoms: N_3  and  C_6 
REMARK    4  A    between atoms: O_20  and  C_5 
REMARK    5  A    between atoms: O_22  and  C_7 
REMARK    6  A    between atoms: O_21  and  C_8 
ROOT
ATOM      1  C   UNL d   1       1.720   4.934   0.464  0.00  0.00     0.256 C 
ATOM      2  N   UNL d   1       0.552   5.447   0.995  0.00  0.00    -0.321 N 
ATOM      3  O   UNL d   1       2.224   5.235  -0.614  0.00  0.00    -0.267 OA
ATOM      4  H   UNL d   1       0.227   5.076   1.883  0.00  0.00     0.169 HD
ENDROOT
BRANCH   1   5
ATOM      5  C   UNL d   1       2.391   3.878   1.276  0.00  0.00     0.037 A 
ATOM      6  C   UNL d   1       3.098   2.876   0.600  0.00  0.00     0.057 A 
ATOM      7  C   UNL d   1       3.662   1.792   1.291  0.00  0.00     0.105 A 
ATOM      8  C   UNL d   1       3.555   1.736   2.699  0.00  0.00     0.135 A 
ATOM      9  C   UNL d   1       2.947   2.817   3.380  0.00  0.00     0.105 A 
ATOM     10  C   UNL d   1       2.347   3.863   2.668  0.00  0.00     0.057 A 
BRANCH   7  11
ATOM     11  O   UNL d   1       4.309   0.769   0.649  0.00  0.00    -0.353 OA
ATOM     12  C   UNL d   1       4.444   0.811  -0.765  0.00  0.00     0.210 C 
ENDBRANCH   7  11
BRANCH   8  13
ATOM     13  O   UNL d   1       3.967   0.706   3.503  0.00  0.00    -0.351 OA
ATOM     14  C   UNL d   1       4.458  -0.502   2.947  0.00  0.00     0.210 C 
ENDBRANCH   8  13
BRANCH   9  15
ATOM     15  O   UNL d   1       2.810   2.966   4.740  0.00  0.00    -0.353 OA
ATOM     16  C   UNL d   1       3.824   2.391   5.559  0.00  0.00     0.210 C 
ENDBRANCH   9  15
ENDBRANCH   1   5
BRANCH   2  17
ATOM     17  C   UNL d   1      -0.293   6.439   0.435  0.00  0.00     0.057 A 
ATOM     18  C   UNL d   1      -0.049   7.039  -0.805  0.00  0.00     0.047 A 
ATOM     19  C   UNL d   1      -0.873   8.069  -1.295  0.00  0.00     0.050 A 
ATOM     20  C   UNL d   1      -1.984   8.471  -0.540  0.00  0.00     0.018 A 
ATOM     21  C   UNL d   1      -2.264   7.860   0.683  0.00  0.00     0.027 A 
ATOM     22  C   UNL d   1      -1.421   6.857   1.167  0.00  0.00     0.060 A 
ATOM     23 CL   UNL d   1      -1.798   6.154   2.704  0.00  0.00    -0.082 Cl
BRANCH  19  24
ATOM     24  C   UNL d   1      -0.549   8.763  -2.598  0.00  0.00     0.417 C 
ATOM     25  F   UNL d   1       0.558   8.277  -3.223  0.00  0.00    -0.166 F 
ATOM     26  F   UNL d   1      -0.324  10.095  -2.424  0.00  0.00    -0.166 F 
ATOM     27  F   UNL d   1      -1.560   8.671  -3.505  0.00  0.00    -0.166 F 
ENDBRANCH  19  24
ENDBRANCH   2  17
TORSDOF 6
