REMARK  8 active torsions:
REMARK  status: ('A' for Active; 'I' for Inactive)
REMARK    1  A    between atoms: C_3  and  S_1 
REMARK    2  A    between atoms: N_4  and  S_1 
REMARK    3  A    between atoms: C_2  and  C_8 
REMARK       I    between atoms: N_5  and  C_2 
REMARK    4  A    between atoms: C_18  and  N_4 
REMARK    5  A    between atoms: C_19  and  N_4 
REMARK    6  A    between atoms: C_16  and  N_5 
REMARK    7  A    between atoms: C_22  and  C_18 
REMARK    8  A    between atoms: C_23  and  C_19 
ROOT
ATOM      1  C   UNL d   1       0.533   1.661   0.035  0.00  0.00     0.074 A 
ATOM      2  C   UNL d   1      -0.415   4.298  -0.083  0.00  0.00     0.032 A 
ATOM      3  C   UNL d   1      -0.817   1.891  -0.222  0.00  0.00     0.026 A 
ATOM      4  C   UNL d   1       1.400   2.728   0.295  0.00  0.00     0.026 A 
ATOM      5  C   UNL d   1      -1.283   3.208  -0.283  0.00  0.00     0.018 A 
ATOM      6  C   UNL d   1       0.927   4.044   0.234  0.00  0.00     0.018 A 
ENDROOT
BRANCH   2   7
ATOM      7  C   UNL d   1      -1.000   5.676  -0.188  0.00  0.00     0.256 C 
ATOM      8  N   UNL d   1      -0.119   6.745  -0.185  0.00  0.00    -0.322 N 
ATOM      9  H   UNL d   1       0.871   6.559  -0.225  0.00  0.00     0.169 HD
ATOM     10  O   UNL d   1      -2.219   5.774  -0.290  0.00  0.00    -0.267 OA
BRANCH   8  11
ATOM     11  C   UNL d   1      -0.477   8.114  -0.133  0.00  0.00     0.050 A 
ATOM     12  C   UNL d   1      -1.780   8.599  -0.046  0.00  0.00     0.117 A 
ATOM     13  N   UNL d   1      -2.102   9.915   0.059  0.00  0.00    -0.373 N 
ATOM     14  C   UNL d   1      -1.080  10.793   0.078  0.00  0.00     0.088 A 
ATOM     15  HN  UNL d   1      -3.073  10.224   0.122  1.00  0.00     0.164 HD
ATOM     16  C   UNL d   1       0.248  10.420  -0.020  0.00  0.00     0.019 A 
ATOM     17  C   UNL d   1       0.550   9.062  -0.130  0.00  0.00     0.032 A 
ENDBRANCH   8  11
ENDBRANCH   2   7
BRANCH   1  18
ATOM     18  S   UNL d   1       1.136  -0.010   0.129  0.00  0.00     0.243 S 
ATOM     19  O   UNL d   1       0.080  -0.801   0.717  0.00  0.00    -0.206 OA
ATOM     20  O   UNL d   1       2.454   0.037   0.734  0.00  0.00    -0.206 OA
BRANCH  18  21
ATOM     21  N   UNL d   1       1.357  -0.486  -1.533  0.00  0.00    -0.206 NA
BRANCH  21  22
ATOM     22  C   UNL d   1       2.242   0.463  -2.299  0.00  0.00     0.107 C 
BRANCH  22  23
ATOM     23  C   UNL d   1       2.444   0.123  -3.780  0.00  0.00     0.011 C 
ATOM     24  C   UNL d   1       1.153  -0.053  -4.563  0.00  0.00     0.006 C 
ENDBRANCH  22  23
ENDBRANCH  21  22
BRANCH  21  25
ATOM     25  C   UNL d   1       1.819  -1.917  -1.645  0.00  0.00     0.107 C 
BRANCH  25  26
ATOM     26  C   UNL d   1       0.738  -2.941  -1.304  0.00  0.00     0.011 C 
ATOM     27  C   UNL d   1      -0.550  -2.749  -2.091  0.00  0.00     0.006 C 
ENDBRANCH  25  26
ENDBRANCH  21  25
ENDBRANCH  18  21
ENDBRANCH   1  18
TORSDOF 8
