REMARK  4 active torsions:
REMARK  status: ('A' for Active; 'I' for Inactive)
REMARK    1  A    between atoms: C_2  and  C_1 
REMARK       I    between atoms: N_3  and  C_2 
REMARK       I    between atoms: C_9  and  N_3 
REMARK    2  A    between atoms: S_15  and  C_6 
REMARK    3  A    between atoms: S_16  and  C_7 
REMARK       I    between atoms: N_10  and  C_9 
REMARK    4  A    between atoms: C_17  and  N_10 
ROOT
ATOM      1  C   UNL d   1      -2.734  -1.224   0.314  0.00  0.00     0.264 C 
ATOM      2  N   UNL d   1      -3.658  -0.544  -0.480  0.00  0.00    -0.275 N 
ATOM      3  C   UNL d   1      -3.734   0.582  -1.286  0.00  0.00     0.327 C 
ATOM      4  N   UNL d   1      -2.819   1.574  -1.055  0.00  0.00    -0.307 N 
ATOM      5  O   UNL d   1      -3.039  -2.345   0.720  0.00  0.00    -0.267 OA
ATOM      6  O   UNL d   1      -4.587   0.594  -2.168  0.00  0.00    -0.247 OA
ATOM      7  H   UNL d   1      -4.422  -1.165  -0.713  0.00  0.00     0.173 HD
ATOM      8  H   UNL d   1      -2.300   1.539  -0.192  0.00  0.00     0.170 HD
ENDROOT
BRANCH   1   9
ATOM      9  C   UNL d   1      -1.458  -0.624   0.652  0.00  0.00     0.091 C 
ATOM     10  C   UNL d   1      -0.436  -0.347  -0.253  0.00  0.00     0.076 C 
ATOM     11  S   UNL d   1       0.860   0.370   0.609  0.00  0.00    -0.006 SA
ATOM     12  N   UNL d   1       0.180   0.253   2.104  0.00  0.00    -0.319 N 
ATOM     13  C   UNL d   1      -0.991  -0.364   1.992  0.00  0.00     0.093 C 
ATOM     14  HN  UNL d   1       0.591   0.597   2.972  1.00  0.00     0.175 HD
BRANCH  10  15
ATOM     15  S   UNL d   1      -0.429  -0.704  -1.977  0.00  0.00    -0.125 SA
ATOM     16  C   UNL d   1       1.004   0.192  -2.610  0.00  0.00     0.096 C 
ENDBRANCH  10  15
BRANCH  13  17
ATOM     17  S   UNL d   1      -1.904  -0.792   3.440  0.00  0.00    -0.115 SA
ATOM     18  C   UNL d   1      -0.805  -0.321   4.795  0.00  0.00     0.097 C 
ENDBRANCH  13  17
ENDBRANCH   1   9
BRANCH   4  19
ATOM     19  C   UNL d   1      -2.541   2.676  -1.897  0.00  0.00     0.051 A 
ATOM     20  C   UNL d   1      -3.226   2.992  -3.068  0.00  0.00     0.117 A 
ATOM     21  N   UNL d   1      -2.912   4.037  -3.881  0.00  0.00    -0.373 N 
ATOM     22  C   UNL d   1      -1.860   4.798  -3.517  0.00  0.00     0.088 A 
ATOM     23  HN  UNL d   1      -3.447   4.235  -4.726  1.00  0.00     0.164 HD
ATOM     24  C   UNL d   1      -1.113   4.570  -2.376  0.00  0.00     0.019 A 
ATOM     25  C   UNL d   1      -1.465   3.499  -1.554  0.00  0.00     0.032 A 
ENDBRANCH   4  19
TORSDOF 4
