REMARK  2 active torsions:
REMARK  status: ('A' for Active; 'I' for Inactive)
REMARK    1  A    between atoms: N_2  and  C_3 
REMARK    2  A    between atoms: C_16  and  N_5 
ROOT
ATOM      1  C   UNL d   1      -0.009   1.591  -0.022  0.00  0.00     0.066 C 
ATOM      2  C   UNL d   1       1.228   2.248  -0.090  0.00  0.00     0.103 C 
ATOM      3  C   UNL d   1      -0.059   0.360   0.607  0.00  0.00     0.143 C 
ATOM      4  N   UNL d   1      -1.320  -0.159   0.311  0.00  0.00    -0.239 N 
ATOM      5  N   UNL d   1      -2.137   0.805  -0.222  0.00  0.00    -0.302 N 
ATOM      6  HN  UNL d   1      -3.144   0.759  -0.378  1.00  0.00     0.186 HD
ATOM      7  C   UNL d   1      -1.311   1.817  -0.490  0.00  0.00     0.126 C 
ATOM      8  N   UNL d   1       0.960  -0.209   1.284  0.00  0.00    -0.336 N 
ATOM      9  HN  UNL d   1       0.901  -1.115   1.750  1.00  0.00     0.168 HD
ATOM     10  N   UNL d   1       2.262   1.713   0.608  0.00  0.00    -0.342 N 
ATOM     11  HN  UNL d   1       3.171   2.176   0.630  1.00  0.00     0.167 HD
ATOM     12  C   UNL d   1       2.063   0.558   1.271  0.00  0.00     0.183 C 
ENDROOT
BRANCH   2  13
ATOM     13  N   UNL d   1       1.416   3.304  -1.007  0.00  0.00    -0.234 NA
ATOM     14  C   UNL d   1       2.377   4.341  -0.834  0.00  0.00     0.022 A 
ATOM     15  C   UNL d   1       3.408   4.326  -1.777  0.00  0.00    -0.035 A 
ATOM     16  C   UNL d   1       2.314   5.353   0.112  0.00  0.00     0.024 A 
ATOM     17  C   UNL d   1       4.392   5.297  -1.802  0.00  0.00     0.009 A 
ATOM     18  C   UNL d   1       3.278   3.111  -2.620  0.00  0.00     0.055 C 
ATOM     19  C   UNL d   1       4.320   6.330  -0.869  0.00  0.00     0.001 A 
ATOM     20  C   UNL d   1       3.287   6.357   0.085  0.00  0.00     0.002 A 
ATOM     21  C   UNL d   1       1.824   2.721  -2.322  0.00  0.00     0.108 C 
ENDBRANCH   2  13
BRANCH   4  22
ATOM     22  C   UNL d   1      -1.776  -1.509   0.364  0.00  0.00     0.058 A 
ATOM     23  C   UNL d   1      -0.894  -2.571   0.594  0.00  0.00     0.031 A 
ATOM     24  C   UNL d   1      -1.350  -3.891   0.517  0.00  0.00     0.002 A 
ATOM     25  C   UNL d   1      -2.687  -4.159   0.226  0.00  0.00     0.000 A 
ATOM     26  C   UNL d   1      -3.575  -3.108   0.016  0.00  0.00     0.002 A 
ATOM     27  C   UNL d   1      -3.125  -1.788   0.080  0.00  0.00     0.031 A 
ENDBRANCH   4  22
TORSDOF 2
