REMARK  4 active torsions:
REMARK  status: ('A' for Active; 'I' for Inactive)
REMARK    1  A    between atoms: C_3  and  C_1 
REMARK       I    between atoms: N_6  and  C_3 
REMARK    2  A    between atoms: N_5  and  C_9 
REMARK    3  A    between atoms: C_18  and  N_6 
REMARK    4  A    between atoms: C_20  and  C_18 
ROOT
ATOM      1  C   UNL d   1      -0.319   2.061  -0.901  0.00  0.00     0.254 C 
ATOM      2  N   UNL d   1      -1.530   2.708  -1.017  0.00  0.00    -0.353 N 
ATOM      3  O   UNL d   1       0.171   1.831   0.206  0.00  0.00    -0.268 OA
ATOM      4  H   UNL d   1      -1.916   2.928  -1.926  0.00  0.00     0.163 HD
ENDROOT
BRANCH   2   5
ATOM      5  C   UNL d   1      -2.178   3.143   0.205  0.00  0.00     0.161 C 
BRANCH   5   6
ATOM      6  C   UNL d   1      -3.543   3.751   0.033  0.00  0.00    -0.040 A 
ATOM      7  C   UNL d   1      -4.679   2.940  -0.035  0.00  0.00     0.011 A 
ATOM      8  C   UNL d   1      -5.959   3.506  -0.132  0.00  0.00     0.030 A 
ATOM      9  C   UNL d   1      -6.157   4.892  -0.165  0.00  0.00     0.030 A 
ATOM     10  C   UNL d   1      -5.008   5.693  -0.070  0.00  0.00     0.030 A 
ATOM     11  C   UNL d   1      -3.722   5.137   0.015  0.00  0.00     0.011 A 
BRANCH   9  12
ATOM     12  N   UNL d   1      -7.402   5.475  -0.350  0.00  0.00    -0.377 N 
ATOM     13  C   UNL d   1      -8.488   4.751  -1.034  0.00  0.00     0.149 C 
ATOM     14  C   UNL d   1      -9.498   4.198  -0.022  0.00  0.00     0.187 C 
ATOM     15  O   UNL d   1     -10.022   5.247   0.810  0.00  0.00    -0.388 OA
ATOM     16  C   UNL d   1      -8.956   5.876   1.544  0.00  0.00     0.187 C 
ATOM     17  C   UNL d   1      -7.887   6.483   0.612  0.00  0.00     0.149 C 
ENDBRANCH   9  12
ENDBRANCH   5   6
ENDBRANCH   2   5
BRANCH   1  18
ATOM     18  C   UNL d   1       0.441   1.622  -2.117  0.00  0.00     0.069 A 
ATOM     19  C   UNL d   1       0.102   1.884  -3.457  0.00  0.00     0.096 A 
ATOM     20  C   UNL d   1       0.922   1.400  -4.498  0.00  0.00     0.003 A 
ATOM     21  O   UNL d   1      -1.033   2.602  -3.741  0.00  0.00    -0.325 OA
ATOM     22  C   UNL d   1       0.569   1.658  -5.933  0.00  0.00     0.212 C 
ATOM     23  C   UNL d   1       2.098   0.699  -4.202  0.00  0.00     0.054 A 
ATOM     24  O   UNL d   1      -0.803   2.009  -6.042  0.00  0.00    -0.362 OA
ATOM     25  C   UNL d   1      -1.107   3.032  -5.106  0.00  0.00     0.345 C 
ATOM     26  C   UNL d   1       2.435   0.457  -2.883  0.00  0.00     0.118 A 
ATOM     27  C   UNL d   1       1.624   0.901  -1.851  0.00  0.00     0.062 A 
ATOM     28  F   UNL d   1       3.559  -0.213  -2.599  0.00  0.00    -0.206 F 
ENDBRANCH   1  18
TORSDOF 4
