REMARK  1 active torsions:
REMARK  status: ('A' for Active; 'I' for Inactive)
REMARK    1  A    between atoms: S_8  and  C_2 
ROOT
ATOM      1  C   UNL d   1       2.221   0.692  -0.279  0.00  0.00     0.081 C 
ATOM      2  C   UNL d   1       2.393  -0.635  -0.279  0.00  0.00     0.045 C 
ATOM      3  C   UNL d   1       0.949   1.389  -0.013  0.00  0.00     0.185 C 
ATOM      4  S   UNL d   1       1.138  -1.773   0.080  0.00  0.00    -0.082 SA
ATOM      5  C   UNL d   1      -0.314   0.626  -0.006  0.00  0.00     0.031 A 
ATOM      6  C   UNL d   1      -0.325  -0.769   0.004  0.00  0.00     0.020 A 
ATOM      7  O   UNL d   1       0.956   2.605   0.143  0.00  0.00    -0.287 OA
ATOM      8  C   UNL d   1      -1.522   1.344  -0.034  0.00  0.00     0.017 A 
ATOM      9  C   UNL d   1      -1.562  -1.434  -0.021  0.00  0.00     0.020 A 
ATOM     10  C   UNL d   1      -2.743   0.671  -0.064  0.00  0.00     0.001 A 
ATOM     11  C   UNL d   1      -2.762  -0.720  -0.060  0.00  0.00     0.001 A 
ENDROOT
BRANCH   2  12
ATOM     12  S   UNL d   1       3.955  -1.297  -0.710  0.00  0.00    -0.127 SA
ATOM     13  C   UNL d   1       4.979  -0.711   0.660  0.00  0.00     0.096 C 
ENDBRANCH   2  12
TORSDOF 1
