REMARK  10 active torsions:
REMARK  status: ('A' for Active; 'I' for Inactive)
REMARK    1  A    between atoms: C_7  and  C_1 
REMARK    2  A    between atoms: C_8  and  C_1 
REMARK    3  A    between atoms: N_2  and  C_5 
REMARK    4  A    between atoms: N_10  and  C_3 
REMARK    5  A    between atoms: C_4  and  C_9 
REMARK    6  A    between atoms: C_6  and  N_10 
REMARK    7  A    between atoms: O_25  and  C_7 
REMARK    8  A    between atoms: O_24  and  C_8 
REMARK    9  A    between atoms: C_29  and  O_24 
REMARK   10  A    between atoms: C_28  and  O_25 
ROOT
ATOM      1  C   UNL d   1      -0.849   3.092   2.323  0.00  0.00     0.057 A 
ATOM      2  C   UNL d   1       0.217   3.380   1.417  0.00  0.00     0.059 A 
ATOM      3  C   UNL d   1      -0.066   5.802   1.803  0.00  0.00     0.050 A 
ATOM      4  C   UNL d   1       0.593   4.726   1.198  0.00  0.00     0.048 A 
ATOM      5  C   UNL d   1      -1.497   4.205   2.912  0.00  0.00     0.032 A 
ATOM      6  C   UNL d   1      -1.124   5.527   2.661  0.00  0.00     0.018 A 
ENDROOT
BRANCH   2   7
ATOM      7  N   UNL d   1       0.977   2.358   0.801  0.00  0.00    -0.363 N 
ATOM      8  H   UNL d   1       0.411   1.599   0.423  0.00  0.00     0.165 HD
BRANCH   7   9
ATOM      9  C   UNL d   1       2.262   2.409   0.301  0.00  0.00     0.112 C 
ATOM     10  C   UNL d   1       2.906   1.512  -0.473  0.00  0.00     0.129 C 
BRANCH  10  11
ATOM     11  C   UNL d   1       4.330   1.695  -0.835  0.00  0.00     0.300 C 
ATOM     12  O   UNL d   1       4.900   1.096  -1.736  0.00  0.00    -0.259 OA
BRANCH  11  13
ATOM     13  O   UNL d   1       4.935   2.560   0.026  0.00  0.00    -0.318 OA
BRANCH  13  14
ATOM     14  C   UNL d   1       6.369   2.516   0.059  0.00  0.00     0.174 C 
ATOM     15  C   UNL d   1       6.777   1.523   1.130  0.00  0.00     0.034 C 
ENDBRANCH  13  14
ENDBRANCH  11  13
ENDBRANCH  10  11
BRANCH  10  16
ATOM     16  C   UNL d   1       2.176   0.279  -0.847  0.00  0.00     0.300 C 
ATOM     17  O   UNL d   1       0.956   0.185  -0.861  0.00  0.00    -0.259 OA
BRANCH  16  18
ATOM     18  O   UNL d   1       3.041  -0.758  -0.971  0.00  0.00    -0.318 OA
BRANCH  18  19
ATOM     19  C   UNL d   1       2.471  -2.065  -0.816  0.00  0.00     0.174 C 
ATOM     20  C   UNL d   1       2.580  -2.436   0.652  0.00  0.00     0.034 C 
ENDBRANCH  18  19
ENDBRANCH  16  18
ENDBRANCH  10  16
ENDBRANCH   7   9
ENDBRANCH   2   7
BRANCH   1  21
ATOM     21  N   UNL d   1      -1.266   1.807   2.701  0.00  0.00    -0.374 N 
ATOM     22  C   UNL d   1      -1.797   1.613   4.062  0.00  0.00     0.162 C 
ATOM     23  C   UNL d   1      -1.834   0.164   4.492  0.00  0.00    -0.034 A 
ATOM     24  C   UNL d   1      -1.642  -0.200   5.831  0.00  0.00     0.009 A 
ATOM     25  C   UNL d   1      -2.169  -0.818   3.548  0.00  0.00    -0.049 A 
ATOM     26  C   UNL d   1      -1.773  -1.533   6.219  0.00  0.00     0.001 A 
ATOM     27  C   UNL d   1      -2.118  -2.504   5.279  0.00  0.00     0.001 A 
ATOM     28  C   UNL d   1      -2.322  -2.149   3.945  0.00  0.00     0.008 A 
ATOM     29  C   UNL d   1      -2.373  -0.366   2.129  0.00  0.00     0.059 C 
ATOM     30  C   UNL d   1      -1.314   0.682   1.759  0.00  0.00     0.128 C 
ENDBRANCH   1  21
BRANCH   3  31
ATOM     31  C   UNL d   1       0.338   7.224   1.524  0.00  0.00     0.417 C 
ATOM     32  F   UNL d   1       1.410   7.336   0.691  0.00  0.00    -0.166 F 
ATOM     33  F   UNL d   1      -0.662   7.943   0.943  0.00  0.00    -0.166 F 
ATOM     34  F   UNL d   1       0.675   7.902   2.657  0.00  0.00    -0.166 F 
ENDBRANCH   3  31
TORSDOF 10
