REMARK  5 active torsions:
REMARK  status: ('A' for Active; 'I' for Inactive)
REMARK    1  A    between atoms: N_5  and  C_2 
REMARK       I    between atoms: C_9  and  N_5 
REMARK    2  A    between atoms: C_11  and  C_9 
REMARK    3  A    between atoms: O_20  and  C_13 
REMARK    4  A    between atoms: O_22  and  C_14 
REMARK    5  A    between atoms: O_21  and  C_15 
ROOT
ATOM      1  N   UNL d   1       4.388  -2.911   1.133  0.00  0.00    -0.316 N 
ATOM      2  C   UNL d   1       3.762  -2.883  -0.101  0.00  0.00     0.256 C 
ATOM      3  O   UNL d   1       4.210  -2.401  -1.141  0.00  0.00    -0.267 OA
ATOM      4  H   UNL d   1       3.921  -3.377   1.909  0.00  0.00     0.169 HD
ENDROOT
BRANCH   1   5
ATOM      5  C   UNL d   1       5.512  -2.174   1.504  0.00  0.00     0.094 C 
ATOM      6  C   UNL d   1       6.036  -2.046   2.778  0.00  0.00     0.085 C 
ATOM      7  C   UNL d   1       7.027  -1.019   2.853  0.00  0.00     0.003 C 
ATOM      8  C   UNL d   1       5.592  -2.759   3.964  0.00  0.00     0.302 C 
ATOM      9  C   UNL d   1       7.333  -0.504   1.616  0.00  0.00     0.065 C 
ATOM     10  C   UNL d   1       7.515  -0.548   4.134  0.00  0.00     0.010 A 
ATOM     11  S   UNL d   1       6.375  -1.218   0.390  0.00  0.00    -0.082 SA
ATOM     12  C   UNL d   1       8.429   0.495   4.296  0.00  0.00     0.015 A 
ATOM     13  C   UNL d   1       6.939  -1.127   5.275  0.00  0.00     0.090 A 
ATOM     14  C   UNL d   1       8.723   0.972   5.579  0.00  0.00     0.001 A 
ATOM     15  C   UNL d   1       8.102   0.419   6.702  0.00  0.00     0.003 A 
ATOM     16  C   UNL d   1       7.212  -0.644   6.554  0.00  0.00     0.038 A 
ATOM     17  O   UNL d   1       6.046  -2.231   5.190  0.00  0.00    -0.274 OA
ATOM     18  O   UNL d   1       4.858  -3.740   3.918  0.00  0.00    -0.259 OA
ENDBRANCH   1   5
BRANCH   2  19
ATOM     19  C   UNL d   1       2.368  -3.428  -0.160  0.00  0.00     0.037 A 
ATOM     20  C   UNL d   1       1.502  -2.922  -1.140  0.00  0.00     0.057 A 
ATOM     21  C   UNL d   1       0.157  -3.321  -1.204  0.00  0.00     0.105 A 
ATOM     22  C   UNL d   1      -0.341  -4.273  -0.287  0.00  0.00     0.135 A 
ATOM     23  C   UNL d   1       0.547  -4.818   0.669  0.00  0.00     0.105 A 
ATOM     24  C   UNL d   1       1.887  -4.393   0.722  0.00  0.00     0.057 A 
BRANCH  21  25
ATOM     25  O   UNL d   1      -0.677  -2.860  -2.191  0.00  0.00    -0.353 OA
ATOM     26  C   UNL d   1      -0.421  -1.557  -2.707  0.00  0.00     0.210 C 
ENDBRANCH  21  25
BRANCH  22  27
ATOM     27  O   UNL d   1      -1.628  -4.745  -0.259  0.00  0.00    -0.351 OA
ATOM     28  C   UNL d   1      -2.664  -4.064  -0.950  0.00  0.00     0.210 C 
ENDBRANCH  22  27
BRANCH  23  29
ATOM     29  O   UNL d   1       0.298  -5.770   1.628  0.00  0.00    -0.353 OA
ATOM     30  C   UNL d   1      -1.025  -6.244   1.818  0.00  0.00     0.210 C 
ENDBRANCH  23  29
ENDBRANCH   2  19
TORSDOF 5
