REMARK  4 active torsions:
REMARK  status: ('A' for Active; 'I' for Inactive)
REMARK       I    between atoms: N_3  and  C_1 
REMARK    1  A    between atoms: C_4  and  C_1 
REMARK    2  A    between atoms: N_2  and  C_4 
REMARK    3  A    between atoms: C_8  and  N_3 
REMARK    4  A    between atoms: C_5  and  C_6 
ROOT
ATOM      1  C   UNL d   1       0.949   0.141   0.001  0.00  0.00     0.255 C 
ATOM      2  N   UNL d   1       0.479  -0.967   0.684  0.00  0.00    -0.325 N 
ATOM      3  O   UNL d   1       2.035   0.686   0.195  0.00  0.00    -0.271 OA
ATOM      4  H   UNL d   1      -0.404  -1.336   0.350  0.00  0.00     0.169 HD
ENDROOT
BRANCH   2   5
ATOM      5  C   UNL d   1       1.068  -1.567   1.814  0.00  0.00     0.034 A 
ATOM      6  C   UNL d   1       2.153  -1.020   2.495  0.00  0.00     0.030 A 
ATOM      7  C   UNL d   1       2.684  -1.643   3.628  0.00  0.00     0.010 A 
ATOM      8  C   UNL d   1       2.154  -2.843   4.126  0.00  0.00    -0.051 A 
ATOM      9  C   UNL d   1       1.065  -3.394   3.428  0.00  0.00     0.010 A 
ATOM     10  C   UNL d   1       0.523  -2.761   2.296  0.00  0.00     0.030 A 
BRANCH   8  11
ATOM     11  C   UNL d   1       2.760  -3.474   5.389  0.00  0.00    -0.024 C 
ATOM     12  C   UNL d   1       2.062  -4.781   5.824  0.00  0.00     0.019 C 
ATOM     13  C   UNL d   1       4.251  -3.803   5.153  0.00  0.00     0.019 C 
ATOM     14  C   UNL d   1       2.649  -2.482   6.569  0.00  0.00     0.019 C 
ENDBRANCH   8  11
ENDBRANCH   2   5
BRANCH   1  15
ATOM     15  C   UNL d   1       0.014   0.623  -1.135  0.00  0.00     0.310 C 
ATOM     16  C   UNL d   1       0.488   1.993  -1.650  0.00  0.00     0.053 C 
BRANCH  15  17
ATOM     17  N   UNL d   1      -1.430   0.534  -0.746  0.00  0.00     0.101 N 
ATOM     18  C   UNL d   1      -1.769   1.369   0.423  0.00  0.00     0.273 C 
ATOM     19  C   UNL d   1      -3.241   1.202   0.816  0.00  0.00     0.030 C 
ATOM     20  C   UNL d   1      -4.160   1.546  -0.349  0.00  0.00     0.003 C 
ATOM     21  C   UNL d   1      -3.780   0.720  -1.570  0.00  0.00     0.030 C 
ATOM     22  C   UNL d   1      -2.294   0.878  -1.893  0.00  0.00     0.273 C 
ENDBRANCH  15  17
ENDBRANCH   1  15
TORSDOF 4
