REMARK  5 active torsions:
REMARK  status: ('A' for Active; 'I' for Inactive)
REMARK    1  A    between atoms: C_6  and  C_1 
REMARK    2  A    between atoms: N_11  and  C_2 
REMARK    3  A    between atoms: C_10  and  C_6 
REMARK    4  A    between atoms: C_14  and  N_7 
REMARK    5  A    between atoms: C_21  and  C_14 
ROOT
ATOM      1  C   UNL d   1       1.397  -1.552  -0.024  0.00  0.00     0.056 C 
ATOM      2  C   UNL d   1       2.481  -0.688  -0.123  0.00  0.00     0.083 C 
ATOM      3  C   UNL d   1       0.162  -0.795  -0.091  0.00  0.00    -0.025 C 
ATOM      4  C   UNL d   1       0.368   0.566   0.005  0.00  0.00     0.020 C 
ATOM      5  S   UNL d   1       2.012   0.961   0.013  0.00  0.00    -0.074 SA
ATOM      6  N   UNL d   1      -2.044   1.022   0.394  0.00  0.00     0.097 N 
ATOM      7  C   UNL d   1      -0.721   1.605   0.051  0.00  0.00     0.319 C 
ATOM      8  C   UNL d   1      -1.240  -1.337  -0.184  0.00  0.00     0.071 C 
ATOM      9  C   UNL d   1      -2.267  -0.203  -0.413  0.00  0.00     0.278 C 
ENDROOT
BRANCH   1  10
ATOM     10  C   UNL d   1       1.425  -3.023   0.022  0.00  0.00     0.195 C 
ATOM     11  O   UNL d   1       0.544  -3.672  -0.543  0.00  0.00    -0.287 OA
BRANCH  10  12
ATOM     12  C   UNL d   1       2.452  -3.806   0.787  0.00  0.00     0.015 A 
ATOM     13  C   UNL d   1       2.441  -5.206   0.630  0.00  0.00     0.017 A 
ATOM     14  C   UNL d   1       3.380  -6.017   1.276  0.00  0.00     0.025 A 
ATOM     15  C   UNL d   1       4.351  -5.434   2.082  0.00  0.00     0.034 A 
ATOM     16  C   UNL d   1       4.356  -4.057   2.284  0.00  0.00     0.025 A 
ATOM     17 CL   UNL d   1       5.544  -6.418   2.833  0.00  0.00    -0.084 Cl
ATOM     18  C   UNL d   1       3.391  -3.250   1.665  0.00  0.00     0.017 A 
ENDBRANCH  10  12
ENDBRANCH   1  10
BRANCH   2  19
ATOM     19  N   UNL d   1       3.794  -0.967  -0.304  0.00  0.00    -0.393 N 
ATOM     20  H   UNL d   1       4.066  -1.828  -0.771  0.00  0.00     0.156 HD
ATOM     21  H   UNL d   1       4.399  -0.188  -0.554  0.00  0.00     0.156 HD
ENDBRANCH   2  19
BRANCH   6  22
ATOM     22  C   UNL d   1      -2.145   0.785   1.847  0.00  0.00     0.311 C 
BRANCH  22  23
ATOM     23  C   UNL d   1      -3.483   0.242   2.302  0.00  0.00    -0.030 A 
ATOM     24  C   UNL d   1      -3.569  -1.025   2.901  0.00  0.00     0.009 A 
ATOM     25  C   UNL d   1      -4.798  -1.521   3.340  0.00  0.00     0.001 A 
ATOM     26  C   UNL d   1      -5.953  -0.759   3.187  0.00  0.00     0.000 A 
ATOM     27  C   UNL d   1      -5.885   0.497   2.590  0.00  0.00     0.001 A 
ATOM     28  C   UNL d   1      -4.654   0.998   2.148  0.00  0.00     0.009 A 
ENDBRANCH  22  23
ENDBRANCH   6  22
TORSDOF 5
