REMARK  2 active torsions:
REMARK  status: ('A' for Active; 'I' for Inactive)
REMARK       I    between atoms: N_2  and  C_1 
REMARK       I    between atoms: N_4  and  C_1 
REMARK    1  A    between atoms: C_3  and  N_2 
REMARK    2  A    between atoms: C_13  and  N_4 
ROOT
ATOM      1  C   UNL d   1       1.043  -0.013   0.131  0.00  0.00     0.325 C 
ATOM      2  N   UNL d   1       0.471  -0.712  -0.919  0.00  0.00    -0.309 N 
ATOM      3  N   UNL d   1       0.203   0.988   0.589  0.00  0.00    -0.307 N 
ATOM      4  O   UNL d   1       2.157  -0.226   0.594  0.00  0.00    -0.247 OA
ATOM      5  H   UNL d   1      -0.288  -0.250  -1.398  0.00  0.00     0.170 HD
ATOM      6  H   UNL d   1      -0.784   0.860   0.422  0.00  0.00     0.170 HD
ENDROOT
BRANCH   2   7
ATOM      7  C   UNL d   1       1.064  -1.804  -1.596  0.00  0.00     0.037 A 
ATOM      8  C   UNL d   1       2.129  -2.541  -1.069  0.00  0.00     0.036 A 
ATOM      9  C   UNL d   1       2.730  -3.573  -1.800  0.00  0.00    -0.059 A 
ATOM     10  C   UNL d   1       3.906  -4.318  -1.239  0.00  0.00     0.048 C 
ATOM     11  C   UNL d   1       2.240  -3.881  -3.072  0.00  0.00     0.013 A 
ATOM     12  C   UNL d   1       1.154  -3.178  -3.608  0.00  0.00    -0.059 A 
ATOM     13  C   UNL d   1       0.564  -2.148  -2.858  0.00  0.00     0.036 A 
ATOM     14  C   UNL d   1       0.658  -3.522  -4.981  0.00  0.00     0.048 C 
ENDBRANCH   2   7
BRANCH   3  15
ATOM     15  C   UNL d   1       0.579   2.000   1.504  0.00  0.00     0.051 A 
ATOM     16  C   UNL d   1       1.899   2.319   1.827  0.00  0.00     0.117 A 
ATOM     17  N   UNL d   1       2.260   3.298   2.696  0.00  0.00    -0.373 N 
ATOM     18  C   UNL d   1       1.263   3.991   3.276  0.00  0.00     0.088 A 
ATOM     19  HN  UNL d   1       3.240   3.498   2.899  1.00  0.00     0.164 HD
ATOM     20  C   UNL d   1      -0.078   3.764   3.016  0.00  0.00     0.019 A 
ATOM     21  C   UNL d   1      -0.422   2.759   2.111  0.00  0.00     0.032 A 
ENDBRANCH   3  15
TORSDOF 2
