REMARK  5 active torsions:
REMARK  status: ('A' for Active; 'I' for Inactive)
REMARK    1  A    between atoms: C_5  and  N_1 
REMARK    2  A    between atoms: C_14  and  C_5 
REMARK    3  A    between atoms: O_16  and  C_8 
REMARK    4  A    between atoms: O_17  and  C_9 
REMARK    5  A    between atoms: C_13  and  C_14 
ROOT
ATOM      1  C   UNL d   1       0.008  -6.590   0.392  0.00  0.00     0.102 A 
ATOM      2  C   UNL d   1       1.034  -7.491   0.066  0.00  0.00     0.101 A 
ATOM      3  C   UNL d   1       0.267  -5.207   0.313  0.00  0.00     0.046 A 
ATOM      4  C   UNL d   1       2.290  -7.006  -0.298  0.00  0.00     0.040 A 
ATOM      5  C   UNL d   1       1.532  -4.711  -0.066  0.00  0.00    -0.054 A 
ATOM      6  C   UNL d   1       2.536  -5.635  -0.372  0.00  0.00     0.010 A 
ENDROOT
BRANCH   5   7
ATOM      7  C   UNL d   1       1.762  -3.206  -0.098  0.00  0.00     0.059 C 
BRANCH   7   8
ATOM      8  C   UNL d   1       3.173  -2.773  -0.534  0.00  0.00     0.138 C 
BRANCH   8   9
ATOM      9  N   UNL d   1       3.406  -1.327  -0.504  0.00  0.00    -0.302 N 
ATOM     10  C   UNL d   1       3.883  -0.640   0.591  0.00  0.00     0.143 A 
ATOM     11  S   UNL d   1       4.155   1.043   0.184  0.00  0.00    -0.091 SA
ATOM     12  S   UNL d   1       4.195  -1.231   2.119  0.00  0.00    -0.052 SA
ATOM     13  C   UNL d   1       3.665   0.830  -1.533  0.00  0.00     0.185 A 
ATOM     14  C   UNL d   1       3.209  -0.599  -1.663  0.00  0.00     0.235 A 
ATOM     15  O   UNL d   1       2.740  -1.048  -2.703  0.00  0.00    -0.272 OA
ENDBRANCH   8   9
ENDBRANCH   7   8
ENDBRANCH   5   7
BRANCH   1  16
ATOM     16  O   UNL d   1      -1.184  -7.124   0.804  0.00  0.00    -0.353 OA
ATOM     17  C   UNL d   1      -2.224  -6.239   1.193  0.00  0.00     0.210 C 
ENDBRANCH   1  16
BRANCH   2  18
ATOM     18  O   UNL d   1       0.985  -8.860   0.120  0.00  0.00    -0.353 OA
ATOM     19  C   UNL d   1      -0.244  -9.464  -0.266  0.00  0.00     0.210 C 
ENDBRANCH   2  18
TORSDOF 5
