REMARK  3 active torsions:
REMARK  status: ('A' for Active; 'I' for Inactive)
REMARK    1  A    between atoms: C_6  and  C_1 
REMARK    2  A    between atoms: C_10  and  C_6 
REMARK    3  A    between atoms: O_20  and  C_17 
ROOT
ATOM      1  C   UNL d   1      -2.383   0.108   0.001  0.00  0.00     0.128 A 
ATOM      2  O   UNL d   1      -1.788   1.248   0.466  0.00  0.00    -0.304 OA
ATOM      3  C   UNL d   1      -0.443   1.101   0.323  0.00  0.00     0.104 A 
ATOM      4  C   UNL d   1      -0.157  -0.141  -0.234  0.00  0.00     0.003 A 
ATOM      5  C   UNL d   1      -1.411  -0.787  -0.404  0.00  0.00     0.055 A 
ATOM      6  C   UNL d   1       0.533   2.039   0.662  0.00  0.00     0.047 A 
ATOM      7  C   UNL d   1       1.863   1.702   0.405  0.00  0.00     0.041 A 
ATOM      8  C   UNL d   1       1.186  -0.470  -0.491  0.00  0.00     0.033 A 
ATOM      9  C   UNL d   1       2.178   0.468  -0.168  0.00  0.00     0.013 A 
ATOM     10 BR   UNL d   1       0.088   3.703   1.429  0.00  0.00    -0.048 Br
ATOM     11 BR   UNL d   1       3.990   0.050  -0.524  0.00  0.00    -0.051 Br
ENDROOT
BRANCH   1  12
ATOM     12  C   UNL d   1      -3.827  -0.002   0.019  0.00  0.00     0.215 C 
ATOM     13  O   UNL d   1      -4.413  -1.080   0.077  0.00  0.00    -0.284 OA
BRANCH  12  14
ATOM     14  C   UNL d   1      -4.648   1.241  -0.080  0.00  0.00     0.017 A 
ATOM     15  C   UNL d   1      -5.904   1.283   0.538  0.00  0.00     0.018 A 
ATOM     16  C   UNL d   1      -6.707   2.426   0.431  0.00  0.00     0.037 A 
ATOM     17  C   UNL d   1      -6.264   3.525  -0.308  0.00  0.00     0.068 A 
ATOM     18  C   UNL d   1      -5.012   3.485  -0.920  0.00  0.00     0.037 A 
ATOM     19  C   UNL d   1      -4.211   2.346  -0.823  0.00  0.00     0.018 A 
BRANCH  17  20
ATOM     20  O   UNL d   1      -6.949   4.697  -0.468  0.00  0.00    -0.356 OA
ATOM     21  C   UNL d   1      -8.367   4.584  -0.463  0.00  0.00     0.210 C 
ENDBRANCH  17  20
ENDBRANCH  12  14
ENDBRANCH   1  12
TORSDOF 3
