REMARK  1 active torsions:
REMARK  status: ('A' for Active; 'I' for Inactive)
REMARK    1  A    between atoms: C_12  and  N_4 
ROOT
ATOM      1  C   UNL d   1       0.281  -0.635   0.037  0.00  0.00     0.073 A 
ATOM      2  C   UNL d   1       0.239   0.716   0.024  0.00  0.00     0.093 A 
ATOM      3  C   UNL d   1      -0.979  -1.355   0.055  0.00  0.00     0.263 A 
ATOM      4  N   UNL d   1      -2.150  -0.548   0.045  0.00  0.00    -0.290 N 
ATOM      5  N   UNL d   1      -0.897   1.466   0.032  0.00  0.00    -0.326 N 
ATOM      6  C   UNL d   1      -2.126   0.857   0.042  0.00  0.00     0.181 A 
ATOM      7  S   UNL d   1       1.715   1.499  -0.006  0.00  0.00    -0.076 SA
ATOM      8  C   UNL d   1       1.657  -1.094   0.010  0.00  0.00    -0.031 A 
ATOM      9  C   UNL d   1       2.539  -0.011  -0.001  0.00  0.00    -0.012 A 
ATOM     10  S   UNL d   1      -3.453   1.886   0.034  0.00  0.00    -0.040 SA
ATOM     11  O   UNL d   1      -1.024  -2.581   0.059  0.00  0.00    -0.267 OA
ATOM     12  C   UNL d   1       2.105  -2.522   0.001  0.00  0.00     0.050 C 
ATOM     13  C   UNL d   1       4.034  -0.001  -0.011  0.00  0.00     0.057 C 
ATOM     14  H   UNL d   1      -0.829   2.477   0.013  0.00  0.00     0.169 HD
ENDROOT
BRANCH   4  15
ATOM     15  C   UNL d   1      -3.416  -1.300  -0.062  0.00  0.00     0.130 C 
ATOM     16  C   UNL d   1      -4.021  -1.717   1.274  0.00  0.00     0.027 C 
ENDBRANCH   4  15
TORSDOF 1
