REMARK  6 active torsions:
REMARK  status: ('A' for Active; 'I' for Inactive)
REMARK    1  A    between atoms: C_2  and  C_1 
REMARK       I    between atoms: N_4  and  C_1 
REMARK    2  A    between atoms: N_7  and  N_4 
REMARK    3  A    between atoms: C_11  and  C_10 
REMARK    4  A    between atoms: C_12  and  C_11 
REMARK    5  A    between atoms: C_14  and  C_12 
REMARK    6  A    between atoms: C_13  and  C_14 
ROOT
ATOM      1  C   UNL d   1       0.335   1.102   0.295  0.00  0.00     0.033 A 
ATOM      2  C   UNL d   1       0.682   2.321  -0.297  0.00  0.00     0.017 A 
ATOM      3  C   UNL d   1      -0.780   1.035   1.135  0.00  0.00     0.017 A 
ATOM      4  C   UNL d   1      -1.543   2.180   1.382  0.00  0.00     0.008 A 
ATOM      5  C   UNL d   1      -0.075   3.470  -0.035  0.00  0.00     0.008 A 
ATOM      6  C   UNL d   1      -1.185   3.414   0.820  0.00  0.00    -0.058 A 
ENDROOT
BRANCH   1   7
ATOM      7  C   UNL d   1       1.166  -0.118   0.105  0.00  0.00     0.265 C 
ATOM      8  O   UNL d   1       1.290  -0.943   1.009  0.00  0.00    -0.266 OA
ATOM      9  N   UNL d   1       1.766  -0.258  -1.142  0.00  0.00    -0.290 N 
ATOM     10  H   UNL d   1       1.415   0.287  -1.926  0.00  0.00     0.183 HD
BRANCH   9  11
ATOM     11  N   UNL d   1       2.527  -1.416  -1.418  0.00  0.00    -0.247 NA
ATOM     12  H   UNL d   1       2.465  -2.018  -0.583  0.00  0.00     0.143 HD
ATOM     13  H   UNL d   1       3.512  -1.146  -1.456  0.00  0.00     0.143 HD
ENDBRANCH   9  11
ENDBRANCH   1   7
BRANCH   6  14
ATOM     14  C   UNL d   1      -1.975   4.666   1.133  0.00  0.00     0.038 C 
BRANCH  14  15
ATOM     15  C   UNL d   1      -2.057   5.010   2.627  0.00  0.00     0.005 C 
BRANCH  15  16
ATOM     16  C   UNL d   1      -0.694   5.301   3.266  0.00  0.00    -0.000 C 
BRANCH  16  17
ATOM     17  C   UNL d   1      -0.853   5.636   4.750  0.00  0.00    -0.005 C 
ATOM     18  C   UNL d   1       0.487   5.911   5.413  0.00  0.00     0.005 C 
ENDBRANCH  16  17
ENDBRANCH  15  16
ENDBRANCH  14  15
ENDBRANCH   6  14
TORSDOF 6
