REMARK  7 active torsions:
REMARK  status: ('A' for Active; 'I' for Inactive)
REMARK    1  A    between atoms: N_7  and  C_1 
REMARK    2  A    between atoms: N_11  and  C_1 
REMARK    3  A    between atoms: C_2  and  N_8 
REMARK    4  A    between atoms: C_3  and  C_4 
REMARK    5  A    between atoms: C_9  and  O_17 
REMARK    6  A    between atoms: C_23  and  N_11 
REMARK    7  A    between atoms: O_17  and  C_28 
ROOT
ATOM      1  N   UNL d   1       0.363  -1.227   0.604  0.00  0.00    -0.355 N 
ATOM      2  N   UNL d   1      -0.548  -3.727   1.550  0.00  0.00    -0.363 N 
ATOM      3  C   UNL d   1       0.922  -1.809   1.845  0.00  0.00     0.145 C 
ATOM      4  C   UNL d   1      -0.926  -1.793   0.143  0.00  0.00     0.145 C 
ATOM      5  C   UNL d   1      -0.946  -3.332   0.195  0.00  0.00     0.144 C 
ATOM      6  C   UNL d   1       0.824  -3.345   1.887  0.00  0.00     0.144 C 
ENDROOT
BRANCH   1   7
ATOM      7  C   UNL d   1       0.859  -0.058   0.064  0.00  0.00     0.174 C 
ATOM      8  S   UNL d   1       2.478   0.169  -0.300  0.00  0.00    -0.041 SA
BRANCH   7   9
ATOM      9  N   UNL d   1      -0.038   0.899  -0.334  0.00  0.00    -0.333 N 
ATOM     10  H   UNL d   1       0.302   1.515  -1.062  0.00  0.00     0.168 HD
BRANCH   9  11
ATOM     11  C   UNL d   1      -1.156   1.378   0.385  0.00  0.00     0.034 A 
ATOM     12  C   UNL d   1      -1.353   1.121   1.747  0.00  0.00     0.032 A 
ATOM     13  C   UNL d   1      -2.460   1.634   2.426  0.00  0.00     0.039 A 
ATOM     14  C   UNL d   1      -3.382   2.438   1.759  0.00  0.00     0.078 A 
ATOM     15  C   UNL d   1      -3.182   2.705   0.401  0.00  0.00     0.039 A 
ATOM     16  C   UNL d   1      -2.070   2.194  -0.279  0.00  0.00     0.032 A 
BRANCH  14  17
ATOM     17  O   UNL d   1      -4.487   3.027   2.299  0.00  0.00    -0.255 OA
BRANCH  17  18
ATOM     18  C   UNL d   1      -4.665   2.934   3.704  0.00  0.00     0.530 C 
ATOM     19  F   UNL d   1      -3.574   3.365   4.373  0.00  0.00    -0.144 F 
ATOM     20  F   UNL d   1      -5.706   3.719   4.059  0.00  0.00    -0.144 F 
ATOM     21  F   UNL d   1      -4.949   1.667   4.070  0.00  0.00    -0.144 F 
ENDBRANCH  17  18
ENDBRANCH  14  17
ENDBRANCH   9  11
ENDBRANCH   7   9
ENDBRANCH   1   7
BRANCH   2  22
ATOM     22  C   UNL d   1      -1.248  -4.710   2.204  0.00  0.00     0.125 A 
ATOM     23  N   UNL d   1      -1.857  -5.647   1.431  0.00  0.00    -0.350 N 
ATOM     24  C   UNL d   1      -2.631  -6.588   2.016  0.00  0.00     0.106 A 
ATOM     25  HN  UNL d   1      -1.731  -5.640   0.419  1.00  0.00     0.166 HD
ATOM     26  C   UNL d   1      -2.865  -6.665   3.379  0.00  0.00     0.065 A 
ATOM     27  C   UNL d   1      -2.246  -5.705   4.180  0.00  0.00     0.045 A 
ATOM     28  C   UNL d   1      -1.443  -4.722   3.599  0.00  0.00     0.078 A 
ATOM     29 CL   UNL d   1      -0.863  -3.482   4.660  0.00  0.00    -0.080 Cl
BRANCH  26  30
ATOM     30  C   UNL d   1      -3.773  -7.714   3.927  0.00  0.00     0.418 C 
ATOM     31  F   UNL d   1      -3.879  -7.684   5.285  0.00  0.00    -0.166 F 
ATOM     32  F   UNL d   1      -5.045  -7.600   3.452  0.00  0.00    -0.166 F 
ATOM     33  F   UNL d   1      -3.368  -8.974   3.613  0.00  0.00    -0.166 F 
ENDBRANCH  26  30
ENDBRANCH   2  22
TORSDOF 7
