REMARK  7 active torsions:
REMARK  status: ('A' for Active; 'I' for Inactive)
REMARK    1  A    between atoms: C_2  and  S_1 
REMARK    2  A    between atoms: N_4  and  S_1 
REMARK    3  A    between atoms: C_15  and  N_4 
REMARK    4  A    between atoms: C_16  and  N_4 
REMARK    5  A    between atoms: N_9  and  C_8 
REMARK    6  A    between atoms: C_19  and  C_15 
REMARK    7  A    between atoms: C_18  and  C_16 
ROOT
ATOM      1  C   UNL d   1       0.485  -1.096   1.538  0.00  0.00     0.085 A 
ATOM      2  C   UNL d   1      -0.700  -1.896   1.460  0.00  0.00    -0.001 A 
ATOM      3  C   UNL d   1      -1.119  -2.582   2.644  0.00  0.00    -0.003 A 
ATOM      4  C   UNL d   1      -2.313  -3.361   2.642  0.00  0.00     0.017 A 
ATOM      5  C   UNL d   1       1.246  -1.035   2.720  0.00  0.00     0.026 A 
ATOM      6  C   UNL d   1      -1.492  -2.089   0.299  0.00  0.00     0.014 A 
ATOM      7  C   UNL d   1      -0.324  -2.476   3.808  0.00  0.00     0.014 A 
ATOM      8  C   UNL d   1       0.841  -1.719   3.850  0.00  0.00     0.002 A 
ATOM      9  C   UNL d   1      -2.599  -2.939   0.283  0.00  0.00     0.003 A 
ATOM     10  C   UNL d   1      -2.995  -3.584   1.442  0.00  0.00     0.024 A 
ENDROOT
BRANCH   1  11
ATOM     11  S   UNL d   1       1.184  -0.201   0.143  0.00  0.00     0.244 S 
ATOM     12  O   UNL d   1       0.844  -0.896  -1.075  0.00  0.00    -0.206 OA
ATOM     13  O   UNL d   1       2.583   0.052   0.444  0.00  0.00    -0.206 OA
BRANCH  11  14
ATOM     14  N   UNL d   1       0.393   1.363   0.170  0.00  0.00    -0.206 NA
BRANCH  14  15
ATOM     15  C   UNL d   1       0.600   2.072   1.489  0.00  0.00     0.107 C 
BRANCH  15  16
ATOM     16  C   UNL d   1      -0.008   3.472   1.606  0.00  0.00     0.011 C 
ATOM     17  C   UNL d   1      -1.500   3.526   1.329  0.00  0.00     0.006 C 
ENDBRANCH  15  16
ENDBRANCH  14  15
BRANCH  14  18
ATOM     18  C   UNL d   1       0.810   2.212  -1.005  0.00  0.00     0.107 C 
BRANCH  18  19
ATOM     19  C   UNL d   1       0.205   1.770  -2.337  0.00  0.00     0.011 C 
ATOM     20  C   UNL d   1      -1.309   1.641  -2.303  0.00  0.00     0.006 C 
ENDBRANCH  18  19
ENDBRANCH  14  18
ENDBRANCH  11  14
ENDBRANCH   1  11
BRANCH   4  21
ATOM     21  N   UNL d   1      -2.733  -4.104   3.772  0.00  0.00    -0.302 NA
ATOM     22  H   UNL d   1      -2.542  -3.635   4.650  0.00  0.00     0.124 HD
ATOM     23  H   UNL d   1      -3.706  -4.391   3.719  0.00  0.00     0.124 HD
ENDBRANCH   4  21
TORSDOF 7
