REMARK  6 active torsions:
REMARK  status: ('A' for Active; 'I' for Inactive)
REMARK    1  A    between atoms: C_3  and  C_1 
REMARK    2  A    between atoms: N_4  and  C_2 
REMARK    3  A    between atoms: O_12  and  C_3 
REMARK       I    between atoms: C_5  and  N_4 
REMARK    4  A    between atoms: C_6  and  C_5 
REMARK    5  A    between atoms: C_7  and  C_8 
REMARK    6  A    between atoms: O_13  and  C_7 
ROOT
ATOM      1  C   UNL d   1       4.385   0.826  -0.633  0.00  0.00     0.066 A 
ATOM      2  C   UNL d   1       5.655   0.362  -0.220  0.00  0.00     0.051 A 
ATOM      3  C   UNL d   1       4.158   2.211  -0.734  0.00  0.00     0.020 A 
ATOM      4  C   UNL d   1       6.651   1.298   0.102  0.00  0.00     0.030 A 
ATOM      5  C   UNL d   1       5.165   3.128  -0.423  0.00  0.00     0.001 A 
ATOM      6  C   UNL d   1       6.409   2.670  -0.005  0.00  0.00     0.002 A 
ENDROOT
BRANCH   2   7
ATOM      7  N   UNL d   1       5.900  -1.014  -0.037  0.00  0.00    -0.323 N 
ATOM      8  C   UNL d   1       7.034  -1.759  -0.207  0.00  0.00     0.245 C 
ATOM      9  O   UNL d   1       7.063  -2.928   0.172  0.00  0.00    -0.268 OA
ATOM     10  H   UNL d   1       5.087  -1.605   0.118  0.00  0.00     0.169 HD
BRANCH   8  11
ATOM     11  C   UNL d   1       8.108  -1.193  -1.062  0.00  0.00     0.081 C 
ATOM     12  C   UNL d   1       9.362  -1.661  -1.115  0.00  0.00     0.086 C 
BRANCH  12  13
ATOM     13  C   UNL d   1       9.911  -2.697  -0.239  0.00  0.00     0.165 C 
ATOM     14  O   UNL d   1      10.586  -3.639  -0.611  0.00  0.00    -0.647 OA
BRANCH  13  15
ATOM     15  O   UNL d   1       9.735  -2.397   1.056  0.00  0.00    -0.773 OA
ATOM     16  H   UNL d   1      10.117  -3.167   1.526  0.00  0.00     0.167 HD
ENDBRANCH  13  15
ENDBRANCH  12  13
ENDBRANCH   8  11
ENDBRANCH   2   7
BRANCH   1  17
ATOM     17  C   UNL d   1       3.252  -0.046  -1.073  0.00  0.00     0.295 C 
ATOM     18  O   UNL d   1       2.147   0.385  -1.365  0.00  0.00    -0.259 OA
BRANCH  17  19
ATOM     19  O   UNL d   1       3.631  -1.345  -1.169  0.00  0.00    -0.322 OA
ATOM     20  C   UNL d   1       2.660  -2.212  -1.757  0.00  0.00     0.213 C 
ENDBRANCH  17  19
ENDBRANCH   1  17
TORSDOF 6
