REMARK  10 active torsions:
REMARK  status: ('A' for Active; 'I' for Inactive)
REMARK    1  A    between atoms: C_8  and  N_1 
REMARK    2  A    between atoms: C_15  and  N_4 
REMARK    3  A    between atoms: C_20  and  C_8 
REMARK    4  A    between atoms: O_23  and  C_9 
REMARK    5  A    between atoms: O_24  and  C_10 
REMARK    6  A    between atoms: O_26  and  C_11 
REMARK    7  A    between atoms: O_27  and  C_12 
REMARK    8  A    between atoms: C_25  and  C_15 
REMARK    9  A    between atoms: C_18  and  C_20 
REMARK   10  A    between atoms: C_19  and  C_25 
ROOT
ATOM      1  N   UNL d   1       0.808   0.978  -0.283  0.00  0.00    -0.341 N 
ATOM      2  C   UNL d   1       1.624   0.013   0.289  0.00  0.00     0.139 C 
ATOM      3  S   UNL d   1       1.030  -1.604  -0.009  0.00  0.00    -0.070 SA
ATOM      4  N   UNL d   1      -1.275  -0.121  -0.224  0.00  0.00     0.115 N 
ATOM      5  C   UNL d   1      -0.540   1.049   0.234  0.00  0.00     0.400 C 
ATOM      6  C   UNL d   1      -0.701  -1.332   0.371  0.00  0.00     0.355 C 
ATOM      7  S   UNL d   1       3.080   0.280   1.069  0.00  0.00    -0.053 SA
ENDROOT
BRANCH   1   8
ATOM      8  C   UNL d   1       1.368   2.198  -0.885  0.00  0.00     0.131 C 
BRANCH   8   9
ATOM      9  C   UNL d   1       2.200   1.864  -2.132  0.00  0.00     0.058 C 
BRANCH   9  10
ATOM     10  C   UNL d   1       2.750   3.098  -2.799  0.00  0.00    -0.054 A 
ATOM     11  C   UNL d   1       4.000   3.608  -2.412  0.00  0.00     0.046 A 
ATOM     12  C   UNL d   1       4.532   4.761  -3.007  0.00  0.00     0.102 A 
ATOM     13  C   UNL d   1       3.798   5.397  -4.023  0.00  0.00     0.101 A 
ATOM     14  C   UNL d   1       2.539   4.902  -4.387  0.00  0.00     0.040 A 
ATOM     15  C   UNL d   1       2.018   3.760  -3.784  0.00  0.00     0.010 A 
BRANCH  12  16
ATOM     16  O   UNL d   1       5.723   5.323  -2.627  0.00  0.00    -0.353 OA
ATOM     17  C   UNL d   1       6.450   4.699  -1.577  0.00  0.00     0.210 C 
ENDBRANCH  12  16
BRANCH  13  18
ATOM     18  O   UNL d   1       4.149   6.534  -4.709  0.00  0.00    -0.353 OA
ATOM     19  C   UNL d   1       5.536   6.710  -4.968  0.00  0.00     0.210 C 
ENDBRANCH  13  18
ENDBRANCH   9  10
ENDBRANCH   8   9
ENDBRANCH   1   8
BRANCH   4  20
ATOM     20  C   UNL d   1      -2.701  -0.046   0.173  0.00  0.00     0.280 C 
BRANCH  20  21
ATOM     21  C   UNL d   1      -3.500   1.099  -0.476  0.00  0.00     0.069 C 
BRANCH  21  22
ATOM     22  C   UNL d   1      -4.934   1.135   0.004  0.00  0.00    -0.054 A 
ATOM     23  C   UNL d   1      -5.395   2.209   0.787  0.00  0.00     0.046 A 
ATOM     24  C   UNL d   1      -6.719   2.257   1.252  0.00  0.00     0.102 A 
ATOM     25  C   UNL d   1      -7.604   1.229   0.893  0.00  0.00     0.101 A 
ATOM     26  C   UNL d   1      -7.139   0.151   0.131  0.00  0.00     0.040 A 
ATOM     27  C   UNL d   1      -5.820   0.107  -0.320  0.00  0.00     0.010 A 
BRANCH  24  28
ATOM     28  O   UNL d   1      -7.192   3.288   2.022  0.00  0.00    -0.353 OA
ATOM     29  C   UNL d   1      -6.251   3.925   2.876  0.00  0.00     0.210 C 
ENDBRANCH  24  28
BRANCH  25  30
ATOM     30  O   UNL d   1      -8.919   1.104   1.263  0.00  0.00    -0.353 OA
ATOM     31  C   UNL d   1      -9.660   2.312   1.382  0.00  0.00     0.210 C 
ENDBRANCH  25  30
ENDBRANCH  21  22
ENDBRANCH  20  21
ENDBRANCH   4  20
TORSDOF 10
