REMARK  7 active torsions:
REMARK  status: ('A' for Active; 'I' for Inactive)
REMARK       I    between atoms: C_2  and  N_1 
REMARK    1  A    between atoms: C_3  and  N_1 
REMARK    2  A    between atoms: C_5  and  C_2 
REMARK    3  A    between atoms: C_4  and  C_3 
REMARK    4  A    between atoms: C_10  and  C_3 
REMARK    5  A    between atoms: O_18  and  C_4 
REMARK    6  A    between atoms: C_7  and  C_9 
REMARK    7  A    between atoms: C_24  and  O_18 
ROOT
ATOM      1  N   UNL d   1      -0.803   0.011  -0.896  0.00  0.00    -0.343 N 
ATOM      2  C   UNL d   1      -0.459   0.551   0.313  0.00  0.00     0.222 C 
ATOM      3  O   UNL d   1      -0.885   0.102   1.375  0.00  0.00    -0.273 OA
ATOM      4  H   UNL d   1      -0.524   0.458  -1.758  0.00  0.00     0.163 HD
ENDROOT
BRANCH   2   5
ATOM      5  C   UNL d   1       0.636   1.628   0.291  0.00  0.00     0.078 C 
ATOM      6  C   UNL d   1       0.479   2.739  -0.752  0.00  0.00     0.015 C 
ATOM      7  C   UNL d   1       1.428   2.768  -1.971  0.00  0.00     0.010 C 
ATOM      8  C   UNL d   1       2.531   1.687  -2.127  0.00  0.00     0.018 C 
ATOM      9  C   UNL d   1       2.306   0.493  -1.198  0.00  0.00     0.010 C 
ATOM     10  C   UNL d   1       1.995   0.941   0.221  0.00  0.00     0.015 C 
BRANCH   8  11
ATOM     11  C   UNL d   1       3.981   2.192  -2.180  0.00  0.00    -0.054 A 
ATOM     12  C   UNL d   1       5.030   1.540  -1.504  0.00  0.00     0.009 A 
ATOM     13  C   UNL d   1       6.370   1.832  -1.774  0.00  0.00     0.024 A 
ATOM     14  C   UNL d   1       6.688   2.814  -2.699  0.00  0.00     0.034 A 
ATOM     15  C   UNL d   1       5.675   3.528  -3.332  0.00  0.00     0.024 A 
ATOM     16 CL   UNL d   1       8.335   3.119  -3.088  0.00  0.00    -0.084 Cl
ATOM     17  C   UNL d   1       4.332   3.215  -3.080  0.00  0.00     0.009 A 
ENDBRANCH   8  11
ENDBRANCH   2   5
BRANCH   1  18
ATOM     18  C   UNL d   1      -1.431  -1.309  -1.022  0.00  0.00     0.217 C 
BRANCH  18  19
ATOM     19  C   UNL d   1      -2.537  -1.298  -2.093  0.00  0.00     0.286 C 
ATOM     20  O   UNL d   1      -3.351  -2.200  -2.275  0.00  0.00    -0.263 OA
BRANCH  19  21
ATOM     21  O   UNL d   1      -2.428  -0.187  -2.885  0.00  0.00    -0.320 OA
BRANCH  21  22
ATOM     22  C   UNL d   1      -3.380  -0.070  -3.950  0.00  0.00     0.174 C 
ATOM     23  C   UNL d   1      -4.579   0.719  -3.462  0.00  0.00     0.034 C 
ENDBRANCH  21  22
ENDBRANCH  19  21
ENDBRANCH  18  19
BRANCH  18  24
ATOM     24  C   UNL d   1      -0.342  -2.341  -1.320  0.00  0.00    -0.026 A 
ATOM     25  C   UNL d   1       0.306  -2.997  -0.259  0.00  0.00     0.010 A 
ATOM     26  C   UNL d   1       1.343  -3.902  -0.502  0.00  0.00     0.001 A 
ATOM     27  C   UNL d   1       1.756  -4.159  -1.808  0.00  0.00     0.000 A 
ATOM     28  C   UNL d   1       1.138  -3.507  -2.871  0.00  0.00     0.001 A 
ATOM     29  C   UNL d   1       0.102  -2.600  -2.631  0.00  0.00     0.010 A 
ENDBRANCH  18  24
ENDBRANCH   1  18
TORSDOF 7
