REMARK  12 active torsions:
REMARK  status: ('A' for Active; 'I' for Inactive)
REMARK    1  A    between atoms: C_5  and  S_1 
REMARK    2  A    between atoms: N_10  and  S_1 
REMARK    3  A    between atoms: C_8  and  C_2 
REMARK    4  A    between atoms: C_9  and  C_2 
REMARK    5  A    between atoms: C_3  and  C_6 
REMARK    6  A    between atoms: C_4  and  C_7 
REMARK    7  A    between atoms: O_27  and  C_8 
REMARK    8  A    between atoms: O_26  and  C_9 
REMARK    9  A    between atoms: N_17  and  N_10 
REMARK   10  A    between atoms: C_16  and  N_17 
REMARK   11  A    between atoms: C_29  and  O_26 
REMARK   12  A    between atoms: C_28  and  O_27 
ROOT
ATOM      1  S   UNL d   1       1.021   0.106   0.297  0.00  0.00     0.276 S 
ATOM      2  O   UNL d   1       2.121   0.268   1.222  0.00  0.00    -0.199 OA
ATOM      3  O   UNL d   1       1.233   0.174  -1.134  0.00  0.00    -0.199 OA
ENDROOT
BRANCH   1   4
ATOM      4  C   UNL d   1      -0.233   1.285   0.730  0.00  0.00     0.082 A 
ATOM      5  C   UNL d   1      -0.296   1.772   2.039  0.00  0.00     0.041 A 
ATOM      6  C   UNL d   1      -1.234   2.759   2.375  0.00  0.00     0.050 A 
ATOM      7  C   UNL d   1      -2.092   3.250   1.371  0.00  0.00     0.032 A 
ATOM      8  C   UNL d   1      -2.014   2.782   0.046  0.00  0.00     0.050 A 
ATOM      9  C   UNL d   1      -1.078   1.785  -0.265  0.00  0.00     0.041 A 
BRANCH   6  10
ATOM     10  C   UNL d   1      -1.322   3.308   3.782  0.00  0.00     0.417 C 
ATOM     11  F   UNL d   1      -0.383   2.797   4.622  0.00  0.00    -0.166 F 
ATOM     12  F   UNL d   1      -1.170   4.659   3.821  0.00  0.00    -0.166 F 
ATOM     13  F   UNL d   1      -2.526   3.046   4.359  0.00  0.00    -0.166 F 
ENDBRANCH   6  10
BRANCH   8  14
ATOM     14  C   UNL d   1      -2.905   3.377  -1.022  0.00  0.00     0.417 C 
ATOM     15  F   UNL d   1      -2.683   2.861  -2.262  0.00  0.00    -0.166 F 
ATOM     16  F   UNL d   1      -4.225   3.178  -0.762  0.00  0.00    -0.166 F 
ATOM     17  F   UNL d   1      -2.740   4.722  -1.139  0.00  0.00    -0.166 F 
ENDBRANCH   8  14
ENDBRANCH   1   4
BRANCH   1  18
ATOM     18  N   UNL d   1       0.258  -1.374   0.642  0.00  0.00    -0.223 N 
ATOM     19  H   UNL d   1      -0.616  -1.371   1.168  0.00  0.00     0.200 HD
BRANCH  18  20
ATOM     20  N   UNL d   1       0.944  -2.588   0.276  0.00  0.00    -0.301 N 
ATOM     21  H   UNL d   1       1.829  -2.475  -0.236  0.00  0.00     0.186 HD
BRANCH  20  22
ATOM     22  C   UNL d   1       0.571  -3.864   0.602  0.00  0.00     0.131 C 
ATOM     23  C   UNL d   1       1.254  -5.009   0.398  0.00  0.00     0.131 C 
BRANCH  23  24
ATOM     24  C   UNL d   1       2.625  -5.024  -0.175  0.00  0.00     0.300 C 
ATOM     25  O   UNL d   1       3.467  -5.875   0.080  0.00  0.00    -0.259 OA
BRANCH  24  26
ATOM     26  O   UNL d   1       2.858  -3.908  -0.920  0.00  0.00    -0.318 OA
BRANCH  26  27
ATOM     27  C   UNL d   1       4.241  -3.596  -1.155  0.00  0.00     0.174 C 
ATOM     28  C   UNL d   1       4.757  -2.797   0.030  0.00  0.00     0.034 C 
ENDBRANCH  26  27
ENDBRANCH  24  26
ENDBRANCH  23  24
BRANCH  23  29
ATOM     29  C   UNL d   1       0.668  -6.238   0.982  0.00  0.00     0.300 C 
ATOM     30  O   UNL d   1      -0.173  -6.237   1.868  0.00  0.00    -0.259 OA
BRANCH  29  31
ATOM     31  O   UNL d   1       1.231  -7.339   0.431  0.00  0.00    -0.318 OA
BRANCH  31  32
ATOM     32  C   UNL d   1       1.162  -8.532   1.224  0.00  0.00     0.174 C 
ATOM     33  C   UNL d   1       2.329  -8.530   2.197  0.00  0.00     0.034 C 
ENDBRANCH  31  32
ENDBRANCH  29  31
ENDBRANCH  23  29
ENDBRANCH  20  22
ENDBRANCH  18  20
ENDBRANCH   1  18
TORSDOF 12
