REMARK  2 active torsions:
REMARK  status: ('A' for Active; 'I' for Inactive)
REMARK    1  A    between atoms: C_5  and  C_3 
REMARK    2  A    between atoms: C_11  and  C_4 
ROOT
ATOM      1  N   UNL d   1       1.204  -0.534   0.456  0.00  0.00    -0.348 N 
ATOM      2  HN  UNL d   1       2.003  -0.997   0.888  1.00  0.00     0.166 HD
ATOM      3  C   UNL d   1       1.041   0.840   0.365  0.00  0.00     0.057 A 
ATOM      4  C   UNL d   1       0.179  -1.159  -0.094  0.00  0.00     0.084 A 
ATOM      5  S   UNL d   1      -1.026  -0.114  -0.754  0.00  0.00    -0.081 SA
ATOM      6  C   UNL d   1      -0.117   1.248  -0.262  0.00  0.00     0.082 A 
ENDROOT
BRANCH   4   7
ATOM      7  C   UNL d   1      -0.004  -2.622  -0.099  0.00  0.00    -0.002 A 
ATOM      8  C   UNL d   1      -0.733  -3.288  -1.102  0.00  0.00     0.024 A 
ATOM      9  C   UNL d   1      -0.900  -4.661  -1.013  0.00  0.00    -0.022 A 
ATOM     10  C   UNL d   1      -1.571  -5.594  -1.946  0.00  0.00     0.068 C 
ATOM     11  C   UNL d   1      -0.344  -5.381   0.030  0.00  0.00     0.075 A 
ATOM     12  C   UNL d   1      -1.617  -6.834  -1.053  0.00  0.00     0.180 C 
ATOM     13  O   UNL d   1      -0.594  -6.727  -0.035  0.00  0.00    -0.350 OA
ATOM     14  C   UNL d   1       0.405  -4.774   1.014  0.00  0.00     0.038 A 
ATOM     15  C   UNL d   1       0.573  -3.386   0.945  0.00  0.00     0.017 A 
ENDBRANCH   4   7
BRANCH   3  16
ATOM     16  C   UNL d   1       2.062   1.780   0.934  0.00  0.00     0.033 A 
ATOM     17  S   UNL d   1       1.913   3.485   0.972  0.00  0.00    -0.076 SA
ATOM     18  C   UNL d   1       3.397   3.647   1.764  0.00  0.00     0.075 A 
ATOM     19 CL   UNL d   1       3.965   5.208   2.200  0.00  0.00    -0.076 Cl
ATOM     20  C   UNL d   1       4.030   2.453   1.990  0.00  0.00     0.033 A 
ATOM     21  C   UNL d   1       3.248   1.360   1.505  0.00  0.00     0.023 A 
ENDBRANCH   3  16
TORSDOF 2
