REMARK  2 active torsions:
REMARK  status: ('A' for Active; 'I' for Inactive)
REMARK    1  A    between atoms: S_10  and  C_15 
REMARK    2  A    between atoms: C_17  and  C_11 
ROOT
ATOM      1  N   UNL d   1      -0.519  -0.834   0.048  0.00  0.00    -0.213 N 
ATOM      2  C   UNL d   1      -1.886  -1.035  -0.034  0.00  0.00     0.161 A 
ATOM      3  N   UNL d   1       0.448  -1.789   0.263  0.00  0.00    -0.293 N 
ATOM      4  HN  UNL d   1       0.207  -2.730   0.575  1.00  0.00     0.187 HD
ATOM      5  C   UNL d   1      -0.378   0.530  -0.033  0.00  0.00     0.182 A 
ATOM      6  N   UNL d   1      -2.495   0.134  -0.147  0.00  0.00    -0.281 N 
ATOM      7  HN  UNL d   1      -3.502   0.277  -0.221  1.00  0.00     0.188 HD
ATOM      8  N   UNL d   1      -1.538   1.124  -0.146  0.00  0.00    -0.277 N 
ATOM      9  HN  UNL d   1      -1.702   2.128  -0.220  1.00  0.00     0.189 HD
ATOM     10  C   UNL d   1       1.687  -1.440   0.050  0.00  0.00     0.046 C 
ATOM     11  S   UNL d   1       1.173   1.268   0.067  0.00  0.00    -0.085 SA
ATOM     12  C   UNL d   1      -2.546  -2.310  -0.022  0.00  0.00     0.052 A 
ATOM     13  S   UNL d   1      -4.160  -2.462   0.542  0.00  0.00    -0.098 SA
ATOM     14  C   UNL d   1       2.127  -0.121  -0.579  0.00  0.00     0.142 C 
ATOM     15  C   UNL d   1      -2.051  -3.533  -0.440  0.00  0.00     0.023 A 
ATOM     16  C   UNL d   1      -4.180  -4.146   0.252  0.00  0.00     0.050 A 
ATOM     17  C   UNL d   1      -2.993  -4.592  -0.282  0.00  0.00     0.009 A 
ENDROOT
BRANCH  10  18
ATOM     18  C   UNL d   1       2.755  -2.444   0.372  0.00  0.00    -0.011 A 
ATOM     19  C   UNL d   1       3.978  -2.460  -0.310  0.00  0.00     0.015 A 
ATOM     20  C   UNL d   1       4.955  -3.406   0.015  0.00  0.00     0.024 A 
ATOM     21  C   UNL d   1       4.706  -4.341   1.023  0.00  0.00     0.058 A 
ATOM     22  C   UNL d   1       3.481  -4.357   1.692  0.00  0.00     0.024 A 
ATOM     23  C   UNL d   1       2.509  -3.405   1.367  0.00  0.00     0.015 A 
BRANCH  21  24
ATOM     24  S   UNL d   1       5.933  -5.580   1.382  0.00  0.00     0.171 S 
ATOM     25  O   UNL d   1       5.242  -6.721   1.953  0.00  0.00    -0.223 OA
ATOM     26  O   UNL d   1       6.755  -5.725   0.196  0.00  0.00    -0.223 OA
ATOM     27  C   UNL d   1       6.923  -4.838   2.652  0.00  0.00     0.167 C 
ENDBRANCH  21  24
ENDBRANCH  10  18
TORSDOF 2
