REMARK  7 active torsions:
REMARK  status: ('A' for Active; 'I' for Inactive)
REMARK    1  A    between atoms: N_5  and  C_1 
REMARK    2  A    between atoms: C_2  and  C_7 
REMARK       I    between atoms: C_3  and  N_5 
REMARK       I    between atoms: N_9  and  C_3 
REMARK    3  A    between atoms: N_6  and  C_4 
REMARK    4  A    between atoms: C_16  and  N_9 
REMARK    5  A    between atoms: O_17  and  C_18 
REMARK    6  A    between atoms: C_19  and  O_17 
REMARK    7  A    between atoms: C_24  and  C_19 
ROOT
ATOM      1  C   UNL d   1       2.255  -1.321   1.830  0.00  0.00     0.325 C 
ATOM      2  N   UNL d   1       2.375  -0.602   0.669  0.00  0.00    -0.307 N 
ATOM      3  N   UNL d   1       1.185  -2.204   1.802  0.00  0.00    -0.309 N 
ATOM      4  O   UNL d   1       3.075  -1.335   2.742  0.00  0.00    -0.247 OA
ATOM      5  H   UNL d   1       2.101  -1.132  -0.153  0.00  0.00     0.170 HD
ATOM      6  H   UNL d   1       1.349  -3.084   2.271  0.00  0.00     0.170 HD
ENDROOT
BRANCH   2   7
ATOM      7  C   UNL d   1       3.308   0.399   0.358  0.00  0.00     0.063 C 
ATOM      8  C   UNL d   1       3.872   0.337  -0.943  0.00  0.00     0.057 C 
ATOM      9  C   UNL d   1       4.375   1.529  -1.470  0.00  0.00     0.032 C 
ATOM     10  C   UNL d   1       4.412   2.698  -0.698  0.00  0.00     0.018 C 
ATOM     11  C   UNL d   1       3.977   2.700   0.637  0.00  0.00     0.050 C 
ATOM     12  C   UNL d   1       3.424   1.528   1.171  0.00  0.00     0.048 C 
BRANCH   8  13
ATOM     13  N   UNL d   1       3.878  -0.881  -1.642  0.00  0.00    -0.379 N 
ATOM     14  C   UNL d   1       4.297  -0.953  -3.040  0.00  0.00     0.123 C 
ATOM     15  C   UNL d   1       4.309  -2.454  -3.293  0.00  0.00     0.021 C 
ATOM     16  C   UNL d   1       4.921  -3.008  -2.015  0.00  0.00     0.021 C 
ATOM     17  C   UNL d   1       4.497  -2.023  -0.921  0.00  0.00     0.123 C 
ENDBRANCH   8  13
BRANCH  11  18
ATOM     18  C   UNL d   1       4.003   3.982   1.432  0.00  0.00     0.417 C 
ATOM     19  F   UNL d   1       3.864   3.802   2.770  0.00  0.00    -0.166 F 
ATOM     20  F   UNL d   1       5.162   4.680   1.265  0.00  0.00    -0.166 F 
ATOM     21  F   UNL d   1       3.004   4.835   1.061  0.00  0.00    -0.166 F 
ENDBRANCH  11  18
ENDBRANCH   2   7
BRANCH   3  22
ATOM     22  C   UNL d   1       0.012  -2.027   1.044  0.00  0.00     0.036 C 
ATOM     23  C   UNL d   1      -0.607  -3.125   0.443  0.00  0.00     0.032 C 
ATOM     24  C   UNL d   1      -1.667  -2.913  -0.447  0.00  0.00     0.039 C 
ATOM     25  C   UNL d   1      -2.128  -1.622  -0.704  0.00  0.00     0.069 C 
ATOM     26  C   UNL d   1      -1.617  -0.548   0.025  0.00  0.00     0.039 C 
ATOM     27  C   UNL d   1      -0.535  -0.746   0.871  0.00  0.00     0.032 C 
BRANCH  25  28
ATOM     28  O   UNL d   1      -3.065  -1.482  -1.692  0.00  0.00    -0.347 OA
BRANCH  28  29
ATOM     29  C   UNL d   1      -2.873  -0.313  -2.497  0.00  0.00     0.214 C 
BRANCH  29  30
ATOM     30  C   UNL d   1      -3.071  -0.657  -3.951  0.00  0.00    -0.034 A 
ATOM     31  C   UNL d   1      -4.303  -0.444  -4.580  0.00  0.00     0.009 A 
ATOM     32  C   UNL d   1      -4.455  -0.715  -5.940  0.00  0.00     0.001 A 
ATOM     33  C   UNL d   1      -3.381  -1.210  -6.680  0.00  0.00     0.000 A 
ATOM     34  C   UNL d   1      -2.158  -1.449  -6.058  0.00  0.00     0.001 A 
ATOM     35  C   UNL d   1      -2.004  -1.180  -4.698  0.00  0.00     0.009 A 
ENDBRANCH  29  30
ENDBRANCH  28  29
ENDBRANCH  25  28
ENDBRANCH   3  22
TORSDOF 7
