REMARK  4 active torsions:
REMARK  status: ('A' for Active; 'I' for Inactive)
REMARK    1  A    between atoms: C_19  and  N_2 
REMARK       I    between atoms: C_3  and  N_16 
REMARK    2  A    between atoms: C_4  and  C_3 
REMARK    3  A    between atoms: N_16  and  C_21 
REMARK    4  A    between atoms: C_21  and  C_19 
ROOT
ATOM      1  C   UNL d   1      -3.732  -3.932  -1.439  0.00  0.00     0.251 C 
ATOM      2  O   UNL d   1      -4.579  -3.070  -1.231  0.00  0.00    -0.268 OA
ATOM      3  N   UNL d   1      -2.382  -3.760  -1.221  0.00  0.00    -0.355 N 
ATOM      4  H   UNL d   1      -1.806  -4.586  -1.117  0.00  0.00     0.162 HD
ENDROOT
BRANCH   1   5
ATOM      5  C   UNL d   1      -4.131  -5.264  -1.974  0.00  0.00     0.034 A 
ATOM      6  C   UNL d   1      -3.299  -5.958  -2.859  0.00  0.00     0.049 A 
ATOM      7  C   UNL d   1      -3.679  -7.180  -3.397  0.00  0.00     0.060 A 
ATOM      8  N   UNL d   1      -2.847  -7.808  -4.251  0.00  0.00    -0.363 N 
ATOM      9  C   UNL d   1      -4.934  -7.738  -3.041  0.00  0.00     0.059 A 
ATOM     10  C   UNL d   1      -3.272  -8.993  -4.740  0.00  0.00     0.105 A 
ATOM     11  HN  UNL d   1      -1.946  -7.410  -4.514  1.00  0.00     0.165 HD
ATOM     12  C   UNL d   1      -4.486  -9.543  -4.386  0.00  0.00     0.105 A 
ATOM     13  N   UNL d   1      -5.335  -8.927  -3.535  0.00  0.00    -0.363 N 
ATOM     14  HN  UNL d   1      -6.233  -9.339  -3.280  1.00  0.00     0.165 HD
ATOM     15  C   UNL d   1      -5.761  -7.032  -2.176  0.00  0.00     0.033 A 
ATOM     16  C   UNL d   1      -5.377  -5.795  -1.647  0.00  0.00     0.019 A 
ENDBRANCH   1   5
BRANCH   3  17
ATOM     17  C   UNL d   1      -1.835  -2.503  -0.744  0.00  0.00     0.143 C 
BRANCH  17  18
ATOM     18  C   UNL d   1      -1.746  -2.404   0.782  0.00  0.00     0.147 C 
BRANCH  18  19
ATOM     19  N   UNL d   1      -0.823  -3.356   1.383  0.00  0.00    -0.331 N 
ATOM     20  C   UNL d   1      -1.179  -4.617   1.846  0.00  0.00     0.318 C 
ATOM     21  N   UNL d   1      -0.018  -5.240   2.287  0.00  0.00    -0.341 N 
ATOM     22  O   UNL d   1      -2.288  -5.116   1.880  0.00  0.00    -0.247 OA
ATOM     23  C   UNL d   1       1.073  -4.303   2.319  0.00  0.00     0.144 C 
ATOM     24  H   UNL d   1      -0.101  -6.072   2.855  0.00  0.00     0.164 HD
ATOM     25  C   UNL d   1       0.617  -3.209   1.361  0.00  0.00     0.147 C 
ENDBRANCH  18  19
ENDBRANCH  17  18
ENDBRANCH   3  17
TORSDOF 4
