REMARK  0 active torsions:
REMARK  status: ('A' for Active; 'I' for Inactive)
ROOT
ATOM      1  C   UNL d   1       3.208  -1.468   0.807  0.00  0.00     0.023 C 
ATOM      2  C   UNL d   1      -0.454   0.727   0.201  0.00  0.00    -0.010 C 
ATOM      3  C   UNL d   1       0.765  -0.138  -0.344  0.00  0.00     0.072 C 
ATOM      4  C   UNL d   1       0.759  -1.517   0.365  0.00  0.00     0.003 C 
ATOM      5  C   UNL d   1       2.049  -2.282   0.178  0.00  0.00     0.004 C 
ATOM      6  C   UNL d   1       2.172   0.554  -0.338  0.00  0.00     0.133 C 
ATOM      7  C   UNL d   1      -1.710  -0.146   0.498  0.00  0.00    -0.069 C 
ATOM      8  C   UNL d   1       4.270  -2.577   0.987  0.00  0.00     0.172 C 
ATOM      9  C   UNL d   1       3.447  -0.326  -0.188  0.00  0.00     0.093 C 
ATOM     10  C   UNL d   1      -3.334   1.710  -0.040  0.00  0.00     0.183 C 
ATOM     11  C   UNL d   1      -2.953   0.363   0.472  0.00  0.00     0.044 C 
ATOM     12  C   UNL d   1      -0.487  -2.264  -0.086  0.00  0.00     0.010 C 
ATOM     13  C   UNL d   1      -0.905   1.812  -0.830  0.00  0.00     0.020 C 
ATOM     14  C   UNL d   1       2.123  -3.690   0.785  0.00  0.00     0.011 C 
ATOM     15  C   UNL d   1      -1.632  -1.645   0.693  0.00  0.00     0.035 C 
ATOM     16  O   UNL d   1       5.304  -2.252   1.912  0.00  0.00    -0.352 OA
ATOM     17  O   UNL d   1       4.848  -3.004  -0.249  0.00  0.00    -0.352 OA
ATOM     18  C   UNL d   1       3.424  -3.727   1.577  0.00  0.00     0.070 C 
ATOM     19  O   UNL d   1       2.297   1.752  -0.587  0.00  0.00    -0.297 OA
ATOM     20  O   UNL d   1      -4.080   1.452  -1.255  0.00  0.00    -0.349 OA
ATOM     21  O   UNL d   1      -4.218   2.327   0.916  0.00  0.00    -0.349 OA
ATOM     22  C   UNL d   1      -2.143   2.609  -0.356  0.00  0.00     0.074 C 
ATOM     23  C   UNL d   1       2.949  -0.822   2.200  0.00  0.00     0.022 C 
ATOM     24  C   UNL d   1      -0.048   1.451   1.512  0.00  0.00     0.021 C 
ATOM     25  C   UNL d   1       6.527  -2.586   1.258  0.00  0.00     0.197 C 
ATOM     26  C   UNL d   1       6.125  -3.512   0.143  0.00  0.00     0.197 C 
ATOM     27  C   UNL d   1      -5.438   1.425  -0.835  0.00  0.00     0.198 C 
ATOM     28  C   UNL d   1      -5.462   2.485   0.233  0.00  0.00     0.198 C 
ENDROOT
TORSDOF 0
