REMARK  2 active torsions:
REMARK  status: ('A' for Active; 'I' for Inactive)
REMARK    1  A    between atoms: S_8  and  C_3 
REMARK    2  A    between atoms: O_12  and  C_10 
ROOT
ATOM      1  N   UNL d   1      -1.589  -1.143   0.003  0.00  0.00    -0.335 N 
ATOM      2  HN  UNL d   1      -1.892  -2.117   0.002  1.00  0.00     0.168 HD
ATOM      3  C   UNL d   1      -2.339  -0.070   0.003  0.00  0.00     0.142 A 
ATOM      4  N   UNL d   1      -1.610   1.079   0.004  0.00  0.00    -0.335 N 
ATOM      5  C   UNL d   1      -0.297  -0.663   0.003  0.00  0.00     0.063 A 
ATOM      6  C   UNL d   1      -0.285   0.730   0.004  0.00  0.00     0.061 A 
ATOM      7  C   UNL d   1       0.924  -1.353   0.002  0.00  0.00     0.068 A 
ATOM      8  C   UNL d   1       0.886   1.486   0.004  0.00  0.00     0.035 A 
ATOM      9  C   UNL d   1       2.123  -0.623   0.002  0.00  0.00     0.070 A 
ATOM     10  C   UNL d   1       2.095   0.776   0.003  0.00  0.00     0.039 A 
ATOM     11  H   UNL d   1      -1.991   2.013   0.005  0.00  0.00     0.168 HD
ENDROOT
BRANCH   3  12
ATOM     12  S   UNL d   1      -4.057  -0.008   0.003  0.00  0.00    -0.107 SA
ATOM     13  H   UNL d   1      -4.261  -1.333   0.003  0.00  0.00     0.110 HD
ENDBRANCH   3  12
BRANCH   9  14
ATOM     14  O   UNL d   1       3.258  -1.393  -0.000  0.00  0.00    -0.356 OA
ATOM     15  C   UNL d   1       4.503  -0.704  -0.003  0.00  0.00     0.210 C 
ENDBRANCH   9  14
TORSDOF 2
