REMARK  5 active torsions:
REMARK  status: ('A' for Active; 'I' for Inactive)
REMARK       I    between atoms: N_3  and  C_1 
REMARK       I    between atoms: N_9  and  C_1 
REMARK    1  A    between atoms: C_2  and  C_5 
REMARK    2  A    between atoms: C_4  and  N_3 
REMARK    3  A    between atoms: C_21  and  N_9 
REMARK    4  A    between atoms: O_15  and  C_10 
REMARK    5  A    between atoms: C_16  and  O_15 
ROOT
ATOM      1  N   UNL d   1      -3.171   1.705  -1.622  0.00  0.00    -0.344 N 
ATOM      2  HN  UNL d   1      -3.645   2.133  -2.417  1.00  0.00     0.167 HD
ATOM      3  C   UNL d   1      -3.866   1.180  -0.588  0.00  0.00     0.148 A 
ATOM      4  C   UNL d   1      -1.121   1.095  -0.489  0.00  0.00     0.051 A 
ATOM      5  C   UNL d   1      -1.823   1.638  -1.558  0.00  0.00     0.119 A 
ATOM      6  C   UNL d   1      -3.262   0.681   0.555  0.00  0.00     0.059 A 
ATOM      7  C   UNL d   1      -1.866   0.639   0.601  0.00  0.00     0.035 A 
ENDROOT
BRANCH   3   8
ATOM      8  O   UNL d   1      -5.250   1.080  -0.675  0.00  0.00    -0.294 OA
BRANCH   8   9
ATOM      9  C   UNL d   1      -5.781   0.993  -1.947  0.00  0.00     0.078 A 
ATOM     10  C   UNL d   1      -5.223   0.185  -2.946  0.00  0.00     0.053 A 
ATOM     11  C   UNL d   1      -5.737   0.203  -4.250  0.00  0.00     0.050 A 
ATOM     12  C   UNL d   1      -6.880   0.972  -4.512  0.00  0.00     0.016 A 
ATOM     13  C   UNL d   1      -7.483   1.718  -3.497  0.00  0.00     0.004 A 
ATOM     14  C   UNL d   1      -6.931   1.730  -2.214  0.00  0.00     0.037 A 
BRANCH  11  15
ATOM     15  C   UNL d   1      -5.047  -0.551  -5.357  0.00  0.00     0.417 C 
ATOM     16  F   UNL d   1      -3.936  -1.230  -4.955  0.00  0.00    -0.166 F 
ATOM     17  F   UNL d   1      -5.858  -1.484  -5.935  0.00  0.00    -0.166 F 
ATOM     18  F   UNL d   1      -4.640   0.263  -6.370  0.00  0.00    -0.166 F 
ENDBRANCH  11  15
ENDBRANCH   8   9
ENDBRANCH   3   8
BRANCH   4  19
ATOM     19  N   UNL d   1       0.276   0.897  -0.476  0.00  0.00    -0.307 N 
ATOM     20  C   UNL d   1       1.166   1.339  -1.444  0.00  0.00     0.325 C 
ATOM     21  N   UNL d   1       2.345   0.616  -1.389  0.00  0.00    -0.303 N 
ATOM     22  O   UNL d   1       0.917   2.219  -2.256  0.00  0.00    -0.247 OA
ATOM     23  H   UNL d   1       2.329  -0.289  -0.943  0.00  0.00     0.171 HD
ATOM     24  H   UNL d   1       0.677   0.448   0.333  0.00  0.00     0.170 HD
BRANCH  21  25
ATOM     25  C   UNL d   1       3.354   0.810  -2.305  0.00  0.00     0.077 A 
ATOM     26  S   UNL d   1       4.405  -0.514  -2.474  0.00  0.00    -0.084 SA
ATOM     27  C   UNL d   1       5.254   0.262  -3.745  0.00  0.00     0.052 A 
ATOM     28  C   UNL d   1       4.782   1.537  -3.973  0.00  0.00     0.010 A 
ATOM     29  C   UNL d   1       3.679   1.859  -3.129  0.00  0.00     0.038 A 
ENDBRANCH  21  25
ENDBRANCH   4  19
TORSDOF 5
