REMARK  3 active torsions:
REMARK  status: ('A' for Active; 'I' for Inactive)
REMARK    1  A    between atoms: C_9  and  C_6 
REMARK    2  A    between atoms: O_15  and  C_7 
REMARK    3  A    between atoms: O_19  and  C_16 
ROOT
ATOM      1  C   UNL d   1      -0.798  -0.399   0.012  0.00  0.00     0.052 A 
ATOM      2  C   UNL d   1      -1.212   0.944   0.019  0.00  0.00    -0.013 A 
ATOM      3  N   UNL d   1      -1.613  -1.454  -0.039  0.00  0.00    -0.335 N 
ATOM      4  HN  UNL d   1      -1.271  -2.415  -0.027  1.00  0.00     0.168 HD
ATOM      5  C   UNL d   1      -3.456   0.163  -0.130  0.00  0.00     0.107 A 
ATOM      6  C   UNL d   1      -2.576   1.274  -0.035  0.00  0.00     0.008 A 
ATOM      7  C   UNL d   1      -2.931  -1.149  -0.108  0.00  0.00     0.164 A 
ATOM      8  C   UNL d   1       0.644  -0.477   0.056  0.00  0.00    -0.002 A 
ATOM      9  C   UNL d   1       0.024   1.829   0.103  0.00  0.00     0.081 A 
ATOM     10  C   UNL d   1       1.158   0.831   0.107  0.00  0.00    -0.041 A 
ATOM     11  C   UNL d   1      -4.873   0.322  -0.281  0.00  0.00     0.104 C 
ATOM     12  N   UNL d   1      -6.024   0.462  -0.390  0.00  0.00    -0.191 NA
ATOM     13  C   UNL d   1       1.501  -1.563   0.024  0.00  0.00     0.014 A 
ATOM     14  C   UNL d   1       2.519   1.085   0.103  0.00  0.00     0.008 A 
ATOM     15  C   UNL d   1       2.879  -1.321   0.026  0.00  0.00     0.001 A 
ATOM     16  C   UNL d   1       3.383  -0.008   0.059  0.00  0.00     0.001 A 
ENDROOT
BRANCH   7  17
ATOM     17  O   UNL d   1      -3.835  -2.198  -0.150  0.00  0.00    -0.340 OA
ATOM     18  C   UNL d   1      -3.227  -3.483  -0.040  0.00  0.00     0.211 C 
ENDBRANCH   7  17
BRANCH   6  19
ATOM     19  C   UNL d   1      -3.018   2.695   0.063  0.00  0.00    -0.021 C 
ATOM     20  C   UNL d   1      -2.319   3.720  -0.606  0.00  0.00     0.049 C 
ATOM     21  C   UNL d   1      -2.554   5.073  -0.349  0.00  0.00     0.069 C 
ATOM     22  C   UNL d   1      -3.621   5.434   0.465  0.00  0.00     0.037 C 
ATOM     23  C   UNL d   1      -4.404   4.449   1.059  0.00  0.00     0.004 C 
ATOM     24  C   UNL d   1      -4.082   3.097   0.890  0.00  0.00     0.012 C 
BRANCH  21  25
ATOM     25  O   UNL d   1      -1.802   6.109  -0.834  0.00  0.00    -0.356 OA
ATOM     26  C   UNL d   1      -0.515   5.772  -1.346  0.00  0.00     0.210 C 
ENDBRANCH  21  25
ENDBRANCH   6  19
TORSDOF 3
