REMARK  3 active torsions:
REMARK  status: ('A' for Active; 'I' for Inactive)
REMARK    1  A    between atoms: N_3  and  S_1 
REMARK    2  A    between atoms: C_8  and  S_1 
REMARK    3  A    between atoms: C_2  and  N_9 
ROOT
ATOM      1  N   UNL d   1       0.815   0.649   0.192  0.00  0.00    -0.304 N 
ATOM      2  N   UNL d   1      -0.634   1.381   2.614  0.00  0.00    -0.397 N 
ATOM      3  C   UNL d   1       0.678   2.085   0.480  0.00  0.00     0.155 C 
ATOM      4  C   UNL d   1      -0.333  -0.145   0.604  0.00  0.00     0.155 C 
ATOM      5  C   UNL d   1      -0.473  -0.004   2.135  0.00  0.00     0.138 C 
ATOM      6  C   UNL d   1       0.364   2.282   1.987  0.00  0.00     0.138 C 
ENDROOT
BRANCH   2   7
ATOM      7  C   UNL d   1      -2.034   1.829   2.741  0.00  0.00     0.147 C 
ATOM      8  C   UNL d   1      -2.872   1.859   1.467  0.00  0.00    -0.020 C 
ATOM      9  C   UNL d   1      -3.172   3.189   1.113  0.00  0.00    -0.017 C 
ATOM     10  C   UNL d   1      -3.378   0.801   0.724  0.00  0.00     0.010 C 
ATOM     11  C   UNL d   1      -3.782   3.470  -0.098  0.00  0.00     0.013 C 
ATOM     12  C   UNL d   1      -2.788   4.056   2.208  0.00  0.00    -0.017 A 
ATOM     13  C   UNL d   1      -4.141   2.404  -0.930  0.00  0.00     0.001 C 
ATOM     14  C   UNL d   1      -3.975   1.078  -0.505  0.00  0.00     0.001 C 
ATOM     15  C   UNL d   1      -2.151   3.280   3.203  0.00  0.00    -0.020 A 
ATOM     16  C   UNL d   1      -3.023   5.403   2.416  0.00  0.00     0.013 A 
ATOM     17  C   UNL d   1      -1.726   3.839   4.400  0.00  0.00     0.010 A 
ATOM     18  C   UNL d   1      -1.952   5.201   4.601  0.00  0.00     0.001 A 
ATOM     19  C   UNL d   1      -2.598   5.974   3.621  0.00  0.00     0.001 A 
ENDBRANCH   2   7
BRANCH   1  20
ATOM     20  S   UNL d   1       2.130  -0.054  -0.530  0.00  0.00     0.261 S 
ATOM     21  O   UNL d   1       2.014  -1.491  -0.431  0.00  0.00    -0.200 OA
ATOM     22  O   UNL d   1       3.315   0.634  -0.052  0.00  0.00    -0.200 OA
BRANCH  20  23
ATOM     23  C   UNL d   1       1.910   0.383  -2.231  0.00  0.00     0.080 A 
ATOM     24  C   UNL d   1       2.585   1.509  -2.723  0.00  0.00     0.035 A 
ATOM     25  C   UNL d   1       2.383   1.841  -4.041  0.00  0.00    -0.021 A 
ATOM     26  C   UNL d   1       2.968   2.945  -4.833  0.00  0.00     0.068 C 
ATOM     27  C   UNL d   1       1.566   1.075  -4.864  0.00  0.00     0.075 A 
ATOM     28  C   UNL d   1       1.968   2.929  -5.987  0.00  0.00     0.180 C 
ATOM     29  O   UNL d   1       1.462   1.579  -6.136  0.00  0.00    -0.350 OA
ATOM     30  C   UNL d   1       0.939  -0.070  -4.416  0.00  0.00     0.039 A 
ATOM     31  C   UNL d   1       1.110  -0.421  -3.072  0.00  0.00     0.028 A 
ENDBRANCH  20  23
ENDBRANCH   1  20
TORSDOF 3
