REMARK  6 active torsions:
REMARK  status: ('A' for Active; 'I' for Inactive)
REMARK    1  A    between atoms: N_6  and  C_2 
REMARK    2  A    between atoms: C_8  and  C_5 
REMARK    3  A    between atoms: N_9  and  N_6 
REMARK    4  A    between atoms: C_11  and  C_8 
REMARK    5  A    between atoms: O_19  and  C_11 
REMARK    6  A    between atoms: C_14  and  C_12 
ROOT
ATOM      1  N   UNL d   1       3.545  -0.379   0.055  0.00  0.00    -0.280 N 
ATOM      2  HN  UNL d   1       4.385  -0.740  -0.397  1.00  0.00     0.189 HD
ENDROOT
BRANCH   1   3
ATOM      3  C   UNL d   1       2.690  -1.145   0.639  0.00  0.00     0.162 A 
ATOM      4  N   UNL d   1       2.885  -2.483   0.668  0.00  0.00    -0.305 N 
ATOM      5  C   UNL d   1       2.020  -3.257   1.384  0.00  0.00     0.238 A 
ATOM      6  H   UNL d   1       3.688  -2.887   0.212  0.00  0.00     0.171 HD
ATOM      7  C   UNL d   1       0.927  -2.436   2.039  0.00  0.00     0.157 A 
ATOM      8  O   UNL d   1       2.162  -4.465   1.523  0.00  0.00    -0.272 OA
ATOM      9  S   UNL d   1       1.238  -0.718   1.491  0.00  0.00    -0.077 SA
BRANCH   7  10
ATOM     10  C   UNL d   1       1.044  -2.570   3.552  0.00  0.00     0.135 C 
BRANCH  10  11
ATOM     11  C   UNL d   1      -0.101  -1.891   4.253  0.00  0.00     0.141 C 
ATOM     12  O   UNL d   1      -1.243  -1.849   3.823  0.00  0.00    -0.650 OA
BRANCH  11  13
ATOM     13  O   UNL d   1       0.239  -1.370   5.453  0.00  0.00    -0.776 OA
ATOM     14  H   UNL d   1       1.177  -1.476   5.700  0.00  0.00     0.167 HD
ENDBRANCH  11  13
ENDBRANCH  10  11
ENDBRANCH   7  10
ENDBRANCH   1   3
BRANCH   1  15
ATOM     15  N   UNL d   1       3.238   0.977   0.087  0.00  0.00    -0.302 N 
ATOM     16  C   UNL d   1       4.271   1.771   0.045  0.00  0.00     0.032 C 
ATOM     17  C   UNL d   1       5.707   1.278   0.031  0.00  0.00     0.070 C 
ATOM     18  HN  UNL d   1       2.280   1.323   0.140  1.00  0.00     0.186 HD
BRANCH  16  19
ATOM     19  C   UNL d   1       4.045   3.259   0.019  0.00  0.00    -0.013 A 
ATOM     20  C   UNL d   1       2.737   3.764   0.046  0.00  0.00     0.015 A 
ATOM     21  C   UNL d   1       2.505   5.145   0.009  0.00  0.00     0.020 A 
ATOM     22  C   UNL d   1       3.582   6.026  -0.056  0.00  0.00     0.011 A 
ATOM     23  C   UNL d   1       4.886   5.541  -0.083  0.00  0.00     0.020 A 
ATOM     24 BR   UNL d   1       3.276   7.890  -0.111  0.00  0.00    -0.051 Br
ATOM     25  C   UNL d   1       5.118   4.161  -0.046  0.00  0.00     0.015 A 
ENDBRANCH  16  19
ENDBRANCH   1  15
TORSDOF 6
