REMARK  5 active torsions:
REMARK  status: ('A' for Active; 'I' for Inactive)
REMARK    1  A    between atoms: C_2  and  S_1 
REMARK    2  A    between atoms: N_3  and  S_1 
REMARK    3  A    between atoms: C_21  and  N_3 
REMARK    4  A    between atoms: C_5  and  C_11 
REMARK    5  A    between atoms: C_22  and  C_21 
ROOT
ATOM      1  S   UNL d   1       1.071   0.041   0.093  0.00  0.00     0.259 S 
ATOM      2  O   UNL d   1       0.383  -0.661   1.149  0.00  0.00    -0.201 OA
ATOM      3  O   UNL d   1       2.514   0.084   0.004  0.00  0.00    -0.201 OA
ENDROOT
BRANCH   1   4
ATOM      4  C   UNL d   1       0.464   1.709   0.099  0.00  0.00     0.082 A 
ATOM      5  C   UNL d   1      -0.917   1.927   0.062  0.00  0.00     0.065 A 
ATOM      6  C   UNL d   1      -1.412   3.233   0.059  0.00  0.00     0.103 A 
ATOM      7  O   UNL d   1      -2.777   3.330  -0.043  0.00  0.00    -0.348 OA
ATOM      8  C   UNL d   1      -0.527   4.316   0.166  0.00  0.00     0.102 A 
ATOM      9  C   UNL d   1      -3.205   4.437  -0.838  0.00  0.00     0.178 C 
ATOM     10  C   UNL d   1      -3.307   5.705  -0.007  0.00  0.00     0.053 C 
ATOM     11  C   UNL d   1      -2.119   5.868   0.925  0.00  0.00     0.178 C 
ATOM     12  O   UNL d   1      -0.889   5.638   0.237  0.00  0.00    -0.348 OA
ATOM     13  C   UNL d   1       0.853   4.084   0.194  0.00  0.00     0.041 A 
ATOM     14  C   UNL d   1       1.354   2.782   0.161  0.00  0.00     0.028 A 
ENDBRANCH   1   4
BRANCH   1  15
ATOM     15  N   UNL d   1       0.492  -0.566  -1.359  0.00  0.00    -0.311 N 
ATOM     16  H   UNL d   1      -0.505  -0.777  -1.354  0.00  0.00     0.172 HD
BRANCH  15  17
ATOM     17  C   UNL d   1       1.057  -0.044  -2.602  0.00  0.00     0.170 C 
BRANCH  17  18
ATOM     18  C   UNL d   1       0.409  -0.691  -3.802  0.00  0.00    -0.040 A 
ATOM     19  C   UNL d   1      -0.218   0.083  -4.784  0.00  0.00     0.010 A 
ATOM     20  C   UNL d   1      -0.859  -0.527  -5.867  0.00  0.00     0.013 A 
ATOM     21  C   UNL d   1      -0.892  -1.924  -5.998  0.00  0.00    -0.019 A 
ATOM     22  C   UNL d   1      -0.228  -2.691  -5.029  0.00  0.00     0.013 A 
ATOM     23  C   UNL d   1       0.419  -2.084  -3.949  0.00  0.00     0.010 A 
BRANCH  21  24
ATOM     24  C   UNL d   1      -1.578  -2.586  -7.122  0.00  0.00     0.015 A 
ATOM     25  S   UNL d   1      -2.983  -1.892  -7.834  0.00  0.00    -0.101 SA
ATOM     26  C   UNL d   1      -3.108  -3.139  -8.992  0.00  0.00     0.050 A 
ATOM     27  C   UNL d   1      -2.140  -4.100  -8.820  0.00  0.00     0.008 A 
ATOM     28  C   UNL d   1      -1.272  -3.791  -7.734  0.00  0.00     0.020 A 
ENDBRANCH  21  24
ENDBRANCH  17  18
ENDBRANCH  15  17
ENDBRANCH   1  15
TORSDOF 5
