REMARK  4 active torsions:
REMARK  status: ('A' for Active; 'I' for Inactive)
REMARK       I    between atoms: C_4  and  N_1 
REMARK    1  A    between atoms: C_12  and  C_3 
REMARK    2  A    between atoms: C_10  and  C_4 
REMARK    3  A    between atoms: C_6  and  O_15 
REMARK    4  A    between atoms: O_15  and  C_23 
ROOT
ATOM      1  N   UNL d   1      -2.573   0.466  -0.261  0.00  0.00    -0.335 N 
ATOM      2  C   UNL d   1      -0.171   0.849   0.047  0.00  0.00    -0.017 A 
ATOM      3  C   UNL d   1      -1.558   1.436   0.238  0.00  0.00     0.155 C 
ATOM      4  C   UNL d   1      -3.449   0.628  -1.353  0.00  0.00     0.254 C 
ATOM      5  C   UNL d   1       0.045  -0.500  -0.181  0.00  0.00    -0.007 A 
ATOM      6  C   UNL d   1      -2.375  -0.933   0.186  0.00  0.00     0.132 C 
ATOM      7  S   UNL d   1       1.692  -0.899  -0.311  0.00  0.00    -0.106 SA
ATOM      8  C   UNL d   1      -1.042  -1.522  -0.312  0.00  0.00     0.067 C 
ATOM      9  C   UNL d   1       1.071   1.564   0.075  0.00  0.00     0.018 A 
ATOM     10  C   UNL d   1       2.158   0.733  -0.093  0.00  0.00     0.051 A 
ATOM     11  O   UNL d   1      -4.042  -0.338  -1.833  0.00  0.00    -0.267 OA
ENDROOT
BRANCH   3  12
ATOM     12  C   UNL d   1      -1.707   1.754   1.739  0.00  0.00    -0.031 A 
ATOM     13  C   UNL d   1      -2.408   2.900   2.158  0.00  0.00     0.012 A 
ATOM     14  C   UNL d   1      -2.670   3.166   3.511  0.00  0.00     0.037 A 
ATOM     15  C   UNL d   1      -2.221   2.292   4.494  0.00  0.00     0.078 A 
ATOM     16  C   UNL d   1      -1.448   1.199   4.113  0.00  0.00     0.037 A 
ATOM     17  C   UNL d   1      -1.206   0.926   2.762  0.00  0.00     0.012 A 
BRANCH  15  18
ATOM     18  O   UNL d   1      -2.451   2.396   5.833  0.00  0.00    -0.255 OA
BRANCH  18  19
ATOM     19  C   UNL d   1      -3.564   3.171   6.248  0.00  0.00     0.530 C 
ATOM     20  F   UNL d   1      -4.641   2.992   5.452  0.00  0.00    -0.144 F 
ATOM     21  F   UNL d   1      -3.908   2.793   7.500  0.00  0.00    -0.144 F 
ATOM     22  F   UNL d   1      -3.241   4.481   6.274  0.00  0.00    -0.144 F 
ENDBRANCH  18  19
ENDBRANCH  15  18
ENDBRANCH   3  12
BRANCH   4  23
ATOM     23  C   UNL d   1      -3.737   1.941  -2.017  0.00  0.00     0.032 A 
ATOM     24  C   UNL d   1      -4.183   1.919  -3.351  0.00  0.00     0.018 A 
ATOM     25  C   UNL d   1      -4.498   3.104  -4.030  0.00  0.00     0.025 A 
ATOM     26  C   UNL d   1      -4.356   4.328  -3.388  0.00  0.00     0.034 A 
ATOM     27  C   UNL d   1      -3.962   4.368  -2.055  0.00  0.00     0.025 A 
ATOM     28 CL   UNL d   1      -4.699   5.791  -4.221  0.00  0.00    -0.084 Cl
ATOM     29  C   UNL d   1      -3.701   3.175  -1.372  0.00  0.00     0.018 A 
ENDBRANCH   4  23
TORSDOF 4
