REMARK  4 active torsions:
REMARK  status: ('A' for Active; 'I' for Inactive)
REMARK    1  A    between atoms: C_12  and  C_2 
REMARK    2  A    between atoms: S_10  and  C_7 
REMARK    3  A    between atoms: C_13  and  S_10 
REMARK    4  A    between atoms: C_14  and  C_13 
ROOT
ATOM      1  C   UNL d   1       0.437  -0.431  -0.042  0.00  0.00     0.140 A 
ATOM      2  C   UNL d   1      -0.434  -1.461  -0.004  0.00  0.00     0.071 A 
ATOM      3  N   UNL d   1      -1.511   0.983  -0.041  0.00  0.00    -0.302 N 
ATOM      4  C   UNL d   1      -0.149   0.926  -0.053  0.00  0.00     0.270 A 
ATOM      5  N   UNL d   1      -1.815  -1.329   0.018  0.00  0.00    -0.335 N 
ATOM      6  HN  UNL d   1      -2.428  -2.144   0.054  1.00  0.00     0.168 HD
ATOM      7  C   UNL d   1      -2.286  -0.130  -0.009  0.00  0.00     0.147 A 
ATOM      8  C   UNL d   1       1.851  -0.564  -0.071  0.00  0.00     0.107 C 
ATOM      9  N   UNL d   1       3.007  -0.691  -0.097  0.00  0.00    -0.191 NA
ATOM     10  O   UNL d   1       0.529   1.946  -0.070  0.00  0.00    -0.266 OA
ATOM     11  H   UNL d   1      -1.950   1.891  -0.061  0.00  0.00     0.171 HD
ENDROOT
BRANCH   2  12
ATOM     12  C   UNL d   1       0.075  -2.850   0.018  0.00  0.00    -0.008 A 
ATOM     13  C   UNL d   1       0.351  -3.477   1.241  0.00  0.00     0.014 A 
ATOM     14  C   UNL d   1       0.838  -4.786   1.268  0.00  0.00     0.001 A 
ATOM     15  C   UNL d   1       1.052  -5.476   0.077  0.00  0.00     0.000 A 
ATOM     16  C   UNL d   1       0.788  -4.858  -1.145  0.00  0.00     0.001 A 
ATOM     17  C   UNL d   1       0.301  -3.549  -1.176  0.00  0.00     0.014 A 
ENDBRANCH   2  12
BRANCH   7  18
ATOM     18  S   UNL d   1      -3.971   0.273  -0.047  0.00  0.00    -0.089 SA
BRANCH  18  19
ATOM     19  C   UNL d   1      -4.711  -1.146   0.804  0.00  0.00     0.121 C 
BRANCH  19  20
ATOM     20  C   UNL d   1      -6.218  -1.015   0.898  0.00  0.00    -0.049 A 
ATOM     21  C   UNL d   1      -7.041  -1.515  -0.124  0.00  0.00     0.008 A 
ATOM     22  C   UNL d   1      -8.432  -1.418  -0.033  0.00  0.00     0.001 A 
ATOM     23  C   UNL d   1      -9.020  -0.812   1.075  0.00  0.00     0.000 A 
ATOM     24  C   UNL d   1      -8.216  -0.292   2.087  0.00  0.00     0.001 A 
ATOM     25  C   UNL d   1      -6.823  -0.387   1.998  0.00  0.00     0.008 A 
ENDBRANCH  19  20
ENDBRANCH  18  19
ENDBRANCH   7  18
TORSDOF 4
