REMARK  6 active torsions:
REMARK  status: ('A' for Active; 'I' for Inactive)
REMARK    1  A    between atoms: C_8  and  C_1 
REMARK    2  A    between atoms: C_9  and  C_2 
REMARK    3  A    between atoms: C_10  and  N_5 
REMARK    4  A    between atoms: C_11  and  C_8 
REMARK    5  A    between atoms: O_16  and  C_9 
REMARK    6  A    between atoms: O_18  and  C_11 
ROOT
ATOM      1  C   UNL d   1      -0.200  -1.294   0.053  0.00  0.00     0.079 C 
ATOM      2  C   UNL d   1       1.012  -0.608   0.042  0.00  0.00     0.150 C 
ATOM      3  N   UNL d   1      -0.530   0.891  -0.312  0.00  0.00    -0.235 N 
ATOM      4  HN  UNL d   1      -0.991   1.764  -0.566  1.00  0.00     0.209 HD
ATOM      5  N   UNL d   1      -1.150  -0.288  -0.070  0.00  0.00    -0.243 N 
ATOM      6  N   UNL d   1       0.770   0.723  -0.163  0.00  0.00    -0.278 N 
ATOM      7  HN  UNL d   1       1.475   1.460  -0.196  1.00  0.00     0.189 HD
ENDROOT
BRANCH   5   8
ATOM      8  C   UNL d   1      -2.568  -0.328  -0.037  0.00  0.00     0.058 A 
ATOM      9  C   UNL d   1      -3.285   0.602  -0.808  0.00  0.00     0.033 A 
ATOM     10  C   UNL d   1      -4.682   0.606  -0.792  0.00  0.00     0.026 A 
ATOM     11  C   UNL d   1      -5.364  -0.294   0.021  0.00  0.00     0.034 A 
ATOM     12  C   UNL d   1      -4.662  -1.201   0.813  0.00  0.00     0.026 A 
ATOM     13 CL   UNL d   1      -7.083  -0.274   0.064  0.00  0.00    -0.084 Cl
ATOM     14  C   UNL d   1      -3.262  -1.225   0.782  0.00  0.00     0.033 A 
ENDBRANCH   5   8
BRANCH   1  15
ATOM     15  C   UNL d   1      -0.484  -2.763   0.017  0.00  0.00     0.172 C 
BRANCH  15  16
ATOM     16  C   UNL d   1      -0.601  -3.383   1.395  0.00  0.00     0.264 C 
ATOM     17  O   UNL d   1      -0.485  -2.788   2.456  0.00  0.00    -0.265 OA
BRANCH  16  18
ATOM     18  O   UNL d   1      -0.935  -4.699   1.257  0.00  0.00    -0.326 OA
ATOM     19  C   UNL d   1      -1.148  -5.445   2.460  0.00  0.00     0.213 C 
ENDBRANCH  16  18
ENDBRANCH  15  16
ENDBRANCH   1  15
BRANCH   2  20
ATOM     20  C   UNL d   1       2.369  -1.138   0.124  0.00  0.00     0.313 C 
ATOM     21  O   UNL d   1       2.624  -2.334   0.186  0.00  0.00    -0.258 OA
BRANCH  20  22
ATOM     22  O   UNL d   1       3.302  -0.143   0.090  0.00  0.00    -0.321 OA
ATOM     23  C   UNL d   1       4.671  -0.547   0.116  0.00  0.00     0.213 C 
ENDBRANCH  20  22
ENDBRANCH   2  20
TORSDOF 6
