REMARK  4 active torsions:
REMARK  status: ('A' for Active; 'I' for Inactive)
REMARK    1  A    between atoms: N_9  and  C_2 
REMARK    2  A    between atoms: C_15  and  N_3 
REMARK    3  A    between atoms: C_7  and  C_6 
REMARK    4  A    between atoms: C_10  and  C_8 
ROOT
ATOM      1  C   UNL d   1      -2.954  -2.785   0.107  0.00  0.00     0.120 C 
ATOM      2  C   UNL d   1      -3.956  -3.734   0.003  0.00  0.00     0.157 C 
ATOM      3  N   UNL d   1      -5.146  -3.031  -0.065  0.00  0.00    -0.237 N 
ATOM      4  N   UNL d   1      -4.920  -1.696  -0.262  0.00  0.00    -0.289 N 
ATOM      5  HN  UNL d   1      -5.606  -0.986  -0.519  1.00  0.00     0.188 HD
ATOM      6  C   UNL d   1      -3.596  -1.514  -0.043  0.00  0.00     0.094 C 
ATOM      7  C   UNL d   1      -1.551  -3.054   0.170  0.00  0.00     0.106 C 
ATOM      8  N   UNL d   1      -0.418  -3.296   0.207  0.00  0.00    -0.191 NA
ENDROOT
BRANCH   2   9
ATOM      9  N   UNL d   1      -3.835  -5.128  -0.110  0.00  0.00    -0.316 N 
ATOM     10  C   UNL d   1      -4.674  -5.978  -0.813  0.00  0.00     0.098 A 
ATOM     11  C   UNL d   1      -4.256  -7.280  -0.661  0.00  0.00     0.019 A 
ATOM     12  C   UNL d   1      -3.084  -7.244   0.115  0.00  0.00     0.019 A 
ATOM     13  C   UNL d   1      -2.841  -5.923   0.426  0.00  0.00     0.098 A 
ENDBRANCH   2   9
BRANCH   6  14
ATOM     14  C   UNL d   1      -2.945  -0.204  -0.036  0.00  0.00     0.075 C 
ATOM     15  C   UNL d   1      -3.417   0.877  -0.704  0.00  0.00     0.040 C 
ATOM     16  C   UNL d   1      -1.759  -0.055   0.759  0.00  0.00     0.102 C 
ATOM     17  N   UNL d   1      -0.798   0.077   1.405  0.00  0.00    -0.191 NA
BRANCH  15  18
ATOM     18  C   UNL d   1      -2.769   2.220  -0.719  0.00  0.00     0.009 A 
ATOM     19  C   UNL d   1      -1.778   2.545  -1.667  0.00  0.00     0.046 A 
ATOM     20 CL   UNL d   1      -1.358   1.458  -2.947  0.00  0.00    -0.083 Cl
ATOM     21  C   UNL d   1      -1.101   3.774  -1.623  0.00  0.00     0.025 A 
ATOM     22  C   UNL d   1      -1.413   4.712  -0.643  0.00  0.00     0.003 A 
ATOM     23  C   UNL d   1      -2.418   4.431   0.279  0.00  0.00     0.025 A 
ATOM     24  C   UNL d   1      -3.089   3.199   0.243  0.00  0.00     0.046 A 
ATOM     25 CL   UNL d   1      -4.329   2.939   1.422  0.00  0.00    -0.083 Cl
ENDBRANCH  15  18
ENDBRANCH   6  14
BRANCH   3  26
ATOM     26  C   UNL d   1      -6.471  -3.538   0.092  0.00  0.00     0.058 A 
ATOM     27  C   UNL d   1      -6.719  -4.615   0.962  0.00  0.00     0.031 A 
ATOM     28  C   UNL d   1      -7.957  -5.261   0.954  0.00  0.00     0.002 A 
ATOM     29  C   UNL d   1      -8.963  -4.815   0.104  0.00  0.00     0.000 A 
ATOM     30  C   UNL d   1      -8.746  -3.697  -0.707  0.00  0.00     0.002 A 
ATOM     31  C   UNL d   1      -7.508  -3.041  -0.703  0.00  0.00     0.031 A 
ENDBRANCH   3  26
TORSDOF 4
