REMARK  2 active torsions:
REMARK  status: ('A' for Active; 'I' for Inactive)
REMARK    1  A    between atoms: N_22  and  C_12 
REMARK    2  A    between atoms: N_23  and  C_13 
ROOT
ATOM      1  C   UNL d   1       0.994  -0.180  -0.012  0.00  0.00     0.057 A 
ATOM      2  C   UNL d   1       0.807   1.198  -0.023  0.00  0.00     0.163 A 
ATOM      3  C   UNL d   1      -0.096  -1.089  -0.001  0.00  0.00     0.018 A 
ATOM      4  C   UNL d   1       2.320  -0.642   0.007  0.00  0.00     0.073 A 
ATOM      5  C   UNL d   1       0.228  -2.461   0.047  0.00  0.00     0.095 A 
ATOM      6  C   UNL d   1       3.361   0.283   0.040  0.00  0.00     0.110 A 
ATOM      7  N   UNL d   1       1.812   2.101  -0.001  0.00  0.00    -0.325 N 
ATOM      8  HN  UNL d   1       1.618   3.102  -0.014  1.00  0.00     0.169 HD
ATOM      9  N   UNL d   1       2.580  -1.960   0.017  0.00  0.00    -0.344 N 
ATOM     10  HN  UNL d   1       3.546  -2.289   0.002  1.00  0.00     0.167 HD
ATOM     11  C   UNL d   1      -1.453  -0.471  -0.012  0.00  0.00     0.012 A 
ATOM     12  C   UNL d   1       1.572  -2.846   0.047  0.00  0.00     0.100 A 
ATOM     13  C   UNL d   1       3.073   1.645   0.039  0.00  0.00     0.103 A 
ATOM     14  O   UNL d   1      -0.443   1.767  -0.034  0.00  0.00    -0.292 OA
ATOM     15  C   UNL d   1      -1.543   0.939  -0.020  0.00  0.00     0.089 A 
ATOM     16  C   UNL d   1      -0.730  -3.521   0.089  0.00  0.00     0.103 C 
ATOM     17  C   UNL d   1       4.718  -0.165   0.073  0.00  0.00     0.105 C 
ATOM     18  N   UNL d   1      -1.478  -4.409   0.089  0.00  0.00    -0.191 NA
ATOM     19  N   UNL d   1       5.835  -0.489   0.067  0.00  0.00    -0.191 NA
ATOM     20  C   UNL d   1      -2.678  -1.162  -0.012  0.00  0.00     0.039 A 
ATOM     21  C   UNL d   1      -2.775   1.611  -0.014  0.00  0.00     0.040 A 
ATOM     22  C   UNL d   1      -3.910  -0.492  -0.007  0.00  0.00     0.035 A 
ATOM     23  C   UNL d   1      -3.964   0.892  -0.005  0.00  0.00     0.026 A 
ATOM     24 CL   UNL d   1      -5.372  -1.402  -0.002  0.00  0.00    -0.084 Cl
ENDROOT
BRANCH  12  25
ATOM     25  N   UNL d   1       1.981  -4.166   0.202  0.00  0.00    -0.287 NA
ATOM     26  H   UNL d   1       2.990  -4.226   0.098  0.00  0.00     0.125 HD
ATOM     27  H   UNL d   1       1.485  -4.857  -0.351  0.00  0.00     0.125 HD
ENDBRANCH  12  25
BRANCH  13  28
ATOM     28  N   UNL d   1       4.050   2.623   0.190  0.00  0.00    -0.287 NA
ATOM     29  H   UNL d   1       4.879   2.510  -0.384  0.00  0.00     0.125 HD
ATOM     30  H   UNL d   1       3.628   3.544   0.098  0.00  0.00     0.125 HD
ENDBRANCH  13  28
TORSDOF 2
