REMARK  8 active torsions:
REMARK  status: ('A' for Active; 'I' for Inactive)
REMARK    1  A    between atoms: C_11  and  C_3 
REMARK    2  A    between atoms: C_7  and  C_13 
REMARK    3  A    between atoms: C_8  and  C_12 
REMARK    4  A    between atoms: C_9  and  C_16 
REMARK    5  A    between atoms: C_20  and  N_31 
REMARK    6  A    between atoms: C_35  and  N_21 
REMARK    7  A    between atoms: N_31  and  C_36 
REMARK    8  A    between atoms: C_36  and  C_35 
ROOT
ATOM      1  N   UNL d   1       1.415  -0.550  -0.335  0.00  0.00    -0.321 N 
ATOM      2  HN  UNL d   1       2.311  -0.893  -0.682  1.00  0.00     0.169 HD
ATOM      3  C   UNL d   1       1.074   0.796  -0.175  0.00  0.00     0.123 A 
ATOM      4  N   UNL d   1      -0.114   1.090   0.368  0.00  0.00    -0.309 N 
ATOM      5  HN  UNL d   1      -0.465   2.022   0.588  1.00  0.00     0.176 HD
ATOM      6  C   UNL d   1       0.405  -1.304   0.029  0.00  0.00     0.162 A 
ATOM      7  S   UNL d   1      -0.908  -0.350   0.617  0.00  0.00     0.024 SA
ATOM      8  N   UNL d   1       0.339  -2.650  -0.044  0.00  0.00    -0.368 N 
ATOM      9  H   UNL d   1      -0.496  -3.113   0.302  0.00  0.00     0.161 HD
ENDROOT
BRANCH   8  10
ATOM     10  C   UNL d   1       1.556  -3.450  -0.039  0.00  0.00     0.136 C 
BRANCH  10  11
ATOM     11  C   UNL d   1       1.598  -4.351   1.210  0.00  0.00     0.113 C 
BRANCH  11  12
ATOM     12  N   UNL d   1       2.824  -5.152   1.245  0.00  0.00    -0.277 NA
ATOM     13  H   UNL d   1       3.661  -4.574   1.221  0.00  0.00     0.129 HD
BRANCH  12  14
ATOM     14  C   UNL d   1       2.905  -6.002   2.364  0.00  0.00     0.080 A 
ATOM     15  N   UNL d   1       1.881  -6.075   3.235  0.00  0.00    -0.343 N 
ATOM     16  C   UNL d   1       1.975  -6.916   4.306  0.00  0.00     0.117 A 
ATOM     17  HN  UNL d   1       1.044  -5.509   3.096  1.00  0.00     0.167 HD
ATOM     18  C   UNL d   1       3.099  -7.712   4.518  0.00  0.00     0.034 A 
ATOM     19  C   UNL d   1       4.145  -7.644   3.607  0.00  0.00     0.005 A 
ATOM     20  C   UNL d   1       4.046  -6.782   2.519  0.00  0.00     0.042 A 
BRANCH  16  21
ATOM     21  C   UNL d   1       0.826  -6.980   5.300  0.00  0.00     0.432 C 
ATOM     22  F   UNL d   1      -0.231  -6.177   4.992  0.00  0.00    -0.165 F 
ATOM     23  F   UNL d   1       0.311  -8.238   5.425  0.00  0.00    -0.165 F 
ATOM     24  F   UNL d   1       1.209  -6.619   6.561  0.00  0.00    -0.165 F 
ENDBRANCH  16  21
ENDBRANCH  12  14
ENDBRANCH  11  12
ENDBRANCH  10  11
ENDBRANCH   8  10
BRANCH   3  25
ATOM     25  C   UNL d   1       1.986   1.847  -0.644  0.00  0.00     0.010 A 
ATOM     26  C   UNL d   1       3.167   1.514  -1.325  0.00  0.00     0.031 A 
ATOM     27  C   UNL d   1       4.017   2.508  -1.842  0.00  0.00     0.049 A 
ATOM     28  C   UNL d   1       3.673   3.857  -1.660  0.00  0.00     0.032 A 
ATOM     29  C   UNL d   1       2.499   4.218  -0.982  0.00  0.00     0.049 A 
ATOM     30  C   UNL d   1       1.670   3.204  -0.473  0.00  0.00     0.031 A 
BRANCH  27  31
ATOM     31  C   UNL d   1       5.261   2.114  -2.603  0.00  0.00     0.417 C 
ATOM     32  F   UNL d   1       5.966   3.179  -3.076  0.00  0.00    -0.166 F 
ATOM     33  F   UNL d   1       6.133   1.397  -1.843  0.00  0.00    -0.166 F 
ATOM     34  F   UNL d   1       4.982   1.340  -3.688  0.00  0.00    -0.166 F 
ENDBRANCH  27  31
BRANCH  29  35
ATOM     35  C   UNL d   1       2.099   5.665  -0.817  0.00  0.00     0.417 C 
ATOM     36  F   UNL d   1       2.967   6.537  -1.403  0.00  0.00    -0.166 F 
ATOM     37  F   UNL d   1       0.880   5.931  -1.360  0.00  0.00    -0.166 F 
ATOM     38  F   UNL d   1       2.019   6.039   0.489  0.00  0.00    -0.166 F 
ENDBRANCH  29  35
ENDBRANCH   3  25
TORSDOF 8
