REMARK  3 active torsions:
REMARK  status: ('A' for Active; 'I' for Inactive)
REMARK    1  A    between atoms: O_12  and  C_7 
REMARK    2  A    between atoms: O_13  and  C_8 
REMARK    3  A    between atoms: O_14  and  C_10 
ROOT
ATOM      1  N   UNL d   1       2.413   0.710  -0.045  0.00  0.00    -0.340 N 
ATOM      2  HN  UNL d   1       3.301   1.212  -0.049  1.00  0.00     0.167 HD
ATOM      3  C   UNL d   1      -0.031   0.699  -0.014  0.00  0.00    -0.001 A 
ATOM      4  C   UNL d   1      -0.006  -0.711  -0.017  0.00  0.00    -0.017 A 
ATOM      5  C   UNL d   1       1.222   1.370  -0.040  0.00  0.00     0.018 A 
ATOM      6  C   UNL d   1      -1.300   1.322   0.025  0.00  0.00     0.054 A 
ATOM      7  C   UNL d   1       2.364  -0.624  -0.044  0.00  0.00     0.140 A 
ATOM      8  C   UNL d   1      -2.496   0.590   0.111  0.00  0.00     0.102 A 
ATOM      9  C   UNL d   1      -1.209  -1.442   0.020  0.00  0.00     0.052 A 
ATOM     10  C   UNL d   1      -2.456  -0.811   0.106  0.00  0.00     0.102 A 
ATOM     11  C   UNL d   1       1.219  -1.380  -0.043  0.00  0.00     0.068 A 
ATOM     12  C   UNL d   1       1.363   2.863  -0.019  0.00  0.00     0.069 C 
ENDROOT
BRANCH   7  13
ATOM     13  O   UNL d   1       3.580  -1.221  -0.011  0.00  0.00    -0.346 OA
ATOM     14  H   UNL d   1       4.149  -0.431   0.030  0.00  0.00     0.219 HD
ENDBRANCH   7  13
BRANCH  10  15
ATOM     15  O   UNL d   1      -3.641  -1.492   0.167  0.00  0.00    -0.353 OA
ATOM     16  C   UNL d   1      -3.603  -2.914   0.168  0.00  0.00     0.210 C 
ENDBRANCH  10  15
BRANCH   8  17
ATOM     17  O   UNL d   1      -3.608   1.394   0.137  0.00  0.00    -0.353 OA
ATOM     18  C   UNL d   1      -4.732   0.927   0.872  0.00  0.00     0.210 C 
ENDBRANCH   8  17
TORSDOF 3
