REMARK  2 active torsions:
REMARK  status: ('A' for Active; 'I' for Inactive)
REMARK    1  A    between atoms: C_2  and  S_1 
REMARK    2  A    between atoms: C_3  and  S_1 
ROOT
ATOM      1  S   UNL d   1       0.909  -0.095  -0.012  0.00  0.00     0.206 S 
ATOM      2  O   UNL d   1       0.239   0.299   1.214  0.00  0.00    -0.217 OA
ATOM      3  O   UNL d   1       2.353  -0.204  -0.063  0.00  0.00    -0.217 OA
ENDROOT
BRANCH   1   4
ATOM      4  C   UNL d   1       0.416   1.074  -1.263  0.00  0.00     0.066 A 
ATOM      5  C   UNL d   1       1.279   1.347  -2.329  0.00  0.00     0.049 A 
ATOM      6  C   UNL d   1       0.916   2.300  -3.286  0.00  0.00     0.057 A 
ATOM      7 CL   UNL d   1       2.014   2.581  -4.590  0.00  0.00    -0.083 Cl
ATOM      8  C   UNL d   1      -0.297   2.989  -3.165  0.00  0.00     0.055 A 
ATOM      9  C   UNL d   1      -1.145   2.721  -2.084  0.00  0.00     0.027 A 
ATOM     10 CL   UNL d   1      -0.802   4.183  -4.306  0.00  0.00    -0.083 Cl
ATOM     11  C   UNL d   1      -0.791   1.765  -1.128  0.00  0.00     0.025 A 
ENDBRANCH   1   4
BRANCH   1  12
ATOM     12  C   UNL d   1       0.265  -1.684  -0.488  0.00  0.00     0.066 A 
ATOM     13  C   UNL d   1       0.748  -2.295  -1.649  0.00  0.00     0.049 A 
ATOM     14  C   UNL d   1       0.261  -3.551  -2.022  0.00  0.00     0.057 A 
ATOM     15 CL   UNL d   1       0.886  -4.252  -3.472  0.00  0.00    -0.083 Cl
ATOM     16  C   UNL d   1      -0.698  -4.196  -1.230  0.00  0.00     0.055 A 
ATOM     17  C   UNL d   1      -1.159  -3.585  -0.057  0.00  0.00     0.027 A 
ATOM     18 CL   UNL d   1      -1.351  -5.742  -1.639  0.00  0.00    -0.083 Cl
ATOM     19  C   UNL d   1      -0.677  -2.329   0.319  0.00  0.00     0.025 A 
ENDBRANCH   1  12
TORSDOF 2
