REMARK  6 active torsions:
REMARK  status: ('A' for Active; 'I' for Inactive)
REMARK    1  A    between atoms: C_10  and  N_2 
REMARK    2  A    between atoms: C_5  and  N_6 
REMARK    3  A    between atoms: N_6  and  C_20 
REMARK    4  A    between atoms: C_7  and  C_11 
REMARK    5  A    between atoms: C_20  and  C_12 
REMARK    6  A    between atoms: C_22  and  C_15 
ROOT
ATOM      1  N   UNL d   1       1.008   0.364  -0.196  0.00  0.00    -0.197 NA
ATOM      2  C   UNL d   1       2.144   0.482  -0.001  0.00  0.00     0.060 C 
ATOM      3  C   UNL d   1       3.582   0.627   0.254  0.00  0.00     0.143 C 
ENDROOT
BRANCH   3   4
ATOM      4  C   UNL d   1       4.356   0.794  -1.057  0.00  0.00     0.136 C 
BRANCH   4   5
ATOM      5  N   UNL d   1       5.788   1.039  -0.810  0.00  0.00    -0.384 N 
ATOM      6  C   UNL d   1       6.422   2.058  -1.649  0.00  0.00     0.149 C 
BRANCH   5   7
ATOM      7  C   UNL d   1       6.613   0.078  -0.233  0.00  0.00     0.029 A 
ATOM      8  C   UNL d   1       6.341  -1.297  -0.284  0.00  0.00     0.030 A 
ATOM      9  C   UNL d   1       7.155  -2.236   0.371  0.00  0.00     0.015 A 
ATOM     10  C   UNL d   1       8.267  -1.809   1.095  0.00  0.00    -0.021 A 
ATOM     11  C   UNL d   1       8.578  -0.453   1.142  0.00  0.00     0.015 A 
ATOM     12  C   UNL d   1       7.756   0.472   0.486  0.00  0.00     0.030 A 
BRANCH  10  13
ATOM     13  C   UNL d   1       9.086  -2.804   1.823  0.00  0.00     0.099 C 
ATOM     14  N   UNL d   1      10.179  -2.468   2.430  0.00  0.00    -0.365 N 
ATOM     15  HN  UNL d   1      10.492  -1.498   2.415  1.00  0.00     0.165 HD
BRANCH  14  16
ATOM     16  C   UNL d   1      10.936  -3.439   3.110  0.00  0.00     0.031 A 
ATOM     17  C   UNL d   1      11.120  -4.750   2.656  0.00  0.00     0.030 A 
ATOM     18  C   UNL d   1      11.951  -5.640   3.348  0.00  0.00     0.009 A 
ATOM     19  C   UNL d   1      12.640  -5.231   4.495  0.00  0.00    -0.058 A 
ATOM     20  C   UNL d   1      12.452  -3.924   4.958  0.00  0.00     0.009 A 
ATOM     21  C   UNL d   1      11.613  -3.041   4.268  0.00  0.00     0.030 A 
BRANCH  19  22
ATOM     22  C   UNL d   1      13.575  -6.172   5.209  0.00  0.00     0.034 C 
ATOM     23  C   UNL d   1      12.884  -6.952   6.316  0.00  0.00     0.010 C 
ENDBRANCH  19  22
ENDBRANCH  14  16
ENDBRANCH  10  13
ENDBRANCH   5   7
ENDBRANCH   4   5
ENDBRANCH   3   4
TORSDOF 6
