REMARK  7 active torsions:
REMARK  status: ('A' for Active; 'I' for Inactive)
REMARK    1  A    between atoms: N_3  and  C_1 
REMARK    2  A    between atoms: N_11  and  C_1 
REMARK    3  A    between atoms: C_2  and  N_10 
REMARK    4  A    between atoms: N_4  and  C_2 
REMARK    5  A    between atoms: C_6  and  N_3 
REMARK    6  A    between atoms: C_5  and  N_4 
REMARK    7  A    between atoms: N_10  and  N_11 
ROOT
ATOM      1  N   UNL d   1      -0.903  -0.742   0.210  0.00  0.00    -0.274 N 
ATOM      2  H   UNL d   1      -1.693  -0.100   0.179  0.00  0.00     0.189 HD
ENDROOT
BRANCH   1   3
ATOM      3  C   UNL d   1      -1.238  -2.013   0.557  0.00  0.00     0.186 C 
ATOM      4  S   UNL d   1      -2.824  -2.409   0.882  0.00  0.00    -0.040 SA
BRANCH   3   5
ATOM      5  N   UNL d   1      -0.277  -2.967   0.649  0.00  0.00    -0.361 N 
ATOM      6  H   UNL d   1      -0.659  -3.830   1.021  0.00  0.00     0.162 HD
BRANCH   5   7
ATOM      7  C   UNL d   1       1.126  -2.728   1.005  0.00  0.00     0.092 C 
ATOM      8  C   UNL d   1       1.321  -2.007   2.376  0.00  0.00     0.031 C 
ATOM      9  C   UNL d   1       0.520  -2.750   3.424  0.00  0.00    -0.024 C 
ATOM     10  C   UNL d   1       2.719  -2.490   2.778  0.00  0.00     0.019 C 
ATOM     11  C   UNL d   1       1.109  -3.940   3.593  0.00  0.00    -0.026 C 
ATOM     12  C   UNL d   1       2.334  -3.971   2.704  0.00  0.00     0.010 C 
ATOM     13  C   UNL d   1       1.885  -4.075   1.231  0.00  0.00     0.034 C 
ENDBRANCH   5   7
ENDBRANCH   3   5
ENDBRANCH   1   3
BRANCH   1  14
ATOM     14  N   UNL d   1      -0.002  -0.559  -0.850  0.00  0.00    -0.274 N 
ATOM     15  H   UNL d   1       0.011  -1.295  -1.546  0.00  0.00     0.189 HD
BRANCH  14  16
ATOM     16  C   UNL d   1       0.689   0.615  -1.020  0.00  0.00     0.186 C 
ATOM     17  S   UNL d   1       1.020   1.737   0.167  0.00  0.00    -0.040 SA
BRANCH  16  18
ATOM     18  N   UNL d   1       1.078   0.890  -2.312  0.00  0.00    -0.361 N 
ATOM     19  H   UNL d   1       1.510   1.804  -2.407  0.00  0.00     0.162 HD
BRANCH  18  20
ATOM     20  C   UNL d   1       0.417   0.342  -3.483  0.00  0.00     0.088 C 
ATOM     21  C   UNL d   1       1.025   0.784  -4.837  0.00  0.00     0.009 C 
ATOM     22  C   UNL d   1       0.171   1.988  -5.240  0.00  0.00     0.011 C 
ATOM     23  C   UNL d   1       0.571  -0.239  -5.895  0.00  0.00     0.007 C 
ATOM     24  C   UNL d   1      -1.149   1.236  -5.065  0.00  0.00    -0.012 C 
ATOM     25  C   UNL d   1      -1.046   0.828  -3.591  0.00  0.00     0.030 C 
ATOM     26  C   UNL d   1      -0.951  -0.017  -5.941  0.00  0.00     0.005 C 
ENDBRANCH  18  20
ENDBRANCH  16  18
ENDBRANCH  14  16
ENDBRANCH   1  14
TORSDOF 7
