REMARK  6 active torsions:
REMARK  status: ('A' for Active; 'I' for Inactive)
REMARK    1  A    between atoms: C_10  and  C_1 
REMARK    2  A    between atoms: C_13  and  C_2 
REMARK    3  A    between atoms: C_18  and  C_7 
REMARK    4  A    between atoms: C_11  and  C_22 
REMARK       I    between atoms: N_17  and  C_13 
REMARK    5  A    between atoms: C_14  and  C_19 
REMARK    6  A    between atoms: C_22  and  N_17 
ROOT
ATOM      1  C   UNL d   1       0.364  -2.674   0.108  0.00  0.00     0.256 C 
ATOM      2  N   UNL d   1      -0.408  -3.807  -0.047  0.00  0.00    -0.349 N 
ATOM      3  O   UNL d   1      -0.132  -1.558   0.208  0.00  0.00    -0.267 OA
ATOM      4  H   UNL d   1       0.021  -4.722  -0.016  0.00  0.00     0.163 HD
ENDROOT
BRANCH   2   5
ATOM      5  C   UNL d   1      -1.788  -3.706  -0.495  0.00  0.00     0.209 C 
BRANCH   5   6
ATOM      6  C   UNL d   1      -2.795  -4.091   0.530  0.00  0.00     0.166 A 
ATOM      7  N   UNL d   1      -3.669  -5.076   0.502  0.00  0.00    -0.321 N 
ATOM      8  C   UNL d   1      -4.516  -4.764   1.549  0.00  0.00     0.137 A 
ATOM      9  HN  UNL d   1      -3.711  -5.872  -0.134  1.00  0.00     0.169 HD
ATOM     10  N   UNL d   1      -4.136  -3.671   2.237  0.00  0.00    -0.242 N 
ATOM     11  O   UNL d   1      -3.004  -3.221   1.557  0.00  0.00    -0.221 OA
ATOM     12  HN  UNL d   1      -4.575  -3.266   3.064  1.00  0.00     0.196 HD
BRANCH   8  13
ATOM     13  C   UNL d   1      -5.738  -5.522   1.827  0.00  0.00     0.010 A 
ATOM     14  C   UNL d   1      -6.000  -6.726   1.153  0.00  0.00     0.016 A 
ATOM     15  C   UNL d   1      -7.166  -7.457   1.403  0.00  0.00     0.017 A 
ATOM     16  C   UNL d   1      -8.109  -7.000   2.333  0.00  0.00     0.048 A 
ATOM     17  C   UNL d   1      -7.864  -5.787   2.996  0.00  0.00     0.017 A 
ATOM     18  C   UNL d   1      -6.692  -5.060   2.747  0.00  0.00     0.016 A 
BRANCH  16  19
ATOM     19  C   UNL d   1      -9.363  -7.788   2.634  0.00  0.00     0.417 C 
ATOM     20  F   UNL d   1      -9.456  -8.953   1.932  0.00  0.00    -0.166 F 
ATOM     21  F   UNL d   1      -9.453  -8.137   3.948  0.00  0.00    -0.166 F 
ATOM     22  F   UNL d   1     -10.500  -7.093   2.354  0.00  0.00    -0.166 F 
ENDBRANCH  16  19
ENDBRANCH   8  13
ENDBRANCH   5   6
ENDBRANCH   2   5
BRANCH   1  23
ATOM     23  C   UNL d   1       1.805  -2.876   0.119  0.00  0.00     0.092 A 
ATOM     24  C   UNL d   1       2.824  -2.146   0.837  0.00  0.00     0.085 A 
ATOM     25  N   UNL d   1       4.032  -2.654   0.545  0.00  0.00    -0.259 N 
ATOM     26  O   UNL d   1       3.848  -3.629  -0.390  0.00  0.00    -0.241 OA
ATOM     27  HN  UNL d   1       4.923  -2.365   0.949  1.00  0.00     0.195 HD
ATOM     28  C   UNL d   1       2.527  -3.774  -0.651  0.00  0.00     0.090 A 
ATOM     29  C   UNL d   1       2.239  -4.789  -1.682  0.00  0.00     0.080 C 
BRANCH  24  30
ATOM     30  C   UNL d   1       2.727  -1.097   1.867  0.00  0.00     0.015 A 
ATOM     31  C   UNL d   1       3.686  -0.071   2.010  0.00  0.00     0.046 A 
ATOM     32 CL   UNL d   1       4.913   0.265   0.830  0.00  0.00    -0.083 Cl
ATOM     33  C   UNL d   1       3.672   0.771   3.133  0.00  0.00     0.025 A 
ATOM     34  C   UNL d   1       2.688   0.628   4.107  0.00  0.00     0.002 A 
ATOM     35  C   UNL d   1       1.695  -0.334   3.948  0.00  0.00     0.001 A 
ATOM     36  C   UNL d   1       1.717  -1.190   2.842  0.00  0.00     0.015 A 
ENDBRANCH  24  30
ENDBRANCH   1  23
TORSDOF 6
