REMARK  4 active torsions:
REMARK  status: ('A' for Active; 'I' for Inactive)
REMARK    1  A    between atoms: N_5  and  S_1 
REMARK    2  A    between atoms: C_13  and  S_1 
REMARK    3  A    between atoms: C_4  and  N_11 
REMARK       I    between atoms: C_7  and  N_5 
REMARK    4  A    between atoms: C_19  and  C_6 
REMARK       I    between atoms: N_12  and  C_7 
ROOT
ATOM      1  N   UNL d   1       1.080   0.865  -1.942  0.00  0.00    -0.232 N 
ATOM      2  C   UNL d   1       0.674   2.102  -1.446  0.00  0.00     0.332 C 
ATOM      3  N   UNL d   1       3.604   5.174  -0.605  0.00  0.00    -0.359 N 
ATOM      4  N   UNL d   1       1.673   2.927  -0.946  0.00  0.00    -0.332 N 
ATOM      5  O   UNL d   1      -0.495   2.456  -1.504  0.00  0.00    -0.246 OA
ATOM      6  C   UNL d   1       2.217   5.399  -1.025  0.00  0.00     0.145 C 
ATOM      7  C   UNL d   1       1.277   4.289  -0.533  0.00  0.00     0.147 C 
ATOM      8  C   UNL d   1       4.178   2.806  -1.145  0.00  0.00     0.040 C 
ATOM      9  C   UNL d   1       4.394   4.289  -1.448  0.00  0.00     0.126 C 
ATOM     10  C   UNL d   1       2.919   2.424  -0.372  0.00  0.00     0.129 C 
ATOM     11  H   UNL d   1       2.054   0.657  -2.100  0.00  0.00     0.183 HD
ENDROOT
BRANCH   1  12
ATOM     12  S   UNL d   1       0.064  -0.208  -2.722  0.00  0.00     0.266 S 
ATOM     13  O   UNL d   1      -0.948  -0.662  -1.792  0.00  0.00    -0.200 OA
ATOM     14  O   UNL d   1       0.936  -1.149  -3.391  0.00  0.00    -0.200 OA
BRANCH  12  15
ATOM     15  C   UNL d   1      -0.686   0.794  -3.979  0.00  0.00     0.080 A 
ATOM     16  C   UNL d   1       0.106   1.258  -5.034  0.00  0.00     0.026 A 
ATOM     17  C   UNL d   1      -0.434   2.162  -5.949  0.00  0.00     0.008 A 
ATOM     18  C   UNL d   1      -1.761   2.596  -5.819  0.00  0.00    -0.062 A 
ATOM     19  C   UNL d   1      -2.560   2.073  -4.793  0.00  0.00     0.008 A 
ATOM     20  C   UNL d   1      -2.300   3.633  -6.760  0.00  0.00     0.048 C 
ATOM     21  C   UNL d   1      -2.028   1.167  -3.875  0.00  0.00     0.026 A 
ENDBRANCH  12  15
ENDBRANCH   1  12
BRANCH   3  22
ATOM     22  C   UNL d   1       4.109   5.883   0.448  0.00  0.00     0.164 A 
ATOM     23  N   UNL d   1       3.430   6.770   1.149  0.00  0.00    -0.321 N 
ATOM     24  C   UNL d   1       4.244   7.344   2.136  0.00  0.00     0.123 A 
ATOM     25  HN  UNL d   1       2.450   7.006   0.994  1.00  0.00     0.169 HD
ATOM     26  N   UNL d   1       5.506   6.913   2.233  0.00  0.00    -0.309 N 
ATOM     27  S   UNL d   1       5.724   5.753   1.069  0.00  0.00     0.024 SA
ATOM     28  HN  UNL d   1       6.206   7.238   2.900  1.00  0.00     0.176 HD
BRANCH  24  29
ATOM     29  C   UNL d   1       3.711   8.371   3.043  0.00  0.00     0.009 A 
ATOM     30  C   UNL d   1       2.394   8.836   2.909  0.00  0.00     0.015 A 
ATOM     31  C   UNL d   1       1.880   9.793   3.792  0.00  0.00     0.001 A 
ATOM     32  C   UNL d   1       2.676  10.300   4.818  0.00  0.00     0.000 A 
ATOM     33  C   UNL d   1       3.990   9.860   4.957  0.00  0.00     0.001 A 
ATOM     34  C   UNL d   1       4.503   8.904   4.074  0.00  0.00     0.015 A 
ENDBRANCH  24  29
ENDBRANCH   3  22
TORSDOF 4
