REMARK  4 active torsions:
REMARK  status: ('A' for Active; 'I' for Inactive)
REMARK    1  A    between atoms: N_10  and  N_1 
REMARK    2  A    between atoms: C_17  and  C_2 
REMARK    3  A    between atoms: C_18  and  N_6 
REMARK    4  A    between atoms: C_9  and  C_15 
ROOT
ATOM      1  N   UNL d   1       0.852  -3.209  -0.376  0.00  0.00    -0.300 N 
ATOM      2  HN  UNL d   1       0.835  -4.095  -0.882  1.00  0.00     0.186 HD
ATOM      3  C   UNL d   1       1.955  -2.728   0.091  0.00  0.00     0.122 C 
ENDROOT
BRANCH   1   4
ATOM      4  N   UNL d   1      -0.287  -2.493  -0.169  0.00  0.00    -0.211 N 
ATOM      5  C   UNL d   1      -1.518  -3.066   0.040  0.00  0.00     0.154 A 
ATOM      6  N   UNL d   1      -2.516  -2.228  -0.072  0.00  0.00    -0.281 N 
ATOM      7  N   UNL d   1      -1.931  -1.031  -0.384  0.00  0.00    -0.273 N 
ATOM      8  HN  UNL d   1      -3.510  -2.423   0.046  1.00  0.00     0.188 HD
ATOM      9  C   UNL d   1      -0.551  -1.177  -0.519  0.00  0.00     0.214 A 
ATOM     10  H   UNL d   1      -2.478  -0.210  -0.612  0.00  0.00     0.189 HD
ATOM     11  S   UNL d   1       0.438   0.046  -1.049  0.00  0.00    -0.037 SA
BRANCH   5  12
ATOM     12  C   UNL d   1      -1.709  -4.495   0.373  0.00  0.00     0.014 A 
ATOM     13  C   UNL d   1      -0.740  -5.251   1.034  0.00  0.00     0.032 A 
ATOM     14  C   UNL d   1      -1.028  -6.573   1.331  0.00  0.00     0.088 A 
ATOM     15  N   UNL d   1      -2.199  -7.170   1.034  0.00  0.00    -0.375 N 
ATOM     16  C   UNL d   1      -3.129  -6.415   0.414  0.00  0.00     0.088 A 
ATOM     17  HN  UNL d   1      -2.373  -8.148   1.267  1.00  0.00     0.164 HD
ATOM     18  C   UNL d   1      -2.934  -5.090   0.067  0.00  0.00     0.032 A 
ENDBRANCH   5  12
ENDBRANCH   1   4
BRANCH   3  19
ATOM     19  C   UNL d   1       3.149  -3.529  -0.037  0.00  0.00     0.022 A 
ATOM     20  C   UNL d   1       4.304  -3.360   0.700  0.00  0.00     0.131 A 
ATOM     21  N   UNL d   1       5.167  -4.379   0.355  0.00  0.00    -0.267 N 
ATOM     22  N   UNL d   1       4.646  -5.141  -0.638  0.00  0.00    -0.298 N 
ATOM     23  C   UNL d   1       3.419  -4.655  -0.853  0.00  0.00     0.035 A 
ATOM     24  HN  UNL d   1       5.095  -5.921  -1.119  1.00  0.00     0.187 HD
ATOM     25  C   UNL d   1       2.537  -5.303  -1.858  0.00  0.00     0.070 C 
BRANCH  21  26
ATOM     26  C   UNL d   1       6.431  -4.693   0.927  0.00  0.00     0.056 A 
ATOM     27  C   UNL d   1       6.916  -4.003   2.047  0.00  0.00     0.031 A 
ATOM     28  C   UNL d   1       8.151  -4.353   2.604  0.00  0.00     0.002 A 
ATOM     29  C   UNL d   1       8.908  -5.381   2.044  0.00  0.00     0.000 A 
ATOM     30  C   UNL d   1       8.434  -6.067   0.929  0.00  0.00     0.002 A 
ATOM     31  C   UNL d   1       7.199  -5.730   0.373  0.00  0.00     0.031 A 
ENDBRANCH  21  26
ENDBRANCH   3  19
TORSDOF 4
