REMARK  7 active torsions:
REMARK  status: ('A' for Active; 'I' for Inactive)
REMARK    1  A    between atoms: C_2  and  S_1 
REMARK    2  A    between atoms: N_8  and  S_1 
REMARK    3  A    between atoms: C_9  and  C_4 
REMARK    4  A    between atoms: N_5  and  C_13 
REMARK    5  A    between atoms: C_21  and  N_8 
REMARK    6  A    between atoms: O_22  and  C_9 
REMARK    7  A    between atoms: C_23  and  C_21 
ROOT
ATOM      1  N   UNL d   1      -0.167  -0.938   1.833  0.00  0.00    -0.210 NA
ATOM      2  H   UNL d   1      -0.777  -1.582   2.332  0.00  0.00     0.140 HD
ENDROOT
BRANCH   1   3
ATOM      3  S   UNL d   1       0.278  -1.594   0.351  0.00  0.00     0.264 S 
ATOM      4  O   UNL d   1       1.503  -2.339   0.532  0.00  0.00    -0.204 OA
ATOM      5  O   UNL d   1      -0.905  -2.201  -0.218  0.00  0.00    -0.204 OA
BRANCH   3   6
ATOM      6  C   UNL d   1       0.699  -0.257  -0.757  0.00  0.00     0.185 A 
ATOM      7  O   UNL d   1       0.667   1.056  -0.339  0.00  0.00    -0.291 OA
ATOM      8  C   UNL d   1       1.036   1.857  -1.383  0.00  0.00     0.152 A 
ATOM      9  C   UNL d   1       1.313   1.071  -2.484  0.00  0.00     0.047 A 
ATOM     10  C   UNL d   1       1.101  -0.269  -2.087  0.00  0.00     0.054 A 
BRANCH   8  11
ATOM     11  C   UNL d   1       1.084   3.290  -1.208  0.00  0.00     0.317 C 
ATOM     12  O   UNL d   1       1.389   4.098  -2.078  0.00  0.00    -0.257 OA
BRANCH  11  13
ATOM     13  O   UNL d   1       0.748   3.623   0.072  0.00  0.00    -0.321 OA
ATOM     14  C   UNL d   1       0.759   5.024   0.337  0.00  0.00     0.213 C 
ENDBRANCH  11  13
ENDBRANCH   8  11
ENDBRANCH   3   6
ENDBRANCH   1   3
BRANCH   1  15
ATOM     15  C   UNL d   1       0.929  -0.387   2.642  0.00  0.00     0.143 C 
BRANCH  15  16
ATOM     16  C   UNL d   1       0.427   0.174   3.950  0.00  0.00    -0.044 A 
ATOM     17  C   UNL d   1      -0.188  -0.659   4.888  0.00  0.00     0.010 A 
ATOM     18  C   UNL d   1      -0.650  -0.143   6.104  0.00  0.00     0.030 A 
ATOM     19  C   UNL d   1      -0.506   1.210   6.447  0.00  0.00     0.030 A 
ATOM     20  C   UNL d   1       0.125   2.025   5.496  0.00  0.00     0.030 A 
ATOM     21  C   UNL d   1       0.580   1.525   4.266  0.00  0.00     0.010 A 
BRANCH  19  22
ATOM     22  N   UNL d   1      -1.007   1.702   7.633  0.00  0.00    -0.378 N 
ATOM     23  C   UNL d   1      -1.322   3.124   7.839  0.00  0.00     0.153 C 
ATOM     24  C   UNL d   1      -2.673   3.257   8.586  0.00  0.00     0.291 C 
ATOM     25  N   UNL d   1      -2.712   2.496   9.855  0.00  0.00     0.087 N 
ATOM     26  C   UNL d   1      -2.400   1.075   9.574  0.00  0.00     0.291 C 
ATOM     27  C   UNL d   1      -4.021   2.620  10.491  0.00  0.00     0.310 C 
ATOM     28  C   UNL d   1      -1.032   0.909   8.874  0.00  0.00     0.153 C 
ENDBRANCH  19  22
ENDBRANCH  15  16
ENDBRANCH   1  15
TORSDOF 7
