REMARK  5 active torsions:
REMARK  status: ('A' for Active; 'I' for Inactive)
REMARK    1  A    between atoms: C_3  and  C_5 
REMARK    2  A    between atoms: N_7  and  C_4 
REMARK    3  A    between atoms: C_15  and  C_6 
REMARK    4  A    between atoms: C_11  and  C_17 
REMARK    5  A    between atoms: C_12  and  C_18 
ROOT
ATOM      1  N   UNL d   1       0.649   0.224  -0.913  0.00  0.00    -0.319 N 
ATOM      2  HN  UNL d   1       1.275   0.399  -1.699  1.00  0.00     0.169 HD
ATOM      3  C   UNL d   1       0.040  -0.895  -0.583  0.00  0.00     0.182 A 
ATOM      4  C   UNL d   1       0.232   1.102   0.063  0.00  0.00     0.138 A 
ATOM      5  N   UNL d   1      -0.561   0.543   0.991  0.00  0.00    -0.242 N 
ATOM      6  HN  UNL d   1      -0.969   0.981   1.817  1.00  0.00     0.196 HD
ATOM      7  O   UNL d   1      -0.698  -0.770   0.563  0.00  0.00    -0.217 OA
ENDROOT
BRANCH   4   8
ATOM      8  C   UNL d   1       0.544   2.528   0.024  0.00  0.00     0.011 A 
ATOM      9  C   UNL d   1       1.322   3.062  -1.014  0.00  0.00     0.031 A 
ATOM     10  C   UNL d   1       1.534   4.449  -1.124  0.00  0.00     0.049 A 
ATOM     11  C   UNL d   1       0.964   5.302  -0.165  0.00  0.00     0.032 A 
ATOM     12  C   UNL d   1       0.189   4.791   0.887  0.00  0.00     0.049 A 
ATOM     13  C   UNL d   1       0.001   3.402   0.979  0.00  0.00     0.031 A 
BRANCH  10  14
ATOM     14  C   UNL d   1       2.322   5.003  -2.288  0.00  0.00     0.417 C 
ATOM     15  F   UNL d   1       2.390   6.364  -2.296  0.00  0.00    -0.166 F 
ATOM     16  F   UNL d   1       3.609   4.563  -2.305  0.00  0.00    -0.166 F 
ATOM     17  F   UNL d   1       1.785   4.651  -3.489  0.00  0.00    -0.166 F 
ENDBRANCH  10  14
BRANCH  12  18
ATOM     18  C   UNL d   1      -0.486   5.702   1.885  0.00  0.00     0.417 C 
ATOM     19  F   UNL d   1      -0.284   7.025   1.633  0.00  0.00    -0.166 F 
ATOM     20  F   UNL d   1      -1.837   5.530   1.904  0.00  0.00    -0.166 F 
ATOM     21  F   UNL d   1      -0.061   5.490   3.158  0.00  0.00    -0.166 F 
ENDBRANCH  12  18
ENDBRANCH   4   8
BRANCH   3  22
ATOM     22  C   UNL d   1       0.124  -2.155  -1.378  0.00  0.00     0.027 A 
ATOM     23  C   UNL d   1       0.933  -2.338  -2.540  0.00  0.00     0.060 A 
ATOM     24  C   UNL d   1       0.802  -3.616  -3.044  0.00  0.00     0.144 A 
ATOM     25  S   UNL d   1      -0.296  -4.566  -2.159  0.00  0.00    -0.077 SA
ATOM     26  C   UNL d   1      -0.602  -3.284  -1.061  0.00  0.00     0.068 A 
BRANCH  24  27
ATOM     27  N   UNL d   1       1.489  -4.161  -4.187  0.00  0.00    -0.108 N 
ATOM     28  O   UNL d   1       2.279  -3.401  -4.764  0.00  0.00    -0.531 OA
ATOM     29  O   UNL d   1       1.255  -5.332  -4.510  0.00  0.00    -0.531 OA
ENDBRANCH  24  27
ENDBRANCH   3  22
TORSDOF 5
