REMARK  6 active torsions:
REMARK  status: ('A' for Active; 'I' for Inactive)
REMARK    1  A    between atoms: C_7  and  N_1 
REMARK    2  A    between atoms: C_9  and  C_6 
REMARK    3  A    between atoms: C_17  and  C_7 
REMARK    4  A    between atoms: O_20  and  C_10 
REMARK    5  A    between atoms: O_21  and  C_12 
REMARK    6  A    between atoms: C_16  and  C_17 
ROOT
ATOM      1  N   UNL d   1       0.860   0.358  -0.148  0.00  0.00    -0.298 N 
ATOM      2  C   UNL d   1       0.395  -0.810   0.437  0.00  0.00     0.148 C 
ATOM      3  C   UNL d   1      -1.440   0.469  -0.712  0.00  0.00     0.076 C 
ATOM      4  C   UNL d   1      -0.113   1.149  -0.762  0.00  0.00     0.266 C 
ATOM      5  S   UNL d   1      -1.272  -1.100  -0.041  0.00  0.00    -0.055 SA
ATOM      6  C   UNL d   1      -2.590   1.067  -1.076  0.00  0.00     0.037 C 
ATOM      7  S   UNL d   1       1.150  -1.878   1.467  0.00  0.00    -0.052 SA
ATOM      8  O   UNL d   1       0.047   2.268  -1.238  0.00  0.00    -0.266 OA
ENDROOT
BRANCH   1   9
ATOM      9  C   UNL d   1       2.180   0.976   0.075  0.00  0.00     0.138 C 
BRANCH   9  10
ATOM     10  C   UNL d   1       3.409   0.069  -0.087  0.00  0.00     0.059 C 
BRANCH  10  11
ATOM     11  C   UNL d   1       4.719   0.816   0.040  0.00  0.00    -0.054 A 
ATOM     12  C   UNL d   1       5.417   1.227  -1.101  0.00  0.00     0.046 A 
ATOM     13  C   UNL d   1       6.673   1.849  -1.004  0.00  0.00     0.102 A 
ATOM     14  C   UNL d   1       7.213   2.093   0.271  0.00  0.00     0.101 A 
ATOM     15  C   UNL d   1       6.510   1.689   1.409  0.00  0.00     0.040 A 
ATOM     16  C   UNL d   1       5.269   1.061   1.303  0.00  0.00     0.010 A 
BRANCH  13  17
ATOM     17  O   UNL d   1       7.424   2.200  -2.095  0.00  0.00    -0.353 OA
ATOM     18  C   UNL d   1       6.914   1.891  -3.386  0.00  0.00     0.210 C 
ENDBRANCH  13  17
BRANCH  14  19
ATOM     19  O   UNL d   1       8.430   2.651   0.564  0.00  0.00    -0.353 OA
ATOM     20  C   UNL d   1       8.907   3.649  -0.329  0.00  0.00     0.210 C 
ENDBRANCH  14  19
ENDBRANCH  10  11
ENDBRANCH   9  10
ENDBRANCH   1   9
BRANCH   6  21
ATOM     21  C   UNL d   1      -3.901   0.418  -0.927  0.00  0.00    -0.013 A 
ATOM     22  C   UNL d   1      -4.663   0.515   0.252  0.00  0.00     0.044 A 
ATOM     23 CL   UNL d   1      -4.165   1.513   1.572  0.00  0.00    -0.083 Cl
ATOM     24  C   UNL d   1      -5.844  -0.215   0.393  0.00  0.00     0.024 A 
ATOM     25  C   UNL d   1      -6.276  -1.052  -0.635  0.00  0.00     0.002 A 
ATOM     26  C   UNL d   1      -5.541  -1.142  -1.818  0.00  0.00     0.001 A 
ATOM     27  C   UNL d   1      -4.360  -0.411  -1.964  0.00  0.00     0.013 A 
ENDBRANCH   6  21
TORSDOF 6
