REMARK  4 active torsions:
REMARK  status: ('A' for Active; 'I' for Inactive)
REMARK    1  A    between atoms: C_7  and  C_1 
REMARK    2  A    between atoms: C_8  and  C_3 
REMARK    3  A    between atoms: C_10  and  C_7 
REMARK    4  A    between atoms: O_17  and  C_8 
ROOT
ATOM      1  C   UNL d   1       0.101   1.889  -0.148  0.00  0.00     0.065 A 
ATOM      2  C   UNL d   1      -0.464   0.658  -0.087  0.00  0.00     0.090 A 
ATOM      3  C   UNL d   1       1.570   1.951  -0.088  0.00  0.00     0.061 A 
ATOM      4  N   UNL d   1       0.306  -0.488  -0.080  0.00  0.00    -0.307 N 
ATOM      5  C   UNL d   1       1.681  -0.495  -0.034  0.00  0.00     0.249 A 
ATOM      6  C   UNL d   1       2.318   0.835  -0.046  0.00  0.00     0.093 A 
ATOM      7  S   UNL d   1      -2.145   0.251   0.063  0.00  0.00    -0.109 SA
ATOM      8  O   UNL d   1       2.375  -1.504   0.024  0.00  0.00    -0.268 OA
ATOM      9  C   UNL d   1      -0.434  -1.734   0.064  0.00  0.00     0.143 C 
ATOM     10  C   UNL d   1      -1.867  -1.492  -0.362  0.00  0.00     0.101 C 
ENDROOT
BRANCH   1  11
ATOM     11  C   UNL d   1      -0.706   3.150  -0.054  0.00  0.00     0.196 C 
ATOM     12  O   UNL d   1      -0.394   3.987   0.796  0.00  0.00    -0.287 OA
BRANCH  11  13
ATOM     13  C   UNL d   1      -1.909   3.403  -0.912  0.00  0.00     0.015 A 
ATOM     14  C   UNL d   1      -2.852   4.335  -0.441  0.00  0.00     0.017 A 
ATOM     15  C   UNL d   1      -4.028   4.596  -1.151  0.00  0.00     0.025 A 
ATOM     16  C   UNL d   1      -4.274   3.923  -2.346  0.00  0.00     0.034 A 
ATOM     17  C   UNL d   1      -3.343   3.007  -2.837  0.00  0.00     0.025 A 
ATOM     18 CL   UNL d   1      -5.726   4.226  -3.214  0.00  0.00    -0.084 Cl
ATOM     19  C   UNL d   1      -2.152   2.760  -2.135  0.00  0.00     0.017 A 
ENDBRANCH  11  13
ENDBRANCH   1  11
BRANCH   3  20
ATOM     20  C   UNL d   1       2.332   3.235  -0.102  0.00  0.00     0.294 C 
ATOM     21  O   UNL d   1       2.063   4.181  -0.822  0.00  0.00    -0.259 OA
BRANCH  20  22
ATOM     22  O   UNL d   1       3.401   3.144   0.739  0.00  0.00    -0.322 OA
ATOM     23  C   UNL d   1       4.281   4.270   0.739  0.00  0.00     0.213 C 
ENDBRANCH  20  22
ENDBRANCH   3  20
TORSDOF 4
