REMARK  7 active torsions:
REMARK  status: ('A' for Active; 'I' for Inactive)
REMARK    1  A    between atoms: C_14  and  N_1 
REMARK    2  A    between atoms: S_15  and  C_2 
REMARK    3  A    between atoms: O_25  and  C_3 
REMARK    4  A    between atoms: C_9  and  C_19 
REMARK    5  A    between atoms: C_17  and  C_14 
REMARK    6  A    between atoms: C_19  and  S_15 
REMARK    7  A    between atoms: O_28  and  C_26 
ROOT
ATOM      1  N   UNL d   1       0.501   0.446  -0.894  0.00  0.00    -0.285 N 
ATOM      2  C   UNL d   1       1.084  -0.789  -0.971  0.00  0.00     0.165 A 
ATOM      3  C   UNL d   1      -0.781   0.263  -1.348  0.00  0.00     0.240 A 
ATOM      4  N   UNL d   1       0.240  -1.645  -1.503  0.00  0.00    -0.277 N 
ATOM      5  HN  UNL d   1       0.423  -2.630  -1.693  1.00  0.00     0.189 HD
ATOM      6  N   UNL d   1      -0.935  -0.974  -1.757  0.00  0.00    -0.263 N 
ATOM      7  HN  UNL d   1      -1.773  -1.368  -2.184  1.00  0.00     0.190 HD
ENDROOT
BRANCH   2   8
ATOM      8  S   UNL d   1       2.684  -1.166  -0.424  0.00  0.00    -0.088 SA
BRANCH   8   9
ATOM      9  C   UNL d   1       2.754  -2.936  -0.871  0.00  0.00     0.122 C 
BRANCH   9  10
ATOM     10  C   UNL d   1       4.119  -3.511  -0.576  0.00  0.00    -0.030 A 
ATOM     11  C   UNL d   1       4.453  -4.106   0.731  0.00  0.00     0.005 A 
ATOM     12  C   UNL d   1       5.747  -4.603   0.929  0.00  0.00     0.092 A 
ATOM     13  C   UNL d   1       3.551  -4.226   1.798  0.00  0.00     0.017 A 
ATOM     14  C   UNL d   1       6.156  -5.173   2.136  0.00  0.00     0.074 A 
ATOM     15  O   UNL d   1       6.714  -4.578  -0.095  0.00  0.00    -0.275 OA
ATOM     16  C   UNL d   1       5.244  -5.273   3.172  0.00  0.00     0.068 A 
ATOM     17  C   UNL d   1       3.941  -4.814   3.011  0.00  0.00     0.037 A 
ATOM     18  C   UNL d   1       6.396  -4.127  -1.360  0.00  0.00     0.288 A 
ATOM     19  C   UNL d   1       5.052  -3.562  -1.542  0.00  0.00     0.091 A 
ATOM     20  O   UNL d   1       7.186  -4.173  -2.295  0.00  0.00    -0.260 OA
BRANCH  16  21
ATOM     21  O   UNL d   1       5.665  -5.836   4.339  0.00  0.00    -0.361 OA
ATOM     22  H   UNL d   1       4.935  -5.821   4.980  0.00  0.00     0.217 HD
ENDBRANCH  16  21
ENDBRANCH   9  10
ENDBRANCH   8   9
ENDBRANCH   2   8
BRANCH   1  23
ATOM     23  C   UNL d   1       1.089   1.710  -0.520  0.00  0.00     0.200 C 
BRANCH  23  24
ATOM     24  C   UNL d   1       0.645   2.096   0.841  0.00  0.00     0.070 A 
ATOM     25  O   UNL d   1      -0.594   2.664   0.936  0.00  0.00    -0.325 OA
ATOM     26  C   UNL d   1      -0.808   2.926   2.252  0.00  0.00     0.142 A 
ATOM     27  C   UNL d   1       0.276   2.533   3.003  0.00  0.00     0.027 A 
ATOM     28  C   UNL d   1       1.216   1.997   2.091  0.00  0.00     0.036 A 
ENDBRANCH  23  24
ENDBRANCH   1  23
BRANCH   3  29
ATOM     29  O   UNL d   1      -1.735   1.177  -1.382  0.00  0.00    -0.331 OA
ATOM     30  H   UNL d   1      -1.560   1.833  -0.683  0.00  0.00     0.221 HD
ENDBRANCH   3  29
TORSDOF 7
