REMARK  9 active torsions:
REMARK  status: ('A' for Active; 'I' for Inactive)
REMARK    1  A    between atoms: C_3  and  C_1 
REMARK    2  A    between atoms: C_7  and  C_2 
REMARK       I    between atoms: N_6  and  C_3 
REMARK    3  A    between atoms: C_10  and  N_6 
REMARK    4  A    between atoms: N_17  and  C_10 
REMARK    5  A    between atoms: O_22  and  C_11 
REMARK    6  A    between atoms: O_24  and  C_15 
REMARK    7  A    between atoms: C_25  and  N_17 
REMARK    8  A    between atoms: C_19  and  C_27 
REMARK    9  A    between atoms: C_27  and  C_25 
ROOT
ATOM      1  C   UNL d   1       0.002  -4.302  -2.615  0.00  0.00     0.262 C 
ATOM      2  N   UNL d   1      -0.962  -4.793  -1.737  0.00  0.00    -0.300 N 
ATOM      3  O   UNL d   1      -0.086  -3.189  -3.141  0.00  0.00    -0.267 OA
ATOM      4  H   UNL d   1      -0.986  -5.788  -1.594  0.00  0.00     0.171 HD
ENDROOT
BRANCH   2   5
ATOM      5  C   UNL d   1      -2.017  -4.117  -1.113  0.00  0.00     0.174 C 
ATOM      6  S   UNL d   1      -2.187  -2.462  -0.972  0.00  0.00    -0.041 SA
BRANCH   5   7
ATOM      7  N   UNL d   1      -2.942  -5.036  -0.625  0.00  0.00    -0.367 N 
ATOM      8  H   UNL d   1      -2.543  -5.723   0.006  0.00  0.00     0.161 HD
BRANCH   7   9
ATOM      9  C   UNL d   1      -4.363  -4.766  -0.369  0.00  0.00     0.126 C 
BRANCH   9  10
ATOM     10  C   UNL d   1      -5.189  -4.426  -1.625  0.00  0.00     0.058 C 
BRANCH  10  11
ATOM     11  C   UNL d   1      -5.242  -5.521  -2.670  0.00  0.00    -0.054 A 
ATOM     12  C   UNL d   1      -6.200  -6.551  -2.609  0.00  0.00     0.046 A 
ATOM     13  C   UNL d   1      -6.245  -7.565  -3.583  0.00  0.00     0.102 A 
ATOM     14  C   UNL d   1      -5.341  -7.514  -4.660  0.00  0.00     0.101 A 
ATOM     15  C   UNL d   1      -4.384  -6.494  -4.714  0.00  0.00     0.040 A 
ATOM     16  C   UNL d   1      -4.332  -5.508  -3.732  0.00  0.00     0.010 A 
BRANCH  13  17
ATOM     17  O   UNL d   1      -7.098  -8.634  -3.539  0.00  0.00    -0.353 OA
ATOM     18  C   UNL d   1      -7.980  -8.777  -2.438  0.00  0.00     0.210 C 
ENDBRANCH  13  17
BRANCH  14  19
ATOM     19  O   UNL d   1      -5.232  -8.406  -5.698  0.00  0.00    -0.353 OA
ATOM     20  C   UNL d   1      -6.423  -9.064  -6.115  0.00  0.00     0.210 C 
ENDBRANCH  14  19
ENDBRANCH  10  11
ENDBRANCH   9  10
ENDBRANCH   7   9
ENDBRANCH   5   7
ENDBRANCH   2   5
BRANCH   1  21
ATOM     21  C   UNL d   1       1.113  -5.179  -2.966  0.00  0.00     0.093 A 
ATOM     22  C   UNL d   1       2.369  -4.787  -3.580  0.00  0.00     0.085 A 
ATOM     23  N   UNL d   1       3.130  -5.873  -3.794  0.00  0.00    -0.259 N 
ATOM     24  O   UNL d   1       2.432  -6.948  -3.329  0.00  0.00    -0.241 OA
ATOM     25  HN  UNL d   1       4.055  -5.890  -4.223  1.00  0.00     0.195 HD
ATOM     26  C   UNL d   1       1.254  -6.547  -2.794  0.00  0.00     0.090 A 
ATOM     27  C   UNL d   1       0.477  -7.646  -2.184  0.00  0.00     0.080 C 
BRANCH  22  28
ATOM     28  C   UNL d   1       2.932  -3.450  -3.844  0.00  0.00     0.015 A 
ATOM     29  C   UNL d   1       3.749  -3.149  -4.952  0.00  0.00     0.046 A 
ATOM     30 CL   UNL d   1       4.060  -4.259  -6.246  0.00  0.00    -0.083 Cl
ATOM     31  C   UNL d   1       4.358  -1.887  -5.070  0.00  0.00     0.025 A 
ATOM     32  C   UNL d   1       4.144  -0.903  -4.108  0.00  0.00     0.002 A 
ATOM     33  C   UNL d   1       3.325  -1.174  -3.021  0.00  0.00     0.001 A 
ATOM     34  C   UNL d   1       2.740  -2.437  -2.884  0.00  0.00     0.015 A 
ENDBRANCH  22  28
ENDBRANCH   1  21
TORSDOF 9
