REMARK  3 active torsions:
REMARK  status: ('A' for Active; 'I' for Inactive)
REMARK    1  A    between atoms: C_3  and  S_1 
REMARK    2  A    between atoms: C_5  and  S_1 
REMARK    3  A    between atoms: C_4  and  C_2 
ROOT
ATOM      1  C   UNL d   1       0.678   0.332   2.781  0.00  0.00     0.069 A 
ATOM      2  C   UNL d   1       0.317   0.838   1.517  0.00  0.00     0.079 A 
ATOM      3  C   UNL d   1       0.296   1.074   3.921  0.00  0.00     0.018 A 
ATOM      4  C   UNL d   1      -0.436   2.019   1.411  0.00  0.00     0.024 A 
ATOM      5  C   UNL d   1      -0.441   2.253   3.811  0.00  0.00     0.001 A 
ATOM      6  C   UNL d   1      -0.817   2.717   2.557  0.00  0.00     0.002 A 
ENDROOT
BRANCH   2   7
ATOM      7  S   UNL d   1       0.831   0.008   0.024  0.00  0.00     0.207 S 
ATOM      8  O   UNL d   1       0.115  -1.254   0.005  0.00  0.00    -0.217 OA
ATOM      9  O   UNL d   1       2.279   0.068   0.016  0.00  0.00    -0.217 OA
BRANCH   7  10
ATOM     10  C   UNL d   1       0.271   0.916  -1.405  0.00  0.00     0.064 A 
ATOM     11  C   UNL d   1       1.103   1.865  -2.006  0.00  0.00     0.024 A 
ATOM     12  C   UNL d   1       0.654   2.550  -3.139  0.00  0.00     0.008 A 
ATOM     13  C   UNL d   1      -0.609   2.279  -3.683  0.00  0.00    -0.062 A 
ATOM     14  C   UNL d   1      -1.429   1.323  -3.071  0.00  0.00     0.008 A 
ATOM     15  C   UNL d   1      -1.084   3.025  -4.898  0.00  0.00     0.048 C 
ATOM     16  C   UNL d   1      -0.989   0.632  -1.941  0.00  0.00     0.024 A 
ENDBRANCH   7  10
ENDBRANCH   2   7
BRANCH   1  17
ATOM     17  C   UNL d   1       1.434  -0.955   3.040  0.00  0.00     0.418 C 
ATOM     18  F   UNL d   1       1.750  -1.716   1.969  0.00  0.00    -0.166 F 
ATOM     19  F   UNL d   1       2.612  -0.721   3.689  0.00  0.00    -0.166 F 
ATOM     20  F   UNL d   1       0.728  -1.777   3.872  0.00  0.00    -0.166 F 
ENDBRANCH   1  17
TORSDOF 3
