REMARK  8 active torsions:
REMARK  status: ('A' for Active; 'I' for Inactive)
REMARK    1  A    between atoms: CA_2  and  C_1 
REMARK    2  A    between atoms: OXT_6  and  C_1 
REMARK    3  A    between atoms: N_3  and  CA_2 
REMARK    4  A    between atoms: CB_5  and  CA_2 
REMARK    5  A    between atoms: C4_13  and  N_3 
REMARK    6  A    between atoms: CG_7  and  CB_5 
REMARK    7  A    between atoms: C3_12  and  C4_13 
REMARK    8  A    between atoms: O3_15  and  C5_14 
ROOT
ATOM      1  N   LEU d   1      -0.450   0.165   1.562  0.00  0.00     0.102 N 
ATOM      2  H   LEU d   1      -1.057  -0.421   0.987  0.00  0.00     0.317 HD
ENDROOT
BRANCH   1   3
ATOM      3  CA  LEU d   1       0.425   1.020   0.697  0.00  0.00     0.317 C 
BRANCH   3   4
ATOM      4  C   LEU d   1       1.252   0.138  -0.259  0.00  0.00     0.174 C 
ATOM      5  O   LEU d   1       2.470   0.069  -0.275  0.00  0.00    -0.648 OA
BRANCH   4   6
ATOM      6  OXT LEU d   1       0.483  -0.623  -1.078  0.00  0.00    -0.775 OA
ATOM      7  HXT LEU d   1      -0.474  -0.471  -0.977  0.00  0.00     0.167 HD
ENDBRANCH   4   6
ENDBRANCH   3   4
BRANCH   3   8
ATOM      8  CB  LEU d   1       1.267   1.980   1.558  0.00  0.00     0.050 C 
BRANCH   8   9
ATOM      9  CG  LEU d   1       2.121   3.034   0.821  0.00  0.00    -0.020 C 
ATOM     10  CD1 LEU d   1       1.310   3.962  -0.081  0.00  0.00     0.009 C 
ATOM     11  CD2 LEU d   1       2.885   3.861   1.864  0.00  0.00     0.009 C 
ENDBRANCH   8   9
ENDBRANCH   3   8
ENDBRANCH   1   3
BRANCH   1  12
ATOM     12  C4  <1> d   1       0.307  -0.750   2.444  0.00  0.00     0.312 C 
BRANCH  12  13
ATOM     13  C3  <1> d   1      -0.624  -1.617   3.264  0.00  0.00     0.003 A 
ATOM     14  C5  <1> d   1      -1.849  -1.156   3.772  0.00  0.00     0.073 A 
ATOM     15  C9  <1> d   1      -2.677  -1.980   4.527  0.00  0.00     0.037 A 
ATOM     16  C13 <1> d   1      -2.288  -3.288   4.803  0.00  0.00     0.003 A 
ATOM     17  C12 <1> d   1      -1.059  -3.758   4.342  0.00  0.00     0.001 A 
ATOM     18  C8  <1> d   1      -0.229  -2.926   3.587  0.00  0.00     0.012 A 
BRANCH  14  19
ATOM     19  O3  <1> d   1      -2.296   0.116   3.538  0.00  0.00    -0.360 OA
ATOM     20  H8  <1> d   1      -1.665   0.524   2.908  0.00  0.00     0.217 HD
ENDBRANCH  14  19
ENDBRANCH  12  13
ENDBRANCH   1  12
TORSDOF 8
