REMARK  4 active torsions:
REMARK  status: ('A' for Active; 'I' for Inactive)
REMARK    1  A    between atoms: C_2  and  C_1 
REMARK       I    between atoms: N_4  and  C_1 
REMARK    2  A    between atoms: S_5  and  C_3 
REMARK    3  A    between atoms: C_9  and  N_4 
REMARK    4  A    between atoms: C_7  and  S_5 
ROOT
ATOM      1  C   UNL d   1       0.377   0.123  -1.356  0.00  0.00     0.049 A 
ATOM      2  C   UNL d   1       0.807  -0.960  -2.156  0.00  0.00     0.021 A 
ATOM      3  C   UNL d   1      -0.774   0.837  -1.758  0.00  0.00     0.018 A 
ATOM      4  C   UNL d   1       0.065  -1.300  -3.306  0.00  0.00     0.020 A 
ATOM      5  C   UNL d   1      -1.494   0.486  -2.901  0.00  0.00     0.001 A 
ATOM      6  C   UNL d   1      -1.079  -0.590  -3.671  0.00  0.00     0.001 A 
ENDROOT
BRANCH   1   7
ATOM      7  C   UNL d   1       0.993   0.596  -0.063  0.00  0.00     0.253 C 
ATOM      8  N   UNL d   1       2.085  -0.082   0.418  0.00  0.00    -0.353 N 
ATOM      9  H   UNL d   1       2.536  -0.763  -0.181  0.00  0.00     0.163 HD
ATOM     10  O   UNL d   1       0.493   1.539   0.546  0.00  0.00    -0.268 OA
BRANCH   8  11
ATOM     11  C   UNL d   1       2.726   0.231   1.685  0.00  0.00     0.076 C 
ATOM     12  C   UNL d   1       3.313  -1.043   2.287  0.00  0.00     0.032 C 
ATOM     13  C   UNL d   1       3.806   1.290   1.493  0.00  0.00     0.032 C 
ENDBRANCH   8  11
ENDBRANCH   1   7
BRANCH   2  14
ATOM     14  S   UNL d   1       2.290  -1.934  -1.915  0.00  0.00    -0.090 SA
BRANCH  14  15
ATOM     15  C   UNL d   1       1.782  -3.329  -0.918  0.00  0.00     0.005 A 
ATOM     16  C   UNL d   1       0.509  -3.490  -0.363  0.00  0.00     0.019 A 
ATOM     17  C   UNL d   1       0.216  -4.603   0.432  0.00  0.00     0.001 A 
ATOM     18  C   UNL d   1       1.191  -5.565   0.682  0.00  0.00     0.000 A 
ATOM     19  C   UNL d   1       2.462  -5.419   0.136  0.00  0.00     0.001 A 
ATOM     20  C   UNL d   1       2.755  -4.307  -0.659  0.00  0.00     0.019 A 
ENDBRANCH  14  15
ENDBRANCH   2  14
TORSDOF 4
