REMARK  10 active torsions:
REMARK  status: ('A' for Active; 'I' for Inactive)
REMARK    1  A    between atoms: S_12  and  C_3 
REMARK    2  A    between atoms: S_13  and  C_10 
REMARK    3  A    between atoms: C_18  and  S_12 
REMARK    4  A    between atoms: C_19  and  S_13 
REMARK    5  A    between atoms: C_14  and  C_18 
REMARK    6  A    between atoms: O_22  and  C_14 
REMARK    7  A    between atoms: C_15  and  C_19 
REMARK    8  A    between atoms: O_23  and  C_15 
REMARK    9  A    between atoms: C_25  and  O_22 
REMARK   10  A    between atoms: C_26  and  O_23 
ROOT
ATOM      1  C   UNL d   1       0.995  -0.644   0.126  0.00  0.00     0.090 A 
ATOM      2  C   UNL d   1       0.470   0.646   0.054  0.00  0.00     0.039 A 
ATOM      3  C   UNL d   1       1.423   1.669   0.034  0.00  0.00     0.085 A 
ATOM      4  N   UNL d   1       2.295  -0.974   0.155  0.00  0.00    -0.330 N 
ATOM      5  HN  UNL d   1       2.629  -1.936   0.211  1.00  0.00     0.168 HD
ATOM      6  N   UNL d   1       2.739   1.379   0.063  0.00  0.00    -0.331 N 
ATOM      7  HN  UNL d   1       3.438   2.122   0.055  1.00  0.00     0.168 HD
ATOM      8  S   UNL d   1      -0.216  -1.868   0.178  0.00  0.00    -0.075 SA
ATOM      9  C   UNL d   1      -0.949   0.573   0.011  0.00  0.00    -0.029 A 
ATOM     10  C   UNL d   1       3.108   0.087   0.104  0.00  0.00     0.146 A 
ATOM     11  C   UNL d   1      -1.414  -0.713   0.056  0.00  0.00    -0.008 A 
ATOM     12  C   UNL d   1      -2.077   1.536  -0.093  0.00  0.00     0.041 C 
ATOM     13  C   UNL d   1      -2.889  -0.827  -0.013  0.00  0.00     0.047 C 
ATOM     14  C   UNL d   1      -3.308   0.647   0.265  0.00  0.00     0.010 C 
ENDROOT
BRANCH   3  15
ATOM     15  S   UNL d   1       0.894   3.360   0.015  0.00  0.00    -0.101 SA
BRANCH  15  16
ATOM     16  C   UNL d   1       2.182   4.097  -1.036  0.00  0.00     0.191 C 
BRANCH  16  17
ATOM     17  C   UNL d   1       2.336   3.363  -2.352  0.00  0.00     0.268 C 
ATOM     18  O   UNL d   1       1.433   2.835  -2.985  0.00  0.00    -0.264 OA
BRANCH  17  19
ATOM     19  O   UNL d   1       3.645   3.405  -2.735  0.00  0.00    -0.321 OA
BRANCH  19  20
ATOM     20  C   UNL d   1       4.019   2.524  -3.803  0.00  0.00     0.174 C 
ATOM     21  C   UNL d   1       4.226   3.312  -5.080  0.00  0.00     0.034 C 
ENDBRANCH  19  20
ENDBRANCH  17  19
ENDBRANCH  16  17
ENDBRANCH  15  16
ENDBRANCH   3  15
BRANCH  10  22
ATOM     22  S   UNL d   1       4.863  -0.231   0.143  0.00  0.00    -0.084 SA
BRANCH  22  23
ATOM     23  C   UNL d   1       4.897  -1.851  -0.697  0.00  0.00     0.193 C 
BRANCH  23  24
ATOM     24  C   UNL d   1       4.274  -1.776  -2.077  0.00  0.00     0.268 C 
ATOM     25  O   UNL d   1       4.249  -0.785  -2.794  0.00  0.00    -0.264 OA
BRANCH  24  26
ATOM     26  O   UNL d   1       3.744  -2.990  -2.411  0.00  0.00    -0.321 OA
BRANCH  26  27
ATOM     27  C   UNL d   1       2.907  -2.993  -3.577  0.00  0.00     0.174 C 
ATOM     28  C   UNL d   1       1.497  -2.602  -3.173  0.00  0.00     0.034 C 
ENDBRANCH  26  27
ENDBRANCH  24  26
ENDBRANCH  23  24
ENDBRANCH  22  23
ENDBRANCH  10  22
TORSDOF 10
