REMARK  4 active torsions:
REMARK  status: ('A' for Active; 'I' for Inactive)
REMARK    1  A    between atoms: C_2  and  N_1 
REMARK    2  A    between atoms: C_11  and  C_17 
REMARK    3  A    between atoms: O_13  and  C_12 
REMARK    4  A    between atoms: C_17  and  O_13 
ROOT
ATOM      1  C   UNL d   1       0.283   0.358   1.027  0.00  0.00     0.108 A 
ATOM      2  C   UNL d   1       0.695   1.537   1.668  0.00  0.00    -0.026 A 
ATOM      3  C   UNL d   1      -0.824  -0.375   1.475  0.00  0.00     0.039 A 
ATOM      4  C   UNL d   1      -0.052   1.968   2.781  0.00  0.00     0.046 A 
ATOM      5  C   UNL d   1      -1.142   1.231   3.257  0.00  0.00     0.069 A 
ATOM      6  C   UNL d   1      -1.536   0.070   2.589  0.00  0.00     0.039 A 
ATOM      7  C   UNL d   1       1.899   2.351   1.286  0.00  0.00     0.050 C 
ENDROOT
BRANCH   5   8
ATOM      8  O   UNL d   1      -1.884   1.549   4.364  0.00  0.00    -0.347 OA
BRANCH   8   9
ATOM      9  C   UNL d   1      -1.268   2.458   5.278  0.00  0.00     0.214 C 
BRANCH   9  10
ATOM     10  C   UNL d   1      -1.926   2.417   6.638  0.00  0.00    -0.028 A 
ATOM     11  C   UNL d   1      -2.627   1.292   7.096  0.00  0.00     0.051 A 
ATOM     12  C   UNL d   1      -3.144   1.269   8.390  0.00  0.00     0.119 A 
ATOM     13  F   UNL d   1      -3.806   0.185   8.813  0.00  0.00    -0.206 F 
ATOM     14  C   UNL d   1      -2.971   2.340   9.254  0.00  0.00     0.084 A 
ATOM     15  C   UNL d   1      -2.272   3.450   8.805  0.00  0.00     0.119 A 
ATOM     16  C   UNL d   1      -1.750   3.499   7.514  0.00  0.00     0.051 A 
ATOM     17  F   UNL d   1      -2.081   4.489   9.628  0.00  0.00    -0.206 F 
ENDBRANCH   9  10
ENDBRANCH   8   9
ENDBRANCH   5   8
BRANCH   1  18
ATOM     18  N   UNL d   1       0.992  -0.157  -0.133  0.00  0.00    -0.115 N 
ATOM     19  O   UNL d   1       1.046   0.570  -1.135  0.00  0.00    -0.532 OA
ATOM     20  O   UNL d   1       1.469  -1.296  -0.041  0.00  0.00    -0.532 OA
ENDBRANCH   1  18
TORSDOF 4
