REMARK  4 active torsions:
REMARK  status: ('A' for Active; 'I' for Inactive)
REMARK       I    between atoms: N_2  and  C_1 
REMARK    1  A    between atoms: C_5  and  C_1 
REMARK    2  A    between atoms: C_6  and  N_2 
REMARK    3  A    between atoms: C_7  and  N_3 
REMARK    4  A    between atoms: C_12  and  C_7 
ROOT
ATOM      1  N   UNL d   1       1.207  -5.245  -0.179  0.00  0.00     0.092 N 
ATOM      2  C   UNL d   1       1.224  -2.359   0.076  0.00  0.00     0.088 C 
ATOM      3  C   UNL d   1       1.212  -3.031  -1.301  0.00  0.00     0.055 C 
ATOM      4  C   UNL d   1       0.990  -3.257   1.301  0.00  0.00     0.055 C 
ATOM      5  C   UNL d   1       0.707  -4.467  -1.327  0.00  0.00     0.275 C 
ATOM      6  C   UNL d   1       0.558  -4.696   1.021  0.00  0.00     0.275 C 
ENDROOT
BRANCH   2   7
ATOM      7  N   UNL d   1       0.449  -1.113   0.115  0.00  0.00    -0.352 N 
ATOM      8  C   UNL d   1      -0.924  -1.049   0.013  0.00  0.00     0.252 C 
ATOM      9  O   UNL d   1      -1.635  -2.036  -0.127  0.00  0.00    -0.268 OA
ATOM     10  H   UNL d   1       0.977  -0.255   0.039  0.00  0.00     0.163 HD
BRANCH   8  11
ATOM     11  C   UNL d   1      -1.526   0.326   0.049  0.00  0.00     0.032 A 
ATOM     12  C   UNL d   1      -2.781   0.522  -0.543  0.00  0.00     0.017 A 
ATOM     13  C   UNL d   1      -3.382   1.785  -0.529  0.00  0.00     0.001 A 
ATOM     14  C   UNL d   1      -2.737   2.860   0.081  0.00  0.00     0.000 A 
ATOM     15  C   UNL d   1      -1.494   2.672   0.684  0.00  0.00     0.001 A 
ATOM     16  C   UNL d   1      -0.891   1.409   0.674  0.00  0.00     0.017 A 
ENDBRANCH   8  11
ENDBRANCH   2   7
BRANCH   1  17
ATOM     17  C   UNL d   1       0.849  -6.665  -0.388  0.00  0.00     0.311 C 
BRANCH  17  18
ATOM     18  C   UNL d   1       1.338  -7.625   0.684  0.00  0.00    -0.030 A 
ATOM     19  C   UNL d   1       0.407  -8.358   1.445  0.00  0.00     0.012 A 
ATOM     20  C   UNL d   1       0.843  -9.287   2.391  0.00  0.00     0.043 A 
ATOM     21  C   UNL d   1       2.202  -9.489   2.580  0.00  0.00     0.116 A 
ATOM     22  C   UNL d   1       3.140  -8.774   1.842  0.00  0.00     0.043 A 
ATOM     23  F   UNL d   1       2.617 -10.391   3.480  0.00  0.00    -0.206 F 
ATOM     24  C   UNL d   1       2.707  -7.840   0.896  0.00  0.00     0.012 A 
ENDBRANCH  17  18
ENDBRANCH   1  17
TORSDOF 4
