REMARK  3 active torsions:
REMARK  status: ('A' for Active; 'I' for Inactive)
REMARK    1  A    between atoms: C_2  and  C_1 
REMARK       I    between atoms: N_8  and  C_2 
REMARK    2  A    between atoms: S_11  and  C_3 
REMARK    3  A    between atoms: S_12  and  C_6 
ROOT
ATOM      1  C   UNL d   1      -1.590  -0.489  -0.008  0.00  0.00     0.091 C 
ATOM      2  C   UNL d   1      -0.436  -1.225  -0.270  0.00  0.00     0.076 C 
ATOM      3  N   UNL d   1      -0.128   1.207  -0.779  0.00  0.00    -0.319 N 
ATOM      4  HN  UNL d   1       0.167   2.137  -1.075  1.00  0.00     0.175 HD
ATOM      5  C   UNL d   1      -1.282   0.908  -0.192  0.00  0.00     0.093 C 
ATOM      6  S   UNL d   1       0.745  -0.178  -0.949  0.00  0.00    -0.006 SA
ENDROOT
BRANCH   1   7
ATOM      7  C   UNL d   1      -2.795  -1.069   0.578  0.00  0.00     0.258 C 
ATOM      8  N   UNL d   1      -4.030  -0.995  -0.113  0.00  0.00    -0.346 N 
ATOM      9  C   UNL d   1      -4.305  -0.015  -1.179  0.00  0.00     0.136 C 
ATOM     10  C   UNL d   1      -5.194  -1.478   0.647  0.00  0.00     0.136 C 
ATOM     11  C   UNL d   1      -5.431  -0.368  -2.154  0.00  0.00     0.093 C 
ATOM     12  S   UNL d   1      -7.000  -0.702  -1.306  0.00  0.00    -0.166 SA
ATOM     13  C   UNL d   1      -6.365  -1.984  -0.194  0.00  0.00     0.093 C 
ATOM     14  O   UNL d   1      -2.704  -1.679   1.645  0.00  0.00    -0.267 OA
ENDBRANCH   1   7
BRANCH   2  15
ATOM     15  S   UNL d   1      -0.011  -2.899   0.059  0.00  0.00    -0.125 SA
ATOM     16  C   UNL d   1      -1.267  -3.822  -0.834  0.00  0.00     0.096 C 
ENDBRANCH   2  15
BRANCH   5  17
ATOM     17  S   UNL d   1      -2.327   2.240   0.309  0.00  0.00    -0.115 SA
ATOM     18  C   UNL d   1      -1.122   3.512   0.737  0.00  0.00     0.097 C 
ENDBRANCH   5  17
TORSDOF 3
