REMARK  4 active torsions:
REMARK  status: ('A' for Active; 'I' for Inactive)
REMARK    1  A    between atoms: C_9  and  N_1 
REMARK    2  A    between atoms: C_7  and  C_2 
REMARK    3  A    between atoms: C_10  and  C_9 
REMARK    4  A    between atoms: O_17  and  C_14 
ROOT
ATOM      1  N   UNL d   1       0.894  -0.704  -0.093  0.00  0.00    -0.304 N 
ATOM      2  C   UNL d   1       0.973   0.666  -0.096  0.00  0.00     0.135 A 
ATOM      3  N   UNL d   1      -0.189   1.265  -0.094  0.00  0.00    -0.282 N 
ATOM      4  HN  UNL d   1      -0.374   2.268  -0.085  1.00  0.00     0.188 HD
ATOM      5  C   UNL d   1      -0.455  -0.977  -0.076  0.00  0.00     0.194 A 
ATOM      6  N   UNL d   1      -1.095   0.250  -0.106  0.00  0.00    -0.274 N 
ATOM      7  S   UNL d   1      -1.263  -2.422  -0.005  0.00  0.00    -0.039 SA
ATOM      8  H   UNL d   1      -2.094   0.416  -0.067  0.00  0.00     0.189 HD
ENDROOT
BRANCH   2   9
ATOM      9  C   UNL d   1       2.240   1.423  -0.046  0.00  0.00     0.010 A 
ATOM     10  C   UNL d   1       3.349   1.084  -0.826  0.00  0.00     0.018 A 
ATOM     11  C   UNL d   1       4.531   1.818  -0.723  0.00  0.00     0.037 A 
ATOM     12  C   UNL d   1       4.591   2.915   0.128  0.00  0.00     0.065 A 
ATOM     13  C   UNL d   1       3.482   3.299   0.873  0.00  0.00     0.037 A 
ATOM     14  C   UNL d   1       2.303   2.551   0.784  0.00  0.00     0.018 A 
BRANCH  12  15
ATOM     15  O   UNL d   1       5.766   3.601   0.189  0.00  0.00    -0.361 OA
ATOM     16  H   UNL d   1       5.661   4.351   0.797  0.00  0.00     0.217 HD
ENDBRANCH  12  15
ENDBRANCH   2   9
BRANCH   1  17
ATOM     17  C   UNL d   1       1.963  -1.681   0.090  0.00  0.00     0.160 C 
BRANCH  17  18
ATOM     18  C   UNL d   1       2.517  -2.199  -1.211  0.00  0.00    -0.017 C 
ATOM     19  C   UNL d   1       1.959  -2.154  -2.430  0.00  0.00     0.008 C 
ENDBRANCH  17  18
ENDBRANCH   1  17
TORSDOF 4
