REMARK  5 active torsions:
REMARK  status: ('A' for Active; 'I' for Inactive)
REMARK    1  A    between atoms: C_2  and  C_1 
REMARK    2  A    between atoms: C_3  and  C_2 
REMARK    3  A    between atoms: O_16  and  C_5 
REMARK    4  A    between atoms: N_14  and  C_6 
REMARK    5  A    between atoms: O_18  and  C_8 
ROOT
ATOM      1  C   UNL d   1      -2.012   2.515   0.050  0.00  0.00     0.194 C 
ATOM      2  O   UNL d   1      -3.100   2.501   0.626  0.00  0.00    -0.287 OA
ENDROOT
BRANCH   1   3
ATOM      3  C   UNL d   1      -1.432   1.238  -0.470  0.00  0.00     0.037 A 
ATOM      4  C   UNL d   1      -2.287   0.199  -0.897  0.00  0.00     0.020 A 
ATOM      5  C   UNL d   1      -1.714  -0.971  -1.419  0.00  0.00     0.026 A 
ATOM      6  C   UNL d   1      -0.328  -1.142  -1.448  0.00  0.00     0.026 A 
ATOM      7  C   UNL d   1       0.500  -0.133  -0.973  0.00  0.00     0.035 A 
ATOM      8  C   UNL d   1      -0.040   1.047  -0.469  0.00  0.00     0.041 A 
ATOM      9 CL   UNL d   1       2.209  -0.327  -1.036  0.00  0.00    -0.084 Cl
BRANCH   4  10
ATOM     10  N   UNL d   1      -3.675   0.386  -1.047  0.00  0.00    -0.302 NA
ATOM     11  H   UNL d   1      -4.021   1.113  -0.408  0.00  0.00     0.124 HD
ATOM     12  H   UNL d   1      -4.218  -0.467  -0.963  0.00  0.00     0.124 HD
ENDBRANCH   4  10
ENDBRANCH   1   3
BRANCH   1  13
ATOM     13  C   UNL d   1      -1.290   3.810  -0.086  0.00  0.00     0.018 A 
ATOM     14  C   UNL d   1      -0.486   4.080  -1.200  0.00  0.00     0.055 A 
ATOM     15  C   UNL d   1       0.257   5.261  -1.263  0.00  0.00     0.102 A 
ATOM     16  C   UNL d   1       0.132   6.195  -0.224  0.00  0.00     0.099 A 
ATOM     17  C   UNL d   1      -0.716   5.959   0.860  0.00  0.00     0.040 A 
ATOM     18  C   UNL d   1      -1.428   4.763   0.928  0.00  0.00     0.018 A 
BRANCH  15  19
ATOM     19  O   UNL d   1       1.125   5.580  -2.276  0.00  0.00    -0.353 OA
ATOM     20  C   UNL d   1       1.313   4.613  -3.302  0.00  0.00     0.210 C 
ENDBRANCH  15  19
BRANCH  16  21
ATOM     21  O   UNL d   1       0.857   7.355  -0.279  0.00  0.00    -0.358 OA
ATOM     22  H   UNL d   1       0.642   7.904   0.492  0.00  0.00     0.217 HD
ENDBRANCH  16  21
ENDBRANCH   1  13
TORSDOF 5
