REMARK  3 active torsions:
REMARK  status: ('A' for Active; 'I' for Inactive)
REMARK    1  A    between atoms: S_8  and  C_3 
REMARK    2  A    between atoms: C_10  and  S_8 
REMARK    3  A    between atoms: C_13  and  C_10 
ROOT
ATOM      1  N   UNL d   1       2.186   0.389  -0.012  0.00  0.00    -0.303 N 
ATOM      2  C   UNL d   1       1.378  -0.717  -0.013  0.00  0.00     0.259 A 
ATOM      3  C   UNL d   1       1.702   1.660   0.032  0.00  0.00     0.147 A 
ATOM      4  N   UNL d   1       0.450   1.964   0.061  0.00  0.00    -0.336 N 
ATOM      5  HN  UNL d   1       0.139   2.935   0.098  1.00  0.00     0.168 HD
ATOM      6  C   UNL d   1      -0.070  -0.441   0.008  0.00  0.00     0.059 A 
ATOM      7  C   UNL d   1      -0.470   0.899   0.038  0.00  0.00     0.049 A 
ATOM      8  O   UNL d   1       1.825  -1.856  -0.031  0.00  0.00    -0.267 OA
ATOM      9  C   UNL d   1      -1.004  -1.482  -0.010  0.00  0.00     0.019 A 
ATOM     10  C   UNL d   1      -1.837   1.185   0.041  0.00  0.00     0.030 A 
ATOM     11  C   UNL d   1      -2.364  -1.180  -0.004  0.00  0.00     0.001 A 
ATOM     12  C   UNL d   1      -2.780   0.153   0.019  0.00  0.00     0.002 A 
ATOM     13  H   UNL d   1       3.184   0.241  -0.033  0.00  0.00     0.171 HD
ENDROOT
BRANCH   3  14
ATOM     14  S   UNL d   1       2.970   2.844   0.029  0.00  0.00    -0.089 SA
BRANCH  14  15
ATOM     15  C   UNL d   1       2.095   4.249   0.774  0.00  0.00     0.121 C 
BRANCH  15  16
ATOM     16  C   UNL d   1       2.979   5.470   0.856  0.00  0.00    -0.046 A 
ATOM     17  C   UNL d   1       3.861   5.647   1.931  0.00  0.00     0.050 A 
ATOM     18  C   UNL d   1       4.675   6.775   1.986  0.00  0.00     0.117 A 
ATOM     19  F   UNL d   1       5.511   6.934   3.021  0.00  0.00    -0.206 F 
ATOM     20  C   UNL d   1       4.636   7.739   0.986  0.00  0.00     0.042 A 
ATOM     21  C   UNL d   1       3.769   7.571  -0.092  0.00  0.00     0.004 A 
ATOM     22  C   UNL d   1       2.949   6.441  -0.159  0.00  0.00     0.008 A 
ENDBRANCH  15  16
ENDBRANCH  14  15
ENDBRANCH   3  14
TORSDOF 3
