REMARK  8 active torsions:
REMARK  status: ('A' for Active; 'I' for Inactive)
REMARK    1  A    between atoms: N_6  and  C_1 
REMARK    2  A    between atoms: N_7  and  C_1 
REMARK       I    between atoms: C_4  and  N_8 
REMARK    3  A    between atoms: C_16  and  C_4 
REMARK    4  A    between atoms: C_5  and  O_11 
REMARK    5  A    between atoms: N_8  and  N_6 
REMARK    6  A    between atoms: C_19  and  N_7 
REMARK    7  A    between atoms: O_11  and  C_16 
REMARK    8  A    between atoms: C_20  and  C_12 
ROOT
ATOM      1  C   UNL d   1       0.135   1.949  -3.173  0.00  0.00     0.260 C 
ATOM      2  N   UNL d   1       0.960   1.440  -2.199  0.00  0.00    -0.266 N 
ATOM      3  O   UNL d   1       0.623   2.430  -4.197  0.00  0.00    -0.269 OA
ATOM      4  H   UNL d   1       1.949   1.357  -2.422  0.00  0.00     0.190 HD
ENDROOT
BRANCH   2   5
ATOM      5  N   UNL d   1       0.533   0.917  -0.977  0.00  0.00    -0.273 N 
ATOM      6  H   UNL d   1      -0.321   1.292  -0.575  0.00  0.00     0.189 HD
BRANCH   5   7
ATOM      7  C   UNL d   1       0.914  -0.360  -0.561  0.00  0.00     0.191 C 
ATOM      8  S   UNL d   1       1.874  -1.392  -1.466  0.00  0.00    -0.039 SA
BRANCH   7   9
ATOM      9  N   UNL d   1       0.488  -0.564   0.747  0.00  0.00    -0.332 N 
ATOM     10  H   UNL d   1       0.553   0.264   1.326  0.00  0.00     0.168 HD
BRANCH   9  11
ATOM     11  C   UNL d   1       0.312  -1.774   1.448  0.00  0.00     0.034 A 
ATOM     12  C   UNL d   1       0.481  -1.755   2.835  0.00  0.00     0.030 A 
ATOM     13  C   UNL d   1       0.248  -2.905   3.594  0.00  0.00     0.010 A 
ATOM     14  C   UNL d   1      -0.197  -4.086   2.985  0.00  0.00    -0.055 A 
ATOM     15  C   UNL d   1      -0.371  -4.093   1.594  0.00  0.00     0.010 A 
ATOM     16  C   UNL d   1      -0.116  -2.948   0.832  0.00  0.00     0.030 A 
BRANCH  14  17
ATOM     17  C   UNL d   1      -0.521  -5.328   3.795  0.00  0.00     0.010 C 
ATOM     18  C   UNL d   1       0.714  -5.884   4.508  0.00  0.00     0.015 C 
ATOM     19  C   UNL d   1      -1.652  -5.060   4.791  0.00  0.00     0.015 C 
ENDBRANCH  14  17
ENDBRANCH   9  11
ENDBRANCH   7   9
ENDBRANCH   5   7
ENDBRANCH   2   5
BRANCH   1  20
ATOM     20  C   UNL d   1      -1.367   1.980  -2.914  0.00  0.00     0.280 C 
BRANCH  20  21
ATOM     21  O   UNL d   1      -1.878   0.661  -2.781  0.00  0.00    -0.341 OA
BRANCH  21  22
ATOM     22  C   UNL d   1      -3.211   0.540  -2.515  0.00  0.00     0.076 A 
ATOM     23  C   UNL d   1      -3.713  -0.754  -2.432  0.00  0.00    -0.018 A 
ATOM     24  C   UNL d   1      -5.054  -0.999  -2.123  0.00  0.00    -0.043 A 
ATOM     25  C   UNL d   1      -2.959  -2.027  -2.657  0.00  0.00     0.042 A 
ATOM     26  C   UNL d   1      -5.350  -2.464  -2.076  0.00  0.00     0.040 A 
ATOM     27  C   UNL d   1      -5.943   0.047  -1.893  0.00  0.00    -0.055 A 
ATOM     28  C   UNL d   1      -4.014  -3.121  -2.444  0.00  0.00     0.009 A 
ATOM     29  C   UNL d   1      -5.449   1.350  -1.997  0.00  0.00     0.010 A 
ATOM     30  C   UNL d   1      -7.379  -0.206  -1.547  0.00  0.00     0.049 C 
ATOM     31  C   UNL d   1      -4.101   1.597  -2.307  0.00  0.00     0.038 A 
ENDBRANCH  21  22
ENDBRANCH  20  21
ENDBRANCH   1  20
TORSDOF 8
