REMARK  4 active torsions:
REMARK  status: ('A' for Active; 'I' for Inactive)
REMARK    1  A    between atoms: C_2  and  C_1 
REMARK    2  A    between atoms: C_14  and  C_12 
REMARK    3  A    between atoms: C_15  and  C_14 
REMARK    4  A    between atoms: O_19  and  C_17 
ROOT
ATOM      1  C   UNL d   1       0.638  -0.718   0.749  0.00  0.00     0.184 A 
ATOM      2  N   UNL d   1       0.574  -0.884  -0.560  0.00  0.00    -0.277 N 
ATOM      3  HN  UNL d   1       0.876  -1.709  -1.078  1.00  0.00     0.189 HD
ATOM      4  O   UNL d   1       0.138   0.513   1.121  0.00  0.00    -0.276 OA
ATOM      5  N   UNL d   1       0.025   0.259  -1.096  0.00  0.00    -0.281 N 
ATOM      6  HN  UNL d   1      -0.154   0.448  -2.082  1.00  0.00     0.189 HD
ATOM      7  C   UNL d   1      -0.221   1.058  -0.083  0.00  0.00     0.144 A 
ENDROOT
BRANCH   7   8
ATOM      8  C   UNL d   1      -0.737   2.448  -0.083  0.00  0.00     0.124 C 
BRANCH   8   9
ATOM      9  C   UNL d   1      -2.243   2.535   0.003  0.00  0.00    -0.048 A 
ATOM     10  C   UNL d   1      -3.023   2.535  -1.168  0.00  0.00     0.044 A 
ATOM     11  C   UNL d   1      -4.415   2.641  -1.096  0.00  0.00     0.068 A 
ATOM     12  C   UNL d   1      -5.028   2.732   0.155  0.00  0.00     0.037 A 
ATOM     13  C   UNL d   1      -4.268   2.716   1.323  0.00  0.00     0.003 A 
ATOM     14  C   UNL d   1      -2.880   2.615   1.249  0.00  0.00     0.007 A 
BRANCH  11  15
ATOM     15  O   UNL d   1      -5.276   2.668  -2.157  0.00  0.00    -0.356 OA
ATOM     16  C   UNL d   1      -4.703   2.588  -3.456  0.00  0.00     0.210 C 
ENDBRANCH  11  15
ENDBRANCH   8   9
ENDBRANCH   7   8
BRANCH   1  17
ATOM     17  C   UNL d   1       1.180  -1.675   1.658  0.00  0.00     0.095 A 
ATOM     18  C   UNL d   1       1.803  -2.897   1.434  0.00  0.00     0.041 A 
ATOM     19  N   UNL d   1       2.211  -3.555   2.594  0.00  0.00    -0.296 N 
ATOM     20  C   UNL d   1       2.098  -3.578   0.147  0.00  0.00     0.071 C 
ATOM     21  N   UNL d   1       1.919  -2.871   3.686  0.00  0.00    -0.061 NA
ATOM     22  HN  UNL d   1       2.681  -4.461   2.599  1.00  0.00     0.183 HD
ATOM     23  S   UNL d   1       1.152  -1.428   3.357  0.00  0.00     0.006 SA
ENDBRANCH   1  17
TORSDOF 4
