REMARK  3 active torsions:
REMARK  status: ('A' for Active; 'I' for Inactive)
REMARK    1  A    between atoms: C_8  and  C_1 
REMARK    2  A    between atoms: C_7  and  O_12 
REMARK       I    between atoms: N_14  and  C_7 
REMARK    3  A    between atoms: O_12  and  N_9 
ROOT
ATOM      1  C   UNL d   1       2.027  -1.634  -0.009  0.00  0.00     0.146 C 
ATOM      2  N   UNL d   1       1.865  -2.914  -0.010  0.00  0.00    -0.265 N 
ATOM      3  HN  UNL d   1       0.959  -3.382  -0.008  1.00  0.00     0.194 HD
ENDROOT
BRANCH   1   4
ATOM      4  C   UNL d   1       0.844  -0.791  -0.005  0.00  0.00     0.084 A 
ATOM      5  N   UNL d   1       0.978   0.550  -0.005  0.00  0.00    -0.297 N 
ATOM      6  N   UNL d   1      -0.287   1.012  -0.001  0.00  0.00    -0.306 N 
ATOM      7  HN  UNL d   1       1.842   1.092  -0.008  1.00  0.00     0.187 HD
ATOM      8  C   UNL d   1      -0.548   2.432   0.001  0.00  0.00     0.177 C 
ATOM      9  C   UNL d   1      -1.230   0.030   0.003  0.00  0.00     0.131 A 
ATOM     10  C   UNL d   1      -0.530  -1.145   0.000  0.00  0.00     0.057 A 
ATOM     11 BR   UNL d   1      -1.302  -2.853   0.004  0.00  0.00    -0.047 Br
ENDBRANCH   1   4
BRANCH   2  12
ATOM     12  O   UNL d   1       3.113  -3.583  -0.014  0.00  0.00    -0.181 OA
BRANCH  12  13
ATOM     13  C   UNL d   1       2.925  -4.958  -0.012  0.00  0.00     0.382 C 
ATOM     14  O   UNL d   1       3.866  -5.743  -0.015  0.00  0.00    -0.236 OA
ATOM     15  N   UNL d   1       1.605  -5.327  -0.007  0.00  0.00    -0.340 N 
ATOM     16  C   UNL d   1       1.109  -6.668  -0.007  0.00  0.00     0.151 C 
ATOM     17  H   UNL d   1       0.974  -4.532  -0.006  0.00  0.00     0.164 HD
ENDBRANCH  12  13
ENDBRANCH   2  12
TORSDOF 3
