REMARK  2 active torsions:
REMARK  status: ('A' for Active; 'I' for Inactive)
REMARK    1  A    between atoms: N_11  and  C_3 
REMARK    2  A    between atoms: C_13  and  N_11 
ROOT
ATOM      1  C   UNL d   1       1.185  -0.856  -0.051  0.00  0.00     0.091 A 
ATOM      2  C   UNL d   1       0.718   0.431  -0.032  0.00  0.00     0.049 A 
ATOM      3  C   UNL d   1       1.752   1.461   0.021  0.00  0.00     0.121 A 
ATOM      4  N   UNL d   1       3.008   1.123  -0.014  0.00  0.00    -0.318 N 
ATOM      5  HN  UNL d   1       3.713   1.860  -0.006  1.00  0.00     0.170 HD
ATOM      6  N   UNL d   1       2.499  -1.195  -0.063  0.00  0.00    -0.327 N 
ATOM      7  C   UNL d   1       3.424  -0.184  -0.061  0.00  0.00     0.178 A 
ATOM      8  S   UNL d   1       0.034  -2.066  -0.046  0.00  0.00    -0.075 SA
ATOM      9  C   UNL d   1      -0.727   0.413  -0.050  0.00  0.00    -0.028 A 
ATOM     10  C   UNL d   1      -1.206  -0.895  -0.024  0.00  0.00    -0.008 A 
ATOM     11  S   UNL d   1       5.048  -0.619  -0.089  0.00  0.00    -0.040 SA
ATOM     12  C   UNL d   1      -1.686   1.572  -0.052  0.00  0.00     0.041 C 
ATOM     13  C   UNL d   1      -2.647  -1.304  -0.014  0.00  0.00     0.047 C 
ATOM     14  C   UNL d   1      -3.128   1.150  -0.377  0.00  0.00     0.005 C 
ATOM     15  C   UNL d   1      -3.536  -0.119   0.379  0.00  0.00     0.005 C 
ATOM     16  H   UNL d   1       2.798  -2.162  -0.081  0.00  0.00     0.169 HD
ENDROOT
BRANCH   3  17
ATOM     17  N   UNL d   1       1.308   2.756   0.115  0.00  0.00    -0.342 N 
ATOM     18  H   UNL d   1       0.333   2.969   0.011  0.00  0.00     0.167 HD
BRANCH  17  19
ATOM     19  C   UNL d   1       2.057   3.824   0.650  0.00  0.00     0.033 A 
ATOM     20  C   UNL d   1       1.851   5.125   0.171  0.00  0.00     0.029 A 
ATOM     21  C   UNL d   1       2.637   6.187   0.629  0.00  0.00     0.002 A 
ATOM     22  C   UNL d   1       3.632   5.963   1.579  0.00  0.00     0.000 A 
ATOM     23  C   UNL d   1       3.841   4.680   2.072  0.00  0.00     0.002 A 
ATOM     24  C   UNL d   1       3.064   3.622   1.603  0.00  0.00     0.029 A 
ENDBRANCH  17  19
ENDBRANCH   3  17
TORSDOF 2
