REMARK  8 active torsions:
REMARK  status: ('A' for Active; 'I' for Inactive)
REMARK    1  A    between atoms: C_6  and  C_1 
REMARK    2  A    between atoms: C_5  and  C_19 
REMARK    3  A    between atoms: O_18  and  C_6 
REMARK    4  A    between atoms: C_23  and  C_14 
REMARK    5  A    between atoms: N_24  and  C_14 
REMARK    6  A    between atoms: N_15  and  O_18 
REMARK    7  A    between atoms: O_25  and  C_23 
REMARK    8  A    between atoms: C_26  and  O_25 
ROOT
ATOM      1  C   UNL d   1      -3.567   3.160   0.073  0.00  0.00     0.100 C 
ATOM      2  N   UNL d   1      -2.387   2.633  -0.048  0.00  0.00    -0.248 N 
ATOM      3  HN  UNL d   1      -1.527   3.171  -0.160  1.00  0.00     0.196 HD
ENDROOT
BRANCH   1   4
ATOM      4  C   UNL d   1      -3.672   4.694   0.081  0.00  0.00     0.247 C 
BRANCH   4   5
ATOM      5  O   UNL d   1      -4.849   5.037  -0.652  0.00  0.00    -0.344 OA
BRANCH   5   6
ATOM      6  C   UNL d   1      -5.198   6.357  -0.706  0.00  0.00     0.069 A 
ATOM      7  C   UNL d   1      -6.145   6.665  -1.686  0.00  0.00     0.038 A 
ATOM      8  C   UNL d   1      -6.628   7.970  -1.832  0.00  0.00     0.018 A 
ATOM      9  C   UNL d   1      -6.182   8.996  -0.990  0.00  0.00     0.017 A 
ATOM     10  C   UNL d   1      -5.228   8.678  -0.010  0.00  0.00     0.018 A 
ATOM     11  C   UNL d   1      -4.735   7.370   0.129  0.00  0.00     0.038 A 
BRANCH   9  12
ATOM     12  C   UNL d   1      -6.695  10.357  -1.100  0.00  0.00     0.173 A 
ATOM     13  N   UNL d   1      -6.430  11.428  -0.378  0.00  0.00    -0.278 N 
ATOM     14  N   UNL d   1      -7.201  12.453  -0.894  0.00  0.00    -0.288 N 
ATOM     15  HN  UNL d   1      -5.782  11.489   0.407  1.00  0.00     0.189 HD
ATOM     16  C   UNL d   1      -7.875  11.930  -1.890  0.00  0.00     0.251 A 
ATOM     17  HN  UNL d   1      -7.238  13.418  -0.567  1.00  0.00     0.188 HD
ATOM     18  O   UNL d   1      -7.615  10.609  -2.088  0.00  0.00    -0.286 OA
ENDBRANCH   9  12
ENDBRANCH   5   6
ENDBRANCH   4   5
ENDBRANCH   1   4
BRANCH   1  19
ATOM     19  N   UNL d   1      -4.739   2.447   0.214  0.00  0.00    -0.289 NA
ATOM     20  H   UNL d   1      -4.690   1.507  -0.158  0.00  0.00     0.125 HD
ATOM     21  H   UNL d   1      -5.565   2.958  -0.090  0.00  0.00     0.125 HD
ENDBRANCH   1  19
BRANCH   2  22
ATOM     22  O   UNL d   1      -2.442   1.219  -0.006  0.00  0.00    -0.194 OA
BRANCH  22  23
ATOM     23  C   UNL d   1      -1.174   0.688  -0.126  0.00  0.00     0.319 C 
ATOM     24  O   UNL d   1      -0.146   1.337  -0.287  0.00  0.00    -0.257 OA
BRANCH  23  25
ATOM     25  C   UNL d   1      -1.158  -0.763  -0.051  0.00  0.00     0.096 A 
ATOM     26  C   UNL d   1      -2.206  -1.639   0.160  0.00  0.00     0.090 A 
ATOM     27  O   UNL d   1      -1.738  -2.915   0.153  0.00  0.00    -0.242 OA
ATOM     28  C   UNL d   1      -3.658  -1.505   0.386  0.00  0.00     0.080 C 
ATOM     29  N   UNL d   1      -0.377  -2.912  -0.058  0.00  0.00    -0.265 N 
ATOM     30  C   UNL d   1      -0.029  -1.625  -0.176  0.00  0.00     0.047 A 
ATOM     31  HN  UNL d   1       0.239  -3.723  -0.112  1.00  0.00     0.194 HD
ATOM     32  C   UNL d   1       1.391  -1.265  -0.411  0.00  0.00     0.071 C 
ENDBRANCH  23  25
ENDBRANCH  22  23
ENDBRANCH   2  22
TORSDOF 8
