REMARK  6 active torsions:
REMARK  status: ('A' for Active; 'I' for Inactive)
REMARK    1  A    between atoms: N_19  and  C_8 
REMARK    2  A    between atoms: S_17  and  C_11 
REMARK    3  A    between atoms: N_12  and  C_14 
REMARK    4  A    between atoms: C_23  and  S_17 
REMARK    5  A    between atoms: C_28  and  N_19 
REMARK    6  A    between atoms: C_24  and  C_23 
ROOT
ATOM      1  C   UNL d   1       1.310  -0.780  -0.018  0.00  0.00     0.090 A 
ATOM      2  C   UNL d   1       0.776   0.499  -0.050  0.00  0.00     0.043 A 
ATOM      3  C   UNL d   1      -1.133  -0.871  -0.044  0.00  0.00    -0.008 A 
ATOM      4  N   UNL d   1       2.606  -1.105   0.012  0.00  0.00    -0.330 N 
ATOM      5  HN  UNL d   1       2.940  -2.069   0.029  1.00  0.00     0.168 HD
ATOM      6  N   UNL d   1       3.046   1.244   0.031  0.00  0.00    -0.327 N 
ATOM      7  HN  UNL d   1       3.748   1.983   0.077  1.00  0.00     0.169 HD
ATOM      8  C   UNL d   1       1.723   1.554  -0.016  0.00  0.00     0.095 A 
ATOM      9  C   UNL d   1      -0.677   0.436  -0.099  0.00  0.00    -0.029 A 
ATOM     10  S   UNL d   1       0.127  -2.005  -0.027  0.00  0.00    -0.075 SA
ATOM     11  C   UNL d   1       3.420  -0.049   0.017  0.00  0.00     0.146 A 
ATOM     12  C   UNL d   1      -1.645   1.591  -0.121  0.00  0.00     0.041 C 
ATOM     13  C   UNL d   1      -2.572  -1.295  -0.007  0.00  0.00     0.051 C 
ATOM     14  C   UNL d   1      -3.101   1.150  -0.339  0.00  0.00     0.009 C 
ATOM     15  C   UNL d   1      -3.472  -0.124   0.444  0.00  0.00    -0.014 C 
ATOM     16  C   UNL d   1      -3.398   0.095   1.960  0.00  0.00     0.010 C 
ENDROOT
BRANCH  11  17
ATOM     17  S   UNL d   1       5.141  -0.475  -0.162  0.00  0.00    -0.089 SA
BRANCH  17  18
ATOM     18  C   UNL d   1       5.951   0.833   0.798  0.00  0.00     0.121 C 
BRANCH  18  19
ATOM     19  C   UNL d   1       7.447   0.572   0.884  0.00  0.00    -0.048 A 
ATOM     20  C   UNL d   1       8.307   1.019  -0.133  0.00  0.00     0.010 A 
ATOM     21  C   UNL d   1       9.681   0.750  -0.083  0.00  0.00     0.036 A 
ATOM     22  C   UNL d   1      10.202   0.019   0.992  0.00  0.00     0.102 A 
ATOM     23  C   UNL d   1       9.360  -0.443   2.010  0.00  0.00     0.036 A 
ATOM     24  C   UNL d   1       7.989  -0.170   1.950  0.00  0.00     0.010 A 
BRANCH  22  25
ATOM     25  N   UNL d   1      11.644  -0.264   1.046  0.00  0.00    -0.116 N 
ATOM     26  O   UNL d   1      12.352   0.158   0.125  0.00  0.00    -0.532 OA
ATOM     27  O   UNL d   1      12.069  -0.907   2.022  0.00  0.00    -0.532 OA
ENDBRANCH  22  25
ENDBRANCH  18  19
ENDBRANCH  17  18
ENDBRANCH  11  17
BRANCH   8  28
ATOM     28  N   UNL d   1       1.315   2.885  -0.082  0.00  0.00    -0.278 NA
ATOM     29  H   UNL d   1       0.325   2.991   0.078  0.00  0.00     0.129 HD
BRANCH  28  30
ATOM     30  C   UNL d   1       2.108   3.889   0.603  0.00  0.00     0.089 C 
ATOM     31  C   UNL d   1       1.384   5.226   0.478  0.00  0.00     0.021 C 
ENDBRANCH  28  30
ENDBRANCH   8  28
TORSDOF 6
