REMARK  3 active torsions:
REMARK  status: ('A' for Active; 'I' for Inactive)
REMARK       I    between atoms: N_2  and  C_1 
REMARK       I    between atoms: N_3  and  C_1 
REMARK    1  A    between atoms: C_9  and  N_2 
REMARK    2  A    between atoms: C_10  and  N_3 
REMARK    3  A    between atoms: N_6  and  C_4 
ROOT
ATOM      1  C   UNL d   1      -1.047   0.289   1.227  0.00  0.00     0.325 C 
ATOM      2  N   UNL d   1       0.174   0.935   1.114  0.00  0.00    -0.309 N 
ATOM      3  N   UNL d   1      -1.459  -0.221   0.003  0.00  0.00    -0.309 N 
ATOM      4  O   UNL d   1      -1.692   0.193   2.264  0.00  0.00    -0.247 OA
ATOM      5  H   UNL d   1       0.540   1.060   0.183  0.00  0.00     0.170 HD
ATOM      6  H   UNL d   1      -0.753  -0.311  -0.712  0.00  0.00     0.170 HD
ENDROOT
BRANCH   2   7
ATOM      7  C   UNL d   1       0.876   1.595   2.150  0.00  0.00     0.036 A 
ATOM      8  C   UNL d   1       0.497   1.563   3.489  0.00  0.00     0.032 A 
ATOM      9  C   UNL d   1       1.226   2.263   4.464  0.00  0.00     0.031 A 
ATOM     10  C   UNL d   1       2.363   3.018   4.149  0.00  0.00     0.029 A 
ATOM     11  C   UNL d   1       2.745   3.012   2.798  0.00  0.00     0.031 A 
ATOM     12  C   UNL d   1       2.018   2.321   1.813  0.00  0.00     0.032 A 
BRANCH  10  13
ATOM     13  N   UNL d   1       3.128   3.675   5.117  0.00  0.00    -0.390 N 
ATOM     14  C   UNL d   1       3.599   5.029   4.814  0.00  0.00     0.149 C 
ATOM     15  C   UNL d   1       2.817   3.462   6.531  0.00  0.00     0.149 C 
ENDBRANCH  10  13
ENDBRANCH   2   7
BRANCH   3  16
ATOM     16  C   UNL d   1      -2.726  -0.775  -0.294  0.00  0.00     0.036 A 
ATOM     17  C   UNL d   1      -3.817  -0.726   0.580  0.00  0.00     0.029 A 
ATOM     18  C   UNL d   1      -5.050  -1.276   0.217  0.00  0.00     0.002 A 
ATOM     19  C   UNL d   1      -5.209  -1.876  -1.028  0.00  0.00     0.000 A 
ATOM     20  C   UNL d   1      -4.133  -1.925  -1.911  0.00  0.00     0.002 A 
ATOM     21  C   UNL d   1      -2.898  -1.376  -1.547  0.00  0.00     0.029 A 
ENDBRANCH   3  16
TORSDOF 3
