REMARK  6 active torsions:
REMARK  status: ('A' for Active; 'I' for Inactive)
REMARK    1  A    between atoms: C_3  and  C_1 
REMARK    2  A    between atoms: S_4  and  C_2 
REMARK    3  A    between atoms: O_11  and  C_3 
REMARK    4  A    between atoms: C_10  and  S_4 
REMARK    5  A    between atoms: C_7  and  C_10 
REMARK    6  A    between atoms: O_12  and  C_7 
ROOT
ATOM      1  C   UNL d   1       0.805   1.343   0.114  0.00  0.00     0.073 A 
ATOM      2  C   UNL d   1      -0.595   1.300   0.103  0.00  0.00     0.086 A 
ATOM      3  N   UNL d   1      -1.276   0.116   0.026  0.00  0.00    -0.360 N 
ATOM      4  HN  UNL d   1      -2.295   0.106   0.001  1.00  0.00     0.166 HD
ATOM      5  C   UNL d   1       1.488   0.111   0.061  0.00  0.00     0.022 A 
ATOM      6  C   UNL d   1      -0.579  -1.038  -0.015  0.00  0.00     0.089 A 
ATOM      7  C   UNL d   1       0.795  -1.094  -0.002  0.00  0.00     0.018 A 
ENDROOT
BRANCH   2   8
ATOM      8  S   UNL d   1      -1.677   2.724   0.109  0.00  0.00    -0.101 SA
BRANCH   8   9
ATOM      9  C   UNL d   1      -3.231   1.991   0.720  0.00  0.00     0.191 C 
BRANCH   9  10
ATOM     10  C   UNL d   1      -3.160   1.579   2.177  0.00  0.00     0.268 C 
ATOM     11  O   UNL d   1      -2.195   1.660   2.925  0.00  0.00    -0.264 OA
BRANCH  10  12
ATOM     12  O   UNL d   1      -4.396   1.125   2.562  0.00  0.00    -0.326 OA
ATOM     13  C   UNL d   1      -4.490   0.774   3.944  0.00  0.00     0.213 C 
ENDBRANCH  10  12
ENDBRANCH   9  10
ENDBRANCH   8   9
ENDBRANCH   2   8
BRANCH   1  14
ATOM     14  C   UNL d   1       1.694   2.539   0.180  0.00  0.00     0.295 C 
ATOM     15  O   UNL d   1       2.913   2.427   0.214  0.00  0.00    -0.259 OA
BRANCH  14  16
ATOM     16  O   UNL d   1       1.046   3.722   0.196  0.00  0.00    -0.322 OA
ATOM     17  C   UNL d   1       1.907   4.859   0.292  0.00  0.00     0.213 C 
ENDBRANCH  14  16
ENDBRANCH   1  14
TORSDOF 6
