REMARK  2 active torsions:
REMARK  status: ('A' for Active; 'I' for Inactive)
REMARK    1  A    between atoms: C_8  and  C_1 
REMARK    2  A    between atoms: O_12  and  C_6 
ROOT
ATOM      1  C   UNL d   1      -0.659   1.129   0.060  0.00  0.00     0.117 A 
ATOM      2  N   UNL d   1      -0.970   0.229   1.013  0.00  0.00    -0.323 N 
ATOM      3  HN  UNL d   1      -1.676   0.410   1.726  1.00  0.00     0.169 HD
ATOM      4  N   UNL d   1       0.269   0.930  -0.902  0.00  0.00    -0.345 N 
ATOM      5  HN  UNL d   1       0.465   1.644  -1.604  1.00  0.00     0.167 HD
ATOM      6  C   UNL d   1      -0.286  -0.915   0.956  0.00  0.00     0.143 A 
ATOM      7  C   UNL d   1       0.675  -1.227   0.036  0.00  0.00     0.080 A 
ATOM      8  C   UNL d   1       0.928  -0.249  -0.898  0.00  0.00     0.011 A 
ATOM      9  C   UNL d   1       1.961  -0.450  -1.964  0.00  0.00     0.068 C 
ENDROOT
BRANCH   1  10
ATOM     10  C   UNL d   1      -1.419   2.396   0.041  0.00  0.00     0.008 A 
ATOM     11  C   UNL d   1      -2.399   2.675   1.013  0.00  0.00     0.016 A 
ATOM     12  C   UNL d   1      -3.178   3.836   0.958  0.00  0.00     0.007 A 
ATOM     13  C   UNL d   1      -2.999   4.760  -0.073  0.00  0.00    -0.062 A 
ATOM     14  C   UNL d   1      -1.998   4.529  -1.020  0.00  0.00     0.007 A 
ATOM     15  C   UNL d   1      -3.902   5.952  -0.174  0.00  0.00     0.048 C 
ATOM     16  C   UNL d   1      -1.221   3.365  -0.960  0.00  0.00     0.016 A 
ENDBRANCH   1  10
BRANCH   6  17
ATOM     17  O   UNL d   1      -0.626  -1.809   1.920  0.00  0.00    -0.346 OA
ATOM     18  H   UNL d   1      -1.323  -1.311   2.384  0.00  0.00     0.219 HD
ENDBRANCH   6  17
TORSDOF 2
