REMARK  2 active torsions:
REMARK  status: ('A' for Active; 'I' for Inactive)
REMARK    1  A    between atoms: C_8  and  C_4 
REMARK    2  A    between atoms: S_9  and  C_5 
ROOT
ATOM      1  O   UNL d   1       0.895  -0.808  -0.944  0.00  0.00    -0.268 OA
ATOM      2  N   UNL d   1       1.564   0.477   0.758  0.00  0.00    -0.277 N 
ATOM      3  HN  UNL d   1       2.125   0.853   1.523  1.00  0.00     0.189 HD
ATOM      4  C   UNL d   1       1.863  -0.554  -0.007  0.00  0.00     0.175 A 
ATOM      5  C   UNL d   1      -0.025   0.169  -0.673  0.00  0.00     0.201 A 
ATOM      6  N   UNL d   1       0.342   0.948   0.322  0.00  0.00    -0.272 N 
ATOM      7  HN  UNL d   1      -0.175   1.743   0.697  1.00  0.00     0.189 HD
ENDROOT
BRANCH   4   8
ATOM      8  C   UNL d   1       3.019  -1.440   0.027  0.00  0.00     0.017 A 
ATOM      9  C   UNL d   1       3.958  -1.312   1.062  0.00  0.00     0.016 A 
ATOM     10  C   UNL d   1       5.069  -2.156   1.130  0.00  0.00     0.001 A 
ATOM     11  C   UNL d   1       5.257  -3.138   0.159  0.00  0.00     0.000 A 
ATOM     12  C   UNL d   1       4.338  -3.274  -0.879  0.00  0.00     0.001 A 
ATOM     13  C   UNL d   1       3.225  -2.431  -0.945  0.00  0.00     0.016 A 
ENDBRANCH   4   8
BRANCH   5  14
ATOM     14  S   UNL d   1      -1.511   0.330  -1.548  0.00  0.00    -0.098 SA
ATOM     15  H   UNL d   1      -1.377  -0.776  -2.290  0.00  0.00     0.110 HD
ENDBRANCH   5  14
TORSDOF 2
