REMARK  2 active torsions:
REMARK  status: ('A' for Active; 'I' for Inactive)
REMARK    1  A    between atoms: C_6  and  CA_1 
REMARK    2  A    between atoms: OXT_11  and  C_6 
ROOT
ATOM      1  CA  UNL d   1      -2.872   0.511  -0.002  0.00  0.00     0.107 A 
ATOM      2  N   UNL d   1      -2.278  -0.736  -0.009  0.00  0.00    -0.350 N 
ATOM      3  C   UNL d   1      -1.837   1.432   0.007  0.00  0.00     0.050 A 
ATOM      4  C   UNL d   1      -0.601   0.723   0.006  0.00  0.00    -0.004 A 
ATOM      5  C   UNL d   1      -0.908  -0.636   0.001  0.00  0.00     0.043 A 
ATOM      6  C   UNL d   1       0.750   1.115   0.011  0.00  0.00     0.056 A 
ATOM      7  C   UNL d   1       0.073  -1.637   0.005  0.00  0.00     0.033 A 
ATOM      8  C   UNL d   1       1.732   0.126   0.013  0.00  0.00     0.117 A 
ATOM      9  C   UNL d   1       1.409  -1.226   0.011  0.00  0.00     0.044 A 
ATOM     10  F   UNL d   1       3.022   0.489   0.017  0.00  0.00    -0.206 F 
ATOM     11  H   UNL d   1      -2.800  -1.603  -0.018  0.00  0.00     0.166 HD
ENDROOT
BRANCH   1  12
ATOM     12  C   UNL d   1      -4.311   0.633  -0.005  0.00  0.00     0.193 C 
ATOM     13  O   UNL d   1      -5.079  -0.317  -0.018  0.00  0.00    -0.645 OA
BRANCH  12  14
ATOM     14  OXT UNL d   1      -4.742   1.914   0.009  0.00  0.00    -0.772 OA
ATOM     15  HXT UNL d   1      -4.027   2.570   0.021  0.00  0.00     0.167 HD
ENDBRANCH  12  14
ENDBRANCH   1  12
TORSDOF 2
