REMARK  6 active torsions:
REMARK  status: ('A' for Active; 'I' for Inactive)
REMARK    1  A    between atoms: C_12  and  C_5 
REMARK    2  A    between atoms: S_13  and  C_6 
REMARK    3  A    between atoms: O_17  and  C_12 
REMARK    4  A    between atoms: C_14  and  S_13 
REMARK    5  A    between atoms: C_25  and  O_17 
REMARK    6  A    between atoms: O_21  and  C_18 
ROOT
ATOM      1  C   UNL d   1       1.591  -0.897  -0.024  0.00  0.00     0.146 A 
ATOM      2  N   UNL d   1       0.937  -2.096  -0.021  0.00  0.00    -0.334 N 
ATOM      3  HN  UNL d   1       1.451  -2.975  -0.072  1.00  0.00     0.168 HD
ATOM      4  N   UNL d   1       0.916   0.308  -0.046  0.00  0.00    -0.238 N 
ATOM      5  C   UNL d   1       2.933  -0.567  -0.031  0.00  0.00     0.102 A 
ATOM      6  C   UNL d   1      -0.358  -2.082   0.050  0.00  0.00     0.089 A 
ATOM      7  N   UNL d   1       1.731   1.384  -0.083  0.00  0.00    -0.302 N 
ATOM      8  HN  UNL d   1       1.475   2.370  -0.121  1.00  0.00     0.186 HD
ATOM      9  C   UNL d   1      -1.175  -0.830   0.135  0.00  0.00     0.027 A 
ATOM     10  C   UNL d   1      -0.481   0.385   0.009  0.00  0.00     0.071 A 
ATOM     11  C   UNL d   1       2.952   0.846  -0.056  0.00  0.00     0.129 A 
ATOM     12  C   UNL d   1      -2.557  -0.789   0.331  0.00  0.00     0.017 A 
ATOM     13  C   UNL d   1      -1.142   1.616  -0.015  0.00  0.00     0.032 A 
ATOM     14  C   UNL d   1      -3.225   0.443   0.337  0.00  0.00     0.001 A 
ATOM     15  C   UNL d   1      -2.524   1.637   0.138  0.00  0.00     0.002 A 
ENDROOT
BRANCH   6  16
ATOM     16  S   UNL d   1      -1.153  -3.648   0.015  0.00  0.00    -0.072 SA
BRANCH  16  17
ATOM     17  C   UNL d   1      -1.568  -3.853  -1.715  0.00  0.00     0.009 A 
ATOM     18  C   UNL d   1      -0.818  -3.295  -2.761  0.00  0.00     0.055 A 
ATOM     19  C   UNL d   1      -1.248  -3.418  -4.087  0.00  0.00     0.069 A 
ATOM     20  C   UNL d   1      -2.399  -4.156  -4.371  0.00  0.00     0.037 A 
ATOM     21  C   UNL d   1      -3.117  -4.768  -3.347  0.00  0.00     0.004 A 
ATOM     22  C   UNL d   1      -2.703  -4.614  -2.024  0.00  0.00     0.019 A 
BRANCH  19  23
ATOM     23  O   UNL d   1      -0.646  -2.865  -5.184  0.00  0.00    -0.356 OA
ATOM     24  C   UNL d   1       0.472  -2.017  -4.954  0.00  0.00     0.210 C 
ENDBRANCH  19  23
ENDBRANCH  16  17
ENDBRANCH   6  16
BRANCH   5  25
ATOM     25  C   UNL d   1       4.077  -1.447  -0.076  0.00  0.00     0.298 C 
ATOM     26  O   UNL d   1       5.223  -1.034  -0.191  0.00  0.00    -0.259 OA
BRANCH  25  27
ATOM     27  O   UNL d   1       3.726  -2.764  -0.085  0.00  0.00    -0.318 OA
BRANCH  27  28
ATOM     28  C   UNL d   1       4.682  -3.659  -0.662  0.00  0.00     0.174 C 
ATOM     29  C   UNL d   1       4.485  -3.649  -2.168  0.00  0.00     0.034 C 
ENDBRANCH  27  28
ENDBRANCH  25  27
ENDBRANCH   5  25
TORSDOF 6
