REMARK  7 active torsions:
REMARK  status: ('A' for Active; 'I' for Inactive)
REMARK    1  A    between atoms: C_3  and  C_1 
REMARK    2  A    between atoms: C_4  and  C_1 
REMARK    3  A    between atoms: C_8  and  C_2 
REMARK    4  A    between atoms: O_11  and  C_3 
REMARK    5  A    between atoms: N_5  and  C_4 
REMARK    6  A    between atoms: O_12  and  C_10 
REMARK    7  A    between atoms: C_15  and  O_11 
ROOT
ATOM      1  C   UNL d   1       0.923   0.058  -0.028  0.00  0.00     0.102 C 
ATOM      2  C   UNL d   1       0.229   1.204  -0.152  0.00  0.00     0.042 C 
ENDROOT
BRANCH   1   3
ATOM      3  C   UNL d   1       0.198  -1.214   0.158  0.00  0.00     0.302 C 
ATOM      4  O   UNL d   1      -1.021  -1.307   0.208  0.00  0.00    -0.259 OA
BRANCH   3   5
ATOM      5  O   UNL d   1       1.081  -2.220   0.356  0.00  0.00    -0.317 OA
BRANCH   5   6
ATOM      6  C   UNL d   1       0.544  -3.415   0.941  0.00  0.00     0.174 C 
ATOM      7  C   UNL d   1       0.563  -3.247   2.449  0.00  0.00     0.034 C 
ENDBRANCH   5   6
ENDBRANCH   3   5
ENDBRANCH   1   3
BRANCH   1   8
ATOM      8  C   UNL d   1       2.443   0.058  -0.028  0.00  0.00    -0.031 C 
BRANCH   8   9
ATOM      9  N   UNL d   1       3.704   0.058  -0.028  0.00  0.00    -0.365 N 
ATOM     10  HN2 UNL d   1       2.684   0.058  -0.028  1.00  0.00     0.165 HD
ATOM     11  HN1 UNL d   1       4.724   0.058  -0.028  1.00  0.00     0.165 HD
ENDBRANCH   8   9
ENDBRANCH   1   8
BRANCH   2  12
ATOM     12  C   UNL d   1       0.876   2.522  -0.248  0.00  0.00    -0.001 A 
ATOM     13  C   UNL d   1       1.310   3.119  -1.443  0.00  0.00     0.078 A 
ATOM     14  C   UNL d   1       2.054   4.308  -1.384  0.00  0.00     0.037 A 
ATOM     15  C   UNL d   1       2.351   4.913  -0.163  0.00  0.00     0.003 A 
ATOM     16  C   UNL d   1       1.910   4.332   1.020  0.00  0.00     0.001 A 
ATOM     17  C   UNL d   1       1.177   3.146   0.977  0.00  0.00     0.014 A 
BRANCH  13  18
ATOM     18  O   UNL d   1       1.177   2.634  -2.716  0.00  0.00    -0.355 OA
ATOM     19  C   UNL d   1      -0.020   1.941  -3.039  0.00  0.00     0.210 C 
ENDBRANCH  13  18
ENDBRANCH   2  12
TORSDOF 7
