REMARK  4 active torsions:
REMARK  status: ('A' for Active; 'I' for Inactive)
REMARK    1  A    between atoms: N_2  and  S_1 
REMARK    2  A    between atoms: C_7  and  S_1 
REMARK    3  A    between atoms: C_3  and  C_4 
REMARK       I    between atoms: C_4  and  N_6 
REMARK       I    between atoms: C_15  and  N_19 
REMARK    4  A    between atoms: N_19  and  C_24 
ROOT
ATOM      1  N   UNL d   1       1.224  -0.430   0.340  0.00  0.00    -0.304 N 
ATOM      2  C   UNL d   1       2.531  -3.291   2.769  0.00  0.00     0.251 C 
ATOM      3  N   UNL d   1       2.661  -2.567   1.594  0.00  0.00    -0.347 N 
ATOM      4  C   UNL d   1       2.007  -0.182   1.586  0.00  0.00     0.155 C 
ATOM      5  C   UNL d   1       0.787  -1.834   0.164  0.00  0.00     0.155 C 
ATOM      6  C   UNL d   1       1.956  -2.819   0.335  0.00  0.00     0.146 C 
ATOM      7  C   UNL d   1       3.166  -1.184   1.686  0.00  0.00     0.146 C 
ATOM      8  O   UNL d   1       2.777  -2.737   3.852  0.00  0.00    -0.270 OA
ENDROOT
BRANCH   1   9
ATOM      9  S   UNL d   1       1.549   0.540  -1.005  0.00  0.00     0.260 S 
ATOM     10  O   UNL d   1       0.901  -0.027  -2.177  0.00  0.00    -0.200 OA
ATOM     11  O   UNL d   1       2.946   0.879  -0.991  0.00  0.00    -0.200 OA
BRANCH   9  12
ATOM     12  C   UNL d   1       0.616   1.991  -0.565  0.00  0.00     0.079 A 
ATOM     13  C   UNL d   1       1.240   3.236  -0.440  0.00  0.00     0.027 A 
ATOM     14  C   UNL d   1       0.503   4.316   0.061  0.00  0.00     0.031 A 
ATOM     15  C   UNL d   1      -0.838   4.155   0.451  0.00  0.00     0.034 A 
ATOM     16  C   UNL d   1      -1.452   2.914   0.264  0.00  0.00     0.031 A 
ATOM     17  C   UNL d   1      -0.732   1.837  -0.246  0.00  0.00     0.027 A 
BRANCH  15  18
ATOM     18  N   UNL d   1      -1.480   5.255   1.058  0.00  0.00    -0.328 N 
ATOM     19  C   UNL d   1      -2.738   5.266   1.637  0.00  0.00     0.218 C 
ATOM     20  O   UNL d   1      -3.547   4.344   1.654  0.00  0.00    -0.274 OA
ATOM     21  C   UNL d   1      -3.070   6.567   2.326  0.00  0.00     0.117 C 
ATOM     22  H   UNL d   1      -0.927   6.100   1.143  0.00  0.00     0.169 HD
ENDBRANCH  15  18
ENDBRANCH   9  12
ENDBRANCH   1   9
BRANCH   2  23
ATOM     23  C   UNL d   1       2.169  -4.826   2.806  0.00  0.00     0.245 C 
ATOM     24  O   UNL d   1       1.848  -5.665   1.700  0.00  0.00    -0.331 OA
ATOM     25  C   UNL d   1       2.965  -5.935   0.943  0.00  0.00     0.103 C 
ATOM     26  C   UNL d   1       2.766  -6.444  -0.335  0.00  0.00     0.040 C 
ATOM     27  C   UNL d   1       4.236  -5.543   1.364  0.00  0.00     0.102 C 
ATOM     28  C   UNL d   1       3.785  -6.304  -1.273  0.00  0.00     0.003 C 
ATOM     29  C   UNL d   1       4.973  -5.656  -0.919  0.00  0.00     0.003 C 
ATOM     30  C   UNL d   1       5.219  -5.317   0.413  0.00  0.00     0.039 C 
ATOM     31  O   UNL d   1       4.530  -5.296   2.682  0.00  0.00    -0.345 OA
ATOM     32  C   UNL d   1       3.362  -5.488   3.509  0.00  0.00     0.218 C 
ENDBRANCH   2  23
TORSDOF 4
