REMARK  4 active torsions:
REMARK  status: ('A' for Active; 'I' for Inactive)
REMARK    1  A    between atoms: N_2  and  C_1 
REMARK       I    between atoms: C_5  and  N_2 
REMARK    2  A    between atoms: C_10  and  N_2 
REMARK    3  A    between atoms: C_9  and  C_5 
REMARK    4  A    between atoms: C_14  and  C_10 
ROOT
ATOM      1  N   UNL d   1      -2.768  -1.400   0.030  0.00  0.00    -0.294 N 
ATOM      2  C   UNL d   1      -3.925  -0.624  -0.118  0.00  0.00     0.259 C 
ATOM      3  O   UNL d   1      -3.938   0.592  -0.322  0.00  0.00    -0.267 OA
ENDROOT
BRANCH   1   4
ATOM      4  C   UNL d   1      -1.507  -0.769  -0.054  0.00  0.00     0.133 A 
ATOM      5  N   UNL d   1      -0.405  -1.306   0.495  0.00  0.00    -0.245 N 
ATOM      6  O   UNL d   1       0.646  -0.481   0.165  0.00  0.00    -0.241 OA
ATOM      7  HN  UNL d   1      -0.357  -2.160   1.050  1.00  0.00     0.196 HD
ATOM      8  C   UNL d   1       0.199   0.519  -0.633  0.00  0.00     0.076 A 
ATOM      9  C   UNL d   1      -1.162   0.409  -0.767  0.00  0.00     0.085 A 
ATOM     10  C   UNL d   1       1.216   1.429  -1.186  0.00  0.00     0.079 C 
ENDBRANCH   1   4
BRANCH   1  11
ATOM     11  C   UNL d   1      -2.766  -2.867   0.184  0.00  0.00     0.172 C 
BRANCH  11  12
ATOM     12  C   UNL d   1      -2.478  -3.597  -1.127  0.00  0.00    -0.040 A 
ATOM     13  C   UNL d   1      -2.545  -2.968  -2.385  0.00  0.00     0.010 A 
ATOM     14  C   UNL d   1      -2.292  -3.667  -3.565  0.00  0.00     0.024 A 
ATOM     15  C   UNL d   1      -1.964  -5.019  -3.505  0.00  0.00     0.034 A 
ATOM     16  C   UNL d   1      -1.892  -5.666  -2.272  0.00  0.00     0.024 A 
ATOM     17 CL   UNL d   1      -1.652  -5.887  -4.955  0.00  0.00    -0.084 Cl
ATOM     18  C   UNL d   1      -2.150  -4.963  -1.092  0.00  0.00     0.010 A 
ENDBRANCH  11  12
ENDBRANCH   1  11
BRANCH   2  19
ATOM     19  C   UNL d   1      -5.270  -1.232   0.065  0.00  0.00     0.032 A 
ATOM     20  C   UNL d   1      -6.113  -0.654   1.028  0.00  0.00     0.018 A 
ATOM     21  C   UNL d   1      -7.413  -1.135   1.209  0.00  0.00     0.025 A 
ATOM     22  C   UNL d   1      -7.872  -2.194   0.427  0.00  0.00     0.034 A 
ATOM     23  C   UNL d   1      -7.050  -2.761  -0.545  0.00  0.00     0.025 A 
ATOM     24 CL   UNL d   1      -9.470  -2.789   0.647  0.00  0.00    -0.084 Cl
ATOM     25  C   UNL d   1      -5.755  -2.266  -0.742  0.00  0.00     0.018 A 
ENDBRANCH   2  19
TORSDOF 4
