REMARK  4 active torsions:
REMARK  status: ('A' for Active; 'I' for Inactive)
REMARK    1  A    between atoms: S_12  and  C_1 
REMARK    2  A    between atoms: C_11  and  C_15 
REMARK       I    between atoms: N_13  and  C_11 
REMARK    3  A    between atoms: C_15  and  S_12 
REMARK    4  A    between atoms: C_18  and  N_13 
ROOT
ATOM      1  C   UNL d   1      -2.243  -0.995   1.025  0.00  0.00     0.145 A 
ATOM      2  N   UNL d   1      -1.817  -2.012   0.318  0.00  0.00    -0.335 N 
ATOM      3  HN  UNL d   1      -2.328  -2.527  -0.399  1.00  0.00     0.168 HD
ATOM      4  N   UNL d   1      -1.274  -0.491   1.842  0.00  0.00    -0.335 N 
ATOM      5  C   UNL d   1      -0.536  -2.233   0.749  0.00  0.00     0.062 A 
ATOM      6  C   UNL d   1      -0.169  -1.300   1.715  0.00  0.00     0.062 A 
ATOM      7  C   UNL d   1       0.364  -3.239   0.377  0.00  0.00     0.057 A 
ATOM      8  C   UNL d   1       1.073  -1.316   2.353  0.00  0.00     0.057 A 
ATOM      9  C   UNL d   1       1.959  -2.344   1.988  0.00  0.00     0.058 A 
ATOM     10  C   UNL d   1       1.611  -3.292   1.013  0.00  0.00     0.058 A 
ATOM     11 CL   UNL d   1       2.676  -4.577   0.558  0.00  0.00    -0.082 Cl
ATOM     12 CL   UNL d   1       3.481  -2.393   2.812  0.00  0.00    -0.082 Cl
ATOM     13  H   UNL d   1      -1.385   0.289   2.472  0.00  0.00     0.168 HD
ENDROOT
BRANCH   1  14
ATOM     14  S   UNL d   1      -3.859  -0.380   1.054  0.00  0.00    -0.085 SA
BRANCH  14  15
ATOM     15  C   UNL d   1      -4.657  -1.740   0.150  0.00  0.00     0.185 C 
BRANCH  15  16
ATOM     16  C   UNL d   1      -6.172  -1.728   0.108  0.00  0.00     0.231 C 
ATOM     17  N   UNL d   1      -6.813  -0.640   0.665  0.00  0.00    -0.327 N 
ATOM     18  H   UNL d   1      -6.216   0.103   1.007  0.00  0.00     0.169 HD
ATOM     19  O   UNL d   1      -6.739  -2.675  -0.443  0.00  0.00    -0.272 OA
BRANCH  17  20
ATOM     20  C   UNL d   1      -8.208  -0.407   0.693  0.00  0.00     0.034 A 
ATOM     21  C   UNL d   1      -9.162  -1.362   0.329  0.00  0.00     0.029 A 
ATOM     22  C   UNL d   1     -10.524  -1.047   0.317  0.00  0.00     0.002 A 
ATOM     23  C   UNL d   1     -10.947   0.229   0.676  0.00  0.00     0.000 A 
ATOM     24  C   UNL d   1     -10.011   1.179   1.072  0.00  0.00     0.002 A 
ATOM     25  C   UNL d   1      -8.648   0.860   1.090  0.00  0.00     0.029 A 
ENDBRANCH  17  20
ENDBRANCH  15  16
ENDBRANCH  14  15
ENDBRANCH   1  14
TORSDOF 4
