REMARK  3 active torsions:
REMARK  status: ('A' for Active; 'I' for Inactive)
REMARK    1  A    between atoms: N_2  and  C_1 
REMARK    2  A    between atoms: N_4  and  C_1 
REMARK    3  A    between atoms: C_8  and  N_4 
ROOT
ATOM      1  N   UNL d   1       0.406  -1.127  -0.389  0.00  0.00    -0.323 N 
ATOM      2  C   UNL d   1       0.702  -2.442   0.129  0.00  0.00     0.043 A 
ATOM      3  C   UNL d   1       0.323  -3.587  -0.596  0.00  0.00    -0.031 A 
ATOM      4  C   UNL d   1       1.377  -2.621   1.345  0.00  0.00     0.031 A 
ATOM      5  C   UNL d   1       0.729  -4.857  -0.151  0.00  0.00     0.016 A 
ATOM      6  C   UNL d   1      -0.700  -1.062  -1.354  0.00  0.00     0.132 C 
ATOM      7  C   UNL d   1       1.789  -3.886   1.772  0.00  0.00     0.009 A 
ATOM      8  C   UNL d   1       1.491  -5.013   1.011  0.00  0.00    -0.061 A 
ATOM      9  C   UNL d   1      -0.542  -3.503  -1.825  0.00  0.00     0.042 C 
ATOM     10  C   UNL d   1      -0.548  -2.114  -2.440  0.00  0.00     0.025 C 
ATOM     11  C   UNL d   1       1.970  -6.371   1.425  0.00  0.00     0.048 C 
ENDROOT
BRANCH   1  12
ATOM     12  C   UNL d   1       1.000   0.039   0.091  0.00  0.00     0.179 C 
ATOM     13  S   UNL d   1       0.155   1.448   0.456  0.00  0.00    -0.040 SA
BRANCH  12  14
ATOM     14  N   UNL d   1       2.352   0.051   0.344  0.00  0.00    -0.333 N 
ATOM     15  H   UNL d   1       2.642   0.767   1.001  0.00  0.00     0.168 HD
BRANCH  14  16
ATOM     16  C   UNL d   1       3.365  -0.779  -0.177  0.00  0.00     0.035 A 
ATOM     17  C   UNL d   1       3.267  -1.385  -1.432  0.00  0.00     0.053 A 
ATOM     18  C   UNL d   1       4.234  -2.301  -1.839  0.00  0.00     0.036 A 
ATOM     19 CL   UNL d   1       4.084  -3.072  -3.370  0.00  0.00    -0.084 Cl
ATOM     20  C   UNL d   1       5.311  -2.607  -1.012  0.00  0.00     0.024 A 
ATOM     21  C   UNL d   1       5.443  -1.960   0.217  0.00  0.00     0.004 A 
ATOM     22  C   UNL d   1       4.486  -1.027   0.622  0.00  0.00     0.029 A 
ENDBRANCH  14  16
ENDBRANCH  12  14
ENDBRANCH   1  12
TORSDOF 3
