REMARK  4 active torsions:
REMARK  status: ('A' for Active; 'I' for Inactive)
REMARK    1  A    between atoms: C_6  and  C_1 
REMARK    2  A    between atoms: O_10  and  C_3 
REMARK    3  A    between atoms: C_11  and  N_4 
REMARK    4  A    between atoms: C_12  and  C_11 
ROOT
ATOM      1  C   UNL d   1       1.012  -1.106  -0.009  0.00  0.00     0.023 A 
ATOM      2  C   UNL d   1      -0.343  -0.672   0.012  0.00  0.00    -0.012 A 
ATOM      3  C   UNL d   1       2.058  -0.161   0.000  0.00  0.00     0.078 A 
ATOM      4  C   UNL d   1      -0.591   0.730   0.015  0.00  0.00    -0.025 A 
ATOM      5  C   UNL d   1       1.790   1.201   0.013  0.00  0.00     0.038 A 
ATOM      6  C   UNL d   1       0.473   1.644   0.014  0.00  0.00     0.015 A 
ATOM      7  C   UNL d   1      -1.475  -1.525   0.011  0.00  0.00     0.013 A 
ATOM      8  C   UNL d   1      -1.905   1.222   0.009  0.00  0.00     0.012 A 
ATOM      9  C   UNL d   1      -2.778  -1.018   0.013  0.00  0.00     0.001 A 
ATOM     10  C   UNL d   1      -2.994   0.352   0.009  0.00  0.00     0.001 A 
ENDROOT
BRANCH   1  11
ATOM     11  C   UNL d   1       1.364  -2.548  -0.050  0.00  0.00     0.098 C 
ATOM     12  N   UNL d   1       2.498  -2.914  -0.567  0.00  0.00    -0.394 N 
ATOM     13  HN  UNL d   1       3.163  -2.234  -0.937  1.00  0.00     0.159 HD
BRANCH  12  14
ATOM     14  C   UNL d   1       2.776  -4.359  -0.593  0.00  0.00     0.157 C 
BRANCH  14  15
ATOM     15  C   UNL d   1       4.077  -4.660  -1.312  0.00  0.00    -0.041 A 
ATOM     16  C   UNL d   1       5.147  -5.276  -0.639  0.00  0.00     0.009 A 
ATOM     17  C   UNL d   1       6.333  -5.586  -1.312  0.00  0.00     0.001 A 
ATOM     18  C   UNL d   1       6.470  -5.285  -2.665  0.00  0.00     0.000 A 
ATOM     19  C   UNL d   1       5.423  -4.662  -3.342  0.00  0.00     0.001 A 
ATOM     20  C   UNL d   1       4.237  -4.352  -2.671  0.00  0.00     0.009 A 
ENDBRANCH  14  15
ENDBRANCH  12  14
ENDBRANCH   1  11
BRANCH   3  21
ATOM     21  O   UNL d   1       3.381  -0.508   0.022  0.00  0.00    -0.360 OA
ATOM     22  H   UNL d   1       3.431  -1.481  -0.125  0.00  0.00     0.217 HD
ENDBRANCH   3  21
TORSDOF 4
