REMARK  6 active torsions:
REMARK  status: ('A' for Active; 'I' for Inactive)
REMARK    1  A    between atoms: C_3  and  C_1 
REMARK    2  A    between atoms: O_12  and  C_3 
REMARK    3  A    between atoms: C_6  and  C_13 
REMARK    4  A    between atoms: N_7  and  O_12 
REMARK    5  A    between atoms: C_14  and  C_9 
REMARK    6  A    between atoms: N_23  and  C_9 
ROOT
ATOM      1  N   UNL d   1       5.204   1.966   0.383  0.00  0.00    -0.246 N 
ATOM      2  HN  UNL d   1       6.106   2.389   0.600  1.00  0.00     0.196 HD
ATOM      3  C   UNL d   1       5.048   0.712   0.082  0.00  0.00     0.109 C 
ENDROOT
BRANCH   3   4
ATOM      4  C   UNL d   1       6.279  -0.144   0.037  0.00  0.00     0.004 A 
ATOM      5  C   UNL d   1       7.389   0.188   0.823  0.00  0.00     0.015 A 
ATOM      6  C   UNL d   1       8.539  -0.609   0.793  0.00  0.00     0.017 A 
ATOM      7  C   UNL d   1       8.600  -1.741  -0.033  0.00  0.00     0.048 A 
ATOM      8  C   UNL d   1       7.489  -2.059  -0.831  0.00  0.00     0.017 A 
ATOM      9  C   UNL d   1       6.335  -1.268  -0.796  0.00  0.00     0.015 A 
BRANCH   7  10
ATOM     10  C   UNL d   1       9.836  -2.610  -0.078  0.00  0.00     0.417 C 
ATOM     11  F   UNL d   1      10.829  -2.195   0.756  0.00  0.00    -0.166 F 
ATOM     12  F   UNL d   1       9.574  -3.901   0.269  0.00  0.00    -0.166 F 
ATOM     13  F   UNL d   1      10.390  -2.664  -1.321  0.00  0.00    -0.166 F 
ENDBRANCH   7  10
ENDBRANCH   3   4
BRANCH   3  14
ATOM     14  N   UNL d   1       3.830   0.129  -0.180  0.00  0.00    -0.286 NA
ATOM     15  H   UNL d   1       3.046   0.701   0.116  0.00  0.00     0.125 HD
ATOM     16  H   UNL d   1       3.733  -0.837   0.117  0.00  0.00     0.125 HD
ENDBRANCH   3  14
BRANCH   1  17
ATOM     17  O   UNL d   1       3.982   2.678   0.376  0.00  0.00    -0.192 OA
BRANCH  17  18
ATOM     18  C   UNL d   1       4.227   4.007   0.651  0.00  0.00     0.333 C 
ATOM     19  O   UNL d   1       5.330   4.496   0.893  0.00  0.00    -0.256 OA
BRANCH  18  20
ATOM     20  C   UNL d   1       3.018   4.820   0.644  0.00  0.00     0.130 A 
ATOM     21  N   UNL d   1       1.757   4.286   0.385  0.00  0.00    -0.287 N 
ATOM     22  N   UNL d   1       0.810   5.209   0.435  0.00  0.00    -0.061 NA
ATOM     23  HN  UNL d   1       1.585   3.302   0.180  1.00  0.00     0.183 HD
ATOM     24  S   UNL d   1       1.399   6.733   0.793  0.00  0.00    -0.010 SA
ATOM     25  C   UNL d   1       3.018   6.185   0.898  0.00  0.00     0.102 A 
ENDBRANCH  18  20
ENDBRANCH  17  18
ENDBRANCH   1  17
TORSDOF 6
