REMARK  5 active torsions:
REMARK  status: ('A' for Active; 'I' for Inactive)
REMARK    1  A    between atoms: C_3  and  C_1 
REMARK    2  A    between atoms: C_2  and  C_4 
REMARK    3  A    between atoms: O_15  and  C_2 
REMARK    4  A    between atoms: N_7  and  O_15 
REMARK    5  A    between atoms: C_18  and  C_17 
ROOT
ATOM      1  C   UNL d   1       1.056  -5.098  -0.321  0.00  0.00     0.315 C 
ATOM      2  O   UNL d   1       0.790  -6.186   0.178  0.00  0.00    -0.257 OA
ENDROOT
BRANCH   1   3
ATOM      3  C   UNL d   1       0.718  -3.819   0.361  0.00  0.00     0.042 A 
ATOM      4  C   UNL d   1       1.010  -2.560  -0.181  0.00  0.00     0.034 A 
ATOM      5  C   UNL d   1       0.680  -1.386   0.521  0.00  0.00     0.048 A 
ATOM      6  C   UNL d   1       0.035  -1.491   1.764  0.00  0.00     0.016 A 
ATOM      7  C   UNL d   1      -0.262  -2.740   2.306  0.00  0.00     0.002 A 
ATOM      8  C   UNL d   1       0.083  -3.898   1.610  0.00  0.00     0.018 A 
BRANCH   5   9
ATOM      9  C   UNL d   1       1.025  -0.024  -0.032  0.00  0.00     0.417 C 
ATOM     10  F   UNL d   1       1.685  -0.077  -1.223  0.00  0.00    -0.166 F 
ATOM     11  F   UNL d   1       1.828   0.687   0.807  0.00  0.00    -0.166 F 
ATOM     12  F   UNL d   1      -0.074   0.748  -0.246  0.00  0.00    -0.166 F 
ENDBRANCH   5   9
ENDBRANCH   1   3
BRANCH   1  13
ATOM     13  O   UNL d   1       1.679  -4.867  -1.519  0.00  0.00    -0.195 OA
BRANCH  13  14
ATOM     14  N   UNL d   1       1.986  -6.103  -2.112  0.00  0.00    -0.268 N 
ATOM     15  C   UNL d   1       2.578  -5.943  -3.248  0.00  0.00     0.126 C 
ATOM     16  HN  UNL d   1       1.770  -7.010  -1.699  1.00  0.00     0.194 HD
BRANCH  15  17
ATOM     17  C   UNL d   1       2.989  -7.122  -4.040  0.00  0.00    -0.017 A 
ATOM     18  C   UNL d   1       3.635  -6.941  -5.266  0.00  0.00     0.040 A 
ATOM     19  C   UNL d   1       4.011  -8.064  -6.009  0.00  0.00     0.073 A 
ATOM     20 CL   UNL d   1       4.807  -7.846  -7.520  0.00  0.00    -0.081 Cl
ATOM     21  C   UNL d   1       3.742  -9.347  -5.530  0.00  0.00     0.138 A 
ATOM     22  C   UNL d   1       3.102  -9.528  -4.309  0.00  0.00     0.045 A 
ATOM     23  F   UNL d   1       4.095 -10.431  -6.237  0.00  0.00    -0.204 F 
ATOM     24  C   UNL d   1       2.725  -8.414  -3.561  0.00  0.00     0.016 A 
ENDBRANCH  15  17
ENDBRANCH  13  14
ENDBRANCH   1  13
TORSDOF 5
