REMARK  5 active torsions:
REMARK  status: ('A' for Active; 'I' for Inactive)
REMARK       I    between atoms: C_4  and  N_1 
REMARK    1  A    between atoms: C_3  and  C_2 
REMARK       I    between atoms: N_8  and  C_3 
REMARK    2  A    between atoms: O_11  and  C_4 
REMARK    3  A    between atoms: C_13  and  N_8 
REMARK    4  A    between atoms: C_20  and  O_11 
REMARK    5  A    between atoms: C_21  and  C_20 
ROOT
ATOM      1  N   UNL d   1       1.405   1.292   0.144  0.00  0.00    -0.279 N 
ATOM      2  C   UNL d   1       2.261   0.085   0.261  0.00  0.00     0.192 C 
ATOM      3  C   UNL d   1       1.938   2.561   0.072  0.00  0.00     0.368 C 
ATOM      4  C   UNL d   1       0.063   0.886   0.033  0.00  0.00     0.046 A 
ATOM      5  C   UNL d   1       1.383  -1.090  -0.212  0.00  0.00     0.076 C 
ATOM      6  C   UNL d   1       0.006  -0.503  -0.105  0.00  0.00    -0.029 A 
ATOM      7  O   UNL d   1       3.136   2.784   0.266  0.00  0.00    -0.238 OA
ATOM      8  C   UNL d   1      -1.097   1.640   0.081  0.00  0.00     0.030 A 
ATOM      9  C   UNL d   1      -1.207  -1.167  -0.197  0.00  0.00     0.009 A 
ATOM     10  C   UNL d   1      -2.326   0.980   0.003  0.00  0.00     0.002 A 
ATOM     11  C   UNL d   1      -2.381  -0.414  -0.130  0.00  0.00     0.001 A 
ENDROOT
BRANCH   2  12
ATOM     12  C   UNL d   1       2.789  -0.202   1.688  0.00  0.00     0.246 C 
ATOM     13  N   UNL d   1       2.118   0.456   2.700  0.00  0.00    -0.325 N 
ATOM     14  H   UNL d   1       1.234   0.883   2.449  0.00  0.00     0.169 HD
ATOM     15  O   UNL d   1       3.646  -1.064   1.875  0.00  0.00    -0.271 OA
BRANCH  13  16
ATOM     16  C   UNL d   1       2.468   0.483   4.061  0.00  0.00     0.037 A 
ATOM     17  C   UNL d   1       1.445   0.755   4.973  0.00  0.00     0.069 A 
ATOM     18  C   UNL d   1       1.731   0.910   6.326  0.00  0.00     0.104 A 
ATOM     19  O   UNL d   1       0.669   1.207   7.141  0.00  0.00    -0.346 OA
ATOM     20  C   UNL d   1       3.042   0.787   6.792  0.00  0.00     0.102 A 
ATOM     21  C   UNL d   1       1.128   1.857   8.328  0.00  0.00     0.202 C 
ATOM     22  C   UNL d   1       2.250   1.056   8.969  0.00  0.00     0.202 C 
ATOM     23  O   UNL d   1       3.393   0.967   8.105  0.00  0.00    -0.346 OA
ATOM     24  C   UNL d   1       4.068   0.502   5.892  0.00  0.00     0.042 A 
ATOM     25  C   UNL d   1       3.780   0.338   4.527  0.00  0.00     0.032 A 
ENDBRANCH  13  16
ENDBRANCH   2  12
BRANCH   3  26
ATOM     26  O   UNL d   1       1.034   3.519  -0.241  0.00  0.00    -0.299 OA
BRANCH  26  27
ATOM     27  C   UNL d   1       1.472   4.884  -0.263  0.00  0.00     0.219 C 
BRANCH  27  28
ATOM     28  C   UNL d   1       1.063   5.596  -1.536  0.00  0.00    -0.034 A 
ATOM     29  C   UNL d   1      -0.043   5.197  -2.300  0.00  0.00     0.009 A 
ATOM     30  C   UNL d   1      -0.422   5.916  -3.438  0.00  0.00     0.001 A 
ATOM     31  C   UNL d   1       0.292   7.048  -3.824  0.00  0.00     0.000 A 
ATOM     32  C   UNL d   1       1.386   7.465  -3.068  0.00  0.00     0.001 A 
ATOM     33  C   UNL d   1       1.765   6.749  -1.931  0.00  0.00     0.009 A 
ENDBRANCH  27  28
ENDBRANCH  26  27
ENDBRANCH   3  26
TORSDOF 5
