REMARK  3 active torsions:
REMARK  status: ('A' for Active; 'I' for Inactive)
REMARK       I    between atoms: N_3  and  C_1 
REMARK    1  A    between atoms: C_5  and  C_1 
REMARK    2  A    between atoms: C_2  and  C_5 
REMARK       I    between atoms: N_4  and  C_2 
REMARK    3  A    between atoms: C_12  and  C_5 
ROOT
ATOM      1  C   UNL d   1      -0.091  -0.932  -0.670  0.00  0.00     0.203 C 
ENDROOT
BRANCH   1   2
ATOM      2  C   UNL d   1       0.320  -2.394  -0.472  0.00  0.00     0.242 C 
ATOM      3  N   UNL d   1       0.896  -3.046  -1.560  0.00  0.00    -0.316 N 
ATOM      4  C   UNL d   1       1.350  -4.385  -1.567  0.00  0.00     0.043 A 
ATOM      5  C   UNL d   1       1.381  -2.402  -2.799  0.00  0.00     0.137 C 
ATOM      6  C   UNL d   1       2.095  -4.638  -2.722  0.00  0.00    -0.030 A 
ATOM      7  C   UNL d   1       1.174  -5.379  -0.619  0.00  0.00     0.030 A 
ATOM      8  C   UNL d   1       2.737  -5.852  -2.922  0.00  0.00     0.009 A 
ATOM      9  C   UNL d   1       2.078  -3.470  -3.649  0.00  0.00     0.061 C 
ATOM     10  C   UNL d   1       2.600  -6.840  -1.948  0.00  0.00     0.001 A 
ATOM     11  C   UNL d   1       1.806  -6.613  -0.815  0.00  0.00     0.002 A 
ATOM     12  O   UNL d   1       0.127  -2.940   0.621  0.00  0.00    -0.272 OA
ENDBRANCH   1   2
BRANCH   1  13
ATOM     13  C   UNL d   1       0.877   0.009   0.063  0.00  0.00     0.242 C 
ATOM     14  N   UNL d   1       0.636   0.356   1.383  0.00  0.00    -0.316 N 
ATOM     15  C   UNL d   1       1.273   1.410   2.081  0.00  0.00     0.043 A 
ATOM     16  C   UNL d   1      -0.205  -0.361   2.368  0.00  0.00     0.137 C 
ATOM     17  C   UNL d   1       0.700   1.558   3.349  0.00  0.00    -0.030 A 
ATOM     18  C   UNL d   1       2.283   2.263   1.670  0.00  0.00     0.030 A 
ATOM     19  C   UNL d   1       1.111   2.554   4.223  0.00  0.00     0.009 A 
ATOM     20  C   UNL d   1      -0.429   0.598   3.541  0.00  0.00     0.061 C 
ATOM     21  C   UNL d   1       2.140   3.405   3.818  0.00  0.00     0.001 A 
ATOM     22  C   UNL d   1       2.721   3.259   2.550  0.00  0.00     0.002 A 
ATOM     23  O   UNL d   1       1.819   0.465  -0.593  0.00  0.00    -0.272 OA
ENDBRANCH   1  13
BRANCH   1  24
ATOM     24  C   UNL d   1      -1.579  -0.612  -0.477  0.00  0.00    -0.036 A 
ATOM     25  C   UNL d   1      -2.548  -1.606  -0.262  0.00  0.00     0.008 A 
ATOM     26  C   UNL d   1      -3.887  -1.264  -0.057  0.00  0.00     0.001 A 
ATOM     27  C   UNL d   1      -4.283   0.069  -0.082  0.00  0.00     0.000 A 
ATOM     28  C   UNL d   1      -3.345   1.067  -0.327  0.00  0.00     0.001 A 
ATOM     29  C   UNL d   1      -2.007   0.729  -0.537  0.00  0.00     0.008 A 
ENDBRANCH   1  24
TORSDOF 3
