REMARK  5 active torsions:
REMARK  status: ('A' for Active; 'I' for Inactive)
REMARK    1  A    between atoms: C_2  and  C_1 
REMARK       I    between atoms: N_3  and  C_2 
REMARK       I    between atoms: C_10  and  N_3 
REMARK    2  A    between atoms: S_20  and  C_6 
REMARK    3  A    between atoms: C_7  and  N_11 
REMARK    4  A    between atoms: S_21  and  C_8 
REMARK       I    between atoms: N_14  and  C_10 
REMARK    5  A    between atoms: N_11  and  N_14 
ROOT
ATOM      1  C   UNL d   1      -2.729  -1.302  -0.238  0.00  0.00     0.264 C 
ATOM      2  N   UNL d   1      -3.276  -0.634  -1.319  0.00  0.00    -0.274 N 
ATOM      3  C   UNL d   1      -3.700   0.670  -1.556  0.00  0.00     0.337 C 
ATOM      4  N   UNL d   1      -3.984   0.823  -2.913  0.00  0.00    -0.268 N 
ATOM      5  O   UNL d   1      -2.652  -2.531  -0.345  0.00  0.00    -0.267 OA
ATOM      6  O   UNL d   1      -3.759   1.577  -0.737  0.00  0.00    -0.246 OA
ATOM      7  H   UNL d   1      -3.469  -1.286  -2.062  0.00  0.00     0.173 HD
ATOM      8  H   UNL d   1      -4.441   0.049  -3.386  0.00  0.00     0.185 HD
ENDROOT
BRANCH   4   9
ATOM      9  N   UNL d   1      -4.397   2.075  -3.399  0.00  0.00    -0.199 NA
ATOM     10  H   UNL d   1      -4.118   2.833  -2.758  0.00  0.00     0.153 HD
BRANCH   9  11
ATOM     11  C   UNL d   1      -3.965   2.344  -4.739  0.00  0.00     0.071 A 
ATOM     12  C   UNL d   1      -3.946   1.383  -5.783  0.00  0.00     0.060 A 
ATOM     13  C   UNL d   1      -3.584   1.733  -7.092  0.00  0.00     0.049 A 
ATOM     14 CL   UNL d   1      -4.407  -0.279  -5.565  0.00  0.00    -0.082 Cl
ATOM     15  C   UNL d   1      -3.272   3.052  -7.397  0.00  0.00     0.037 A 
ATOM     16  C   UNL d   1      -3.317   4.029  -6.416  0.00  0.00     0.049 A 
ATOM     17 CL   UNL d   1      -2.859   3.473  -9.014  0.00  0.00    -0.084 Cl
ATOM     18  C   UNL d   1      -3.665   3.677  -5.106  0.00  0.00     0.060 A 
ATOM     19 CL   UNL d   1      -3.703   4.945  -3.925  0.00  0.00    -0.082 Cl
ENDBRANCH   9  11
ENDBRANCH   4   9
BRANCH   1  20
ATOM     20  C   UNL d   1      -2.266  -0.614   0.950  0.00  0.00     0.091 A 
ATOM     21  C   UNL d   1      -2.528  -1.077   2.237  0.00  0.00     0.076 A 
ATOM     22  S   UNL d   1      -1.764  -0.053   3.374  0.00  0.00    -0.006 SA
ATOM     23  N   UNL d   1      -1.024   0.917   2.265  0.00  0.00    -0.319 N 
ATOM     24  C   UNL d   1      -1.369   0.507   1.046  0.00  0.00     0.093 A 
ATOM     25  HN  UNL d   1      -0.406   1.699   2.477  1.00  0.00     0.175 HD
BRANCH  21  26
ATOM     26  S   UNL d   1      -3.478  -2.467   2.747  0.00  0.00    -0.125 SA
ATOM     27  C   UNL d   1      -2.174  -3.727   2.794  0.00  0.00     0.096 C 
ENDBRANCH  21  26
BRANCH  24  28
ATOM     28  S   UNL d   1      -0.598   1.304  -0.328  0.00  0.00    -0.115 SA
ATOM     29  C   UNL d   1      -0.842   3.031   0.164  0.00  0.00     0.097 C 
ENDBRANCH  24  28
ENDBRANCH   1  20
TORSDOF 5
