REMARK  3 active torsions:
REMARK  status: ('A' for Active; 'I' for Inactive)
REMARK    1  A    between atoms: C_8  and  C_2 
REMARK       I    between atoms: C_5  and  N_9 
REMARK       I    between atoms: N_12  and  C_5 
REMARK    2  A    between atoms: N_9  and  N_10 
REMARK    3  A    between atoms: N_10  and  C_15 
ROOT
ATOM      1  C   UNL d   1       2.468  -1.739   0.022  0.00  0.00    -0.008 A 
ATOM      2  C   UNL d   1       2.602  -2.666  -1.020  0.00  0.00     0.015 A 
ATOM      3  C   UNL d   1       3.502  -1.637   0.959  0.00  0.00     0.015 A 
ATOM      4  C   UNL d   1       4.801  -3.347  -0.206  0.00  0.00     0.023 A 
ATOM      5  C   UNL d   1       4.657  -2.419   0.834  0.00  0.00     0.025 A 
ATOM      6  C   UNL d   1       3.761  -3.451  -1.137  0.00  0.00     0.025 A 
ENDROOT
BRANCH   4   7
ATOM      7  N   UNL d   1       6.047  -3.996  -0.370  0.00  0.00    -0.219 NA
ATOM      8  H   UNL d   1       6.599  -3.996   0.498  0.00  0.00     0.147 HD
BRANCH   7   9
ATOM      9  N   UNL d   1       5.961  -5.318  -0.873  0.00  0.00    -0.172 NA
ATOM     10  C   UNL d   1       6.921  -6.183  -0.362  0.00  0.00     0.307 C 
ATOM     11  O   UNL d   1       7.656  -5.894   0.577  0.00  0.00    -0.253 OA
ATOM     12  N   UNL d   1       6.944  -7.379  -1.035  0.00  0.00    -0.351 N 
ATOM     13  C   UNL d   1       7.834  -8.449  -0.655  0.00  0.00     0.150 C 
ATOM     14  H   UNL d   1       6.122  -7.616  -1.570  0.00  0.00     0.163 HD
ATOM     15  H   UNL d   1       5.853  -5.351  -1.880  0.00  0.00     0.152 HD
ENDBRANCH   7   9
ENDBRANCH   4   7
BRANCH   1  16
ATOM     16  C   UNL d   1       1.280  -0.895   0.096  0.00  0.00     0.063 A 
ATOM     17  N   UNL d   1       0.069  -1.296  -0.460  0.00  0.00    -0.292 N 
ATOM     18  N   UNL d   1      -0.876  -0.385  -0.303  0.00  0.00    -0.061 NA
ATOM     19  HN  UNL d   1      -0.073  -2.189  -0.933  1.00  0.00     0.183 HD
ATOM     20  S   UNL d   1      -0.337   0.980   0.497  0.00  0.00    -0.010 SA
ATOM     21  C   UNL d   1       1.256   0.366   0.671  0.00  0.00     0.096 A 
ENDBRANCH   1  16
TORSDOF 3
