REMARK  3 active torsions:
REMARK  status: ('A' for Active; 'I' for Inactive)
REMARK    1  A    between atoms: C_4  and  N_1 
REMARK    2  A    between atoms: C_3  and  C_5 
REMARK    3  A    between atoms: O_17  and  C_6 
ROOT
ATOM      1  N   UNL d   1       0.976   0.218  -0.170  0.00  0.00    -0.365 N 
ATOM      2  HN  UNL d   1       1.339   0.546  -1.065  1.00  0.00     0.165 HD
ATOM      3  C   UNL d   1       1.171  -1.004   0.220  0.00  0.00     0.102 C 
ENDROOT
BRANCH   1   4
ATOM      4  C   UNL d   1       0.246   1.084   0.677  0.00  0.00     0.038 A 
ATOM      5  C   UNL d   1       0.600   2.440   0.789  0.00  0.00    -0.035 A 
ATOM      6  C   UNL d   1      -0.188   3.298   1.579  0.00  0.00     0.009 A 
ATOM      7  C   UNL d   1       1.786   3.035   0.082  0.00  0.00     0.050 C 
ATOM      8  C   UNL d   1      -1.313   2.821   2.255  0.00  0.00     0.007 A 
ATOM      9  C   UNL d   1      -1.676   1.481   2.151  0.00  0.00    -0.060 A 
ATOM     10  C   UNL d   1      -0.906   0.633   1.345  0.00  0.00     0.036 A 
ATOM     11  C   UNL d   1      -2.889   0.962   2.862  0.00  0.00     0.048 C 
ENDBRANCH   1   4
BRANCH   3  12
ATOM     12  C   UNL d   1       1.819  -1.999  -0.658  0.00  0.00     0.014 A 
ATOM     13  C   UNL d   1       2.375  -1.649  -1.893  0.00  0.00     0.077 A 
ATOM     14  C   UNL d   1       2.945  -2.624  -2.709  0.00  0.00     0.039 A 
ATOM     15  C   UNL d   1       2.947  -3.959  -2.299  0.00  0.00     0.022 A 
ATOM     16  C   UNL d   1       2.385  -4.307  -1.071  0.00  0.00     0.011 A 
ATOM     17  C   UNL d   1       1.824  -3.335  -0.242  0.00  0.00     0.034 A 
ATOM     18 BR   UNL d   1       2.364  -6.119  -0.529  0.00  0.00    -0.051 Br
BRANCH  13  19
ATOM     19  O   UNL d   1       2.383  -0.365  -2.366  0.00  0.00    -0.360 OA
ATOM     20  H   UNL d   1       1.878   0.184  -1.722  0.00  0.00     0.217 HD
ENDBRANCH  13  19
ENDBRANCH   3  12
TORSDOF 3
