REMARK  4 active torsions:
REMARK  status: ('A' for Active; 'I' for Inactive)
REMARK    1  A    between atoms: C_6  and  C_1 
REMARK    2  A    between atoms: C_17  and  C_5 
REMARK       I    between atoms: C_7  and  N_10 
REMARK    3  A    between atoms: C_11  and  C_7 
REMARK    4  A    between atoms: N_10  and  C_17 
ROOT
ATOM      1  C   UNL d   1       2.509   1.660  -0.050  0.00  0.00     0.180 C 
ENDROOT
BRANCH   1   2
ATOM      2  N   UNL d   1       3.708   0.879   0.105  0.00  0.00    -0.351 N 
ATOM      3  C   UNL d   1       4.940   1.488   0.160  0.00  0.00     0.252 C 
ATOM      4  O   UNL d   1       5.103   2.696   0.054  0.00  0.00    -0.268 OA
ATOM      5  H   UNL d   1       3.607  -0.125   0.013  0.00  0.00     0.163 HD
BRANCH   3   6
ATOM      6  C   UNL d   1       6.106   0.584   0.336  0.00  0.00     0.033 A 
ATOM      7  C   UNL d   1       7.335   0.948  -0.225  0.00  0.00     0.041 A 
ATOM      8  C   UNL d   1       8.432   0.102  -0.078  0.00  0.00     0.035 A 
ATOM      9 CL   UNL d   1       9.941   0.522  -0.793  0.00  0.00    -0.084 Cl
ATOM     10  C   UNL d   1       8.322  -1.089   0.641  0.00  0.00     0.024 A 
ATOM     11  C   UNL d   1       7.105  -1.436   1.228  0.00  0.00     0.003 A 
ATOM     12  C   UNL d   1       5.997  -0.600   1.079  0.00  0.00     0.017 A 
ENDBRANCH   3   6
ENDBRANCH   1   2
BRANCH   1  13
ATOM     13  C   UNL d   1       1.299   0.774  -0.056  0.00  0.00     0.034 A 
ATOM     14  N   UNL d   1       1.417  -0.618   0.040  0.00  0.00    -0.351 N 
ATOM     15  C   UNL d   1       0.221  -1.184   0.015  0.00  0.00     0.091 A 
ATOM     16  HN  UNL d   1       2.299  -1.124   0.118  1.00  0.00     0.166 HD
ATOM     17  S   UNL d   1      -1.094  -0.078  -0.134  0.00  0.00    -0.081 SA
ATOM     18  C   UNL d   1      -0.001   1.229  -0.158  0.00  0.00     0.078 A 
BRANCH  15  19
ATOM     19  C   UNL d   1       0.042  -2.620   0.117  0.00  0.00     0.038 A 
ATOM     20  S   UNL d   1      -1.496  -3.392   0.036  0.00  0.00    -0.099 SA
ATOM     21  C   UNL d   1      -0.822  -4.946   0.238  0.00  0.00     0.050 A 
ATOM     22  C   UNL d   1       0.546  -4.899   0.362  0.00  0.00     0.008 A 
ATOM     23  C   UNL d   1       1.042  -3.562   0.289  0.00  0.00     0.022 A 
ENDBRANCH  15  19
ENDBRANCH   1  13
TORSDOF 4
