REMARK  5 active torsions:
REMARK  status: ('A' for Active; 'I' for Inactive)
REMARK    1  A    between atoms: N_2  and  S_1 
REMARK    2  A    between atoms: C_5  and  S_1 
REMARK    3  A    between atoms: C_3  and  C_11 
REMARK       I    between atoms: N_4  and  C_3 
REMARK    4  A    between atoms: C_11  and  N_6 
REMARK       I    between atoms: C_12  and  N_13 
REMARK    5  A    between atoms: N_13  and  C_21 
ROOT
ATOM      1  N   UNL d   1       0.329  -0.464   1.115  0.00  0.00    -0.203 NA
ATOM      2  N   UNL d   1       2.392  -2.074   2.556  0.00  0.00     0.099 N 
ATOM      3  C   UNL d   1       1.107   0.158   2.223  0.00  0.00     0.138 C 
ATOM      4  C   UNL d   1       0.123  -1.912   1.392  0.00  0.00     0.138 C 
ATOM      5  C   UNL d   1       2.443  -0.592   2.481  0.00  0.00     0.288 C 
ATOM      6  C   UNL d   1       1.474  -2.629   1.534  0.00  0.00     0.288 C 
ENDROOT
BRANCH   1   7
ATOM      7  S   UNL d   1       0.811  -0.075  -0.478  0.00  0.00     0.243 S 
ATOM      8  O   UNL d   1       0.204  -1.020  -1.391  0.00  0.00    -0.206 OA
ATOM      9  O   UNL d   1       2.237   0.169  -0.490  0.00  0.00    -0.206 OA
BRANCH   7  10
ATOM     10  C   UNL d   1      -0.008   1.480  -0.741  0.00  0.00     0.074 A 
ATOM     11  C   UNL d   1       0.720   2.654  -0.935  0.00  0.00     0.027 A 
ATOM     12  C   UNL d   1       0.035   3.853  -1.165  0.00  0.00     0.031 A 
ATOM     13  C   UNL d   1      -1.368   3.885  -1.202  0.00  0.00     0.034 A 
ATOM     14  C   UNL d   1      -2.075   2.692  -1.034  0.00  0.00     0.031 A 
ATOM     15  C   UNL d   1      -1.401   1.490  -0.807  0.00  0.00     0.027 A 
BRANCH  13  16
ATOM     16  N   UNL d   1      -1.986   5.139  -1.397  0.00  0.00    -0.328 N 
ATOM     17  C   UNL d   1      -3.343   5.410  -1.401  0.00  0.00     0.218 C 
ATOM     18  O   UNL d   1      -4.255   4.601  -1.272  0.00  0.00    -0.274 OA
ATOM     19  C   UNL d   1      -3.658   6.876  -1.571  0.00  0.00     0.117 C 
ATOM     20  H   UNL d   1      -1.360   5.925  -1.514  0.00  0.00     0.169 HD
ENDBRANCH  13  16
ENDBRANCH   7  10
ENDBRANCH   1   7
BRANCH   2  21
ATOM     21  C   UNL d   1       2.113  -2.525   3.933  0.00  0.00     0.374 C 
BRANCH  21  22
ATOM     22  C   UNL d   1       2.019  -4.056   4.056  0.00  0.00     0.248 C 
ATOM     23  N   UNL d   1       3.176  -4.818   3.976  0.00  0.00    -0.347 N 
ATOM     24  C   UNL d   1       4.472  -4.358   3.462  0.00  0.00     0.152 C 
ATOM     25  C   UNL d   1       3.058  -6.279   3.976  0.00  0.00     0.152 C 
ATOM     26  C   UNL d   1       4.735  -4.968   2.076  0.00  0.00     0.187 C 
ATOM     27  O   UNL d   1       4.629  -6.405   2.109  0.00  0.00    -0.388 OA
ATOM     28  C   UNL d   1       3.327  -6.816   2.566  0.00  0.00     0.187 C 
ATOM     29  O   UNL d   1       0.911  -4.570   4.227  0.00  0.00    -0.271 OA
ENDBRANCH  21  22
ENDBRANCH   2  21
TORSDOF 5
