REMARK  3 active torsions:
REMARK  status: ('A' for Active; 'I' for Inactive)
REMARK    1  A    between atoms: C_2  and  N_1 
REMARK    2  A    between atoms: C_6  and  C_4 
REMARK    3  A    between atoms: O_12  and  C_7 
ROOT
ATOM      1  C   UNL d   1       0.137  -3.268  -1.655  0.00  0.00    -0.035 A 
ATOM      2  C   UNL d   1      -1.326  -5.313  -2.938  0.00  0.00     0.068 A 
ATOM      3  C   UNL d   1      -0.910  -2.960  -2.534  0.00  0.00     0.014 A 
ATOM      4  C   UNL d   1       0.468  -4.614  -1.459  0.00  0.00     0.014 A 
ATOM      5  C   UNL d   1      -1.640  -3.974  -3.169  0.00  0.00     0.037 A 
ATOM      6  C   UNL d   1      -0.264  -5.624  -2.089  0.00  0.00     0.037 A 
ENDROOT
BRANCH   1   7
ATOM      7  C   UNL d   1       0.867  -2.172  -1.002  0.00  0.00     0.035 C 
ATOM      8  C   UNL d   1       1.409  -2.292   0.218  0.00  0.00     0.168 C 
BRANCH   8   9
ATOM      9  N   UNL d   1       2.093  -1.173   0.821  0.00  0.00    -0.127 N 
ATOM     10  O   UNL d   1       2.588  -1.388   1.934  0.00  0.00    -0.532 OA
ATOM     11  O   UNL d   1       2.146  -0.100   0.209  0.00  0.00    -0.532 OA
ENDBRANCH   8   9
ENDBRANCH   1   7
BRANCH   2  12
ATOM     12  O   UNL d   1      -1.965  -6.397  -3.470  0.00  0.00    -0.356 OA
ATOM     13  C   UNL d   1      -3.065  -6.138  -4.333  0.00  0.00     0.210 C 
ENDBRANCH   2  12
TORSDOF 3
