REMARK  3 active torsions:
REMARK  status: ('A' for Active; 'I' for Inactive)
REMARK    1  A    between atoms: C_2  and  N_1 
REMARK       I    between atoms: C_3  and  N_1 
REMARK       I    between atoms: N_8  and  C_3 
REMARK    2  A    between atoms: C_5  and  C_13 
REMARK    3  A    between atoms: C_13  and  N_8 
ROOT
ATOM      1  N   UNL d   1       3.225   0.797  -0.697  0.00  0.00    -0.303 N 
ATOM      2  C   UNL d   1       2.412   0.084   0.164  0.00  0.00     0.321 C 
ATOM      3  N   UNL d   1       3.125  -0.943   0.743  0.00  0.00    -0.342 N 
ATOM      4  O   UNL d   1       1.213   0.259   0.353  0.00  0.00    -0.247 OA
ATOM      5  H   UNL d   1       4.065   0.340  -1.015  0.00  0.00     0.171 HD
ATOM      6  H   UNL d   1       4.102  -0.778   0.923  0.00  0.00     0.164 HD
ENDROOT
BRANCH   1   7
ATOM      7  C   UNL d   1       2.731   1.782  -1.516  0.00  0.00     0.077 A 
ATOM      8  S   UNL d   1       3.648   2.037  -2.924  0.00  0.00    -0.084 SA
ATOM      9  C   UNL d   1       2.504   3.164  -3.521  0.00  0.00     0.052 A 
ATOM     10  C   UNL d   1       1.495   3.400  -2.613  0.00  0.00     0.010 A 
ATOM     11  C   UNL d   1       1.629   2.597  -1.440  0.00  0.00     0.038 A 
ENDBRANCH   1   7
BRANCH   3  12
ATOM     12  C   UNL d   1       2.483  -2.006   1.480  0.00  0.00     0.129 C 
BRANCH  12  13
ATOM     13  C   UNL d   1       2.612  -1.784   2.952  0.00  0.00     0.003 A 
ATOM     14  C   UNL d   1       3.955  -1.759   3.639  0.00  0.00     0.007 A 
ATOM     15  C   UNL d   1       3.037  -2.932   3.839  0.00  0.00     0.007 A 
ENDBRANCH  12  13
ENDBRANCH   3  12
TORSDOF 3
