REMARK  4 active torsions:
REMARK  status: ('A' for Active; 'I' for Inactive)
REMARK    1  A    between atoms: N_10  and  C_3 
REMARK    2  A    between atoms: C_7  and  S_18 
REMARK       I    between atoms: C_17  and  N_10 
REMARK    3  A    between atoms: C_26  and  C_17 
REMARK    4  A    between atoms: S_18  and  C_26 
ROOT
ATOM      1  C   UNL d   1       5.269  -7.140   0.328  0.00  0.00     0.084 A 
ATOM      2  C   UNL d   1       3.981  -6.596   0.184  0.00  0.00     0.091 A 
ATOM      3  N   UNL d   1       2.850  -7.344   0.255  0.00  0.00    -0.353 N 
ATOM      4  HN  UNL d   1       1.928  -6.919   0.156  1.00  0.00     0.166 HD
ATOM      5  C   UNL d   1       5.399  -8.523   0.533  0.00  0.00    -0.037 A 
ATOM      6  C   UNL d   1       6.436  -6.304   0.260  0.00  0.00     0.103 C 
ATOM      7  N   UNL d   1       7.406  -5.673   0.218  0.00  0.00    -0.191 NA
ATOM      8  C   UNL d   1       2.992  -8.677   0.460  0.00  0.00     0.006 A 
ATOM      9  C   UNL d   1       4.234  -9.294   0.595  0.00  0.00     0.033 A 
ATOM     10  C   UNL d   1       6.726  -9.222   0.669  0.00  0.00     0.050 C 
ATOM     11  C   UNL d   1       1.749  -9.517   0.524  0.00  0.00     0.068 C 
ENDROOT
BRANCH   2  12
ATOM     12  S   UNL d   1       3.793  -4.863  -0.192  0.00  0.00    -0.101 SA
BRANCH  12  13
ATOM     13  C   UNL d   1       1.997  -4.531  -0.020  0.00  0.00     0.184 C 
BRANCH  13  14
ATOM     14  C   UNL d   1       1.803  -3.006   0.000  0.00  0.00     0.233 C 
ATOM     15  N   UNL d   1       0.498  -2.589  -0.213  0.00  0.00    -0.305 N 
ATOM     16  H   UNL d   1      -0.217  -3.246  -0.492  0.00  0.00     0.171 HD
ATOM     17  O   UNL d   1       2.744  -2.242   0.205  0.00  0.00    -0.272 OA
BRANCH  15  18
ATOM     18  C   UNL d   1       0.091  -1.268  -0.214  0.00  0.00     0.168 A 
ATOM     19  S   UNL d   1       1.094   0.003   0.314  0.00  0.00    -0.032 SA
ATOM     20  C   UNL d   1      -0.150   1.106  -0.094  0.00  0.00     0.109 A 
ATOM     21  N   UNL d   1      -1.243   0.511  -0.535  0.00  0.00    -0.291 N 
ATOM     22  C   UNL d   1       0.026   2.534   0.042  0.00  0.00     0.040 A 
ATOM     23  N   UNL d   1      -1.108  -0.875  -0.586  0.00  0.00    -0.279 N 
ATOM     24  HN  UNL d   1      -2.090   1.009  -0.807  1.00  0.00     0.187 HD
ATOM     25  HN  UNL d   1      -1.852  -1.509  -0.877  1.00  0.00     0.189 HD
ATOM     26  S   UNL d   1      -1.196   3.643  -0.435  0.00  0.00    -0.099 SA
ATOM     27  C   UNL d   1       1.132   3.213   0.533  0.00  0.00     0.022 A 
ATOM     28  C   UNL d   1      -0.252   4.997   0.013  0.00  0.00     0.050 A 
ATOM     29  C   UNL d   1       0.973   4.629   0.519  0.00  0.00     0.008 A 
ENDBRANCH  15  18
ENDBRANCH  13  14
ENDBRANCH  12  13
ENDBRANCH   2  12
TORSDOF 4
