REMARK  4 active torsions:
REMARK  status: ('A' for Active; 'I' for Inactive)
REMARK    1  A    between atoms: N_6  and  C_1 
REMARK    2  A    between atoms: N_4  and  N_6 
REMARK    3  A    between atoms: C_9  and  C_8 
REMARK    4  A    between atoms: O_18  and  C_12 
ROOT
ATOM      1  N   UNL d   1      -2.708   2.496  -0.338  0.00  0.00    -0.290 N 
ATOM      2  HN  UNL d   1      -1.692   2.548  -0.274  1.00  0.00     0.187 HD
ATOM      3  C   UNL d   1      -3.396   3.586  -0.518  0.00  0.00     0.032 C 
ATOM      4  C   UNL d   1      -4.907   3.670  -0.605  0.00  0.00     0.070 C 
ENDROOT
BRANCH   1   5
ATOM      5  N   UNL d   1      -3.325   1.287  -0.233  0.00  0.00    -0.132 N 
ATOM      6  H   UNL d   1      -4.332   1.183  -0.185  0.00  0.00     0.205 HD
BRANCH   5   7
ATOM      7  C   UNL d   1      -2.672   0.082  -0.170  0.00  0.00     0.688 C 
ATOM      8  N   UNL d   1      -3.319  -1.029  -0.068  0.00  0.00    -0.225 N 
ATOM      9  C   UNL d   1      -2.522  -2.260   0.041  0.00  0.00     0.139 C 
ATOM     10  HN  UNL d   1      -4.339  -1.052  -0.062  1.00  0.00     0.177 HD
ATOM     11  C   UNL d   1      -1.111  -2.133  -0.522  0.00  0.00     0.040 C 
ATOM     12  C   UNL d   1      -0.459  -0.893   0.059  0.00  0.00     0.139 C 
ATOM     13  N   UNL d   1      -1.318   0.215  -0.237  0.00  0.00    -0.225 N 
ATOM     14  H   UNL d   1      -1.014   1.156  -0.013  0.00  0.00     0.177 HD
ENDBRANCH   5   7
ENDBRANCH   1   5
BRANCH   3  15
ATOM     15  C   UNL d   1      -2.620   4.871  -0.658  0.00  0.00    -0.012 A 
ATOM     16  C   UNL d   1      -1.218   4.820  -0.676  0.00  0.00     0.016 A 
ATOM     17  C   UNL d   1      -0.455   5.984  -0.826  0.00  0.00     0.037 A 
ATOM     18  C   UNL d   1      -1.085   7.219  -0.957  0.00  0.00     0.068 A 
ATOM     19  C   UNL d   1      -2.480   7.277  -0.935  0.00  0.00     0.037 A 
ATOM     20  C   UNL d   1      -3.247   6.114  -0.786  0.00  0.00     0.016 A 
BRANCH  18  21
ATOM     21  O   UNL d   1      -0.462   8.427  -1.110  0.00  0.00    -0.356 OA
ATOM     22  C   UNL d   1       0.959   8.413  -1.166  0.00  0.00     0.210 C 
ENDBRANCH  18  21
ENDBRANCH   3  15
TORSDOF 4
