REMARK  5 active torsions:
REMARK  status: ('A' for Active; 'I' for Inactive)
REMARK    1  A    between atoms: C_11  and  N_1 
REMARK    2  A    between atoms: C_10  and  C_4 
REMARK    3  A    between atoms: N_12  and  N_7 
REMARK       I    between atoms: C_9  and  N_12 
REMARK    4  A    between atoms: C_14  and  C_9 
REMARK    5  A    between atoms: C_15  and  C_14 
ROOT
ATOM      1  N   UNL d   1      -2.073  -2.832  -0.032  0.00  0.00    -0.308 N 
ATOM      2  HN  UNL d   1      -2.745  -2.066  -0.059  1.00  0.00     0.186 HD
ATOM      3  C   UNL d   1      -0.804  -2.599   0.011  0.00  0.00     0.122 C 
ENDROOT
BRANCH   3   4
ATOM      4  C   UNL d   1      -0.369  -1.220   0.005  0.00  0.00     0.022 A 
ATOM      5  C   UNL d   1      -1.177  -0.102  -0.046  0.00  0.00     0.131 A 
ATOM      6  N   UNL d   1      -0.365   1.008  -0.054  0.00  0.00    -0.267 N 
ATOM      7  N   UNL d   1       0.947   0.647  -0.002  0.00  0.00    -0.298 N 
ATOM      8  C   UNL d   1       0.942  -0.690   0.048  0.00  0.00     0.035 A 
ATOM      9  HN  UNL d   1       1.759   1.264  -0.000  1.00  0.00     0.187 HD
ATOM     10  C   UNL d   1       2.222  -1.434   0.141  0.00  0.00     0.070 C 
BRANCH   6  11
ATOM     11  C   UNL d   1      -0.753   2.378  -0.108  0.00  0.00     0.056 A 
ATOM     12  C   UNL d   1       0.232   3.378  -0.157  0.00  0.00     0.031 A 
ATOM     13  C   UNL d   1      -0.133   4.726  -0.215  0.00  0.00     0.002 A 
ATOM     14  C   UNL d   1      -1.479   5.087  -0.223  0.00  0.00     0.000 A 
ATOM     15  C   UNL d   1      -2.463   4.102  -0.173  0.00  0.00     0.002 A 
ATOM     16  C   UNL d   1      -2.105   2.750  -0.117  0.00  0.00     0.031 A 
ENDBRANCH   6  11
ENDBRANCH   3   4
BRANCH   1  17
ATOM     17  N   UNL d   1      -2.491  -4.130  -0.039  0.00  0.00    -0.270 N 
ATOM     18  C   UNL d   1      -3.858  -4.371  -0.100  0.00  0.00     0.240 C 
ATOM     19  O   UNL d   1      -4.717  -3.489  -0.155  0.00  0.00    -0.272 OA
ATOM     20  H   UNL d   1      -1.817  -4.887  -0.055  0.00  0.00     0.190 HD
BRANCH  18  21
ATOM     21  C   UNL d   1      -4.242  -5.839  -0.093  0.00  0.00     0.143 C 
BRANCH  21  22
ATOM     22  C   UNL d   1      -4.450  -6.468  -1.453  0.00  0.00    -0.049 A 
ATOM     23  C   UNL d   1      -4.327  -7.861  -1.587  0.00  0.00     0.007 A 
ATOM     24  C   UNL d   1      -4.607  -8.492  -2.802  0.00  0.00     0.001 A 
ATOM     25  C   UNL d   1      -5.023  -7.741  -3.898  0.00  0.00     0.000 A 
ATOM     26  C   UNL d   1      -5.157  -6.360  -3.780  0.00  0.00     0.001 A 
ATOM     27  C   UNL d   1      -4.878  -5.728  -2.565  0.00  0.00     0.007 A 
ENDBRANCH  21  22
ENDBRANCH  18  21
ENDBRANCH   1  17
TORSDOF 5
