REMARK  2 active torsions:
REMARK  status: ('A' for Active; 'I' for Inactive)
REMARK    1  A    between atoms: C_8  and  C_4 
REMARK    2  A    between atoms: C_10  and  C_7 
ROOT
ATOM      1  N   UNL d   1       1.496   0.366  -0.011  0.00  0.00    -0.337 N 
ATOM      2  HN  UNL d   1       2.327   0.957   0.012  1.00  0.00     0.167 HD
ATOM      3  N   UNL d   1       0.192  -1.460  -0.060  0.00  0.00    -0.307 N 
ATOM      4  C   UNL d   1       1.442  -0.932  -0.070  0.00  0.00     0.119 A 
ATOM      5  C   UNL d   1       0.170   0.764   0.012  0.00  0.00     0.103 A 
ATOM      6  C   UNL d   1      -0.708  -0.446  -0.010  0.00  0.00     0.273 A 
ATOM      7  C   UNL d   1      -0.219   2.044   0.037  0.00  0.00     0.046 C 
ATOM      8  O   UNL d   1      -1.918  -0.543   0.001  0.00  0.00    -0.266 OA
ATOM      9  H   UNL d   1      -0.081  -2.427  -0.058  0.00  0.00     0.170 HD
ENDROOT
BRANCH   7  10
ATOM     10  C   UNL d   1      -1.604   2.506   0.090  0.00  0.00    -0.034 A 
ATOM     11  C   UNL d   1      -2.215   2.721   1.330  0.00  0.00     0.011 A 
ATOM     12  C   UNL d   1      -3.537   3.162   1.397  0.00  0.00     0.001 A 
ATOM     13  C   UNL d   1      -4.255   3.392   0.224  0.00  0.00     0.000 A 
ATOM     14  C   UNL d   1      -3.652   3.181  -1.015  0.00  0.00     0.001 A 
ATOM     15  C   UNL d   1      -2.328   2.739  -1.085  0.00  0.00     0.011 A 
ENDBRANCH   7  10
BRANCH   4  16
ATOM     16  C   UNL d   1       2.612  -1.822  -0.151  0.00  0.00     0.008 A 
ATOM     17  C   UNL d   1       2.528  -3.053  -0.812  0.00  0.00     0.015 A 
ATOM     18  C   UNL d   1       3.661  -3.859  -0.930  0.00  0.00     0.001 A 
ATOM     19  C   UNL d   1       4.874  -3.442  -0.384  0.00  0.00     0.000 A 
ATOM     20  C   UNL d   1       4.959  -2.219   0.283  0.00  0.00     0.001 A 
ATOM     21  C   UNL d   1       3.830  -1.405   0.395  0.00  0.00     0.015 A 
ENDBRANCH   4  16
TORSDOF 2
