REMARK  5 active torsions:
REMARK  status: ('A' for Active; 'I' for Inactive)
REMARK    1  A    between atoms: S_8  and  C_1 
REMARK    2  A    between atoms: C_13  and  S_8 
REMARK    3  A    between atoms: C_9  and  C_13 
REMARK    4  A    between atoms: O_16  and  C_9 
REMARK    5  A    between atoms: C_17  and  O_16 
ROOT
ATOM      1  C   UNL d   1       2.849  -1.183   0.004  0.00  0.00     0.113 A 
ATOM      2  N   UNL d   1       1.742  -1.654   0.530  0.00  0.00    -0.344 N 
ATOM      3  HN  UNL d   1       1.650  -2.557   0.996  1.00  0.00     0.167 HD
ATOM      4  S   UNL d   1       2.738   0.358  -0.731  0.00  0.00    -0.063 SA
ATOM      5  C   UNL d   1       0.711  -0.735   0.356  0.00  0.00     0.052 A 
ATOM      6  C   UNL d   1       1.069   0.433  -0.325  0.00  0.00     0.034 A 
ATOM      7  C   UNL d   1      -0.629  -0.886   0.788  0.00  0.00     0.054 A 
ATOM      8  C   UNL d   1       0.144   1.458  -0.588  0.00  0.00     0.023 A 
ATOM      9  C   UNL d   1      -1.547   0.135   0.527  0.00  0.00     0.036 A 
ATOM     10  C   UNL d   1      -1.173   1.293  -0.151  0.00  0.00     0.025 A 
ATOM     11 CL   UNL d   1      -3.179  -0.045   1.051  0.00  0.00    -0.084 Cl
ENDROOT
BRANCH   1  12
ATOM     12  S   UNL d   1       4.375  -2.049   0.078  0.00  0.00    -0.095 SA
BRANCH  12  13
ATOM     13  C   UNL d   1       3.822  -3.772  -0.041  0.00  0.00     0.192 C 
BRANCH  13  14
ATOM     14  C   UNL d   1       2.996  -4.017  -1.283  0.00  0.00     0.268 C 
ATOM     15  O   UNL d   1       3.093  -3.414  -2.344  0.00  0.00    -0.264 OA
BRANCH  14  16
ATOM     16  O   UNL d   1       2.100  -5.018  -1.035  0.00  0.00    -0.321 OA
BRANCH  16  17
ATOM     17  C   UNL d   1       0.974  -5.056  -1.923  0.00  0.00     0.174 C 
ATOM     18  C   UNL d   1      -0.078  -4.107  -1.379  0.00  0.00     0.034 C 
ENDBRANCH  16  17
ENDBRANCH  14  16
ENDBRANCH  13  14
ENDBRANCH  12  13
ENDBRANCH   1  12
TORSDOF 5
