REMARK  3 active torsions:
REMARK  status: ('A' for Active; 'I' for Inactive)
REMARK    1  A    between atoms: S_2  and  C_1 
REMARK    2  A    between atoms: N_6  and  S_2 
REMARK    3  A    between atoms: C_7  and  N_14 
ROOT
ATOM      1  N   UNL d   1       3.811  -0.407   0.954  0.00  0.00    -0.302 N 
ATOM      2  N   UNL d   1       1.906  -1.565   2.946  0.00  0.00     0.105 N 
ATOM      3  C   UNL d   1       3.641  -1.872   1.112  0.00  0.00     0.165 C 
ATOM      4  C   UNL d   1       3.451   0.357   2.169  0.00  0.00     0.165 C 
ATOM      5  C   UNL d   1       2.255  -2.219   1.671  0.00  0.00     0.294 C 
ATOM      6  C   UNL d   1       2.139  -0.117   2.841  0.00  0.00     0.294 C 
ENDROOT
BRANCH   2   7
ATOM      7  C   UNL d   1       2.356  -2.220   4.192  0.00  0.00     0.290 C 
ATOM      8  C   UNL d   1       3.850  -2.181   4.499  0.00  0.00    -0.009 C 
ATOM      9  C   UNL d   1       4.410  -3.472   4.380  0.00  0.00    -0.017 C 
ATOM     10  C   UNL d   1       4.630  -1.106   4.900  0.00  0.00     0.010 C 
ATOM     11  C   UNL d   1       5.778  -3.657   4.490  0.00  0.00     0.013 C 
ATOM     12  C   UNL d   1       3.341  -4.428   4.184  0.00  0.00    -0.017 A 
ATOM     13  C   UNL d   1       6.581  -2.549   4.777  0.00  0.00     0.001 C 
ATOM     14  C   UNL d   1       6.009  -1.290   5.010  0.00  0.00     0.001 C 
ATOM     15  C   UNL d   1       2.110  -3.735   4.150  0.00  0.00    -0.009 A 
ATOM     16  C   UNL d   1       3.373  -5.806   4.054  0.00  0.00     0.013 A 
ATOM     17  C   UNL d   1       0.904  -4.407   4.005  0.00  0.00     0.010 A 
ATOM     18  C   UNL d   1       0.940  -5.796   3.868  0.00  0.00     0.001 A 
ATOM     19  C   UNL d   1       2.163  -6.488   3.888  0.00  0.00     0.001 A 
ENDBRANCH   2   7
BRANCH   1  20
ATOM     20  S   UNL d   1       3.387   0.256  -0.538  0.00  0.00     0.278 S 
ATOM     21  O   UNL d   1       3.745   1.658  -0.547  0.00  0.00    -0.199 OA
ATOM     22  O   UNL d   1       2.043  -0.173  -0.875  0.00  0.00    -0.199 OA
BRANCH  20  23
ATOM     23  C   UNL d   1       4.392  -0.448  -1.780  0.00  0.00     0.166 A 
ATOM     24  N   UNL d   1       5.354  -1.413  -1.527  0.00  0.00    -0.334 N 
ATOM     25  C   UNL d   1       5.864  -1.727  -2.700  0.00  0.00     0.079 A 
ATOM     26  HN  UNL d   1       5.613  -1.799  -0.619  1.00  0.00     0.168 HD
ATOM     27  C   UNL d   1       6.911  -2.753  -2.937  0.00  0.00     0.089 C 
ATOM     28  N   UNL d   1       5.280  -0.979  -3.696  0.00  0.00    -0.348 N 
ATOM     29  C   UNL d   1       4.342  -0.165  -3.128  0.00  0.00     0.135 A 
ATOM     30  C   UNL d   1       5.580  -1.056  -5.104  0.00  0.00     0.156 C 
ENDBRANCH  20  23
ENDBRANCH   1  20
TORSDOF 3
