REMARK  9 active torsions:
REMARK  status: ('A' for Active; 'I' for Inactive)
REMARK    1  A    between atoms: O_9  and  C_3 
REMARK       I    between atoms: C_4  and  N_5 
REMARK    2  A    between atoms: C_23  and  C_4 
REMARK    3  A    between atoms: N_5  and  C_15 
REMARK    4  A    between atoms: C_6  and  C_8 
REMARK    5  A    between atoms: C_7  and  C_24 
REMARK    6  A    between atoms: O_19  and  C_7 
REMARK    7  A    between atoms: C_17  and  O_9 
REMARK    8  A    between atoms: S_14  and  C_23 
REMARK    9  A    between atoms: C_24  and  S_14 
ROOT
ATOM      1  N   UNL d   1       0.652  -1.266  -0.744  0.00  0.00    -0.344 N 
ATOM      2  HN  UNL d   1       0.964  -2.136  -1.176  1.00  0.00     0.167 HD
ATOM      3  C   UNL d   1      -0.523  -1.191  -0.088  0.00  0.00     0.148 A 
ATOM      4  C   UNL d   1       1.022   1.083  -0.266  0.00  0.00     0.050 A 
ATOM      5  C   UNL d   1       1.399  -0.142  -0.807  0.00  0.00     0.119 A 
ATOM      6  C   UNL d   1      -1.012  -0.015   0.461  0.00  0.00     0.059 A 
ATOM      7  C   UNL d   1      -0.216   1.137   0.378  0.00  0.00     0.035 A 
ENDROOT
BRANCH   3   8
ATOM      8  O   UNL d   1      -1.284  -2.342   0.064  0.00  0.00    -0.294 OA
BRANCH   8   9
ATOM      9  C   UNL d   1      -0.591  -3.526   0.206  0.00  0.00     0.077 A 
ATOM     10  C   UNL d   1       0.564  -3.638   0.980  0.00  0.00     0.038 A 
ATOM     11  C   UNL d   1       1.229  -4.861   1.080  0.00  0.00     0.011 A 
ATOM     12  C   UNL d   1       0.737  -6.021   0.456  0.00  0.00    -0.050 A 
ATOM     13  C   UNL d   1      -0.450  -5.894  -0.291  0.00  0.00     0.011 A 
ATOM     14  C   UNL d   1      -1.109  -4.661  -0.411  0.00  0.00     0.038 A 
BRANCH  12  15
ATOM     15  C   UNL d   1       1.496  -7.348   0.615  0.00  0.00    -0.024 C 
ATOM     16  C   UNL d   1       0.795  -8.553  -0.047  0.00  0.00     0.019 C 
ATOM     17  C   UNL d   1       2.900  -7.226  -0.017  0.00  0.00     0.019 C 
ATOM     18  C   UNL d   1       1.646  -7.677   2.118  0.00  0.00     0.019 C 
ENDBRANCH  12  15
ENDBRANCH   8   9
ENDBRANCH   3   8
BRANCH   4  19
ATOM     19  N   UNL d   1       1.817   2.252  -0.311  0.00  0.00    -0.325 N 
ATOM     20  C   UNL d   1       2.992   2.394  -1.024  0.00  0.00     0.231 C 
ATOM     21  O   UNL d   1       3.489   1.548  -1.770  0.00  0.00    -0.272 OA
ATOM     22  H   UNL d   1       1.480   3.048   0.217  0.00  0.00     0.169 HD
BRANCH  20  23
ATOM     23  C   UNL d   1       3.727   3.703  -0.794  0.00  0.00     0.177 C 
BRANCH  23  24
ATOM     24  S   UNL d   1       5.034   3.489   0.458  0.00  0.00    -0.149 SA
BRANCH  24  25
ATOM     25  C   UNL d   1       5.995   2.095  -0.235  0.00  0.00     0.184 C 
BRANCH  25  26
ATOM     26  C   UNL d   1       6.591   2.401  -1.592  0.00  0.00     0.149 C 
ATOM     27  O   UNL d   1       7.640   3.009  -1.753  0.00  0.00    -0.649 OA
BRANCH  26  28
ATOM     28  O   UNL d   1       5.860   1.958  -2.640  0.00  0.00    -0.776 OA
ATOM     29  H   UNL d   1       5.001   1.529  -2.401  0.00  0.00     0.167 HD
ENDBRANCH  26  28
ENDBRANCH  25  26
ENDBRANCH  24  25
ENDBRANCH  23  24
ENDBRANCH  20  23
ENDBRANCH   4  19
TORSDOF 9
