REMARK  5 active torsions:
REMARK  status: ('A' for Active; 'I' for Inactive)
REMARK    1  A    between atoms: C_3  and  S_1 
REMARK    2  A    between atoms: N_4  and  S_1 
REMARK    3  A    between atoms: N_2  and  C_8 
REMARK    4  A    between atoms: C_16  and  N_4 
REMARK    5  A    between atoms: C_17  and  C_16 
ROOT
ATOM      1  C   UNL d   1      -0.596  -6.363   1.428  0.00  0.00     0.030 A 
ATOM      2  C   UNL d   1      -0.812  -5.169   2.126  0.00  0.00     0.030 A 
ATOM      3  C   UNL d   1       0.195  -6.280   0.274  0.00  0.00     0.030 A 
ATOM      4  C   UNL d   1       0.618  -3.905   0.621  0.00  0.00    -0.040 A 
ATOM      5  C   UNL d   1      -0.237  -3.962   1.727  0.00  0.00     0.011 A 
ATOM      6  C   UNL d   1       0.790  -5.073  -0.131  0.00  0.00     0.011 A 
ENDROOT
BRANCH   4   7
ATOM      7  C   UNL d   1       1.345  -2.624   0.256  0.00  0.00     0.170 C 
BRANCH   7   8
ATOM      8  N   UNL d   1       1.593  -1.790   1.441  0.00  0.00    -0.311 N 
ATOM      9  H   UNL d   1       1.783  -2.291   2.310  0.00  0.00     0.172 HD
BRANCH   8  10
ATOM     10  S   UNL d   1       2.594  -0.459   1.305  0.00  0.00     0.259 S 
ATOM     11  O   UNL d   1       2.909  -0.037   2.651  0.00  0.00    -0.201 OA
ATOM     12  O   UNL d   1       3.645  -0.810   0.374  0.00  0.00    -0.201 OA
BRANCH  10  13
ATOM     13  C   UNL d   1       1.563   0.787   0.566  0.00  0.00     0.085 A 
ATOM     14  C   UNL d   1       0.349   1.214   1.135  0.00  0.00    -0.039 A 
ATOM     15  C   UNL d   1      -0.219   0.683   2.422  0.00  0.00     0.050 C 
ATOM     16  C   UNL d   1      -0.410   2.171   0.433  0.00  0.00     0.008 A 
ATOM     17  C   UNL d   1       0.047   2.719  -0.768  0.00  0.00     0.001 A 
ATOM     18  C   UNL d   1       1.269   2.319  -1.296  0.00  0.00     0.002 A 
ATOM     19  C   UNL d   1       2.023   1.353  -0.636  0.00  0.00     0.026 A 
ENDBRANCH  10  13
ENDBRANCH   8  10
ENDBRANCH   7   8
ENDBRANCH   4   7
BRANCH   1  20
ATOM     20  N   UNL d   1      -1.102  -7.550   1.911  0.00  0.00    -0.378 N 
ATOM     21  C   UNL d   1      -0.471  -8.850   1.649  0.00  0.00     0.153 C 
ATOM     22  C   UNL d   1      -0.544  -9.727   2.927  0.00  0.00     0.291 C 
ATOM     23  N   UNL d   1      -1.920  -9.874   3.458  0.00  0.00     0.087 N 
ATOM     24  C   UNL d   1      -2.494  -8.530   3.699  0.00  0.00     0.291 C 
ATOM     25  C   UNL d   1      -1.917 -10.656   4.692  0.00  0.00     0.310 C 
ATOM     26  C   UNL d   1      -2.474  -7.643   2.434  0.00  0.00     0.153 C 
ENDBRANCH   1  20
TORSDOF 5
