REMARK  4 active torsions:
REMARK  status: ('A' for Active; 'I' for Inactive)
REMARK    1  A    between atoms: C_2  and  N_1 
REMARK    2  A    between atoms: N_5  and  C_3 
REMARK       I    between atoms: C_4  and  N_5 
REMARK    3  A    between atoms: O_11  and  C_4 
REMARK    4  A    between atoms: C_13  and  O_11 
ROOT
ATOM      1  C   UNL d   1       4.716   4.320  -2.804  0.00  0.00    -0.091 C 
ATOM      2  C   UNL d   1       4.856   5.499  -2.640  0.00  0.00     0.014 C 
ATOM      3  C   UNL d   1       4.575   2.872  -3.001  0.00  0.00     0.273 C 
ENDROOT
BRANCH   3   4
ATOM      4  O   UNL d   1       3.222   2.491  -2.747  0.00  0.00    -0.292 OA
BRANCH   4   5
ATOM      5  C   UNL d   1       3.027   1.153  -2.857  0.00  0.00     0.366 C 
ATOM      6  N   UNL d   1       1.861   0.701  -2.298  0.00  0.00    -0.300 N 
ATOM      7  H   UNL d   1       1.909  -0.296  -2.090  0.00  0.00     0.171 HD
ATOM      8  O   UNL d   1       3.861   0.368  -3.294  0.00  0.00    -0.238 OA
BRANCH   6   9
ATOM      9  C   UNL d   1       0.807   1.443  -1.724  0.00  0.00     0.070 A 
ATOM     10  C   UNL d   1       0.123   0.979  -0.584  0.00  0.00     0.129 A 
ATOM     11  C   UNL d   1      -0.945   1.699  -0.025  0.00  0.00     0.038 A 
ATOM     12  C   UNL d   1      -1.364   2.882  -0.628  0.00  0.00     0.003 A 
ATOM     13  C   UNL d   1      -0.712   3.346  -1.770  0.00  0.00     0.002 A 
ATOM     14  C   UNL d   1       0.369   2.638  -2.309  0.00  0.00     0.032 A 
BRANCH  10  15
ATOM     15  N   UNL d   1       0.567  -0.225   0.112  0.00  0.00    -0.113 N 
ATOM     16  O   UNL d   1       0.974  -1.171  -0.579  0.00  0.00    -0.532 OA
ATOM     17  O   UNL d   1       0.514  -0.223   1.350  0.00  0.00    -0.532 OA
ENDBRANCH  10  15
ENDBRANCH   6   9
ENDBRANCH   4   5
ENDBRANCH   3   4
TORSDOF 4
