REMARK  7 active torsions:
REMARK  status: ('A' for Active; 'I' for Inactive)
REMARK    1  A    between atoms: N_2  and  C_1 
REMARK    2  A    between atoms: N_4  and  C_1 
REMARK    3  A    between atoms: C_8  and  N_2 
REMARK    4  A    between atoms: C_9  and  N_4 
REMARK    5  A    between atoms: C_7  and  C_9 
REMARK    6  A    between atoms: O_16  and  C_10 
REMARK    7  A    between atoms: C_19  and  O_16 
ROOT
ATOM      1  C   UNL d   1       1.132  -0.137   0.171  0.00  0.00     0.172 C 
ATOM      2  S   UNL d   1       2.743  -0.229  -0.269  0.00  0.00    -0.041 SA
ENDROOT
BRANCH   1   3
ATOM      3  N   UNL d   1       0.388  -1.079   0.847  0.00  0.00    -0.333 N 
ATOM      4  H   UNL d   1      -0.514  -1.257   0.425  0.00  0.00     0.168 HD
BRANCH   3   5
ATOM      5  C   UNL d   1       0.889  -2.084   1.703  0.00  0.00     0.034 A 
ATOM      6  C   UNL d   1       1.924  -1.809   2.599  0.00  0.00     0.032 A 
ATOM      7  C   UNL d   1       2.445  -2.816   3.413  0.00  0.00     0.039 A 
ATOM      8  C   UNL d   1       1.938  -4.110   3.335  0.00  0.00     0.068 A 
ATOM      9  C   UNL d   1       0.842  -4.367   2.509  0.00  0.00     0.039 A 
ATOM     10  C   UNL d   1       0.306  -3.351   1.702  0.00  0.00     0.032 A 
BRANCH   8  11
ATOM     11  O   UNL d   1       2.423  -5.172   4.052  0.00  0.00    -0.352 OA
BRANCH  11  12
ATOM     12  C   UNL d   1       3.833  -5.124   4.296  0.00  0.00     0.171 C 
ATOM     13  C   UNL d   1       4.261  -6.421   4.956  0.00  0.00     0.034 C 
ENDBRANCH  11  12
ENDBRANCH   8  11
ENDBRANCH   3   5
ENDBRANCH   1   3
BRANCH   1  14
ATOM     14  N   UNL d   1       0.435   0.966  -0.240  0.00  0.00    -0.363 N 
ATOM     15  H   UNL d   1       1.010   1.614  -0.774  0.00  0.00     0.162 HD
BRANCH  14  16
ATOM     16  C   UNL d   1      -0.655   1.575   0.497  0.00  0.00     0.162 C 
BRANCH  16  17
ATOM     17  C   UNL d   1      -1.909   1.777  -0.300  0.00  0.00    -0.025 A 
ATOM     18  C   UNL d   1      -2.948   2.512   0.269  0.00  0.00     0.096 A 
ATOM     19  N   UNL d   1      -4.157   2.701  -0.305  0.00  0.00    -0.375 N 
ATOM     20  C   UNL d   1      -4.347   2.132  -1.513  0.00  0.00     0.087 A 
ATOM     21  HN  UNL d   1      -4.888   3.247   0.151  1.00  0.00     0.164 HD
ATOM     22  C   UNL d   1      -3.378   1.401  -2.179  0.00  0.00     0.018 A 
ATOM     23  C   UNL d   1      -2.141   1.223  -1.561  0.00  0.00     0.011 A 
ENDBRANCH  16  17
ENDBRANCH  14  16
ENDBRANCH   1  14
TORSDOF 7
