REMARK  4 active torsions:
REMARK  status: ('A' for Active; 'I' for Inactive)
REMARK    1  A    between atoms: N_5  and  C_1 
REMARK    2  A    between atoms: C_9  and  C_6 
REMARK    3  A    between atoms: S_8  and  C_9 
REMARK    4  A    between atoms: C_11  and  S_8 
ROOT
ATOM      1  C   UNL d   1       0.163  -1.195  -0.002  0.00  0.00     0.147 A 
ATOM      2  N   UNL d   1       1.364  -0.652   0.036  0.00  0.00    -0.339 N 
ATOM      3  HN  UNL d   1       2.232  -1.188   0.053  1.00  0.00     0.168 HD
ATOM      4  S   UNL d   1      -1.114  -0.021  -0.002  0.00  0.00    -0.064 SA
ATOM      5  C   UNL d   1       1.308   0.736   0.050  0.00  0.00     0.027 A 
ATOM      6  C   UNL d   1       0.026   1.247   0.009  0.00  0.00     0.079 A 
ENDROOT
BRANCH   5   7
ATOM      7  C   UNL d   1       2.590   1.510   0.029  0.00  0.00     0.137 C 
BRANCH   7   8
ATOM      8  S   UNL d   1       2.703   2.682   1.424  0.00  0.00    -0.124 SA
BRANCH   8   9
ATOM      9  C   UNL d   1       4.258   3.523   1.151  0.00  0.00     0.001 A 
ATOM     10  C   UNL d   1       5.141   3.269   0.096  0.00  0.00     0.020 A 
ATOM     11  C   UNL d   1       6.338   3.987  -0.024  0.00  0.00     0.025 A 
ATOM     12  C   UNL d   1       6.663   4.965   0.913  0.00  0.00     0.034 A 
ATOM     13  C   UNL d   1       5.798   5.234   1.969  0.00  0.00     0.025 A 
ATOM     14 CL   UNL d   1       8.133   5.841   0.764  0.00  0.00    -0.084 Cl
ATOM     15  C   UNL d   1       4.604   4.515   2.085  0.00  0.00     0.020 A 
ENDBRANCH   8   9
ENDBRANCH   7   8
ENDBRANCH   5   7
BRANCH   1  16
ATOM     16  N   UNL d   1      -0.049  -2.541  -0.112  0.00  0.00    -0.357 N 
ATOM     17  C   UNL d   1       1.126  -3.422   0.011  0.00  0.00     0.151 C 
ATOM     18  C   UNL d   1       0.827  -4.781  -0.641  0.00  0.00     0.187 C 
ATOM     19  O   UNL d   1      -0.353  -5.387  -0.088  0.00  0.00    -0.388 OA
ATOM     20  C   UNL d   1      -1.486  -4.528  -0.286  0.00  0.00     0.187 C 
ATOM     21  C   UNL d   1      -1.286  -3.163   0.391  0.00  0.00     0.151 C 
ENDBRANCH   1  16
TORSDOF 4
