REMARK  6 active torsions:
REMARK  status: ('A' for Active; 'I' for Inactive)
REMARK    1  A    between atoms: C_6  and  C_1 
REMARK       I    between atoms: N_17  and  C_6 
REMARK    2  A    between atoms: C_9  and  C_19 
REMARK    3  A    between atoms: C_22  and  N_17 
REMARK    4  A    between atoms: S_18  and  C_23 
REMARK    5  A    between atoms: C_19  and  S_18 
REMARK    6  A    between atoms: C_23  and  C_22 
ROOT
ATOM      1  C   UNL d   1      -3.954   0.019  -0.509  0.00  0.00     0.268 C 
ATOM      2  O   UNL d   1      -4.529  -1.067  -0.509  0.00  0.00    -0.266 OA
ATOM      3  N   UNL d   1      -4.602   1.193  -0.801  0.00  0.00    -0.355 N 
ATOM      4  H   UNL d   1      -4.069   2.045  -0.909  0.00  0.00     0.162 HD
ENDROOT
BRANCH   1   5
ATOM      5  C   UNL d   1      -2.554   0.153  -0.176  0.00  0.00     0.102 A 
ATOM      6  N   UNL d   1      -1.769  -0.936   0.134  0.00  0.00    -0.351 N 
ATOM      7  C   UNL d   1      -0.521  -0.544   0.562  0.00  0.00     0.044 A 
ATOM      8  H   UNL d   1      -2.105  -1.891   0.113  0.00  0.00     0.166 HD
ATOM      9  C   UNL d   1       0.546  -1.308   1.055  0.00  0.00     0.037 A 
ATOM     10  C   UNL d   1      -0.470   0.843   0.453  0.00  0.00    -0.001 A 
ATOM     11  C   UNL d   1       1.697  -0.628   1.475  0.00  0.00    -0.059 A 
ATOM     12  C   UNL d   1       2.852  -1.373   2.083  0.00  0.00     0.048 C 
ATOM     13  C   UNL d   1       1.767   0.766   1.364  0.00  0.00     0.014 A 
ATOM     14  C   UNL d   1       0.702   1.530   0.846  0.00  0.00    -0.049 A 
ATOM     15  C   UNL d   1       0.849   3.025   0.789  0.00  0.00     0.049 C 
ATOM     16  C   UNL d   1      -1.738   1.264  -0.042  0.00  0.00     0.049 A 
ENDBRANCH   1   5
BRANCH   3  17
ATOM     17  C   UNL d   1      -6.026   1.234  -1.070  0.00  0.00     0.133 C 
BRANCH  17  18
ATOM     18  C   UNL d   1      -6.534   2.636  -1.409  0.00  0.00     0.094 C 
BRANCH  18  19
ATOM     19  S   UNL d   1      -5.623   3.449  -2.769  0.00  0.00    -0.161 SA
BRANCH  19  20
ATOM     20  C   UNL d   1      -5.980   2.277  -4.123  0.00  0.00     0.139 C 
BRANCH  20  21
ATOM     21  C   UNL d   1      -5.311   2.702  -5.378  0.00  0.00     0.061 A 
ATOM     22  O   UNL d   1      -6.115   2.918  -6.459  0.00  0.00    -0.326 OA
ATOM     23  C   UNL d   1      -5.306   3.274  -7.489  0.00  0.00     0.142 A 
ATOM     24  C   UNL d   1      -3.991   3.283  -7.090  0.00  0.00     0.027 A 
ATOM     25  C   UNL d   1      -3.990   2.905  -5.727  0.00  0.00     0.035 A 
ENDBRANCH  20  21
ENDBRANCH  19  20
ENDBRANCH  18  19
ENDBRANCH  17  18
ENDBRANCH   3  17
TORSDOF 6
