REMARK  7 active torsions:
REMARK  status: ('A' for Active; 'I' for Inactive)
REMARK    1  A    between atoms: C_6  and  C_1 
REMARK    2  A    between atoms: C_12  and  C_3 
REMARK    3  A    between atoms: C_7  and  C_4 
REMARK    4  A    between atoms: O_11  and  C_7 
REMARK    5  A    between atoms: N_8  and  O_11 
REMARK    6  A    between atoms: C_14  and  C_10 
REMARK    7  A    between atoms: N_18  and  C_10 
ROOT
ATOM      1  C   UNL d   1       1.669  -3.408  -0.009  0.00  0.00     0.100 A 
ATOM      2  S   UNL d   1      -0.034  -3.137   0.007  0.00  0.00    -0.079 SA
ATOM      3  C   UNL d   1       2.373  -2.207   0.028  0.00  0.00    -0.002 A 
ATOM      4  C   UNL d   1       0.130  -1.446   0.072  0.00  0.00     0.083 A 
ATOM      5  C   UNL d   1       1.464  -1.089   0.064  0.00  0.00     0.038 A 
ENDROOT
BRANCH   4   6
ATOM      6  C   UNL d   1      -1.001  -0.536   0.181  0.00  0.00     0.322 C 
ATOM      7  O   UNL d   1      -0.889   0.683   0.303  0.00  0.00    -0.257 OA
BRANCH   6   8
ATOM      8  O   UNL d   1      -2.200  -1.209   0.136  0.00  0.00    -0.193 OA
BRANCH   8   9
ATOM      9  N   UNL d   1      -3.083  -0.629   1.070  0.00  0.00    -0.246 N 
ATOM     10  C   UNL d   1      -4.300  -1.060   0.920  0.00  0.00     0.109 C 
ATOM     11  HN  UNL d   1      -2.801   0.048   1.779  1.00  0.00     0.196 HD
BRANCH  10  12
ATOM     12  C   UNL d   1      -5.294  -0.680   1.973  0.00  0.00     0.004 A 
ATOM     13  C   UNL d   1      -5.111   0.486   2.726  0.00  0.00     0.015 A 
ATOM     14  C   UNL d   1      -6.009   0.806   3.745  0.00  0.00     0.001 A 
ATOM     15  C   UNL d   1      -7.080  -0.040   4.024  0.00  0.00     0.000 A 
ATOM     16  C   UNL d   1      -7.263  -1.208   3.280  0.00  0.00     0.001 A 
ATOM     17  C   UNL d   1      -6.372  -1.528   2.254  0.00  0.00     0.015 A 
ENDBRANCH  10  12
BRANCH  10  18
ATOM     18  N   UNL d   1      -4.718  -1.834  -0.138  0.00  0.00    -0.286 NA
ATOM     19  H   UNL d   1      -4.075  -1.791  -0.921  0.00  0.00     0.125 HD
ATOM     20  H   UNL d   1      -5.677  -1.673  -0.431  0.00  0.00     0.125 HD
ENDBRANCH  10  18
ENDBRANCH   8   9
ENDBRANCH   6   8
ENDBRANCH   4   6
BRANCH   1  21
ATOM     21  C   UNL d   1       2.145  -4.830  -0.058  0.00  0.00     0.424 C 
ATOM     22  F   UNL d   1       1.162  -5.718  -0.367  0.00  0.00    -0.166 F 
ATOM     23  F   UNL d   1       3.123  -5.015  -0.981  0.00  0.00    -0.166 F 
ATOM     24  F   UNL d   1       2.647  -5.234   1.139  0.00  0.00    -0.166 F 
ENDBRANCH   1  21
BRANCH   3  25
ATOM     25  C   UNL d   1       3.839  -2.078   0.009  0.00  0.00    -0.025 A 
ATOM     26  C   UNL d   1       4.423  -1.007  -0.689  0.00  0.00     0.012 A 
ATOM     27  C   UNL d   1       5.809  -0.822  -0.704  0.00  0.00     0.001 A 
ATOM     28  C   UNL d   1       6.638  -1.716  -0.033  0.00  0.00     0.000 A 
ATOM     29  C   UNL d   1       6.077  -2.778   0.670  0.00  0.00     0.001 A 
ATOM     30  C   UNL d   1       4.688  -2.946   0.708  0.00  0.00     0.012 A 
ENDBRANCH   3  25
TORSDOF 7
