REMARK  3 active torsions:
REMARK  status: ('A' for Active; 'I' for Inactive)
REMARK    1  A    between atoms: C_6  and  S_12 
REMARK    2  A    between atoms: S_12  and  C_8 
REMARK    3  A    between atoms: C_25  and  C_11 
ROOT
ATOM      1  C   UNL d   1       1.308   1.035   0.051  0.00  0.00     0.068 A 
ATOM      2  C   UNL d   1      -1.157   0.883   0.032  0.00  0.00     0.088 A 
ATOM      3  C   UNL d   1      -0.595  -0.387   0.030  0.00  0.00     0.032 A 
ATOM      4  S   UNL d   1      -0.012   2.134   0.046  0.00  0.00    -0.066 SA
ATOM      5  C   UNL d   1       0.850  -0.284   0.047  0.00  0.00     0.067 A 
ATOM      6  C   UNL d   1       2.687   1.271   0.052  0.00  0.00     0.098 A 
ATOM      7  N   UNL d   1      -2.468   1.196   0.020  0.00  0.00    -0.354 N 
ATOM      8  HN  UNL d   1      -2.802   2.160   0.023  1.00  0.00     0.166 HD
ATOM      9  C   UNL d   1      -1.502  -1.483   0.010  0.00  0.00    -0.045 A 
ATOM     10  N   UNL d   1       3.530   0.216   0.034  0.00  0.00    -0.345 N 
ATOM     11  HN  UNL d   1       4.540   0.353   0.012  1.00  0.00     0.167 HD
ATOM     12  N   UNL d   1       1.710  -1.336   0.049  0.00  0.00    -0.350 N 
ATOM     13  HN  UNL d   1       1.389  -2.304   0.054  1.00  0.00     0.166 HD
ATOM     14  C   UNL d   1       3.003  -1.013   0.044  0.00  0.00     0.181 A 
ATOM     15  C   UNL d   1      -2.875  -1.179   0.000  0.00  0.00     0.032 A 
ATOM     16  C   UNL d   1      -3.303   0.142   0.006  0.00  0.00     0.006 A 
ATOM     17  C   UNL d   1      -1.112  -2.938  -0.001  0.00  0.00     0.049 C 
ATOM     18  C   UNL d   1      -4.774   0.445  -0.000  0.00  0.00     0.068 C 
ENDROOT
BRANCH   6  19
ATOM     19  S   UNL d   1       3.331   2.919  -0.049  0.00  0.00    -0.026 SA
BRANCH  19  20
ATOM     20  C   UNL d   1       4.805   2.709   0.836  0.00  0.00     0.210 A 
ATOM     21  O   UNL d   1       6.010   2.452   0.232  0.00  0.00    -0.267 OA
ATOM     22  C   UNL d   1       6.876   2.492   1.292  0.00  0.00     0.175 A 
ATOM     23  N   UNL d   1       6.269   2.755   2.432  0.00  0.00    -0.277 N 
ATOM     24  N   UNL d   1       4.928   2.899   2.135  0.00  0.00    -0.272 N 
ATOM     25  HN  UNL d   1       6.704   2.836   3.351  1.00  0.00     0.189 HD
ATOM     26  HN  UNL d   1       4.178   3.111   2.793  1.00  0.00     0.189 HD
BRANCH  22  27
ATOM     27  C   UNL d   1       8.289   2.275   1.010  0.00  0.00     0.019 A 
ATOM     28  C   UNL d   1       8.740   1.917  -0.264  0.00  0.00     0.033 A 
ATOM     29  C   UNL d   1      10.098   1.724  -0.458  0.00  0.00     0.088 A 
ATOM     30  N   UNL d   1      11.021   1.866   0.514  0.00  0.00    -0.375 N 
ATOM     31  C   UNL d   1      10.570   2.215   1.737  0.00  0.00     0.088 A 
ATOM     32  HN  UNL d   1      12.014   1.716   0.334  1.00  0.00     0.164 HD
ATOM     33  C   UNL d   1       9.233   2.426   2.030  0.00  0.00     0.033 A 
ENDBRANCH  22  27
ENDBRANCH  19  20
ENDBRANCH   6  19
TORSDOF 3
