REMARK  6 active torsions:
REMARK  status: ('A' for Active; 'I' for Inactive)
REMARK       I    between atoms: C_2  and  N_1 
REMARK    1  A    between atoms: C_6  and  C_2 
REMARK    2  A    between atoms: C_5  and  C_3 
REMARK    3  A    between atoms: C_7  and  C_5 
REMARK       I    between atoms: N_12  and  C_7 
REMARK    4  A    between atoms: C_8  and  C_11 
REMARK    5  A    between atoms: O_24  and  C_8 
REMARK    6  A    between atoms: C_18  and  N_12 
ROOT
ATOM      1  N   UNL d   1      -0.288  -1.169  -0.992  0.00  0.00    -0.332 N 
ATOM      2  C   UNL d   1      -0.412  -2.107  -2.041  0.00  0.00     0.261 C 
ATOM      3  C   UNL d   1      -0.041  -1.654   0.395  0.00  0.00     0.188 C 
ATOM      4  C   UNL d   1      -1.393  -1.966   1.089  0.00  0.00     0.241 C 
ATOM      5  N   UNL d   1      -2.446  -1.130   0.782  0.00  0.00    -0.358 N 
ATOM      6  O   UNL d   1      -0.213  -3.301  -1.840  0.00  0.00    -0.267 OA
ATOM      7  O   UNL d   1      -1.521  -2.768   2.011  0.00  0.00    -0.271 OA
ATOM      8  C   UNL d   1      -1.138   0.032  -0.976  0.00  0.00     0.147 C 
ATOM      9  C   UNL d   1      -2.522  -0.349  -0.442  0.00  0.00     0.142 C 
ATOM     10  H   UNL d   1      -3.308  -1.369   1.263  0.00  0.00     0.162 HD
ENDROOT
BRANCH   3  11
ATOM     11  C   UNL d   1       0.993  -2.761   0.645  0.00  0.00     0.138 C 
BRANCH  11  12
ATOM     12  C   UNL d   1       2.403  -2.249   0.444  0.00  0.00     0.224 C 
ATOM     13  N   UNL d   1       3.175  -3.072  -0.359  0.00  0.00    -0.327 N 
ATOM     14  H   UNL d   1       2.683  -3.808  -0.855  0.00  0.00     0.169 HD
ATOM     15  O   UNL d   1       2.777  -1.213   0.982  0.00  0.00    -0.273 OA
BRANCH  13  16
ATOM     16  C   UNL d   1       4.529  -2.876  -0.717  0.00  0.00     0.035 A 
ATOM     17  C   UNL d   1       5.382  -1.960  -0.090  0.00  0.00     0.047 A 
ATOM     18  C   UNL d   1       6.687  -1.760  -0.573  0.00  0.00     0.041 A 
ATOM     19  C   UNL d   1       7.148  -2.513  -1.659  0.00  0.00     0.018 A 
ATOM     20  C   UNL d   1       6.319  -3.456  -2.259  0.00  0.00     0.003 A 
ATOM     21  C   UNL d   1       5.017  -3.640  -1.785  0.00  0.00     0.029 A 
BRANCH  18  22
ATOM     22  C   UNL d   1       7.607  -0.732  -0.013  0.00  0.00     0.293 C 
ATOM     23  O   UNL d   1       8.796  -0.676  -0.295  0.00  0.00    -0.259 OA
BRANCH  22  24
ATOM     24  O   UNL d   1       6.930   0.153   0.754  0.00  0.00    -0.323 OA
ATOM     25  C   UNL d   1       7.673   1.305   1.159  0.00  0.00     0.213 C 
ENDBRANCH  22  24
ENDBRANCH  18  22
ENDBRANCH  13  16
ENDBRANCH  11  12
ENDBRANCH   3  11
BRANCH   2  26
ATOM     26  C   UNL d   1      -0.780  -1.616  -3.369  0.00  0.00     0.072 A 
ATOM     27  S   UNL d   1      -1.823  -2.577  -4.342  0.00  0.00    -0.097 SA
ATOM     28  C   UNL d   1      -1.826  -1.425  -5.606  0.00  0.00     0.050 A 
ATOM     29  C   UNL d   1      -1.028  -0.342  -5.316  0.00  0.00     0.009 A 
ATOM     30  C   UNL d   1      -0.392  -0.473  -4.046  0.00  0.00     0.025 A 
ENDBRANCH   2  26
TORSDOF 6
