REMARK  4 active torsions:
REMARK  status: ('A' for Active; 'I' for Inactive)
REMARK    1  A    between atoms: C_15  and  N_4 
REMARK       I    between atoms: C_12  and  N_10 
REMARK    2  A    between atoms: O_19  and  C_12 
REMARK    3  A    between atoms: C_20  and  C_15 
REMARK    4  A    between atoms: C_27  and  O_19 
ROOT
ATOM      1  C   UNL d   1       0.660   0.410   0.047  0.00  0.00     0.073 A 
ATOM      2  C   UNL d   1       1.200  -0.858   0.058  0.00  0.00     0.091 A 
ATOM      3  C   UNL d   1       1.574   1.538   0.068  0.00  0.00     0.262 A 
ATOM      4  N   UNL d   1       2.918   1.182   0.098  0.00  0.00    -0.305 N 
ATOM      5  C   UNL d   1      -0.772   0.391   0.034  0.00  0.00    -0.023 A 
ATOM      6  C   UNL d   1      -1.258  -0.905   0.034  0.00  0.00     0.010 A 
ATOM      7  N   UNL d   1       2.519  -1.175   0.093  0.00  0.00    -0.346 N 
ATOM      8  HN  UNL d   1       2.859  -2.136   0.104  1.00  0.00     0.167 HD
ATOM      9  S   UNL d   1      -0.010  -2.065   0.029  0.00  0.00    -0.074 SA
ATOM     10  N   UNL d   1      -3.518  -0.108   0.333  0.00  0.00    -0.323 N 
ATOM     11  C   UNL d   1       3.307  -0.149   0.111  0.00  0.00     0.187 A 
ATOM     12  C   UNL d   1      -4.411  -0.062   1.383  0.00  0.00     0.363 C 
ATOM     13  C   UNL d   1      -2.711  -1.298   0.027  0.00  0.00     0.174 C 
ATOM     14  C   UNL d   1      -1.707   1.567   0.065  0.00  0.00     0.061 C 
ATOM     15  C   UNL d   1      -3.131   1.138  -0.334  0.00  0.00     0.133 C 
ATOM     16  O   UNL d   1       1.177   2.702   0.067  0.00  0.00    -0.267 OA
ATOM     17  O   UNL d   1      -4.940   0.968   1.786  0.00  0.00    -0.238 OA
ENDROOT
BRANCH   4  18
ATOM     18  C   UNL d   1       3.923   2.234   0.090  0.00  0.00     0.171 C 
BRANCH  18  19
ATOM     19  C   UNL d   1       4.317   2.621  -1.321  0.00  0.00    -0.040 A 
ATOM     20  C   UNL d   1       3.611   3.627  -2.003  0.00  0.00     0.012 A 
ATOM     21  C   UNL d   1       3.904   3.919  -3.336  0.00  0.00     0.043 A 
ATOM     22  C   UNL d   1       4.903   3.210  -3.989  0.00  0.00     0.116 A 
ATOM     23  C   UNL d   1       5.635   2.233  -3.325  0.00  0.00     0.043 A 
ATOM     24  F   UNL d   1       5.160   3.465  -5.279  0.00  0.00    -0.206 F 
ATOM     25  C   UNL d   1       5.346   1.939  -1.991  0.00  0.00     0.012 A 
ENDBRANCH  18  19
ENDBRANCH   4  18
BRANCH  12  26
ATOM     26  O   UNL d   1      -4.598  -1.280   1.957  0.00  0.00    -0.304 OA
BRANCH  26  27
ATOM     27  C   UNL d   1      -5.103  -1.260   3.297  0.00  0.00     0.176 C 
ATOM     28  C   UNL d   1      -3.917  -1.118   4.234  0.00  0.00     0.034 C 
ENDBRANCH  26  27
ENDBRANCH  12  26
TORSDOF 4
