REMARK  4 active torsions:
REMARK  status: ('A' for Active; 'I' for Inactive)
REMARK    1  A    between atoms: N_2  and  S_1 
REMARK    2  A    between atoms: C_6  and  S_1 
REMARK    3  A    between atoms: C_3  and  C_7 
REMARK    4  A    between atoms: C_5  and  N_4 
ROOT
ATOM      1  N   UNL d   1       0.465   0.015  -1.351  0.00  0.00    -0.203 NA
ATOM      2  N   UNL d   1      -2.279   0.806  -1.549  0.00  0.00    -0.365 N 
ATOM      3  C   UNL d   1       0.088   1.425  -1.705  0.00  0.00     0.127 C 
ATOM      4  C   UNL d   1      -0.628  -0.958  -1.687  0.00  0.00     0.127 C 
ATOM      5  C   UNL d   1      -1.976  -0.546  -1.063  0.00  0.00     0.140 C 
ATOM      6  C   UNL d   1      -1.294   1.816  -1.130  0.00  0.00     0.140 C 
ENDROOT
BRANCH   2   7
ATOM      7  C   UNL d   1      -3.603   1.170  -1.705  0.00  0.00     0.103 A 
ATOM      8  C   UNL d   1      -3.915   2.214  -2.576  0.00  0.00     0.064 A 
ATOM      9  C   UNL d   1      -5.245   2.525  -2.870  0.00  0.00     0.052 A 
ATOM     10  C   UNL d   1      -6.248   1.788  -2.247  0.00  0.00     0.033 A 
ATOM     11  C   UNL d   1      -5.868   0.771  -1.390  0.00  0.00     0.090 A 
ATOM     12  N   UNL d   1      -4.580   0.443  -1.127  0.00  0.00    -0.352 N 
ATOM     13  HN  UNL d   1      -4.356  -0.335  -0.508  1.00  0.00     0.166 HD
BRANCH   9  14
ATOM     14  C   UNL d   1      -5.570   3.595  -3.872  0.00  0.00     0.417 C 
ATOM     15  F   UNL d   1      -4.468   4.205  -4.393  0.00  0.00    -0.166 F 
ATOM     16  F   UNL d   1      -6.265   3.113  -4.939  0.00  0.00    -0.166 F 
ATOM     17  F   UNL d   1      -6.332   4.591  -3.345  0.00  0.00    -0.166 F 
ENDBRANCH   9  14
ENDBRANCH   2   7
BRANCH   1  18
ATOM     18  S   UNL d   1       1.217  -0.201   0.155  0.00  0.00     0.243 S 
ATOM     19  O   UNL d   1       1.143  -1.600   0.522  0.00  0.00    -0.206 OA
ATOM     20  O   UNL d   1       0.765   0.844   1.045  0.00  0.00    -0.206 OA
BRANCH  18  21
ATOM     21  C   UNL d   1       2.919   0.117  -0.257  0.00  0.00     0.074 A 
ATOM     22  C   UNL d   1       3.608   1.177   0.338  0.00  0.00     0.026 A 
ATOM     23  C   UNL d   1       4.963   1.360   0.047  0.00  0.00     0.025 A 
ATOM     24  C   UNL d   1       5.613   0.487  -0.829  0.00  0.00     0.034 A 
ATOM     25  C   UNL d   1       4.921  -0.567  -1.425  0.00  0.00     0.025 A 
ATOM     26 CL   UNL d   1       7.286   0.706  -1.164  0.00  0.00    -0.084 Cl
ATOM     27  C   UNL d   1       3.569  -0.757  -1.138  0.00  0.00     0.026 A 
ENDBRANCH  18  21
ENDBRANCH   1  18
TORSDOF 4
