REMARK  1 active torsions:
REMARK  status: ('A' for Active; 'I' for Inactive)
REMARK    1  A    between atoms: C_6  and  N_1 
ROOT
ATOM      1  N   UNL d   1       0.008   0.902  -0.022  0.00  0.00    -0.245 N 
ATOM      2  C   UNL d   1       0.872   0.099  -0.719  0.00  0.00     0.255 A 
ATOM      3  C   UNL d   1      -0.861   0.118   0.687  0.00  0.00     0.255 A 
ATOM      4  C   UNL d   1       0.525  -1.294  -0.409  0.00  0.00     0.080 A 
ATOM      5  C   UNL d   1      -0.507  -1.282   0.427  0.00  0.00     0.080 A 
ATOM      6  O   UNL d   1       1.809   0.363  -1.451  0.00  0.00    -0.268 OA
ATOM      7  O   UNL d   1      -1.814   0.402   1.394  0.00  0.00    -0.268 OA
ENDROOT
BRANCH   1   8
ATOM      8  C   UNL d   1       0.002   2.325  -0.044  0.00  0.00     0.045 A 
ATOM      9  C   UNL d   1       0.640   3.043  -1.067  0.00  0.00     0.031 A 
ATOM     10  C   UNL d   1       0.613   4.443  -1.101  0.00  0.00     0.009 A 
ATOM     11  C   UNL d   1      -0.037   5.166  -0.099  0.00  0.00    -0.062 A 
ATOM     12  C   UNL d   1      -0.662   4.467   0.933  0.00  0.00     0.009 A 
ATOM     13  C   UNL d   1      -0.069   6.664  -0.151  0.00  0.00     0.048 C 
ATOM     14  C   UNL d   1      -0.647   3.066   0.955  0.00  0.00     0.031 A 
ENDBRANCH   1   8
TORSDOF 1
