REMARK  2 active torsions:
REMARK  status: ('A' for Active; 'I' for Inactive)
REMARK    1  A    between atoms: C_5  and  C_15 
REMARK    2  A    between atoms: C_16  and  C_6 
ROOT
ATOM      1  C   UNL d   1       4.816   3.189   0.132  0.00  0.00     0.010 A 
ATOM      2  C   UNL d   1       2.479   1.588   0.059  0.00  0.00     0.010 A 
ATOM      3  C   UNL d   1       3.446   1.489  -0.950  0.00  0.00     0.016 A 
ATOM      4  C   UNL d   1       2.694   2.497   1.105  0.00  0.00     0.016 A 
ATOM      5  C   UNL d   1       4.602   2.279  -0.914  0.00  0.00     0.016 A 
ATOM      6  C   UNL d   1       3.849   3.287   1.142  0.00  0.00     0.016 A 
ENDROOT
BRANCH   1   7
ATOM      7  C   UNL d   1       6.011   4.025   0.172  0.00  0.00     0.137 A 
ATOM      8  N   UNL d   1       6.244   4.935   1.183  0.00  0.00    -0.323 N 
ATOM      9  C   UNL d   1       7.388   5.468   0.827  0.00  0.00     0.144 A 
ATOM     10  HN  UNL d   1       5.670   5.140   2.001  1.00  0.00     0.169 HD
ATOM     11  C   UNL d   1       8.185   6.521   1.480  0.00  0.00     0.100 C 
ATOM     12  O   UNL d   1       7.888   4.955  -0.330  0.00  0.00    -0.223 OA
ATOM     13  N   UNL d   1       6.977   3.997  -0.764  0.00  0.00    -0.242 N 
ATOM     14  HN  UNL d   1       7.029   3.411  -1.598  1.00  0.00     0.196 HD
ENDBRANCH   1   7
BRANCH   2  15
ATOM     15  C   UNL d   1       1.283   0.752   0.024  0.00  0.00     0.137 A 
ATOM     16  N   UNL d   1       1.078  -0.204  -0.950  0.00  0.00    -0.323 N 
ATOM     17  C   UNL d   1      -0.073  -0.726  -0.596  0.00  0.00     0.144 A 
ATOM     18  HN  UNL d   1       1.671  -0.445  -1.744  1.00  0.00     0.169 HD
ATOM     19  O   UNL d   1      -0.605  -0.157   0.520  0.00  0.00    -0.223 OA
ATOM     20  C   UNL d   1      -0.847  -1.819  -1.209  0.00  0.00     0.100 C 
ATOM     21  N   UNL d   1       0.294   0.823   0.930  0.00  0.00    -0.242 N 
ATOM     22  HN  UNL d   1       0.219   1.450   1.732  1.00  0.00     0.196 HD
ENDBRANCH   2  15
TORSDOF 2
