REMARK  1 active torsions:
REMARK  status: ('A' for Active; 'I' for Inactive)
REMARK    1  A    between atoms: C_13  and  C_5 
ROOT
ATOM      1  C   UNL d   1       0.185  -1.149   0.008  0.00  0.00     0.104 A 
ATOM      2  C   UNL d   1       0.004  -2.563   0.030  0.00  0.00     0.100 A 
ATOM      3  N   UNL d   1       1.386  -0.608   0.082  0.00  0.00    -0.348 N 
ATOM      4  HN  UNL d   1       2.258  -1.129   0.177  1.00  0.00     0.167 HD
ATOM      5  C   UNL d   1       1.287   0.777   0.009  0.00  0.00     0.050 A 
ATOM      6  S   UNL d   1      -1.120  -0.039  -0.033  0.00  0.00    -0.080 SA
ATOM      7  C   UNL d   1      -0.961  -3.423  -0.443  0.00  0.00     0.058 A 
ATOM      8  N   UNL d   1       0.610  -4.689   0.599  0.00  0.00    -0.310 N 
ATOM      9  HN  UNL d   1       1.125  -5.474   0.998  1.00  0.00     0.186 HD
ATOM     10  N   UNL d   1       0.936  -3.382   0.614  0.00  0.00    -0.297 N 
ATOM     11  C   UNL d   1      -0.008   1.258  -0.018  0.00  0.00     0.082 A 
ATOM     12  C   UNL d   1      -0.551  -4.710  -0.063  0.00  0.00     0.128 A 
ATOM     13 BR   UNL d   1      -2.513  -3.091  -1.433  0.00  0.00    -0.047 Br
ATOM     14  H   UNL d   1       1.807  -3.097   1.053  0.00  0.00     0.187 HD
ENDROOT
BRANCH   5  15
ATOM     15  C   UNL d   1       2.469   1.636  -0.003  0.00  0.00    -0.009 A 
ATOM     16  C   UNL d   1       2.439   2.918  -0.579  0.00  0.00     0.015 A 
ATOM     17  C   UNL d   1       3.575   3.734  -0.569  0.00  0.00     0.024 A 
ATOM     18  C   UNL d   1       4.752   3.273   0.013  0.00  0.00     0.034 A 
ATOM     19  C   UNL d   1       4.806   1.999   0.575  0.00  0.00     0.024 A 
ATOM     20 CL   UNL d   1       6.146   4.281   0.035  0.00  0.00    -0.084 Cl
ATOM     21  C   UNL d   1       3.669   1.183   0.562  0.00  0.00     0.015 A 
ENDBRANCH   5  15
TORSDOF 1
