REMARK  2 active torsions:
REMARK  status: ('A' for Active; 'I' for Inactive)
REMARK    1  A    between atoms: C_3  and  C_1 
REMARK       I    between atoms: N_6  and  C_3 
REMARK    2  A    between atoms: C_12  and  N_6 
ROOT
ATOM      1  C   UNL d   1      -2.738  -2.228  -0.315  0.00  0.00     0.262 C 
ATOM      2  N   UNL d   1      -2.542  -3.591  -0.375  0.00  0.00    -0.323 N 
ATOM      3  O   UNL d   1      -1.847  -1.397  -0.132  0.00  0.00    -0.267 OA
ATOM      4  H   UNL d   1      -3.322  -4.164  -0.698  0.00  0.00     0.169 HD
ENDROOT
BRANCH   1   5
ATOM      5  C   UNL d   1      -4.152  -1.760  -0.472  0.00  0.00     0.108 A 
ATOM      6  C   UNL d   1      -5.262  -2.628  -0.912  0.00  0.00     0.304 A 
ATOM      7  O   UNL d   1      -6.520  -2.043  -1.044  0.00  0.00    -0.274 OA
ATOM      8  O   UNL d   1      -5.084  -3.819  -1.163  0.00  0.00    -0.259 OA
ATOM      9  C   UNL d   1      -6.758  -0.715  -0.644  0.00  0.00     0.089 A 
ATOM     10  C   UNL d   1      -5.718   0.075  -0.169  0.00  0.00    -0.001 A 
ATOM     11  C   UNL d   1      -8.062  -0.232  -0.711  0.00  0.00     0.038 A 
ATOM     12  C   UNL d   1      -4.380  -0.480  -0.133  0.00  0.00     0.037 A 
ATOM     13  C   UNL d   1      -5.990   1.370   0.276  0.00  0.00     0.014 A 
ATOM     14  C   UNL d   1      -7.296   1.860   0.233  0.00  0.00     0.001 A 
ATOM     15  C   UNL d   1      -8.329   1.063  -0.266  0.00  0.00     0.003 A 
ENDBRANCH   1   5
BRANCH   2  16
ATOM     16  C   UNL d   1      -1.372  -4.283   0.015  0.00  0.00     0.035 A 
ATOM     17  C   UNL d   1      -0.311  -3.671   0.690  0.00  0.00     0.041 A 
ATOM     18  C   UNL d   1       0.790  -4.416   1.131  0.00  0.00     0.001 A 
ATOM     19  C   UNL d   1       1.906  -3.761   1.881  0.00  0.00     0.212 C 
ATOM     20  C   UNL d   1       0.850  -5.779   0.857  0.00  0.00     0.080 A 
ATOM     21  O   UNL d   1       2.620  -4.734   2.635  0.00  0.00    -0.362 OA
ATOM     22  C   UNL d   1       2.994  -5.814   1.787  0.00  0.00     0.345 C 
ATOM     23  O   UNL d   1       1.895  -6.563   1.262  0.00  0.00    -0.326 OA
ATOM     24  C   UNL d   1      -0.195  -6.402   0.179  0.00  0.00     0.040 A 
ATOM     25  C   UNL d   1      -1.307  -5.658  -0.234  0.00  0.00     0.032 A 
ENDBRANCH   2  16
TORSDOF 2
