REMARK  3 active torsions:
REMARK  status: ('A' for Active; 'I' for Inactive)
REMARK    1  A    between atoms: N_2  and  C_1 
REMARK    2  A    between atoms: N_9  and  C_3 
REMARK    3  A    between atoms: N_7  and  C_5 
ROOT
ATOM      1  C   UNL d   1       1.739  -1.258   0.085  0.00  0.00     0.131 A 
ATOM      2  C   UNL d   1       2.493  -0.075  -0.025  0.00  0.00     0.066 A 
ATOM      3  C   UNL d   1       0.334  -1.281   0.118  0.00  0.00     0.064 A 
ATOM      4  C   UNL d   1       0.294   1.122  -0.046  0.00  0.00     0.062 A 
ATOM      5  C   UNL d   1       1.713   1.104  -0.108  0.00  0.00     0.063 A 
ATOM      6  C   UNL d   1      -0.392  -0.096   0.049  0.00  0.00     0.063 A 
ATOM      7 CL   UNL d   1      -2.105  -0.287  -0.084  0.00  0.00    -0.082 Cl
ENDROOT
BRANCH   2   8
ATOM      8  N   UNL d   1       3.869   0.011  -0.026  0.00  0.00    -0.379 N 
ATOM      9  C   UNL d   1       4.775  -0.921   0.653  0.00  0.00     0.123 C 
ATOM     10  C   UNL d   1       6.005  -0.072   0.952  0.00  0.00     0.021 C 
ATOM     11  C   UNL d   1       6.088   0.832  -0.264  0.00  0.00     0.021 C 
ATOM     12  C   UNL d   1       4.625   1.146  -0.576  0.00  0.00     0.123 C 
ENDBRANCH   2   8
BRANCH   1  13
ATOM     13  N   UNL d   1       2.361  -2.566   0.093  0.00  0.00    -0.113 N 
ATOM     14  O   UNL d   1       2.905  -2.947  -0.954  0.00  0.00    -0.532 OA
ATOM     15  O   UNL d   1       2.246  -3.233   1.128  0.00  0.00    -0.532 OA
ENDBRANCH   1  13
BRANCH   4  16
ATOM     16  N   UNL d   1      -0.364   2.392  -0.061  0.00  0.00    -0.331 N 
ATOM     17  C   UNL d   1      -1.548   2.733   0.566  0.00  0.00     0.096 A 
ATOM     18  C   UNL d   1      -1.860   4.045   0.284  0.00  0.00     0.019 A 
ATOM     19  C   UNL d   1      -0.809   4.560  -0.497  0.00  0.00     0.019 A 
ATOM     20  C   UNL d   1       0.110   3.546  -0.665  0.00  0.00     0.096 A 
ENDBRANCH   4  16
TORSDOF 3
