REMARK  5 active torsions:
REMARK  status: ('A' for Active; 'I' for Inactive)
REMARK    1  A    between atoms: C_12  and  C_3 
REMARK    2  A    between atoms: C_13  and  N_6 
REMARK    3  A    between atoms: N_16  and  C_11 
REMARK    4  A    between atoms: O_17  and  C_12 
REMARK    5  A    between atoms: C_20  and  O_17 
ROOT
ATOM      1  N   UNL d   1       0.188   0.746  -0.013  0.00  0.00    -0.086 N 
ATOM      2  C   UNL d   1       0.170  -0.612  -0.036  0.00  0.00     0.716 A 
ATOM      3  C   UNL d   1       1.523   1.084   0.024  0.00  0.00     0.223 A 
ATOM      4  N   UNL d   1       2.346   0.062   0.020  0.00  0.00    -0.258 N 
ATOM      5  HN  UNL d   1       3.366   0.068   0.036  1.00  0.00     0.190 HD
ATOM      6  N   UNL d   1       1.493  -1.022  -0.010  0.00  0.00    -0.084 N 
ATOM      7  N   UNL d   1      -0.918  -1.306  -0.065  0.00  0.00    -0.179 N 
ATOM      8  HN  UNL d   1      -0.880  -2.325  -0.045  1.00  0.00     0.185 HD
ATOM      9  C   UNL d   1      -0.976   1.486   0.044  0.00  0.00     0.271 A 
ATOM     10  C   UNL d   1      -2.205   0.677  -0.074  0.00  0.00     0.118 A 
ATOM     11  C   UNL d   1      -2.118  -0.661  -0.123  0.00  0.00     0.099 A 
ATOM     12  O   UNL d   1      -1.073   2.692   0.231  0.00  0.00    -0.267 OA
ENDROOT
BRANCH   6  13
ATOM     13  C   UNL d   1       2.007  -2.342  -0.034  0.00  0.00     0.074 A 
ATOM     14  C   UNL d   1       1.178  -3.467  -0.187  0.00  0.00     0.032 A 
ATOM     15  C   UNL d   1       1.697  -4.765  -0.246  0.00  0.00     0.002 A 
ATOM     16  C   UNL d   1       3.066  -4.970  -0.141  0.00  0.00     0.000 A 
ATOM     17  C   UNL d   1       3.912  -3.879   0.030  0.00  0.00     0.002 A 
ATOM     18  C   UNL d   1       3.388  -2.582   0.085  0.00  0.00     0.032 A 
ENDBRANCH   6  13
BRANCH   3  19
ATOM     19  C   UNL d   1       2.024   2.505   0.130  0.00  0.00     0.330 C 
ATOM     20  O   UNL d   1       2.964   2.778   0.859  0.00  0.00    -0.256 OA
BRANCH  19  21
ATOM     21  O   UNL d   1       1.313   3.361  -0.621  0.00  0.00    -0.316 OA
BRANCH  21  22
ATOM     22  C   UNL d   1       1.409   4.743  -0.227  0.00  0.00     0.175 C 
ATOM     23  C   UNL d   1       1.935   5.581  -1.373  0.00  0.00     0.034 C 
ENDBRANCH  21  22
ENDBRANCH  19  21
ENDBRANCH   3  19
BRANCH  11  24
ATOM     24  N   UNL d   1      -3.249  -1.433  -0.227  0.00  0.00    -0.288 NA
ATOM     25  H   UNL d   1      -4.080  -1.031   0.193  0.00  0.00     0.125 HD
ATOM     26  H   UNL d   1      -3.055  -2.377   0.106  0.00  0.00     0.125 HD
ENDBRANCH  11  24
TORSDOF 5
