REMARK  3 active torsions:
REMARK  status: ('A' for Active; 'I' for Inactive)
REMARK    1  A    between atoms: C_5  and  C_3 
REMARK    2  A    between atoms: N_10  and  N_8 
REMARK    3  A    between atoms: C_11  and  N_10 
ROOT
ATOM      1  C   UNL d   1      -3.427  -1.303   0.005  0.00  0.00     0.144 C 
ATOM      2  N   UNL d   1      -4.455  -0.514  -0.015  0.00  0.00    -0.309 N 
ATOM      3  HN  UNL d   1      -4.356   0.497  -0.110  1.00  0.00     0.186 HD
ENDROOT
BRANCH   1   4
ATOM      4  C   UNL d   1      -2.074  -0.800  -0.045  0.00  0.00     0.092 A 
ATOM      5  N   UNL d   1      -1.032  -1.603  -0.021  0.00  0.00    -0.348 N 
ATOM      6  C   UNL d   1       0.132  -0.846  -0.023  0.00  0.00     0.050 A 
ATOM      7  HN  UNL d   1      -1.072  -2.622  -0.004  1.00  0.00     0.166 HD
ATOM      8  C   UNL d   1      -0.053   0.538  -0.059  0.00  0.00     0.033 A 
ATOM      9  C   UNL d   1       1.448  -1.349   0.015  0.00  0.00     0.031 A 
ATOM     10  C   UNL d   1       1.026   1.436  -0.054  0.00  0.00     0.021 A 
ATOM     11  S   UNL d   1      -1.738   0.876  -0.103  0.00  0.00    -0.069 SA
ATOM     12  C   UNL d   1       2.322   0.911  -0.011  0.00  0.00     0.002 A 
ATOM     13  C   UNL d   1       2.533  -0.464   0.022  0.00  0.00     0.002 A 
ENDBRANCH   1   4
BRANCH   2  14
ATOM     14  N   UNL d   1      -5.671  -1.105   0.097  0.00  0.00    -0.301 N 
ATOM     15  H   UNL d   1      -5.813  -2.088  -0.127  0.00  0.00     0.187 HD
BRANCH  14  16
ATOM     16  C   UNL d   1      -6.822  -0.297  -0.009  0.00  0.00     0.048 A 
ATOM     17  C   UNL d   1      -6.748   1.093  -0.178  0.00  0.00     0.031 A 
ATOM     18  C   UNL d   1      -7.901   1.882  -0.202  0.00  0.00     0.002 A 
ATOM     19  C   UNL d   1      -9.149   1.292  -0.028  0.00  0.00     0.000 A 
ATOM     20  C   UNL d   1      -9.243  -0.083   0.171  0.00  0.00     0.002 A 
ATOM     21  C   UNL d   1      -8.086  -0.870   0.185  0.00  0.00     0.031 A 
ENDBRANCH  14  16
ENDBRANCH   2  14
TORSDOF 3
