REMARK  3 active torsions:
REMARK  status: ('A' for Active; 'I' for Inactive)
REMARK    1  A    between atoms: C_2  and  C_1 
REMARK       I    between atoms: N_5  and  C_2 
REMARK    2  A    between atoms: C_9  and  C_13 
REMARK    3  A    between atoms: C_15  and  C_9 
ROOT
ATOM      1  C   UNL d   1      -0.141   2.485  -0.094  0.00  0.00     0.258 C 
ATOM      2  N   UNL d   1      -1.222   3.339   0.170  0.00  0.00    -0.348 N 
ATOM      3  O   UNL d   1       0.523   2.601  -1.121  0.00  0.00    -0.267 OA
ATOM      4  C   UNL d   1      -2.109   3.252   1.321  0.00  0.00     0.127 C 
ATOM      5  C   UNL d   1      -1.661   4.241  -0.897  0.00  0.00     0.127 C 
ATOM      6  C   UNL d   1      -3.027   5.564   0.823  0.00  0.00     0.064 C 
ATOM      7  C   UNL d   1      -2.041   5.620  -0.354  0.00  0.00     0.032 C 
ATOM      8  C   UNL d   1      -2.489   4.612   1.889  0.00  0.00     0.032 C 
ENDROOT
BRANCH   1   9
ATOM      9  C   UNL d   1       0.258   1.494   0.899  0.00  0.00     0.087 A 
ATOM     10  C   UNL d   1       1.572   1.265   1.265  0.00  0.00     0.090 A 
ATOM     11  O   UNL d   1       1.624   0.285   2.203  0.00  0.00    -0.242 OA
ATOM     12  C   UNL d   1       2.880   1.829   0.875  0.00  0.00     0.080 C 
ATOM     13  N   UNL d   1       0.356  -0.188   2.447  0.00  0.00    -0.265 N 
ATOM     14  C   UNL d   1      -0.458   0.496   1.631  0.00  0.00     0.047 A 
ATOM     15  HN  UNL d   1       0.090  -0.912   3.114  1.00  0.00     0.194 HD
ATOM     16  C   UNL d   1      -1.892   0.121   1.608  0.00  0.00     0.071 C 
ENDBRANCH   1   9
BRANCH   6  17
ATOM     17  C   UNL d   1      -4.440   5.172   0.383  0.00  0.00     0.163 C 
ATOM     18  O   UNL d   1      -4.643   4.569  -0.670  0.00  0.00    -0.292 OA
BRANCH  17  19
ATOM     19  C   UNL d   1      -5.618   5.504   1.248  0.00  0.00     0.010 A 
ATOM     20  C   UNL d   1      -5.500   6.141   2.490  0.00  0.00     0.015 A 
ATOM     21  C   UNL d   1      -6.641   6.413   3.252  0.00  0.00     0.001 A 
ATOM     22  C   UNL d   1      -7.903   6.058   2.780  0.00  0.00     0.000 A 
ATOM     23  C   UNL d   1      -8.032   5.426   1.546  0.00  0.00     0.001 A 
ATOM     24  C   UNL d   1      -6.894   5.150   0.784  0.00  0.00     0.015 A 
ENDBRANCH  17  19
ENDBRANCH   6  17
TORSDOF 3
