REMARK  3 active torsions:
REMARK  status: ('A' for Active; 'I' for Inactive)
REMARK    1  A    between atoms: C_10  and  C_3 
REMARK    2  A    between atoms: C_9  and  C_4 
REMARK    3  A    between atoms: C_8  and  C_5 
ROOT
ATOM      1  N   UNL d   1      -1.309  -0.047   0.003  0.00  0.00    -0.355 N 
ATOM      2  HN  UNL d   1      -2.328  -0.080   0.011  1.00  0.00     0.166 HD
ATOM      3  C   UNL d   1      -0.659   1.143  -0.034  0.00  0.00     0.043 A 
ATOM      4  C   UNL d   1      -0.581  -1.190   0.029  0.00  0.00     0.043 A 
ATOM      5  C   UNL d   1       1.507   0.048  -0.012  0.00  0.00    -0.022 A 
ATOM      6  C   UNL d   1       0.733   1.213  -0.028  0.00  0.00     0.042 A 
ATOM      7  C   UNL d   1       0.813  -1.166   0.010  0.00  0.00     0.042 A 
ENDROOT
BRANCH   5   8
ATOM      8  C   UNL d   1       2.989   0.093  -0.010  0.00  0.00    -0.026 A 
ATOM      9  C   UNL d   1       3.756  -0.900  -0.646  0.00  0.00     0.013 A 
ATOM     10  C   UNL d   1       5.155  -0.869  -0.627  0.00  0.00     0.020 A 
ATOM     11  C   UNL d   1       5.813   0.172   0.016  0.00  0.00     0.011 A 
ATOM     12  C   UNL d   1       5.086   1.178   0.643  0.00  0.00     0.020 A 
ATOM     13 BR   UNL d   1       7.701   0.221   0.039  0.00  0.00    -0.051 Br
ATOM     14  C   UNL d   1       3.688   1.132   0.635  0.00  0.00     0.013 A 
ENDBRANCH   5   8
BRANCH   4  15
ATOM     15  C   UNL d   1      -1.348  -2.454   0.073  0.00  0.00    -0.009 A 
ATOM     16  C   UNL d   1      -2.638  -2.540  -0.484  0.00  0.00     0.013 A 
ATOM     17  C   UNL d   1      -3.362  -3.737  -0.467  0.00  0.00     0.001 A 
ATOM     18  C   UNL d   1      -2.815  -4.878   0.112  0.00  0.00     0.000 A 
ATOM     19  C   UNL d   1      -1.547  -4.821   0.680  0.00  0.00     0.001 A 
ATOM     20  C   UNL d   1      -0.826  -3.622   0.664  0.00  0.00     0.013 A 
ENDBRANCH   4  15
BRANCH   3  21
ATOM     21  C   UNL d   1      -1.513   2.354  -0.063  0.00  0.00    -0.009 A 
ATOM     22  C   UNL d   1      -2.796   2.350   0.515  0.00  0.00     0.013 A 
ATOM     23  C   UNL d   1      -3.603   3.493   0.506  0.00  0.00     0.001 A 
ATOM     24  C   UNL d   1      -3.143   4.667  -0.084  0.00  0.00     0.000 A 
ATOM     25  C   UNL d   1      -1.882   4.696  -0.671  0.00  0.00     0.001 A 
ATOM     26  C   UNL d   1      -1.081   3.553  -0.664  0.00  0.00     0.013 A 
ENDBRANCH   3  21
TORSDOF 3
