REMARK  10 active torsions:
REMARK  status: ('A' for Active; 'I' for Inactive)
REMARK    1  A    between atoms: C_13  and  N_1 
REMARK    2  A    between atoms: C_14  and  N_2 
REMARK    3  A    between atoms: C_30  and  C_13 
REMARK    4  A    between atoms: C_29  and  C_14 
REMARK    5  A    between atoms: O_33  and  C_19 
REMARK    6  A    between atoms: O_34  and  C_20 
REMARK    7  A    between atoms: O_35  and  C_21 
REMARK    8  A    between atoms: O_36  and  C_22 
REMARK    9  A    between atoms: C_27  and  C_29 
REMARK   10  A    between atoms: C_28  and  C_30 
ROOT
ATOM      1  N   UNL d   1       3.318   0.339   0.063  0.00  0.00    -0.280 N 
ATOM      2  N   UNL d   1      -3.360   0.304   0.084  0.00  0.00    -0.280 N 
ATOM      3  C   UNL d   1       2.480   1.407  -0.067  0.00  0.00     0.261 A 
ATOM      4  C   UNL d   1      -2.537   1.389   0.060  0.00  0.00     0.261 A 
ATOM      5  C   UNL d   1      -2.642  -0.874   0.054  0.00  0.00     0.261 A 
ATOM      6  C   UNL d   1       2.619  -0.850   0.064  0.00  0.00     0.261 A 
ATOM      7  C   UNL d   1      -1.199  -0.510   0.037  0.00  0.00     0.049 A 
ATOM      8  C   UNL d   1       1.173  -0.501   0.018  0.00  0.00     0.049 A 
ATOM      9  C   UNL d   1      -1.179   0.888   0.022  0.00  0.00     0.049 A 
ATOM     10  C   UNL d   1       1.131   0.891  -0.028  0.00  0.00     0.049 A 
ATOM     11  C   UNL d   1      -0.011  -1.252   0.035  0.00  0.00     0.036 A 
ATOM     12  C   UNL d   1      -0.025   1.635  -0.021  0.00  0.00     0.036 A 
ATOM     13  O   UNL d   1       3.041  -1.988   0.099  0.00  0.00    -0.267 OA
ATOM     14  O   UNL d   1      -2.815   2.577   0.060  0.00  0.00    -0.267 OA
ATOM     15  O   UNL d   1      -3.051  -2.018   0.037  0.00  0.00    -0.267 OA
ATOM     16  O   UNL d   1       2.736   2.586  -0.198  0.00  0.00    -0.267 OA
ENDROOT
BRANCH   1  17
ATOM     17  C   UNL d   1       4.768   0.545   0.091  0.00  0.00     0.140 C 
BRANCH  17  18
ATOM     18  C   UNL d   1       5.197   1.433   1.280  0.00  0.00     0.059 C 
BRANCH  18  19
ATOM     19  C   UNL d   1       6.663   1.796   1.291  0.00  0.00    -0.054 A 
ATOM     20  C   UNL d   1       7.585   0.957   1.927  0.00  0.00     0.046 A 
ATOM     21  C   UNL d   1       8.958   1.259   1.961  0.00  0.00     0.102 A 
ATOM     22  C   UNL d   1       9.415   2.447   1.371  0.00  0.00     0.101 A 
ATOM     23  C   UNL d   1       8.485   3.301   0.759  0.00  0.00     0.040 A 
ATOM     24  C   UNL d   1       7.125   2.980   0.711  0.00  0.00     0.010 A 
BRANCH  21  25
ATOM     25  O   UNL d   1       9.845   0.447   2.619  0.00  0.00    -0.353 OA
ATOM     26  C   UNL d   1       9.544  -0.944   2.592  0.00  0.00     0.210 C 
ENDBRANCH  21  25
BRANCH  22  27
ATOM     27  O   UNL d   1      10.698   2.924   1.290  0.00  0.00    -0.353 OA
ATOM     28  C   UNL d   1      11.761   2.104   1.755  0.00  0.00     0.210 C 
ENDBRANCH  22  27
ENDBRANCH  18  19
ENDBRANCH  17  18
ENDBRANCH   1  17
BRANCH   2  29
ATOM     29  C   UNL d   1      -4.814   0.473   0.041  0.00  0.00     0.140 C 
BRANCH  29  30
ATOM     30  C   UNL d   1      -5.524   0.031   1.325  0.00  0.00     0.059 C 
BRANCH  30  31
ATOM     31  C   UNL d   1      -7.008   0.357   1.353  0.00  0.00    -0.054 A 
ATOM     32  C   UNL d   1      -7.482   1.684   1.427  0.00  0.00     0.046 A 
ATOM     33  C   UNL d   1      -8.863   1.979   1.467  0.00  0.00     0.102 A 
ATOM     34  C   UNL d   1      -9.786   0.919   1.443  0.00  0.00     0.101 A 
ATOM     35  C   UNL d   1      -9.310  -0.398   1.395  0.00  0.00     0.040 A 
ATOM     36  C   UNL d   1      -7.944  -0.679   1.345  0.00  0.00     0.010 A 
BRANCH  33  37
ATOM     37  O   UNL d   1      -9.365   3.251   1.536  0.00  0.00    -0.353 OA
ATOM     38  C   UNL d   1      -8.471   4.352   1.546  0.00  0.00     0.210 C 
ENDBRANCH  33  37
BRANCH  34  39
ATOM     39  O   UNL d   1     -11.157   0.967   1.468  0.00  0.00    -0.353 OA
ATOM     40  C   UNL d   1     -11.814   2.224   1.426  0.00  0.00     0.210 C 
ENDBRANCH  34  39
ENDBRANCH  30  31
ENDBRANCH  29  30
ENDBRANCH   2  29
TORSDOF 10
