REMARK  5 active torsions:
REMARK  status: ('A' for Active; 'I' for Inactive)
REMARK    1  A    between atoms: C_2  and  C_1 
REMARK    2  A    between atoms: C_5  and  C_1 
REMARK    3  A    between atoms: C_2  and  C_3 
REMARK    4  A    between atoms: N_4  and  C_2 
REMARK    5  A    between atoms: O_11  and  C_3 
REMARK       I    between atoms: C_6  and  N_4 
REMARK       I    between atoms: N_10  and  C_5 
ROOT
ATOM      1  C   UNL d   1       0.539  -0.473  -1.399  0.00  0.00     0.193 C 
ENDROOT
BRANCH   1   2
ATOM      2  C   UNL d   1       1.035   0.070  -0.058  0.00  0.00     0.138 C 
BRANCH   2   3
ATOM      3  C   UNL d   1       2.539   0.026   0.056  0.00  0.00     0.217 C 
ATOM      4  O   UNL d   1       3.291  -0.451  -0.784  0.00  0.00    -0.274 OA
ATOM      5  N   UNL d   1       3.036   0.541   1.216  0.00  0.00    -0.370 N 
ATOM      6  H   UNL d   1       2.482   1.113   1.840  0.00  0.00     0.159 HD
ATOM      7  H   UNL d   1       4.043   0.573   1.309  0.00  0.00     0.159 HD
ENDBRANCH   2   3
ENDBRANCH   1   2
BRANCH   1   8
ATOM      8  C   UNL d   1       0.889  -1.956  -1.546  0.00  0.00     0.281 C 
ATOM      9  O   UNL d   1       0.397  -2.842  -0.857  0.00  0.00    -0.263 OA
BRANCH   8  10
ATOM     10  O   UNL d   1       1.746  -2.144  -2.585  0.00  0.00    -0.325 OA
ATOM     11  C   UNL d   1       2.203  -3.484  -2.766  0.00  0.00     0.213 C 
ENDBRANCH   8  10
ENDBRANCH   1   8
BRANCH   1  12
ATOM     12  N   UNL d   1      -0.925  -0.367  -1.487  0.00  0.00    -0.347 N 
ATOM     13  C   UNL d   1      -1.541   0.789  -1.892  0.00  0.00     0.214 C 
ATOM     14  O   UNL d   1      -0.927   1.802  -2.208  0.00  0.00    -0.274 OA
ATOM     15  C   UNL d   1      -3.044   0.718  -1.933  0.00  0.00     0.117 C 
ATOM     16  H   UNL d   1      -1.474  -1.172  -1.204  0.00  0.00     0.163 HD
ENDBRANCH   1  12
TORSDOF 5
