REMARK  8 active torsions:
REMARK  status: ('A' for Active; 'I' for Inactive)
REMARK    1  A    between atoms: C_3  and  C_15 
REMARK    2  A    between atoms: C_4  and  C_16 
REMARK    3  A    between atoms: C_6  and  C_5 
REMARK       I    between atoms: N_14  and  C_6 
REMARK    4  A    between atoms: O_12  and  C_7 
REMARK    5  A    between atoms: O_13  and  C_8 
REMARK    6  A    between atoms: C_16  and  O_12 
REMARK    7  A    between atoms: C_15  and  O_13 
REMARK    8  A    between atoms: N_23  and  N_14 
ROOT
ATOM      1  N   UNL d   1      -1.280   0.003  -0.139  0.00  0.00    -0.318 N 
ATOM      2  HN  UNL d   1      -2.296  -0.038  -0.228  1.00  0.00     0.170 HD
ATOM      3  C   UNL d   1       1.500   0.101   0.057  0.00  0.00     0.041 A 
ATOM      4  C   UNL d   1      -0.635   1.179  -0.047  0.00  0.00     0.145 A 
ATOM      5  C   UNL d   1      -0.537  -1.117  -0.111  0.00  0.00     0.145 A 
ATOM      6  C   UNL d   1       0.745   1.277   0.058  0.00  0.00     0.073 A 
ATOM      7  C   UNL d   1       0.839  -1.125  -0.008  0.00  0.00     0.073 A 
ENDROOT
BRANCH   3   8
ATOM      8  C   UNL d   1       2.988   0.098   0.152  0.00  0.00     0.266 C 
ATOM      9  O   UNL d   1       3.592  -0.964   0.302  0.00  0.00    -0.266 OA
ATOM     10  N   UNL d   1       3.650   1.319   0.048  0.00  0.00    -0.290 N 
ATOM     11  H   UNL d   1       3.181   2.175  -0.234  0.00  0.00     0.183 HD
BRANCH  10  12
ATOM     12  N   UNL d   1       5.062   1.335   0.066  0.00  0.00    -0.247 NA
ATOM     13  H   UNL d   1       5.370   0.357  -0.040  0.00  0.00     0.143 HD
ATOM     14  H   UNL d   1       5.361   1.581   1.014  0.00  0.00     0.143 HD
ENDBRANCH  10  12
ENDBRANCH   3   8
BRANCH   5  15
ATOM     15  O   UNL d   1      -1.169  -2.338  -0.160  0.00  0.00    -0.327 OA
BRANCH  15  16
ATOM     16  C   UNL d   1      -2.519  -2.260  -0.644  0.00  0.00     0.294 C 
BRANCH  16  17
ATOM     17  C   UNL d   1      -3.563  -1.833   0.387  0.00  0.00     0.408 C 
ATOM     18  F   UNL d   1      -3.058  -1.664   1.628  0.00  0.00    -0.169 F 
ATOM     19  F   UNL d   1      -4.189  -0.691   0.024  0.00  0.00    -0.169 F 
ATOM     20  F   UNL d   1      -4.527  -2.785   0.485  0.00  0.00    -0.169 F 
ENDBRANCH  16  17
ENDBRANCH  15  16
ENDBRANCH   5  15
BRANCH   4  21
ATOM     21  O   UNL d   1      -1.484   2.247  -0.005  0.00  0.00    -0.327 OA
BRANCH  21  22
ATOM     22  C   UNL d   1      -1.043   3.450  -0.642  0.00  0.00     0.294 C 
BRANCH  22  23
ATOM     23  C   UNL d   1      -0.335   4.418   0.300  0.00  0.00     0.408 C 
ATOM     24  F   UNL d   1      -0.277   3.961   1.569  0.00  0.00    -0.169 F 
ATOM     25  F   UNL d   1       0.946   4.606  -0.106  0.00  0.00    -0.169 F 
ATOM     26  F   UNL d   1      -0.935   5.626   0.321  0.00  0.00    -0.169 F 
ENDBRANCH  22  23
ENDBRANCH  21  22
ENDBRANCH   4  21
TORSDOF 8
