REMARK  8 active torsions:
REMARK  status: ('A' for Active; 'I' for Inactive)
REMARK    1  A    between atoms: O_6  and  C_1 
REMARK    2  A    between atoms: C_10  and  N_2 
REMARK    3  A    between atoms: S_11  and  C_3 
REMARK    4  A    between atoms: C_9  and  O_6 
REMARK       I    between atoms: N_15  and  C_9 
REMARK    5  A    between atoms: C_23  and  C_10 
REMARK    6  A    between atoms: C_20  and  S_11 
REMARK    7  A    between atoms: C_13  and  C_16 
REMARK    8  A    between atoms: C_16  and  C_20 
ROOT
ATOM      1  C   UNL d   1       0.121  -1.374  -0.554  0.00  0.00     0.252 C 
ATOM      2  N   UNL d   1       1.195  -0.652  -0.028  0.00  0.00    -0.282 N 
ATOM      3  C   UNL d   1       0.851   0.659  -0.310  0.00  0.00     0.165 C 
ATOM      4  N   UNL d   1      -0.839  -0.551  -0.904  0.00  0.00    -0.262 N 
ATOM      5  HN  UNL d   1      -1.767  -0.819  -1.232  1.00  0.00     0.190 HD
ATOM      6  N   UNL d   1      -0.384   0.713  -0.755  0.00  0.00    -0.277 N 
ATOM      7  HN  UNL d   1      -0.910   1.564  -0.955  1.00  0.00     0.189 HD
ENDROOT
BRANCH   3   8
ATOM      8  S   UNL d   1       1.821   2.105  -0.206  0.00  0.00    -0.085 SA
BRANCH   8   9
ATOM      9  C   UNL d   1       0.645   3.258  -1.001  0.00  0.00     0.166 C 
BRANCH   9  10
ATOM     10  C   UNL d   1       1.162   4.647  -1.319  0.00  0.00     0.169 C 
ATOM     11  O   UNL d   1       2.334   5.005  -1.192  0.00  0.00    -0.291 OA
BRANCH  10  12
ATOM     12  C   UNL d   1       0.163   5.617  -1.917  0.00  0.00     0.013 A 
ATOM     13  C   UNL d   1      -1.206   5.314  -1.960  0.00  0.00     0.054 A 
ATOM     14  C   UNL d   1      -2.089   6.145  -2.651  0.00  0.00     0.103 A 
ATOM     15  O   UNL d   1      -3.393   5.724  -2.714  0.00  0.00    -0.346 OA
ATOM     16  C   UNL d   1      -1.636   7.316  -3.261  0.00  0.00     0.102 A 
ATOM     17  C   UNL d   1      -4.054   6.308  -3.841  0.00  0.00     0.202 C 
ATOM     18  C   UNL d   1      -3.834   7.811  -3.863  0.00  0.00     0.202 C 
ATOM     19  O   UNL d   1      -2.445   8.145  -3.992  0.00  0.00    -0.346 OA
ATOM     20  C   UNL d   1      -0.287   7.657  -3.168  0.00  0.00     0.040 A 
ATOM     21  C   UNL d   1       0.612   6.806  -2.498  0.00  0.00     0.018 A 
ENDBRANCH  10  12
ENDBRANCH   9  10
ENDBRANCH   8   9
ENDBRANCH   3   8
BRANCH   2  22
ATOM     22  C   UNL d   1       2.111  -1.188   0.991  0.00  0.00     0.124 C 
ATOM     23  C   UNL d   1       2.117  -0.445   2.337  0.00  0.00     0.038 C 
BRANCH  22  24
ATOM     24  C   UNL d   1       3.567  -1.423   0.606  0.00  0.00    -0.035 A 
ATOM     25  C   UNL d   1       4.420  -0.393   0.193  0.00  0.00     0.009 A 
ATOM     26  C   UNL d   1       5.808  -0.544   0.256  0.00  0.00     0.001 A 
ATOM     27  C   UNL d   1       6.367  -1.739   0.700  0.00  0.00     0.000 A 
ATOM     28  C   UNL d   1       5.540  -2.806   1.032  0.00  0.00     0.001 A 
ATOM     29  C   UNL d   1       4.155  -2.651   0.979  0.00  0.00     0.009 A 
ENDBRANCH  22  24
ENDBRANCH   2  22
BRANCH   1  30
ATOM     30  O   UNL d   1      -0.114  -2.675  -0.558  0.00  0.00    -0.226 OA
BRANCH  30  31
ATOM     31  C   UNL d   1       0.752  -3.552  -1.103  0.00  0.00     0.369 C 
ATOM     32  N   UNL d   1       0.131  -4.743  -1.484  0.00  0.00    -0.336 N 
ATOM     33  C   UNL d   1       0.934  -5.837  -2.001  0.00  0.00     0.154 C 
ATOM     34  C   UNL d   1      -1.308  -4.860  -1.668  0.00  0.00     0.154 C 
ATOM     35  O   UNL d   1       1.951  -3.352  -1.231  0.00  0.00    -0.238 OA
ENDBRANCH  30  31
ENDBRANCH   1  30
TORSDOF 8
