REMARK  3 active torsions:
REMARK  status: ('A' for Active; 'I' for Inactive)
REMARK    1  A    between atoms: C_7  and  C_2 
REMARK    2  A    between atoms: C_8  and  N_3 
REMARK       I    between atoms: N_11  and  C_7 
REMARK    3  A    between atoms: N_12  and  N_11 
ROOT
ATOM      1  C   UNL d   1       0.990  -0.833  -0.113  0.00  0.00     0.138 A 
ATOM      2  C   UNL d   1      -0.332  -1.246  -0.032  0.00  0.00     0.095 A 
ATOM      3  N   UNL d   1       0.993   0.553   0.083  0.00  0.00    -0.240 N 
ATOM      4  N   UNL d   1      -0.248   1.000   0.421  0.00  0.00    -0.302 N 
ATOM      5  HN  UNL d   1      -0.515   1.939   0.718  1.00  0.00     0.186 HD
ATOM      6  C   UNL d   1      -1.036  -0.065   0.276  0.00  0.00     0.128 A 
ATOM      7  N   UNL d   1       2.107  -1.595  -0.280  0.00  0.00    -0.383 N 
ATOM      8  H   UNL d   1       1.985  -2.613  -0.247  0.00  0.00     0.157 HD
ATOM      9  H   UNL d   1       2.983  -1.310   0.157  0.00  0.00     0.157 HD
ENDROOT
BRANCH   2  10
ATOM     10  C   UNL d   1      -0.803  -2.614  -0.180  0.00  0.00     0.270 C 
ATOM     11  O   UNL d   1      -0.048  -3.562  -0.398  0.00  0.00    -0.266 OA
ATOM     12  N   UNL d   1      -2.177  -2.804  -0.029  0.00  0.00    -0.290 N 
ATOM     13  H   UNL d   1      -2.785  -2.046   0.266  0.00  0.00     0.183 HD
BRANCH  12  14
ATOM     14  N   UNL d   1      -2.709  -4.118  -0.049  0.00  0.00    -0.247 NA
ATOM     15  H   UNL d   1      -1.924  -4.761   0.129  0.00  0.00     0.143 HD
ATOM     16  H   UNL d   1      -2.977  -4.330  -1.014  0.00  0.00     0.143 HD
ENDBRANCH  12  14
ENDBRANCH   2  10
BRANCH   3  17
ATOM     17  C   UNL d   1       2.076   1.475  -0.014  0.00  0.00     0.058 A 
ATOM     18  C   UNL d   1       3.200   1.198  -0.804  0.00  0.00     0.031 A 
ATOM     19  C   UNL d   1       4.257   2.109  -0.864  0.00  0.00     0.002 A 
ATOM     20  C   UNL d   1       4.200   3.296  -0.137  0.00  0.00     0.000 A 
ATOM     21  C   UNL d   1       3.075   3.590   0.632  0.00  0.00     0.002 A 
ATOM     22  C   UNL d   1       2.007   2.691   0.682  0.00  0.00     0.031 A 
ENDBRANCH   3  17
TORSDOF 3
