REMARK  5 active torsions:
REMARK  status: ('A' for Active; 'I' for Inactive)
REMARK    1  A    between atoms: C_2  and  S_1 
REMARK    2  A    between atoms: N_3  and  S_1 
REMARK    3  A    between atoms: N_4  and  C_13 
REMARK    4  A    between atoms: C_13  and  C_18 
REMARK    5  A    between atoms: C_18  and  N_14 
ROOT
ATOM      1  N   UNL d   1       0.460  -0.416  -1.250  0.00  0.00    -0.203 NA
ATOM      2  N   UNL d   1      -1.878  -2.244  -0.970  0.00  0.00     0.092 N 
ATOM      3  C   UNL d   1      -0.929   0.087  -1.477  0.00  0.00     0.138 C 
ATOM      4  C   UNL d   1       0.558  -1.869  -1.567  0.00  0.00     0.138 C 
ATOM      5  C   UNL d   1      -0.476  -2.671  -0.756  0.00  0.00     0.288 C 
ATOM      6  C   UNL d   1      -1.980  -0.781  -0.736  0.00  0.00     0.288 C 
ENDROOT
BRANCH   1   7
ATOM      7  S   UNL d   1       1.218   0.056   0.204  0.00  0.00     0.246 S 
ATOM      8  O   UNL d   1       0.194   0.255   1.206  0.00  0.00    -0.206 OA
ATOM      9  O   UNL d   1       2.344  -0.817   0.464  0.00  0.00    -0.206 OA
BRANCH   7  10
ATOM     10  C   UNL d   1       1.887   1.639  -0.184  0.00  0.00     0.113 A 
ATOM     11  C   UNL d   1       2.867   1.730  -1.168  0.00  0.00     0.142 A 
ATOM     12  C   UNL d   1       3.490   2.945  -1.426  0.00  0.00     0.086 A 
ATOM     13  F   UNL d   1       3.237   0.659  -1.883  0.00  0.00    -0.204 F 
ATOM     14  C   UNL d   1       3.125   4.063  -0.687  0.00  0.00     0.119 A 
ATOM     15  C   UNL d   1       2.142   3.987   0.298  0.00  0.00     0.044 A 
ATOM     16  F   UNL d   1       3.734   5.233  -0.917  0.00  0.00    -0.206 F 
ATOM     17  C   UNL d   1       1.516   2.767   0.556  0.00  0.00     0.031 A 
ENDBRANCH   7  10
ENDBRANCH   1   7
BRANCH   2  18
ATOM     18  C   UNL d   1      -2.411  -2.606  -2.297  0.00  0.00     0.292 C 
BRANCH  18  19
ATOM     19  C   UNL d   1      -2.501  -4.120  -2.535  0.00  0.00     0.159 C 
BRANCH  19  20
ATOM     20  N   UNL d   1      -3.078  -4.420  -3.841  0.00  0.00    -0.353 N 
ATOM     21  C   UNL d   1      -4.424  -4.614  -4.087  0.00  0.00     0.008 A 
ATOM     22  C   UNL d   1      -4.555  -4.927  -5.426  0.00  0.00     0.026 A 
ATOM     23  C   UNL d   1      -5.498  -4.508  -3.060  0.00  0.00     0.068 C 
ATOM     24  C   UNL d   1      -3.272  -4.890  -6.007  0.00  0.00     0.026 A 
ATOM     25  C   UNL d   1      -2.366  -4.553  -5.019  0.00  0.00     0.008 A 
ATOM     26  C   UNL d   1      -0.895  -4.366  -5.163  0.00  0.00     0.068 C 
ENDBRANCH  19  20
ENDBRANCH  18  19
ENDBRANCH   2  18
TORSDOF 5
