REMARK  5 active torsions:
REMARK  status: ('A' for Active; 'I' for Inactive)
REMARK    1  A    between atoms: C_2  and  C_1 
REMARK    2  A    between atoms: C_15  and  C_8 
REMARK    3  A    between atoms: C_10  and  C_9 
REMARK    4  A    between atoms: O_17  and  C_14 
REMARK    5  A    between atoms: C_22  and  O_17 
ROOT
ATOM      1  C   UNL d   1      -0.787  -2.369  -0.004  0.00  0.00     0.047 A 
ATOM      2  C   UNL d   1      -1.552  -2.870  -1.071  0.00  0.00     0.067 A 
ATOM      3  C   UNL d   1      -0.465  -3.267   1.016  0.00  0.00     0.106 A 
ATOM      4  N   UNL d   1      -0.816  -4.570   1.045  0.00  0.00    -0.346 N 
ATOM      5  HN  UNL d   1      -0.561  -5.173   1.827  1.00  0.00     0.167 HD
ATOM      6  C   UNL d   1      -1.516  -5.038  -0.005  0.00  0.00     0.148 A 
ATOM      7  C   UNL d   1      -1.934  -4.231  -1.048  0.00  0.00     0.073 A 
ENDROOT
BRANCH   1   8
ATOM      8  C   UNL d   1      -0.321  -1.000   0.130  0.00  0.00     0.177 A 
ATOM      9  O   UNL d   1       0.899  -0.830   0.738  0.00  0.00    -0.273 OA
ATOM     10  C   UNL d   1       1.024   0.535   0.753  0.00  0.00     0.174 A 
ATOM     11  N   UNL d   1      -0.015   1.140   0.209  0.00  0.00    -0.277 N 
ATOM     12  N   UNL d   1      -0.890   0.143  -0.181  0.00  0.00    -0.277 N 
ATOM     13  HN  UNL d   1      -0.147   2.145   0.098  1.00  0.00     0.189 HD
ATOM     14  HN  UNL d   1      -1.800   0.269  -0.624  1.00  0.00     0.189 HD
BRANCH  10  15
ATOM     15  C   UNL d   1       2.222   1.101   1.357  0.00  0.00     0.018 A 
ATOM     16  C   UNL d   1       3.180   0.306   2.004  0.00  0.00     0.039 A 
ATOM     17  C   UNL d   1       4.303   0.896   2.590  0.00  0.00     0.035 A 
ATOM     18 CL   UNL d   1       5.463  -0.090   3.393  0.00  0.00    -0.084 Cl
ATOM     19  C   UNL d   1       4.492   2.275   2.536  0.00  0.00     0.024 A 
ATOM     20  C   UNL d   1       3.551   3.075   1.892  0.00  0.00     0.003 A 
ATOM     21  C   UNL d   1       2.425   2.490   1.309  0.00  0.00     0.016 A 
ENDBRANCH  10  15
ENDBRANCH   1   8
BRANCH   2  22
ATOM     22  C   UNL d   1      -1.980  -2.076  -2.281  0.00  0.00     0.418 C 
ATOM     23  F   UNL d   1      -1.407  -0.859  -2.433  0.00  0.00    -0.166 F 
ATOM     24  F   UNL d   1      -1.687  -2.746  -3.435  0.00  0.00    -0.166 F 
ATOM     25  F   UNL d   1      -3.327  -1.879  -2.311  0.00  0.00    -0.166 F 
ENDBRANCH   2  22
BRANCH   6  26
ATOM     26  O   UNL d   1      -1.829  -6.387  -0.071  0.00  0.00    -0.294 OA
BRANCH  26  27
ATOM     27  C   UNL d   1      -0.939  -7.277   0.494  0.00  0.00     0.077 A 
ATOM     28  C   UNL d   1      -1.481  -8.423   1.078  0.00  0.00     0.039 A 
ATOM     29  C   UNL d   1      -0.640  -9.377   1.660  0.00  0.00     0.026 A 
ATOM     30  C   UNL d   1       0.741  -9.184   1.650  0.00  0.00     0.034 A 
ATOM     31  C   UNL d   1       1.291  -8.057   1.046  0.00  0.00     0.026 A 
ATOM     32 CL   UNL d   1       1.777 -10.348   2.380  0.00  0.00    -0.084 Cl
ATOM     33  C   UNL d   1       0.452  -7.114   0.449  0.00  0.00     0.039 A 
ENDBRANCH  26  27
ENDBRANCH   6  26
TORSDOF 5
