REMARK  5 active torsions:
REMARK  status: ('A' for Active; 'I' for Inactive)
REMARK    1  A    between atoms: S_2  and  C_1 
REMARK    2  A    between atoms: N_13  and  S_2 
REMARK    3  A    between atoms: C_19  and  N_13 
REMARK    4  A    between atoms: C_18  and  C_20 
REMARK    5  A    between atoms: C_20  and  C_19 
ROOT
ATOM      1  S   UNL d   1      -1.363  -3.237   0.047  0.00  0.00     0.243 S 
ATOM      2  O   UNL d   1      -0.668  -3.993   1.067  0.00  0.00    -0.206 OA
ATOM      3  O   UNL d   1      -1.405  -1.792   0.088  0.00  0.00    -0.206 OA
ENDROOT
BRANCH   1   4
ATOM      4  C   UNL d   1      -0.704  -3.711  -1.510  0.00  0.00     0.103 A 
ATOM      5  C   UNL d   1      -1.232  -3.220  -2.724  0.00  0.00     0.089 A 
ATOM      6  N   UNL d   1      -2.259  -2.370  -2.891  0.00  0.00    -0.309 N 
ATOM      7  C   UNL d   1      -0.637  -3.668  -4.038  0.00  0.00     0.068 A 
ATOM      8  S   UNL d   1      -2.408  -2.104  -4.521  0.00  0.00     0.068 SA
ATOM      9  HN  UNL d   1      -2.838  -1.966  -2.155  1.00  0.00     0.176 HD
ATOM     10  N   UNL d   1      -1.230  -3.116  -5.107  0.00  0.00    -0.310 N 
ATOM     11  HN  UNL d   1      -1.002  -3.284  -6.087  1.00  0.00     0.176 HD
ATOM     12  C   UNL d   1       0.441  -4.587  -4.076  0.00  0.00     0.032 A 
ATOM     13  C   UNL d   1       0.917  -5.043  -2.834  0.00  0.00     0.004 A 
ATOM     14  C   UNL d   1       0.372  -4.622  -1.599  0.00  0.00     0.027 A 
ENDBRANCH   1   4
BRANCH   1  15
ATOM     15  N   UNL d   1      -2.954  -3.819  -0.020  0.00  0.00    -0.215 NA
ATOM     16  H   UNL d   1      -3.433  -3.402  -0.829  0.00  0.00     0.139 HD
BRANCH  15  17
ATOM     17  C   UNL d   1      -3.092  -5.297   0.023  0.00  0.00     0.110 C 
BRANCH  17  18
ATOM     18  C   UNL d   1      -4.561  -5.721  -0.014  0.00  0.00     0.072 C 
BRANCH  18  19
ATOM     19  C   UNL d   1      -5.272  -5.351  -1.293  0.00  0.00     0.010 A 
ATOM     20  N   UNL d   1      -4.521  -5.191  -2.410  0.00  0.00    -0.369 N 
ATOM     21  C   UNL d   1      -5.166  -4.873  -3.554  0.00  0.00     0.088 A 
ATOM     22  HN  UNL d   1      -3.508  -5.306  -2.388  1.00  0.00     0.165 HD
ATOM     23  C   UNL d   1      -6.536  -4.706  -3.644  0.00  0.00     0.017 A 
ATOM     24  C   UNL d   1      -7.295  -4.891  -2.496  0.00  0.00     0.003 A 
ATOM     25  C   UNL d   1      -6.659  -5.225  -1.304  0.00  0.00     0.025 A 
ENDBRANCH  18  19
ENDBRANCH  17  18
ENDBRANCH  15  17
ENDBRANCH   1  15
TORSDOF 5
