REMARK  4 active torsions:
REMARK  status: ('A' for Active; 'I' for Inactive)
REMARK    1  A    between atoms: S_8  and  C_1 
REMARK    2  A    between atoms: C_3  and  C_2 
REMARK    3  A    between atoms: C_5  and  C_3 
REMARK    4  A    between atoms: C_4  and  S_8 
ROOT
ATOM      1  C   UNL d   1      -1.994   4.370   0.044  0.00  0.00     0.062 C 
ATOM      2  C   UNL d   1      -1.508   3.186  -0.358  0.00  0.00     0.054 C 
ENDROOT
BRANCH   1   3
ATOM      3  C   UNL d   1      -3.391   4.844  -0.131  0.00  0.00     0.182 C 
ATOM      4  O   UNL d   1      -3.586   6.044  -0.324  0.00  0.00    -0.288 OA
BRANCH   3   5
ATOM      5  C   UNL d   1      -4.543   3.915  -0.043  0.00  0.00     0.014 A 
ATOM      6  C   UNL d   1      -4.521   2.764   0.754  0.00  0.00     0.017 A 
ATOM      7  C   UNL d   1      -5.649   1.941   0.828  0.00  0.00     0.019 A 
ATOM      8  C   UNL d   1      -6.806   2.280   0.125  0.00  0.00     0.006 A 
ATOM      9  C   UNL d   1      -6.848   3.439  -0.647  0.00  0.00     0.019 A 
ATOM     10  I   UNL d   1      -8.482   1.058   0.246  0.00  0.00    -0.045 I 
ATOM     11  C   UNL d   1      -5.717   4.258  -0.728  0.00  0.00     0.017 A 
ENDBRANCH   3   5
ENDBRANCH   1   3
BRANCH   2  12
ATOM     12  S   UNL d   1       0.174   2.846  -0.127  0.00  0.00    -0.099 SA
BRANCH  12  13
ATOM     13  C   UNL d   1       0.626   1.907  -1.599  0.00  0.00     0.048 A 
ATOM     14  C   UNL d   1       0.397   2.362  -2.916  0.00  0.00     0.052 A 
ATOM     15 CL   UNL d   1      -0.453   3.825  -3.294  0.00  0.00    -0.083 Cl
ATOM     16  C   UNL d   1       0.897   1.659  -4.024  0.00  0.00     0.025 A 
ATOM     17  C   UNL d   1       1.655   0.506  -3.850  0.00  0.00     0.003 A 
ATOM     18  C   UNL d   1       1.897   0.037  -2.564  0.00  0.00     0.025 A 
ATOM     19  C   UNL d   1       1.386   0.722  -1.452  0.00  0.00     0.052 A 
ATOM     20 CL   UNL d   1       1.765   0.031   0.097  0.00  0.00    -0.083 Cl
ENDBRANCH  12  13
ENDBRANCH   2  12
TORSDOF 4
