REMARK  2 active torsions:
REMARK  status: ('A' for Active; 'I' for Inactive)
REMARK    1  A    between atoms: C_7  and  C_1 
REMARK       I    between atoms: N_9  and  C_7 
REMARK    2  A    between atoms: N_10  and  N_9 
ROOT
ATOM      1  C   UNL d   1       0.051  -1.612   0.059  0.00  0.00     0.150 A 
ATOM      2  O   UNL d   1       0.003   1.313   0.098  0.00  0.00    -0.310 OA
ATOM      3  C   UNL d   1      -1.222  -0.796   0.012  0.00  0.00    -0.006 A 
ATOM      4  C   UNL d   1       1.298  -0.755   0.019  0.00  0.00    -0.006 A 
ATOM      5  C   UNL d   1      -1.166   0.599   0.040  0.00  0.00     0.083 A 
ATOM      6  C   UNL d   1       1.195   0.637   0.052  0.00  0.00     0.083 A 
ATOM      7  C   UNL d   1       2.574  -1.341  -0.043  0.00  0.00     0.011 A 
ATOM      8  C   UNL d   1      -2.478  -1.425  -0.040  0.00  0.00     0.011 A 
ATOM      9  C   UNL d   1      -2.340   1.355   0.025  0.00  0.00     0.038 A 
ATOM     10  C   UNL d   1       2.343   1.433   0.048  0.00  0.00     0.038 A 
ATOM     11  C   UNL d   1      -3.651  -0.667  -0.046  0.00  0.00     0.001 A 
ATOM     12  C   UNL d   1       3.720  -0.543  -0.045  0.00  0.00     0.001 A 
ATOM     13  C   UNL d   1       3.605   0.844   0.005  0.00  0.00     0.003 A 
ATOM     14  C   UNL d   1      -3.582   0.724  -0.013  0.00  0.00     0.003 A 
ENDROOT
BRANCH   1  15
ATOM     15  C   UNL d   1       0.056  -2.549   1.277  0.00  0.00     0.244 C 
ATOM     16  O   UNL d   1       0.075  -3.778   1.167  0.00  0.00    -0.271 OA
ATOM     17  N   UNL d   1       0.014  -1.911   2.513  0.00  0.00    -0.293 N 
ATOM     18  H   UNL d   1       0.117  -0.897   2.571  0.00  0.00     0.183 HD
BRANCH  17  19
ATOM     19  N   UNL d   1       0.041  -2.677   3.698  0.00  0.00    -0.247 NA
ATOM     20  H   UNL d   1       0.393  -3.610   3.442  0.00  0.00     0.143 HD
ATOM     21  H   UNL d   1      -0.929  -2.852   3.975  0.00  0.00     0.143 HD
ENDBRANCH  17  19
ENDBRANCH   1  15
TORSDOF 2
