REMARK  3 active torsions:
REMARK  status: ('A' for Active; 'I' for Inactive)
REMARK       I    between atoms: C_2  and  N_1 
REMARK    1  A    between atoms: C_3  and  C_2 
REMARK    2  A    between atoms: C_19  and  C_5 
REMARK    3  A    between atoms: C_8  and  C_18 
ROOT
ATOM      1  N   UNL d   1      -2.424   0.132  -0.397  0.00  0.00    -0.335 N 
ATOM      2  C   UNL d   1      -3.618   0.466  -1.056  0.00  0.00     0.259 C 
ATOM      3  C   UNL d   1      -0.107   0.885  -0.003  0.00  0.00    -0.017 A 
ATOM      4  C   UNL d   1      -1.576   1.256   0.069  0.00  0.00     0.155 C 
ATOM      5  C   UNL d   1       0.332  -0.415  -0.163  0.00  0.00    -0.007 A 
ATOM      6  C   UNL d   1      -2.010  -1.226  -0.016  0.00  0.00     0.132 C 
ATOM      7  S   UNL d   1       2.022  -0.573  -0.170  0.00  0.00    -0.106 SA
ATOM      8  C   UNL d   1      -0.559  -1.587  -0.342  0.00  0.00     0.067 C 
ATOM      9  C   UNL d   1       1.019   1.777   0.062  0.00  0.00     0.018 A 
ATOM     10  O   UNL d   1      -3.878   1.640  -1.316  0.00  0.00    -0.267 OA
ATOM     11  C   UNL d   1       2.225   1.114  -0.002  0.00  0.00     0.051 A 
ENDROOT
BRANCH   2  12
ATOM     12  C   UNL d   1      -4.540  -0.574  -1.515  0.00  0.00     0.087 C 
ATOM     13  C   UNL d   1      -5.046  -1.695  -0.879  0.00  0.00     0.090 C 
ATOM     14  O   UNL d   1      -5.871  -2.367  -1.724  0.00  0.00    -0.242 OA
ATOM     15  C   UNL d   1      -4.932  -2.321   0.454  0.00  0.00     0.080 C 
ATOM     16  N   UNL d   1      -6.008  -1.668  -2.898  0.00  0.00    -0.265 N 
ATOM     17  C   UNL d   1      -5.261  -0.570  -2.756  0.00  0.00     0.047 C 
ATOM     18  HN  UNL d   1      -6.566  -1.932  -3.710  1.00  0.00     0.194 HD
ATOM     19  C   UNL d   1      -5.271   0.452  -3.831  0.00  0.00     0.071 C 
ENDBRANCH   2  12
BRANCH   4  20
ATOM     20  C   UNL d   1      -1.873   1.655   1.520  0.00  0.00    -0.031 A 
ATOM     21  C   UNL d   1      -2.781   2.700   1.768  0.00  0.00     0.010 A 
ATOM     22  C   UNL d   1      -3.096   3.092   3.075  0.00  0.00     0.017 A 
ATOM     23  C   UNL d   1      -2.518   2.448   4.178  0.00  0.00     0.047 A 
ATOM     24  C   UNL d   1      -1.618   1.402   3.943  0.00  0.00     0.017 A 
ATOM     25  C   UNL d   1      -1.308   1.007   2.636  0.00  0.00     0.010 A 
BRANCH  23  26
ATOM     26  C   UNL d   1      -2.870   2.868   5.585  0.00  0.00     0.417 C 
ATOM     27  F   UNL d   1      -2.228   2.144   6.545  0.00  0.00    -0.166 F 
ATOM     28  F   UNL d   1      -2.564   4.170   5.836  0.00  0.00    -0.166 F 
ATOM     29  F   UNL d   1      -4.199   2.736   5.850  0.00  0.00    -0.166 F 
ENDBRANCH  23  26
ENDBRANCH   4  20
TORSDOF 3
