REMARK  1 active torsions:
REMARK  status: ('A' for Active; 'I' for Inactive)
REMARK    1  A    between atoms: N_11  and  C_4 
ROOT
ATOM      1  N   UNL d   1       2.284   0.389   0.739  0.00  0.00    -0.175 N 
ATOM      2  HN  UNL d   1       2.946   0.607   1.484  1.00  0.00     0.186 HD
ATOM      3  C   UNL d   1       1.192   1.147   0.537  0.00  0.00     0.139 A 
ATOM      4  C   UNL d   1       2.477  -0.665  -0.072  0.00  0.00     0.681 A 
ATOM      5  C   UNL d   1       0.279   0.886  -0.451  0.00  0.00     0.092 A 
ATOM      6  N   UNL d   1       1.053   2.232   1.419  0.00  0.00    -0.337 N 
ATOM      7  HN  UNL d   1       1.742   2.416   2.148  1.00  0.00     0.168 HD
ATOM      8  C   UNL d   1      -0.878   1.760  -0.589  0.00  0.00     0.261 A 
ATOM      9  N   UNL d   1       1.629  -0.965  -1.076  0.00  0.00    -0.201 N 
ATOM     10  HN  UNL d   1       1.809  -1.757  -1.693  1.00  0.00     0.183 HD
ATOM     11  N   UNL d   1      -0.937   2.793   0.310  0.00  0.00    -0.319 N 
ATOM     12  C   UNL d   1       0.020   2.986   1.267  0.00  0.00     0.184 A 
ATOM     13  C   UNL d   1       0.537  -0.192  -1.245  0.00  0.00     0.127 A 
ATOM     14  O   UNL d   1      -1.730   1.578  -1.451  0.00  0.00    -0.267 OA
ATOM     15  H   UNL d   1      -1.729   3.417   0.236  0.00  0.00     0.169 HD
ENDROOT
BRANCH   4  16
ATOM     16  N   UNL d   1       3.537  -1.506   0.164  0.00  0.00    -0.214 N 
ATOM     17  C   UNL d   1       4.533  -1.179   1.187  0.00  0.00     0.167 C 
ATOM     18  C   UNL d   1       5.847  -0.729   0.532  0.00  0.00     0.188 C 
ATOM     19  O   UNL d   1       6.323  -1.702  -0.416  0.00  0.00    -0.388 OA
ATOM     20  C   UNL d   1       5.351  -1.901  -1.456  0.00  0.00     0.188 C 
ATOM     21  C   UNL d   1       4.011  -2.404  -0.892  0.00  0.00     0.167 C 
ENDBRANCH   4  16
TORSDOF 1
