REMARK  1 active torsions:
REMARK  status: ('A' for Active; 'I' for Inactive)
REMARK    1  A    between atoms: C_7  and  C_3 
ROOT
ATOM      1  N   UNL d   1      -0.139  -1.305  -0.501  0.00  0.00    -0.353 N 
ATOM      2  HN  UNL d   1      -0.544  -2.129  -0.945  1.00  0.00     0.166 HD
ATOM      3  C   UNL d   1       1.150  -1.230   0.010  0.00  0.00     0.049 A 
ATOM      4  C   UNL d   1      -0.761  -0.158  -0.331  0.00  0.00     0.047 A 
ATOM      5  S   UNL d   1       0.164   1.082   0.416  0.00  0.00    -0.087 SA
ATOM      6  C   UNL d   1       1.489   0.003   0.535  0.00  0.00     0.081 A 
ATOM      7  C   UNL d   1      -2.165   0.111  -0.743  0.00  0.00     0.076 C 
ENDROOT
BRANCH   3   8
ATOM      8  C   UNL d   1       2.062  -2.366  -0.053  0.00  0.00    -0.009 A 
ATOM      9  C   UNL d   1       1.938  -3.295  -1.095  0.00  0.00     0.014 A 
ATOM     10  C   UNL d   1       2.819  -4.376  -1.196  0.00  0.00     0.001 A 
ATOM     11  C   UNL d   1       3.825  -4.546  -0.246  0.00  0.00     0.000 A 
ATOM     12  C   UNL d   1       3.946  -3.642   0.807  0.00  0.00     0.001 A 
ATOM     13  C   UNL d   1       3.069  -2.558   0.905  0.00  0.00     0.014 A 
ENDBRANCH   3   8
TORSDOF 1
