REMARK  3 active torsions:
REMARK  status: ('A' for Active; 'I' for Inactive)
REMARK    1  A    between atoms: C_8  and  N_1 
REMARK    2  A    between atoms: N_13  and  N_4 
REMARK    3  A    between atoms: C_7  and  C_9 
ROOT
ATOM      1  N   UNL d   1       0.714   1.067  -0.464  0.00  0.00    -0.308 N 
ATOM      2  C   UNL d   1       1.460  -0.034  -0.015  0.00  0.00     0.244 C 
ATOM      3  C   UNL d   1      -1.442   0.006   0.314  0.00  0.00     0.252 C 
ATOM      4  N   UNL d   1      -0.705  -1.131   0.643  0.00  0.00    -0.275 N 
ATOM      5  C   UNL d   1       0.638  -1.310   0.115  0.00  0.00     0.249 C 
ATOM      6  C   UNL d   1      -0.611   1.268   0.115  0.00  0.00     0.236 C 
ATOM      7  O   UNL d   1      -2.672   0.043   0.406  0.00  0.00    -0.270 OA
ATOM      8  O   UNL d   1       2.688  -0.077   0.045  0.00  0.00    -0.271 OA
ENDROOT
BRANCH   1   9
ATOM      9  C   UNL d   1       1.339   2.137  -1.188  0.00  0.00     0.038 A 
ATOM     10  C   UNL d   1       2.427   1.867  -2.034  0.00  0.00     0.046 A 
ATOM     11  C   UNL d   1       3.015   2.864  -2.830  0.00  0.00     0.050 A 
ATOM     12  C   UNL d   1       2.505   4.165  -2.769  0.00  0.00     0.016 A 
ATOM     13  C   UNL d   1       1.431   4.457  -1.932  0.00  0.00     0.003 A 
ATOM     14  C   UNL d   1       0.849   3.450  -1.154  0.00  0.00     0.030 A 
BRANCH  11  15
ATOM     15  C   UNL d   1       4.155   2.535  -3.763  0.00  0.00     0.417 C 
ATOM     16  F   UNL d   1       4.594   1.250  -3.667  0.00  0.00    -0.166 F 
ATOM     17  F   UNL d   1       3.815   2.713  -5.070  0.00  0.00    -0.166 F 
ATOM     18  F   UNL d   1       5.247   3.321  -3.552  0.00  0.00    -0.166 F 
ENDBRANCH  11  15
ENDBRANCH   1   9
BRANCH   4  19
ATOM     19  N   UNL d   1      -1.446  -2.335   0.866  0.00  0.00    -0.244 NA
ATOM     20  H   UNL d   1      -2.422  -2.139   0.602  0.00  0.00     0.143 HD
ATOM     21  H   UNL d   1      -1.490  -2.486   1.877  0.00  0.00     0.143 HD
ENDBRANCH   4  19
TORSDOF 3
