REMARK  9 active torsions:
REMARK  status: ('A' for Active; 'I' for Inactive)
REMARK    1  A    between atoms: N_4  and  C_1 
REMARK       I    between atoms: C_2  and  N_8 
REMARK    2  A    between atoms: C_7  and  C_2 
REMARK    3  A    between atoms: C_10  and  N_4 
REMARK    4  A    between atoms: C_18  and  N_6 
REMARK    5  A    between atoms: C_9  and  C_7 
REMARK    6  A    between atoms: N_8  and  C_19 
REMARK    7  A    between atoms: C_16  and  C_10 
REMARK    8  A    between atoms: O_17  and  C_11 
REMARK    9  A    between atoms: C_19  and  C_18 
ROOT
ATOM      1  C   UNL d   1       3.178   0.415   1.367  0.00  0.00     0.141 C 
ENDROOT
BRANCH   1   2
ATOM      2  N   UNL d   1       2.322   0.063   0.236  0.00  0.00    -0.366 N 
ATOM      3  C   UNL d   1       1.962  -1.189  -0.165  0.00  0.00     0.167 C 
ATOM      4  S   UNL d   1       2.426  -2.627   0.541  0.00  0.00    -0.041 SA
ATOM      5  H   UNL d   1       2.188   0.800  -0.445  0.00  0.00     0.161 HD
BRANCH   3   6
ATOM      6  N   UNL d   1       1.119  -1.253  -1.234  0.00  0.00    -0.363 N 
ATOM      7  H   UNL d   1       0.871  -2.199  -1.496  0.00  0.00     0.162 HD
BRANCH   6   8
ATOM      8  C   UNL d   1       0.246  -0.204  -1.735  0.00  0.00     0.160 C 
BRANCH   8   9
ATOM      9  C   UNL d   1       0.899   0.733  -2.720  0.00  0.00    -0.041 A 
ATOM     10  C   UNL d   1       1.907   0.304  -3.597  0.00  0.00     0.009 A 
ATOM     11  C   UNL d   1       2.456   1.183  -4.533  0.00  0.00     0.001 A 
ATOM     12  C   UNL d   1       1.995   2.495  -4.615  0.00  0.00     0.000 A 
ATOM     13  C   UNL d   1       0.986   2.931  -3.761  0.00  0.00     0.001 A 
ATOM     14  C   UNL d   1       0.438   2.055  -2.822  0.00  0.00     0.009 A 
ENDBRANCH   8   9
ENDBRANCH   6   8
ENDBRANCH   3   6
ENDBRANCH   1   2
BRANCH   1  15
ATOM     15  C   UNL d   1       4.676   0.304   1.053  0.00  0.00     0.142 C 
BRANCH  15  16
ATOM     16  N   UNL d   1       5.510   0.672   2.186  0.00  0.00    -0.359 N 
ATOM     17  C   UNL d   1       5.795   1.989   2.471  0.00  0.00     0.221 C 
ATOM     18  O   UNL d   1       5.397   2.924   1.778  0.00  0.00    -0.273 OA
ATOM     19  H   UNL d   1       5.709  -0.037   2.880  0.00  0.00     0.162 HD
BRANCH  17  20
ATOM     20  C   UNL d   1       6.645   2.200   3.713  0.00  0.00     0.141 C 
BRANCH  20  21
ATOM     21  C   UNL d   1       5.836   2.524   4.946  0.00  0.00    -0.049 A 
ATOM     22  C   UNL d   1       5.913   1.708   6.084  0.00  0.00     0.010 A 
ATOM     23  C   UNL d   1       5.202   2.036   7.239  0.00  0.00     0.037 A 
ATOM     24  C   UNL d   1       4.415   3.181   7.264  0.00  0.00     0.065 A 
ATOM     25  C   UNL d   1       4.319   4.002   6.147  0.00  0.00     0.037 A 
ATOM     26  C   UNL d   1       5.031   3.674   4.990  0.00  0.00     0.010 A 
BRANCH  24  27
ATOM     27  O   UNL d   1       3.753   3.473   8.420  0.00  0.00    -0.361 OA
ATOM     28  H   UNL d   1       3.290   4.318   8.304  0.00  0.00     0.217 HD
ENDBRANCH  24  27
ENDBRANCH  20  21
ENDBRANCH  17  20
ENDBRANCH  15  16
ENDBRANCH   1  15
TORSDOF 9
