REMARK  2 active torsions:
REMARK  status: ('A' for Active; 'I' for Inactive)
REMARK    1  A    between atoms: C_3  and  N_1 
REMARK    2  A    between atoms: C_5  and  C_3 
ROOT
ATOM      1  C   UNL d   1      -0.572  -3.606   0.540  0.00  0.00    -0.037 A 
ATOM      2  C   UNL d   1       0.656  -6.133   0.719  0.00  0.00     0.047 A 
ATOM      3  C   UNL d   1       0.518  -5.334   1.850  0.00  0.00     0.036 A 
ATOM      4  C   UNL d   1       0.200  -5.656  -0.507  0.00  0.00     0.036 A 
ATOM      5  C   UNL d   1      -0.089  -4.079   1.769  0.00  0.00     0.032 A 
ATOM      6  C   UNL d   1      -0.399  -4.399  -0.605  0.00  0.00     0.032 A 
ATOM      7 CL   UNL d   1       0.355  -6.639  -1.912  0.00  0.00    -0.084 Cl
ATOM      8 CL   UNL d   1       1.088  -5.903   3.371  0.00  0.00    -0.084 Cl
ENDROOT
BRANCH   1   9
ATOM      9  C   UNL d   1      -1.286  -2.280   0.449  0.00  0.00     0.165 C 
BRANCH   9  10
ATOM     10  N   UNL d   1      -0.401  -1.171   0.151  0.00  0.00    -0.338 N 
ATOM     11  C   UNL d   1      -0.196  -0.729  -1.143  0.00  0.00     0.230 C 
ATOM     12  O   UNL d   1      -0.731  -1.211  -2.134  0.00  0.00    -0.273 OA
ATOM     13  C   UNL d   1       0.783   0.424  -1.207  0.00  0.00     0.178 C 
ATOM     14  S   UNL d   1       1.125   0.909   0.500  0.00  0.00    -0.140 SA
ATOM     15  C   UNL d   1       0.416  -0.592   1.182  0.00  0.00     0.200 C 
ENDBRANCH   9  10
ENDBRANCH   1   9
TORSDOF 2
