REMARK  2 active torsions:
REMARK  status: ('A' for Active; 'I' for Inactive)
REMARK    1  A    between atoms: S_2  and  C_1 
REMARK    2  A    between atoms: C_6  and  S_2 
ROOT
ATOM      1  S   UNL d   1      -4.884   0.340   0.007  0.00  0.00     0.229 S 
ATOM      2  O   UNL d   1      -4.262  -0.935   0.311  0.00  0.00    -0.215 OA
ATOM      3  O   UNL d   1      -4.147   1.362  -0.719  0.00  0.00    -0.215 OA
ENDROOT
BRANCH   1   4
ATOM      4  C   UNL d   1      -6.341   0.006  -0.961  0.00  0.00     0.176 A 
ATOM      5  N   UNL d   1      -7.005  -1.134  -0.985  0.00  0.00    -0.340 N 
ATOM      6  C   UNL d   1      -8.059  -1.037  -1.871  0.00  0.00     0.051 A 
ATOM      7  HN  UNL d   1      -6.774  -1.960  -0.434  1.00  0.00     0.167 HD
ATOM      8  C   UNL d   1      -8.972  -2.067  -2.178  0.00  0.00     0.032 A 
ATOM      9  C   UNL d   1      -8.204   0.202  -2.500  0.00  0.00     0.036 A 
ATOM     10  C   UNL d   1      -9.993  -1.837  -3.107  0.00  0.00     0.026 A 
ATOM     11  C   UNL d   1     -10.108  -0.596  -3.724  0.00  0.00     0.035 A 
ATOM     12  C   UNL d   1      -9.223   0.446  -3.436  0.00  0.00     0.045 A 
ATOM     13 CL   UNL d   1     -11.369  -0.338  -4.869  0.00  0.00    -0.084 Cl
ATOM     14  S   UNL d   1      -6.973   1.266  -1.928  0.00  0.00    -0.058 SA
ENDBRANCH   1   4
BRANCH   1  15
ATOM     15  C   UNL d   1      -5.441   1.051   1.551  0.00  0.00     0.072 A 
ATOM     16  C   UNL d   1      -4.955   2.333   1.875  0.00  0.00     0.033 A 
ATOM     17  C   UNL d   1      -5.329   2.975   3.067  0.00  0.00    -0.039 A 
ATOM     18  C   UNL d   1      -4.748   4.321   3.398  0.00  0.00     0.050 C 
ATOM     19  C   UNL d   1      -6.220   2.321   3.924  0.00  0.00     0.040 A 
ATOM     20  C   UNL d   1      -6.695   1.044   3.611  0.00  0.00     0.032 A 
ATOM     21 CL   UNL d   1      -6.756   3.046   5.397  0.00  0.00    -0.084 Cl
ATOM     22  C   UNL d   1      -6.295   0.373   2.438  0.00  0.00    -0.038 A 
ATOM     23  C   UNL d   1      -6.839  -1.015   2.241  0.00  0.00     0.050 C 
ENDBRANCH   1  15
TORSDOF 2
