REMARK  2 active torsions:
REMARK  status: ('A' for Active; 'I' for Inactive)
REMARK    1  A    between atoms: C_5  and  N_1 
REMARK    2  A    between atoms: O_14  and  C_11 
ROOT
ATOM      1  C   UNL d   1       0.205  -2.452  -0.029  0.00  0.00     0.044 A 
ATOM      2  C   UNL d   1       0.861  -3.239   0.927  0.00  0.00     0.033 A 
ATOM      3  C   UNL d   1      -0.579  -3.085  -1.001  0.00  0.00     0.033 A 
ATOM      4  C   UNL d   1      -0.082  -5.253  -0.033  0.00  0.00     0.068 A 
ATOM      5  C   UNL d   1      -0.720  -4.475  -0.999  0.00  0.00     0.039 A 
ATOM      6  C   UNL d   1       0.702  -4.631   0.937  0.00  0.00     0.039 A 
ENDROOT
BRANCH   1   7
ATOM      7  N   UNL d   1       0.348  -1.035  -0.018  0.00  0.00    -0.266 N 
ATOM      8  C   UNL d   1      -0.723  -0.157   0.005  0.00  0.00     0.148 A 
ATOM      9  S   UNL d   1      -0.150   1.503  -0.079  0.00  0.00    -0.090 SA
ATOM     10  S   UNL d   1      -2.356  -0.472   0.194  0.00  0.00    -0.052 SA
ATOM     11  C   UNL d   1       1.580   1.028  -0.055  0.00  0.00     0.185 A 
ATOM     12  C   UNL d   1       1.622  -0.475  -0.004  0.00  0.00     0.239 A 
ATOM     13  O   UNL d   1       2.689  -1.081   0.015  0.00  0.00    -0.272 OA
ENDBRANCH   1   7
BRANCH   4  14
ATOM     14  O   UNL d   1      -0.323  -6.595  -0.124  0.00  0.00    -0.356 OA
ATOM     15  C   UNL d   1       0.630  -7.446   0.502  0.00  0.00     0.210 C 
ENDBRANCH   4  14
TORSDOF 2
