REMARK  4 active torsions:
REMARK  status: ('A' for Active; 'I' for Inactive)
REMARK    1  A    between atoms: S_6  and  C_1 
REMARK    2  A    between atoms: C_10  and  C_1 
REMARK    3  A    between atoms: C_9  and  C_3 
REMARK    4  A    between atoms: C_13  and  S_6 
ROOT
ATOM      1  C   UNL d   1       0.003   3.355  -1.345  0.00  0.00     0.124 C 
ATOM      2  N   UNL d   1      -2.543   3.092  -1.709  0.00  0.00    -0.191 NA
ATOM      3  N   UNL d   1       1.122   5.609  -1.927  0.00  0.00    -0.191 NA
ATOM      4  C   UNL d   1      -1.399   3.228  -1.558  0.00  0.00     0.110 C 
ATOM      5  C   UNL d   1       0.614   4.601  -1.666  0.00  0.00     0.110 C 
ATOM      6  C   UNL d   1       0.756   2.351  -0.848  0.00  0.00     0.035 C 
ENDROOT
BRANCH   6   7
ATOM      7  C   UNL d   1       0.281   1.016  -0.504  0.00  0.00     0.022 C 
ATOM      8  C   UNL d   1       0.968  -0.004   0.058  0.00  0.00     0.015 C 
BRANCH   8   9
ATOM      9  S   UNL d   1       2.673   0.120   0.396  0.00  0.00    -0.090 SA
BRANCH   9  10
ATOM     10  C   UNL d   1       2.832  -0.345   2.111  0.00  0.00     0.005 A 
ATOM     11  C   UNL d   1       3.984  -1.056   2.483  0.00  0.00     0.020 A 
ATOM     12  C   UNL d   1       4.249  -1.342   3.826  0.00  0.00     0.025 A 
ATOM     13  C   UNL d   1       3.361  -0.915   4.808  0.00  0.00     0.034 A 
ATOM     14  C   UNL d   1       2.205  -0.221   4.455  0.00  0.00     0.025 A 
ATOM     15 CL   UNL d   1       3.708  -1.221   6.465  0.00  0.00    -0.084 Cl
ATOM     16  C   UNL d   1       1.943   0.067   3.109  0.00  0.00     0.020 A 
ENDBRANCH   9  10
ENDBRANCH   8   9
BRANCH   8  17
ATOM     17  C   UNL d   1       0.289  -1.327   0.235  0.00  0.00    -0.019 A 
ATOM     18  C   UNL d   1       0.962  -2.546   0.027  0.00  0.00     0.016 A 
ATOM     19  C   UNL d   1       0.294  -3.772   0.134  0.00  0.00     0.043 A 
ATOM     20  C   UNL d   1      -1.060  -3.795   0.433  0.00  0.00     0.116 A 
ATOM     21  C   UNL d   1      -1.755  -2.617   0.652  0.00  0.00     0.043 A 
ATOM     22  F   UNL d   1      -1.704  -4.967   0.506  0.00  0.00    -0.206 F 
ATOM     23  C   UNL d   1      -1.081  -1.394   0.573  0.00  0.00     0.016 A 
ENDBRANCH   8  17
ENDBRANCH   6   7
TORSDOF 4
