REMARK  4 active torsions:
REMARK  status: ('A' for Active; 'I' for Inactive)
REMARK    1  A    between atoms: C_2  and  C_1 
REMARK       I    between atoms: N_4  and  C_2 
REMARK       I    between atoms: N_6  and  C_3 
REMARK    2  A    between atoms: C_8  and  C_3 
REMARK    3  A    between atoms: C_8  and  N_4 
REMARK    4  A    between atoms: C_15  and  N_6 
ROOT
ATOM      1  C   UNL d   1       0.825  -4.712   1.042  0.00  0.00     0.254 C 
ATOM      2  N   UNL d   1      -0.411  -4.114   1.034  0.00  0.00    -0.344 N 
ATOM      3  O   UNL d   1       1.272  -5.268   0.040  0.00  0.00    -0.268 OA
ATOM      4  H   UNL d   1      -0.760  -3.630   1.856  0.00  0.00     0.163 HD
ENDROOT
BRANCH   2   5
ATOM      5  C   UNL d   1      -1.287  -4.052  -0.145  0.00  0.00     0.172 C 
ATOM      6  C   UNL d   1      -1.853  -5.426  -0.492  0.00  0.00     0.042 C 
BRANCH   5   7
ATOM      7  C   UNL d   1      -2.430  -3.047   0.146  0.00  0.00     0.240 C 
ATOM      8  N   UNL d   1      -3.237  -2.710  -0.930  0.00  0.00    -0.355 N 
ATOM      9  H   UNL d   1      -3.128  -3.202  -1.808  0.00  0.00     0.162 HD
ATOM     10  O   UNL d   1      -2.591  -2.572   1.272  0.00  0.00    -0.271 OA
BRANCH   8  11
ATOM     11  C   UNL d   1      -4.380  -1.808  -0.769  0.00  0.00     0.084 C 
ATOM     12  C   UNL d   1      -5.678  -2.584  -0.504  0.00  0.00     0.025 C 
ATOM     13  C   UNL d   1      -6.346  -3.116  -1.773  0.00  0.00     0.002 C 
ATOM     14  C   UNL d   1      -6.566  -1.999  -2.784  0.00  0.00     0.000 C 
ATOM     15  C   UNL d   1      -5.240  -1.354  -3.162  0.00  0.00     0.002 C 
ATOM     16  C   UNL d   1      -4.501  -0.816  -1.937  0.00  0.00     0.025 C 
ENDBRANCH   8  11
ENDBRANCH   5   7
ENDBRANCH   2   5
BRANCH   1  17
ATOM     17  C   UNL d   1       1.641  -4.699   2.310  0.00  0.00     0.053 A 
ATOM     18  C   UNL d   1       1.304  -4.076   3.525  0.00  0.00     0.051 A 
ATOM     19  C   UNL d   1       2.176  -4.142   4.627  0.00  0.00     0.048 A 
ATOM     20 CL   UNL d   1      -0.154  -3.191   3.800  0.00  0.00    -0.083 Cl
ATOM     21  C   UNL d   1       3.384  -4.826   4.534  0.00  0.00     0.035 A 
ATOM     22  C   UNL d   1       3.740  -5.450   3.347  0.00  0.00     0.025 A 
ATOM     23 CL   UNL d   1       4.437  -4.893   5.893  0.00  0.00    -0.084 Cl
ATOM     24  C   UNL d   1       2.877  -5.386   2.249  0.00  0.00     0.020 A 
ENDBRANCH   1  17
TORSDOF 4
