REMARK  4 active torsions:
REMARK  status: ('A' for Active; 'I' for Inactive)
REMARK    1  A    between atoms: C_4  and  C_1 
REMARK    2  A    between atoms: C_3  and  N_9 
REMARK       I    between atoms: N_9  and  C_4 
REMARK    3  A    between atoms: C_15  and  C_5 
REMARK    4  A    between atoms: O_20  and  C_6 
ROOT
ATOM      1  C   UNL d   1      -2.565   2.078  -0.083  0.00  0.00     0.261 C 
ATOM      2  N   UNL d   1      -3.938   1.954  -0.029  0.00  0.00    -0.302 N 
ATOM      3  O   UNL d   1      -1.766   1.158  -0.170  0.00  0.00    -0.267 OA
ATOM      4  H   UNL d   1      -4.540   2.759  -0.072  0.00  0.00     0.171 HD
ENDROOT
BRANCH   2   5
ATOM      5  C   UNL d   1      -4.526   0.720   0.056  0.00  0.00     0.168 A 
ATOM      6  S   UNL d   1      -6.234   0.720   0.082  0.00  0.00    -0.037 SA
ATOM      7  C   UNL d   1      -6.141  -0.981   0.284  0.00  0.00     0.074 A 
ATOM      8  N   UNL d   1      -4.917  -1.461   0.292  0.00  0.00    -0.296 N 
ATOM      9  N   UNL d   1      -3.974  -0.462   0.157  0.00  0.00    -0.279 N 
ATOM     10  HN  UNL d   1      -4.692  -2.452   0.387  1.00  0.00     0.187 HD
ATOM     11  HN  UNL d   1      -2.967  -0.626   0.138  1.00  0.00     0.189 HD
BRANCH   7  12
ATOM     12  C   UNL d   1      -7.367  -1.875   0.476  0.00  0.00     0.044 A 
ATOM     13  C   UNL d   1      -7.235  -3.041   1.439  0.00  0.00     0.012 A 
ATOM     14  C   UNL d   1      -7.313  -3.306  -0.025  0.00  0.00     0.012 A 
ENDBRANCH   7  12
ENDBRANCH   2   5
BRANCH   1  15
ATOM     15  C   UNL d   1      -2.092   3.465  -0.015  0.00  0.00     0.074 A 
ATOM     16  C   UNL d   1      -0.965   3.987  -0.747  0.00  0.00     0.113 A 
ATOM     17  C   UNL d   1      -0.713   5.303  -0.432  0.00  0.00     0.108 A 
ATOM     18 CL   UNL d   1       0.474   6.372  -1.071  0.00  0.00    -0.073 Cl
ATOM     19  S   UNL d   1      -1.778   5.917   0.737  0.00  0.00    -0.086 SA
ATOM     20  C   UNL d   1      -2.623   4.432   0.823  0.00  0.00     0.071 A 
BRANCH  16  21
ATOM     21  O   UNL d   1      -0.341   3.269  -1.719  0.00  0.00    -0.353 OA
ATOM     22  C   UNL d   1       1.075   3.199  -1.579  0.00  0.00     0.210 C 
ENDBRANCH  16  21
ENDBRANCH   1  15
TORSDOF 4
