REMARK  4 active torsions:
REMARK  status: ('A' for Active; 'I' for Inactive)
REMARK    1  A    between atoms: C_4  and  N_1 
REMARK    2  A    between atoms: C_12  and  C_2 
REMARK    3  A    between atoms: N_5  and  C_3 
REMARK    4  A    between atoms: O_15  and  C_12 
ROOT
ATOM      1  C   UNL d   1       0.158   0.094  -3.556  0.00  0.00    -0.006 A 
ATOM      2  C   UNL d   1      -1.005   0.909  -3.576  0.00  0.00     0.038 A 
ATOM      3  C   UNL d   1       0.313   0.326  -1.121  0.00  0.00     0.103 A 
ATOM      4  C   UNL d   1       0.804  -0.182  -2.325  0.00  0.00     0.047 A 
ATOM      5  C   UNL d   1      -1.450   1.420  -2.332  0.00  0.00     0.032 A 
ATOM      6  C   UNL d   1      -0.811   1.139  -1.119  0.00  0.00     0.038 A 
ENDROOT
BRANCH   2   7
ATOM      7  N   UNL d   1      -1.746   1.171  -4.714  0.00  0.00    -0.376 N 
ATOM      8  C   UNL d   1      -3.216   1.317  -4.670  0.00  0.00     0.149 C 
ATOM      9  C   UNL d   1      -3.836   0.516  -5.831  0.00  0.00     0.187 C 
ATOM     10  O   UNL d   1      -3.287   0.896  -7.106  0.00  0.00    -0.388 OA
ATOM     11  C   UNL d   1      -1.859   0.709  -7.112  0.00  0.00     0.187 C 
ATOM     12  C   UNL d   1      -1.193   1.565  -6.019  0.00  0.00     0.149 C 
ENDBRANCH   2   7
BRANCH   1  13
ATOM     13  C   UNL d   1       0.764  -0.507  -4.806  0.00  0.00     0.205 C 
BRANCH  13  14
ATOM     14  O   UNL d   1       1.479  -1.712  -4.552  0.00  0.00    -0.396 OA
ATOM     15  H   UNL d   1       2.390  -1.462  -4.326  0.00  0.00     0.209 HD
ENDBRANCH  13  14
ENDBRANCH   1  13
BRANCH   3  16
ATOM     16  N   UNL d   1       0.993  -0.007   0.137  0.00  0.00    -0.116 N 
ATOM     17  O   UNL d   1       1.996  -0.735   0.088  0.00  0.00    -0.532 OA
ATOM     18  O   UNL d   1       0.532   0.470   1.185  0.00  0.00    -0.532 OA
ENDBRANCH   3  16
TORSDOF 4
