REMARK  6 active torsions:
REMARK  status: ('A' for Active; 'I' for Inactive)
REMARK    1  A    between atoms: O_11  and  C_1 
REMARK    2  A    between atoms: O_10  and  C_2 
REMARK    3  A    between atoms: O_12  and  C_3 
REMARK    4  A    between atoms: C_14  and  O_10 
REMARK    5  A    between atoms: C_13  and  O_11 
REMARK    6  A    between atoms: C_15  and  O_12 
ROOT
ATOM      1  C   UNL d   1       0.716  -1.067   0.006  0.00  0.00     0.235 A 
ATOM      2  C   UNL d   1      -1.305  -0.127   0.053  0.00  0.00     0.235 A 
ATOM      3  C   UNL d   1       0.521   1.145  -0.145  0.00  0.00     0.235 A 
ATOM      4  N   UNL d   1      -0.600  -1.249   0.088  0.00  0.00    -0.287 N 
ATOM      5  HN  UNL d   1      -1.028  -2.171   0.170  1.00  0.00     0.173 HD
ATOM      6  N   UNL d   1       1.337   0.103  -0.074  0.00  0.00    -0.287 N 
ATOM      7  HN  UNL d   1       2.353   0.192  -0.080  1.00  0.00     0.173 HD
ATOM      8  N   UNL d   1      -0.805   1.096  -0.080  0.00  0.00    -0.287 N 
ATOM      9  HN  UNL d   1      -1.390   1.930  -0.129  1.00  0.00     0.173 HD
ENDROOT
BRANCH   1  10
ATOM     10  O   UNL d   1       1.562  -2.163   0.084  0.00  0.00    -0.279 OA
BRANCH  10  11
ATOM     11  C   UNL d   1       1.164  -3.352  -0.481  0.00  0.00     0.079 A 
ATOM     12  C   UNL d   1       0.404  -3.459  -1.649  0.00  0.00     0.037 A 
ATOM     13  C   UNL d   1       0.101  -4.718  -2.172  0.00  0.00     0.003 A 
ATOM     14  C   UNL d   1       0.578  -5.869  -1.548  0.00  0.00     0.000 A 
ATOM     15  C   UNL d   1       1.362  -5.765  -0.400  0.00  0.00     0.003 A 
ATOM     16  C   UNL d   1       1.658  -4.508   0.130  0.00  0.00     0.037 A 
ENDBRANCH  10  11
ENDBRANCH   1  10
BRANCH   2  17
ATOM     17  O   UNL d   1      -2.684  -0.299   0.081  0.00  0.00    -0.279 OA
BRANCH  17  18
ATOM     18  C   UNL d   1      -3.442   0.734   0.583  0.00  0.00     0.079 A 
ATOM     19  C   UNL d   1      -4.606   1.066  -0.110  0.00  0.00     0.037 A 
ATOM     20  C   UNL d   1      -5.439   2.078   0.371  0.00  0.00     0.003 A 
ATOM     21  C   UNL d   1      -5.112   2.749   1.551  0.00  0.00     0.000 A 
ATOM     22  C   UNL d   1      -3.963   2.399   2.258  0.00  0.00     0.003 A 
ATOM     23  C   UNL d   1      -3.135   1.382   1.784  0.00  0.00     0.037 A 
ENDBRANCH  17  18
ENDBRANCH   2  17
BRANCH   3  24
ATOM     24  O   UNL d   1       1.153   2.378  -0.238  0.00  0.00    -0.279 OA
BRANCH  24  25
ATOM     25  C   UNL d   1       0.497   3.382  -0.911  0.00  0.00     0.079 A 
ATOM     26  C   UNL d   1       0.594   4.666  -0.372  0.00  0.00     0.037 A 
ATOM     27  C   UNL d   1      -0.011   5.743  -1.023  0.00  0.00     0.003 A 
ATOM     28  C   UNL d   1      -0.699   5.538  -2.220  0.00  0.00     0.000 A 
ATOM     29  C   UNL d   1      -0.773   4.261  -2.773  0.00  0.00     0.003 A 
ATOM     30  C   UNL d   1      -0.163   3.185  -2.127  0.00  0.00     0.037 A 
ENDBRANCH  24  25
ENDBRANCH   3  24
TORSDOF 6
