REMARK  6 active torsions:
REMARK  status: ('A' for Active; 'I' for Inactive)
REMARK    1  A    between atoms: C_6  and  C_1 
REMARK       I    between atoms: C_2  and  N_7 
REMARK       I    between atoms: N_4  and  C_2 
REMARK    2  A    between atoms: O_8  and  C_3 
REMARK    3  A    between atoms: C_5  and  N_4 
REMARK    4  A    between atoms: N_7  and  C_13 
REMARK    5  A    between atoms: C_17  and  O_8 
REMARK    6  A    between atoms: O_23  and  C_18 
ROOT
ATOM      1  C   UNL d   1      -0.684  -2.218   1.590  0.00  0.00     0.175 A 
ATOM      2  C   UNL d   1      -0.014  -1.576   2.628  0.00  0.00     0.088 A 
ATOM      3  N   UNL d   1      -0.261  -2.172   0.302  0.00  0.00    -0.345 N 
ATOM      4  HN  UNL d   1      -0.803  -2.600  -0.449  1.00  0.00     0.167 HD
ATOM      5  C   UNL d   1       1.206  -0.958   2.341  0.00  0.00     0.035 A 
ATOM      6  C   UNL d   1       0.902  -1.538   0.051  0.00  0.00     0.090 A 
ATOM      7  C   UNL d   1       1.675  -0.941   1.032  0.00  0.00     0.019 A 
ENDROOT
BRANCH   2   8
ATOM      8  N   UNL d   1      -0.566  -1.483   3.922  0.00  0.00    -0.305 N 
ATOM      9  C   UNL d   1      -1.051  -0.311   4.480  0.00  0.00     0.325 C 
ATOM     10  N   UNL d   1      -0.942   0.806   3.687  0.00  0.00    -0.309 N 
ATOM     11  O   UNL d   1      -1.620  -0.372   5.566  0.00  0.00    -0.247 OA
ATOM     12  H   UNL d   1      -0.527   0.666   2.780  0.00  0.00     0.170 HD
ATOM     13  H   UNL d   1      -1.156  -2.253   4.224  0.00  0.00     0.171 HD
BRANCH  10  14
ATOM     14  C   UNL d   1      -1.513   2.077   3.868  0.00  0.00     0.037 A 
ATOM     15  C   UNL d   1      -2.190   2.481   5.017  0.00  0.00     0.045 A 
ATOM     16  C   UNL d   1      -2.767   3.762   5.089  0.00  0.00     0.050 A 
ATOM     17  C   UNL d   1      -2.656   4.630   3.990  0.00  0.00     0.016 A 
ATOM     18  C   UNL d   1      -1.974   4.232   2.842  0.00  0.00     0.003 A 
ATOM     19  C   UNL d   1      -1.403   2.964   2.787  0.00  0.00     0.029 A 
BRANCH  16  20
ATOM     20  C   UNL d   1      -3.517   4.212   6.317  0.00  0.00     0.417 C 
ATOM     21  F   UNL d   1      -3.495   3.319   7.343  0.00  0.00    -0.166 F 
ATOM     22  F   UNL d   1      -4.832   4.454   6.058  0.00  0.00    -0.166 F 
ATOM     23  F   UNL d   1      -3.021   5.375   6.825  0.00  0.00    -0.166 F 
ENDBRANCH  16  20
ENDBRANCH  10  14
ENDBRANCH   2   8
BRANCH   1  24
ATOM     24  O   UNL d   1      -1.896  -2.838   1.887  0.00  0.00    -0.292 OA
BRANCH  24  25
ATOM     25  C   UNL d   1      -2.325  -3.782   0.985  0.00  0.00     0.078 A 
ATOM     26  C   UNL d   1      -1.505  -4.845   0.593  0.00  0.00     0.040 A 
ATOM     27  C   UNL d   1      -1.940  -5.740  -0.381  0.00  0.00     0.039 A 
ATOM     28  C   UNL d   1      -3.211  -5.601  -0.940  0.00  0.00     0.068 A 
ATOM     29  C   UNL d   1      -4.058  -4.586  -0.482  0.00  0.00     0.039 A 
ATOM     30  C   UNL d   1      -3.619  -3.675   0.482  0.00  0.00     0.040 A 
BRANCH  28  31
ATOM     31  O   UNL d   1      -3.732  -6.395  -1.925  0.00  0.00    -0.356 OA
ATOM     32  C   UNL d   1      -2.795  -7.195  -2.640  0.00  0.00     0.210 C 
ENDBRANCH  28  31
ENDBRANCH  24  25
ENDBRANCH   1  24
TORSDOF 6
