REMARK  0 active torsions:
REMARK  status: ('A' for Active; 'I' for Inactive)
ROOT
ATOM      1  N   UNL d   1       0.989  -1.298  -0.253  0.00  0.00    -0.326 N 
ATOM      2  C   UNL d   1       2.268  -0.881  -0.349  0.00  0.00     0.223 C 
ATOM      3  S   UNL d   1       0.609   1.876   0.799  0.00  0.00    -0.123 SA
ATOM      4  C   UNL d   1      -0.268  -0.710  -0.027  0.00  0.00     0.051 A 
ATOM      5  C   UNL d   1      -0.552   0.603   0.371  0.00  0.00     0.027 A 
ATOM      6  C   UNL d   1       2.759   0.527  -0.169  0.00  0.00     0.118 C 
ATOM      7  C   UNL d   1       1.852   1.687  -0.504  0.00  0.00     0.057 C 
ATOM      8  O   UNL d   1       3.104  -1.767  -0.577  0.00  0.00    -0.273 OA
ATOM      9  C   UNL d   1      -1.351  -1.589  -0.252  0.00  0.00     0.031 A 
ATOM     10  C   UNL d   1      -1.899   1.002   0.506  0.00  0.00     0.021 A 
ATOM     11  C   UNL d   1       1.292   1.700  -1.923  0.00  0.00     0.022 C 
ATOM     12  C   UNL d   1      -2.954   0.128   0.248  0.00  0.00     0.002 A 
ATOM     13  C   UNL d   1      -2.678  -1.176  -0.126  0.00  0.00     0.002 A 
ATOM     14  H   UNL d   1       0.969  -2.295  -0.443  0.00  0.00     0.169 HD
ENDROOT
TORSDOF 0
