REMARK  5 active torsions:
REMARK  status: ('A' for Active; 'I' for Inactive)
REMARK    1  A    between atoms: C_22  and  N_1 
REMARK    2  A    between atoms: C_6  and  S_12 
REMARK    3  A    between atoms: S_12  and  C_8 
REMARK    4  A    between atoms: C_21  and  C_9 
REMARK    5  A    between atoms: C_23  and  C_22 
ROOT
ATOM      1  N   UNL d   1       1.514   0.970   0.046  0.00  0.00    -0.314 N 
ATOM      2  C   UNL d   1       0.216  -0.966   0.003  0.00  0.00     0.086 A 
ATOM      3  C   UNL d   1       2.545   0.037   0.009  0.00  0.00     0.147 A 
ATOM      4  C   UNL d   1       0.214   0.414   0.048  0.00  0.00     0.130 A 
ATOM      5  S   UNL d   1       1.858  -1.599  -0.047  0.00  0.00    -0.054 SA
ATOM      6  C   UNL d   1      -1.014  -1.583  -0.005  0.00  0.00     0.100 A 
ATOM      7  N   UNL d   1      -0.898   1.161   0.089  0.00  0.00    -0.337 N 
ATOM      8  HN  UNL d   1      -0.873   2.180   0.131  1.00  0.00     0.168 HD
ATOM      9  N   UNL d   1      -2.163  -0.868   0.015  0.00  0.00    -0.345 N 
ATOM     10  HN  UNL d   1      -3.075  -1.323  -0.012  1.00  0.00     0.167 HD
ATOM     11  S   UNL d   1       4.190   0.308   0.016  0.00  0.00    -0.052 SA
ATOM     12  C   UNL d   1      -2.045   0.470   0.070  0.00  0.00     0.182 A 
ENDROOT
BRANCH   6  13
ATOM     13  S   UNL d   1      -1.140  -3.358  -0.142  0.00  0.00    -0.026 SA
BRANCH  13  14
ATOM     14  C   UNL d   1      -2.585  -3.610   0.781  0.00  0.00     0.210 A 
ATOM     15  O   UNL d   1      -3.814  -3.786   0.203  0.00  0.00    -0.267 OA
ATOM     16  C   UNL d   1      -4.610  -4.037   1.289  0.00  0.00     0.175 A 
ATOM     17  N   UNL d   1      -3.936  -4.030   2.421  0.00  0.00    -0.277 N 
ATOM     18  N   UNL d   1      -2.622  -3.753   2.091  0.00  0.00    -0.272 N 
ATOM     19  HN  UNL d   1      -4.310  -4.195   3.356  1.00  0.00     0.189 HD
ATOM     20  HN  UNL d   1      -1.835  -3.675   2.735  1.00  0.00     0.189 HD
BRANCH  16  21
ATOM     21  C   UNL d   1      -6.025  -4.283   1.034  0.00  0.00     0.017 A 
ATOM     22  C   UNL d   1      -6.586  -4.104  -0.241  0.00  0.00     0.017 A 
ATOM     23  C   UNL d   1      -7.948  -4.334  -0.464  0.00  0.00     0.025 A 
ATOM     24  C   UNL d   1      -8.762  -4.748   0.587  0.00  0.00     0.034 A 
ATOM     25  C   UNL d   1      -8.225  -4.938   1.858  0.00  0.00     0.025 A 
ATOM     26 CL   UNL d   1     -10.437  -5.025   0.314  0.00  0.00    -0.084 Cl
ATOM     27  C   UNL d   1      -6.863  -4.704   2.080  0.00  0.00     0.017 A 
ENDBRANCH  16  21
ENDBRANCH  13  14
ENDBRANCH   6  13
BRANCH   1  28
ATOM     28  C   UNL d   1       1.683   2.416   0.107  0.00  0.00     0.158 C 
BRANCH  28  29
ATOM     29  C   UNL d   1       1.871   3.051  -1.246  0.00  0.00    -0.017 C 
ATOM     30  C   UNL d   1       1.789   2.488  -2.461  0.00  0.00     0.008 C 
ENDBRANCH  28  29
ENDBRANCH   1  28
TORSDOF 5
