REMARK  4 active torsions:
REMARK  status: ('A' for Active; 'I' for Inactive)
REMARK    1  A    between atoms: C_12  and  N_6 
REMARK    2  A    between atoms: N_11  and  C_8 
REMARK    3  A    between atoms: C_19  and  N_11 
REMARK    4  A    between atoms: C_15  and  C_12 
ROOT
ATOM      1  C   UNL d   1      -0.218  -0.837  -0.059  0.00  0.00     0.160 A 
ATOM      2  C   UNL d   1      -0.508   0.491  -0.042  0.00  0.00     0.165 A 
ATOM      3  N   UNL d   1      -1.333  -1.601  -0.099  0.00  0.00    -0.174 N 
ATOM      4  HN  UNL d   1      -1.383  -2.619  -0.128  1.00  0.00     0.186 HD
ATOM      5  N   UNL d   1       1.071  -1.308  -0.028  0.00  0.00    -0.287 N 
ATOM      6  N   UNL d   1      -1.882   0.554  -0.055  0.00  0.00    -0.170 N 
ATOM      7  N   UNL d   1       1.805   0.964  -0.013  0.00  0.00    -0.269 N 
ATOM      8  C   UNL d   1      -2.341  -0.754  -0.091  0.00  0.00     0.683 A 
ATOM      9  C   UNL d   1       2.131  -0.404  -0.003  0.00  0.00     0.332 A 
ATOM     10  C   UNL d   1       0.503   1.493  -0.008  0.00  0.00     0.282 A 
ATOM     11  O   UNL d   1       3.300  -0.796   0.029  0.00  0.00    -0.246 OA
ATOM     12  O   UNL d   1       0.264   2.696   0.034  0.00  0.00    -0.265 OA
ATOM     13  C   UNL d   1       1.361  -2.728  -0.007  0.00  0.00     0.163 C 
ATOM     14  C   UNL d   1       2.893   1.923  -0.001  0.00  0.00     0.164 C 
ENDROOT
BRANCH   6  15
ATOM     15  C   UNL d   1      -2.687   1.766   0.021  0.00  0.00     0.186 C 
BRANCH  15  16
ATOM     16  C   UNL d   1      -2.958   2.373  -1.338  0.00  0.00    -0.038 A 
ATOM     17  C   UNL d   1      -3.705   1.685  -2.307  0.00  0.00     0.027 A 
ATOM     18  C   UNL d   1      -3.944   2.254  -3.558  0.00  0.00     0.011 A 
ATOM     19 BR   UNL d   1      -4.925   1.284  -4.850  0.00  0.00    -0.051 Br
ATOM     20  C   UNL d   1      -3.461   3.523  -3.862  0.00  0.00     0.019 A 
ATOM     21  C   UNL d   1      -2.737   4.228  -2.902  0.00  0.00     0.002 A 
ATOM     22  C   UNL d   1      -2.487   3.658  -1.650  0.00  0.00     0.009 A 
ENDBRANCH  15  16
ENDBRANCH   6  15
BRANCH   8  23
ATOM     23  N   UNL d   1      -3.648  -1.095  -0.135  0.00  0.00    -0.221 N 
ATOM     24  H   UNL d   1      -4.396  -0.414  -0.176  0.00  0.00     0.178 HD
BRANCH  23  25
ATOM     25  C   UNL d   1      -3.986  -2.445  -0.568  0.00  0.00     0.099 C 
ATOM     26  C   UNL d   1      -3.772  -2.652  -2.068  0.00  0.00     0.026 C 
ATOM     27  C   UNL d   1      -4.656  -3.844  -2.427  0.00  0.00     0.002 C 
ATOM     28  C   UNL d   1      -5.695  -3.952  -1.312  0.00  0.00     0.002 C 
ATOM     29  C   UNL d   1      -5.477  -2.732  -0.421  0.00  0.00     0.026 C 
ENDBRANCH  23  25
ENDBRANCH   8  23
TORSDOF 4
