REMARK  2 active torsions:
REMARK  status: ('A' for Active; 'I' for Inactive)
REMARK    1  A    between atoms: C_8  and  N_1 
REMARK    2  A    between atoms: O_19  and  C_16 
ROOT
ATOM      1  N   UNL d   1       0.928  -0.713  -0.000  0.00  0.00    -0.271 N 
ATOM      2  C   UNL d   1      -0.326  -1.079  -0.450  0.00  0.00     0.146 A 
ATOM      3  N   UNL d   1      -1.236  -0.152  -0.291  0.00  0.00    -0.282 N 
ATOM      4  HN  UNL d   1      -2.220  -0.196  -0.554  1.00  0.00     0.188 HD
ATOM      5  C   UNL d   1       0.759   0.580   0.476  0.00  0.00     0.199 A 
ATOM      6  N   UNL d   1      -0.585   0.879   0.302  0.00  0.00    -0.274 N 
ATOM      7  C   UNL d   1      -0.683  -2.374  -0.988  0.00  0.00     0.050 A 
ATOM      8  S   UNL d   1      -1.803  -2.459  -2.288  0.00  0.00    -0.098 SA
ATOM      9  S   UNL d   1       1.810   1.723   1.069  0.00  0.00    -0.039 SA
ATOM     10  C   UNL d   1      -0.269  -3.641  -0.612  0.00  0.00     0.023 A 
ATOM     11  C   UNL d   1      -1.624  -4.153  -2.428  0.00  0.00     0.050 A 
ATOM     12  C   UNL d   1      -0.767  -4.660  -1.478  0.00  0.00     0.009 A 
ATOM     13  H   UNL d   1      -1.039   1.765   0.501  0.00  0.00     0.189 HD
ENDROOT
BRANCH   1  14
ATOM     14  C   UNL d   1       2.148  -1.442  -0.099  0.00  0.00     0.043 A 
ATOM     15  C   UNL d   1       2.417  -2.279  -1.192  0.00  0.00     0.033 A 
ATOM     16  C   UNL d   1       3.569  -3.076  -1.245  0.00  0.00     0.039 A 
ATOM     17  C   UNL d   1       4.511  -3.009  -0.225  0.00  0.00     0.068 A 
ATOM     18  C   UNL d   1       4.298  -2.126   0.831  0.00  0.00     0.039 A 
ATOM     19  C   UNL d   1       3.125  -1.368   0.905  0.00  0.00     0.033 A 
BRANCH  17  20
ATOM     20  O   UNL d   1       5.680  -3.711  -0.179  0.00  0.00    -0.356 OA
ATOM     21  C   UNL d   1       5.656  -4.994  -0.800  0.00  0.00     0.210 C 
ENDBRANCH  17  20
ENDBRANCH   1  14
TORSDOF 2
