REMARK  4 active torsions:
REMARK  status: ('A' for Active; 'I' for Inactive)
REMARK    1  A    between atoms: C_6  and  N_1 
REMARK    2  A    between atoms: N_2  and  C_11 
REMARK    3  A    between atoms: C_5  and  C_4 
REMARK    4  A    between atoms: O_14  and  C_7 
ROOT
ATOM      1  C   UNL d   1      -2.629  -0.014  -0.913  0.00  0.00     0.030 A 
ATOM      2  C   UNL d   1      -2.568   0.601  -2.173  0.00  0.00     0.031 A 
ATOM      3  C   UNL d   1      -3.837  -0.639  -0.581  0.00  0.00     0.031 A 
ATOM      4  C   UNL d   1      -4.887   0.049  -2.668  0.00  0.00     0.032 A 
ATOM      5  C   UNL d   1      -3.674   0.630  -3.040  0.00  0.00     0.031 A 
ATOM      6  C   UNL d   1      -4.943  -0.610  -1.442  0.00  0.00     0.031 A 
ENDROOT
BRANCH   4   7
ATOM      7  N   UNL d   1      -6.053   0.054  -3.454  0.00  0.00    -0.365 N 
ATOM      8  C   UNL d   1      -6.365   1.119  -4.125  0.00  0.00     0.102 C 
ATOM      9  HN  UNL d   1      -6.648  -0.773  -3.497  1.00  0.00     0.165 HD
BRANCH   8  10
ATOM     10  C   UNL d   1      -7.630   1.196  -4.890  0.00  0.00     0.012 A 
ATOM     11  C   UNL d   1      -8.605   0.194  -4.818  0.00  0.00     0.077 A 
ATOM     12  C   UNL d   1      -9.806   0.326  -5.511  0.00  0.00     0.037 A 
ATOM     13  C   UNL d   1     -10.034   1.461  -6.292  0.00  0.00     0.003 A 
ATOM     14  C   UNL d   1      -9.065   2.459  -6.376  0.00  0.00     0.001 A 
ATOM     15  C   UNL d   1      -7.862   2.333  -5.674  0.00  0.00     0.015 A 
BRANCH  11  16
ATOM     16  O   UNL d   1      -8.450  -0.941  -4.068  0.00  0.00    -0.360 OA
ATOM     17  H   UNL d   1      -7.550  -0.899  -3.671  0.00  0.00     0.217 HD
ENDBRANCH  11  16
ENDBRANCH   8  10
ENDBRANCH   4   7
BRANCH   1  18
ATOM     18  N   UNL d   1      -1.560   0.054  -0.037  0.00  0.00    -0.377 N 
ATOM     19  C   UNL d   1      -1.740  -0.018   1.422  0.00  0.00     0.149 C 
ATOM     20  C   UNL d   1      -1.205  -1.348   1.964  0.00  0.00     0.187 C 
ATOM     21  O   UNL d   1       0.173  -1.535   1.600  0.00  0.00    -0.388 OA
ATOM     22  C   UNL d   1       0.309  -1.556   0.170  0.00  0.00     0.187 C 
ATOM     23  C   UNL d   1      -0.191  -0.252  -0.485  0.00  0.00     0.149 C 
ENDBRANCH   1  18
TORSDOF 4
