REMARK  9 active torsions:
REMARK  status: ('A' for Active; 'I' for Inactive)
REMARK    1  A    between atoms: N_7  and  C_1 
REMARK       I    between atoms: C_9  and  N_7 
REMARK    2  A    between atoms: C_15  and  C_9 
REMARK    3  A    between atoms: C_17  and  C_15 
REMARK    4  A    between atoms: C_22  and  C_17 
REMARK    5  A    between atoms: C_18  and  C_19 
REMARK    6  A    between atoms: C_19  and  C_21 
REMARK    7  A    between atoms: C_20  and  C_23 
REMARK    8  A    between atoms: C_21  and  C_20 
REMARK    9  A    between atoms: C_23  and  C_22 
ROOT
ATOM      1  C   UNL d   1      -4.361  -0.728  -1.025  0.00  0.00     0.152 A 
ATOM      2  C   UNL d   1      -2.465  -1.806  -0.765  0.00  0.00     0.058 A 
ATOM      3  N   UNL d   1      -3.191  -0.674  -0.430  0.00  0.00    -0.335 N 
ATOM      4  HN  UNL d   1      -2.869   0.079   0.178  1.00  0.00     0.168 HD
ATOM      5  C   UNL d   1      -3.144  -2.716  -1.556  0.00  0.00     0.014 A 
ATOM      6  S   UNL d   1      -4.676  -2.122  -1.975  0.00  0.00    -0.056 SA
ATOM      7  C   UNL d   1      -1.092  -2.122  -0.366  0.00  0.00    -0.002 A 
ATOM      8  C   UNL d   1      -2.603  -4.031  -1.991  0.00  0.00     0.053 C 
ATOM      9  C   UNL d   1      -0.423  -3.190  -1.027  0.00  0.00    -0.045 A 
ATOM     10  C   UNL d   1      -1.089  -3.901  -2.192  0.00  0.00     0.044 C 
ATOM     11  C   UNL d   1      -0.429  -1.441   0.658  0.00  0.00     0.014 A 
ATOM     12  C   UNL d   1       0.875  -3.555  -0.650  0.00  0.00     0.008 A 
ATOM     13  C   UNL d   1       0.864  -1.829   1.037  0.00  0.00     0.001 A 
ATOM     14  C   UNL d   1       1.511  -2.886   0.391  0.00  0.00     0.001 A 
ENDROOT
BRANCH   1  15
ATOM     15  N   UNL d   1      -5.419   0.144  -1.027  0.00  0.00    -0.307 N 
ATOM     16  C   UNL d   1      -5.547   1.173  -0.126  0.00  0.00     0.223 C 
ATOM     17  O   UNL d   1      -4.745   1.475   0.754  0.00  0.00    -0.273 OA
ATOM     18  H   UNL d   1      -6.173  -0.086  -1.656  0.00  0.00     0.171 HD
BRANCH  16  19
ATOM     19  C   UNL d   1      -6.839   1.972  -0.289  0.00  0.00     0.103 C 
BRANCH  19  20
ATOM     20  C   UNL d   1      -8.086   1.104  -0.121  0.00  0.00     0.009 C 
BRANCH  20  21
ATOM     21  C   UNL d   1      -9.389   1.901  -0.210  0.00  0.00     0.000 C 
BRANCH  21  22
ATOM     22  C   UNL d   1     -10.593   0.964  -0.063  0.00  0.00     0.000 C 
BRANCH  22  23
ATOM     23  C   UNL d   1     -11.914   1.722  -0.159  0.00  0.00     0.000 C 
BRANCH  23  24
ATOM     24  C   UNL d   1     -13.111   0.782  -0.012  0.00  0.00     0.000 C 
BRANCH  24  25
ATOM     25  C   UNL d   1     -14.423   1.559  -0.110  0.00  0.00    -0.000 C 
BRANCH  25  26
ATOM     26  C   UNL d   1     -15.635   0.642   0.036  0.00  0.00    -0.005 C 
ATOM     27  C   UNL d   1     -16.932   1.429  -0.063  0.00  0.00     0.005 C 
ENDBRANCH  25  26
ENDBRANCH  24  25
ENDBRANCH  23  24
ENDBRANCH  22  23
ENDBRANCH  21  22
ENDBRANCH  20  21
ENDBRANCH  19  20
ENDBRANCH  16  19
ENDBRANCH   1  15
TORSDOF 9
