REMARK  5 active torsions:
REMARK  status: ('A' for Active; 'I' for Inactive)
REMARK    1  A    between atoms: N_5  and  C_1 
REMARK    2  A    between atoms: C_7  and  N_5 
REMARK    3  A    between atoms: N_11  and  C_7 
REMARK    4  A    between atoms: C_16  and  N_11 
REMARK    5  A    between atoms: C_12  and  C_16 
ROOT
ATOM      1  C   UNL d   1       1.495  -1.315   0.142  0.00  0.00     0.098 A 
ATOM      2  C   UNL d   1       1.405   0.066   0.144  0.00  0.00     0.085 A 
ATOM      3  S   UNL d   1      -0.044  -2.034  -0.048  0.00  0.00    -0.075 SA
ATOM      4  C   UNL d   1       0.045   0.526   0.068  0.00  0.00    -0.021 A 
ATOM      5  C   UNL d   1      -0.834  -0.536  -0.006  0.00  0.00    -0.007 A 
ATOM      6  C   UNL d   1       2.549   0.922   0.234  0.00  0.00     0.103 C 
ATOM      7  N   UNL d   1       3.490   1.599   0.298  0.00  0.00    -0.191 NA
ATOM      8  C   UNL d   1      -0.441   1.948   0.039  0.00  0.00     0.041 C 
ATOM      9  C   UNL d   1      -2.327  -0.433  -0.027  0.00  0.00     0.047 C 
ATOM     10  C   UNL d   1      -1.940   2.048   0.367  0.00  0.00     0.005 C 
ATOM     11  C   UNL d   1      -2.764   0.993  -0.385  0.00  0.00     0.005 C 
ENDROOT
BRANCH   1  12
ATOM     12  N   UNL d   1       2.634  -2.117   0.135  0.00  0.00    -0.326 N 
ATOM     13  H   UNL d   1       3.529  -1.658   0.001  0.00  0.00     0.169 HD
BRANCH  12  14
ATOM     14  C   UNL d   1       2.690  -3.464   0.469  0.00  0.00     0.172 C 
ATOM     15  S   UNL d   1       1.951  -4.164   1.803  0.00  0.00    -0.041 SA
BRANCH  14  16
ATOM     16  N   UNL d   1       3.512  -4.150  -0.414  0.00  0.00    -0.364 N 
ATOM     17  H   UNL d   1       3.942  -3.599  -1.142  0.00  0.00     0.162 HD
BRANCH  16  18
ATOM     18  C   UNL d   1       3.369  -5.561  -0.732  0.00  0.00     0.148 C 
BRANCH  18  19
ATOM     19  C   UNL d   1       4.553  -6.310  -0.220  0.00  0.00    -0.018 C 
ATOM     20  C   UNL d   1       5.311  -7.121  -0.971  0.00  0.00     0.008 C 
ENDBRANCH  18  19
ENDBRANCH  16  18
ENDBRANCH  14  16
ENDBRANCH  12  14
ENDBRANCH   1  12
TORSDOF 5
