REMARK  8 active torsions:
REMARK  status: ('A' for Active; 'I' for Inactive)
REMARK    1  A    between atoms: C_4  and  S_1 
REMARK    2  A    between atoms: N_17  and  S_1 
REMARK    3  A    between atoms: N_2  and  C_3 
REMARK    4  A    between atoms: C_5  and  C_8 
REMARK    5  A    between atoms: C_13  and  N_24 
REMARK    6  A    between atoms: C_26  and  N_17 
REMARK    7  A    between atoms: N_24  and  C_29 
REMARK    8  A    between atoms: C_29  and  C_26 
ROOT
ATOM      1  C   UNL d   1       4.753   1.043   1.125  0.00  0.00     0.108 C 
ENDROOT
BRANCH   1   2
ATOM      2  N   UNL d   1       5.068  -0.268   1.723  0.00  0.00    -0.290 NA
ATOM      3  H   UNL d   1       6.049  -0.533   1.582  0.00  0.00     0.127 HD
BRANCH   2   4
ATOM      4  C   UNL d   1       4.660  -0.526   3.037  0.00  0.00     0.041 A 
ATOM      5  C   UNL d   1       4.439  -1.834   3.507  0.00  0.00     0.124 A 
ATOM      6  C   UNL d   1       3.932  -2.111   4.786  0.00  0.00     0.054 A 
ATOM      7  C   UNL d   1       3.671  -1.053   5.663  0.00  0.00     0.050 A 
ATOM      8  C   UNL d   1       3.969   0.250   5.251  0.00  0.00     0.018 A 
ATOM      9  C   UNL d   1       4.467   0.502   3.969  0.00  0.00     0.027 A 
BRANCH   5  10
ATOM     10  N   UNL d   1       4.693  -2.967   2.646  0.00  0.00    -0.114 N 
ATOM     11  O   UNL d   1       3.713  -3.649   2.312  0.00  0.00    -0.532 OA
ATOM     12  O   UNL d   1       5.872  -3.192   2.350  0.00  0.00    -0.532 OA
ENDBRANCH   5  10
BRANCH   7  13
ATOM     13  C   UNL d   1       3.078  -1.283   7.031  0.00  0.00     0.417 C 
ATOM     14  F   UNL d   1       2.826  -2.592   7.299  0.00  0.00    -0.166 F 
ATOM     15  F   UNL d   1       3.893  -0.840   8.025  0.00  0.00    -0.166 F 
ATOM     16  F   UNL d   1       1.896  -0.629   7.191  0.00  0.00    -0.166 F 
ENDBRANCH   7  13
ENDBRANCH   2   4
ENDBRANCH   1   2
BRANCH   1  17
ATOM     17  C   UNL d   1       3.241   1.182   0.877  0.00  0.00     0.119 C 
BRANCH  17  18
ATOM     18  N   UNL d   1       2.697   0.067   0.059  0.00  0.00    -0.214 NA
ATOM     19  H   UNL d   1       2.835  -0.827   0.535  0.00  0.00     0.140 HD
BRANCH  18  20
ATOM     20  S   UNL d   1       3.178  -0.021  -1.562  0.00  0.00     0.242 S 
ATOM     21  O   UNL d   1       2.175  -0.795  -2.257  0.00  0.00    -0.206 OA
ATOM     22  O   UNL d   1       3.510   1.322  -1.991  0.00  0.00    -0.206 OA
BRANCH  20  23
ATOM     23  C   UNL d   1       4.643  -1.055  -1.503  0.00  0.00     0.081 A 
ATOM     24  C   UNL d   1       4.407  -2.382  -1.075  0.00  0.00     0.033 A 
ATOM     25  C   UNL d   1       5.437  -3.332  -1.010  0.00  0.00    -0.039 A 
ATOM     26  C   UNL d   1       5.138  -4.723  -0.526  0.00  0.00     0.050 C 
ATOM     27  C   UNL d   1       6.715  -2.948  -1.417  0.00  0.00     0.040 A 
ATOM     28  C   UNL d   1       6.957  -1.637  -1.841  0.00  0.00     0.032 A 
ATOM     29 CL   UNL d   1       8.037  -4.058  -1.429  0.00  0.00    -0.084 Cl
ATOM     30  C   UNL d   1       5.939  -0.658  -1.875  0.00  0.00    -0.037 A 
ATOM     31  C   UNL d   1       6.377   0.701  -2.345  0.00  0.00     0.050 C 
ENDBRANCH  20  23
ENDBRANCH  18  20
ENDBRANCH  17  18
ENDBRANCH   1  17
TORSDOF 8
