REMARK  5 active torsions:
REMARK  status: ('A' for Active; 'I' for Inactive)
REMARK    1  A    between atoms: C_5  and  N_1 
REMARK    2  A    between atoms: N_2  and  C_3 
REMARK       I    between atoms: C_4  and  N_2 
REMARK    3  A    between atoms: C_3  and  N_6 
REMARK    4  A    between atoms: C_13  and  C_4 
REMARK    5  A    between atoms: N_6  and  C_11 
ROOT
ATOM      1  C   UNL d   1       1.609  -4.421   2.185  0.00  0.00     0.179 C 
ATOM      2  S   UNL d   1       1.800  -5.865   3.014  0.00  0.00    -0.040 SA
ENDROOT
BRANCH   1   3
ATOM      3  N   UNL d   1       2.356  -3.282   2.360  0.00  0.00    -0.299 N 
ATOM      4  C   UNL d   1       2.963  -2.823   3.526  0.00  0.00     0.257 C 
ATOM      5  O   UNL d   1       2.863  -3.376   4.618  0.00  0.00    -0.267 OA
ATOM      6  H   UNL d   1       2.595  -2.823   1.502  0.00  0.00     0.171 HD
BRANCH   4   7
ATOM      7  C   UNL d   1       3.691  -1.506   3.472  0.00  0.00     0.032 A 
ATOM      8  C   UNL d   1       3.771  -0.687   2.337  0.00  0.00     0.017 A 
ATOM      9  C   UNL d   1       4.379   0.573   2.414  0.00  0.00     0.001 A 
ATOM     10  C   UNL d   1       4.922   1.025   3.615  0.00  0.00     0.000 A 
ATOM     11  C   UNL d   1       4.867   0.216   4.745  0.00  0.00     0.001 A 
ATOM     12  C   UNL d   1       4.256  -1.038   4.673  0.00  0.00     0.017 A 
ENDBRANCH   4   7
ENDBRANCH   1   3
BRANCH   1  13
ATOM     13  N   UNL d   1       0.604  -4.404   1.251  0.00  0.00    -0.333 N 
ATOM     14  H   UNL d   1       0.157  -5.316   1.204  0.00  0.00     0.168 HD
BRANCH  13  15
ATOM     15  C   UNL d   1      -0.077  -3.375   0.563  0.00  0.00     0.036 A 
ATOM     16  C   UNL d   1       0.267  -2.027   0.583  0.00  0.00     0.065 A 
ATOM     17  C   UNL d   1      -0.515  -1.080  -0.100  0.00  0.00     0.105 A 
ATOM     18  C   UNL d   1      -1.665  -1.461  -0.794  0.00  0.00     0.036 A 
ATOM     19  C   UNL d   1      -2.020  -2.807  -0.815  0.00  0.00     0.005 A 
ATOM     20  C   UNL d   1      -1.228  -3.752  -0.153  0.00  0.00     0.029 A 
BRANCH  17  21
ATOM     21  N   UNL d   1      -0.108   0.331  -0.063  0.00  0.00    -0.116 N 
ATOM     22  O   UNL d   1       0.963   0.605   0.494  0.00  0.00    -0.532 OA
ATOM     23  O   UNL d   1      -0.854   1.159  -0.606  0.00  0.00    -0.532 OA
ENDBRANCH  17  21
ENDBRANCH  13  15
ENDBRANCH   1  13
TORSDOF 5
