REMARK  3 active torsions:
REMARK  status: ('A' for Active; 'I' for Inactive)
REMARK    1  A    between atoms: O_2  and  S_1 
REMARK    2  A    between atoms: C_4  and  S_1 
REMARK    3  A    between atoms: C_3  and  O_2 
ROOT
ATOM      1  S   UNL d   1      -0.202   2.388   0.346  0.00  0.00     0.298 S 
ATOM      2  O   UNL d   1       0.157   3.664   0.935  0.00  0.00    -0.193 OA
ATOM      3  O   UNL d   1      -1.529   1.830   0.537  0.00  0.00    -0.193 OA
ENDROOT
BRANCH   1   4
ATOM      4  O   UNL d   1       0.884   1.282   0.866  0.00  0.00    -0.266 OA
BRANCH   4   5
ATOM      5  C   UNL d   1       0.716   0.850   2.220  0.00  0.00     0.147 C 
ATOM      6  C   UNL d   1       1.035   1.924   3.324  0.00  0.00     0.016 C 
ATOM      7  C   UNL d   1       0.970   0.876   4.478  0.00  0.00     0.012 C 
ATOM      8  C   UNL d   1       2.034   2.921   3.982  0.00  0.00     0.007 C 
ATOM      9  C   UNL d   1       2.083  -0.055   4.035  0.00  0.00    -0.012 C 
ATOM     10  C   UNL d   1       1.659  -0.332   2.572  0.00  0.00     0.038 C 
ATOM     11  C   UNL d   1       3.432   0.712   4.129  0.00  0.00     0.005 C 
ATOM     12  C   UNL d   1       3.302   2.205   4.529  0.00  0.00     0.001 C 
ENDBRANCH   4   5
ENDBRANCH   1   4
BRANCH   1  13
ATOM     13  C   UNL d   1      -0.005   2.581  -1.406  0.00  0.00     0.086 A 
ATOM     14  C   UNL d   1       0.918   1.855  -2.154  0.00  0.00     0.026 A 
ATOM     15  C   UNL d   1       0.969   2.053  -3.543  0.00  0.00     0.008 A 
ATOM     16  C   UNL d   1       0.106   2.964  -4.176  0.00  0.00    -0.062 A 
ATOM     17  C   UNL d   1      -0.809   3.689  -3.407  0.00  0.00     0.008 A 
ATOM     18  C   UNL d   1       0.144   3.149  -5.667  0.00  0.00     0.048 C 
ATOM     19  C   UNL d   1      -0.865   3.500  -2.027  0.00  0.00     0.026 A 
ENDBRANCH   1  13
TORSDOF 3
