REMARK  3 active torsions:
REMARK  status: ('A' for Active; 'I' for Inactive)
REMARK    1  A    between atoms: N_2  and  S_1 
REMARK    2  A    between atoms: C_7  and  S_1 
REMARK    3  A    between atoms: N_3  and  C_10 
ROOT
ATOM      1  S   UNL d   1       0.956   0.073   0.054  0.00  0.00     0.265 S 
ATOM      2  O   UNL d   1       0.092  -0.592   1.011  0.00  0.00    -0.200 OA
ATOM      3  O   UNL d   1       2.374   0.200   0.319  0.00  0.00    -0.200 OA
ENDROOT
BRANCH   1   4
ATOM      4  N   UNL d   1       0.282   1.579  -0.335  0.00  0.00    -0.271 N 
ATOM      5  C   UNL d   1       1.088   2.745  -0.578  0.00  0.00     0.051 A 
ATOM      6  C   UNL d   1       0.611   3.995  -0.139  0.00  0.00    -0.031 A 
ATOM      7  C   UNL d   1       2.311   2.684  -1.252  0.00  0.00     0.031 A 
ATOM      8  C   UNL d   1       1.408   5.140  -0.302  0.00  0.00     0.009 A 
ATOM      9  C   UNL d   1      -0.775   4.160   0.434  0.00  0.00     0.042 C 
ATOM     10  C   UNL d   1       2.651   5.054  -0.925  0.00  0.00     0.001 A 
ATOM     11  C   UNL d   1       3.092   3.830  -1.418  0.00  0.00     0.002 A 
ATOM     12  C   UNL d   1      -1.425   2.846   0.851  0.00  0.00     0.026 C 
ATOM     13  C   UNL d   1      -1.173   1.769  -0.191  0.00  0.00     0.142 C 
ENDBRANCH   1   4
BRANCH   1  14
ATOM     14  C   UNL d   1       0.791  -0.841  -1.473  0.00  0.00     0.080 A 
ATOM     15  C   UNL d   1       1.929  -1.230  -2.187  0.00  0.00     0.027 A 
ATOM     16  C   UNL d   1       1.801  -2.060  -3.308  0.00  0.00     0.033 A 
ATOM     17  C   UNL d   1       0.533  -2.502  -3.716  0.00  0.00     0.056 A 
ATOM     18  C   UNL d   1      -0.604  -2.091  -3.001  0.00  0.00     0.033 A 
ATOM     19  C   UNL d   1      -0.475  -1.275  -1.875  0.00  0.00     0.027 A 
BRANCH  17  20
ATOM     20  N   UNL d   1       0.375  -3.382  -4.825  0.00  0.00    -0.268 N 
ATOM     21  N   UNL d   1      -0.864  -3.753  -5.249  0.00  0.00    -0.305 N 
ATOM     22  C   UNL d   1      -0.642  -4.557  -6.288  0.00  0.00     0.109 A 
ATOM     23  HN  UNL d   1      -1.764  -3.476  -4.858  1.00  0.00     0.186 HD
ATOM     24  C   UNL d   1       0.722  -4.735  -6.548  0.00  0.00     0.038 A 
ATOM     25  C   UNL d   1       1.356  -3.977  -5.592  0.00  0.00     0.118 A 
ENDBRANCH  17  20
ENDBRANCH   1  14
TORSDOF 3
