REMARK  7 active torsions:
REMARK  status: ('A' for Active; 'I' for Inactive)
REMARK    1  A    between atoms: C_11  and  N_3 
REMARK    2  A    between atoms: N_14  and  C_9 
REMARK    3  A    between atoms: C_25  and  C_11 
REMARK    4  A    between atoms: N_15  and  N_14 
REMARK    5  A    between atoms: O_27  and  C_17 
REMARK    6  A    between atoms: O_28  and  C_18 
REMARK    7  A    between atoms: C_23  and  C_22 
ROOT
ATOM      1  C   UNL d   1      -0.218  -0.903  -0.013  0.00  0.00     0.160 A 
ATOM      2  C   UNL d   1      -0.483   0.433  -0.008  0.00  0.00     0.164 A 
ATOM      3  N   UNL d   1       1.850   0.844   0.033  0.00  0.00    -0.260 N 
ATOM      4  N   UNL d   1      -1.339  -1.650  -0.078  0.00  0.00    -0.172 N 
ATOM      5  HN  UNL d   1      -1.399  -2.667  -0.121  1.00  0.00     0.186 HD
ATOM      6  N   UNL d   1       1.053  -1.404   0.050  0.00  0.00    -0.287 N 
ATOM      7  C   UNL d   1       2.129  -0.531   0.137  0.00  0.00     0.333 A 
ATOM      8  C   UNL d   1       0.564   1.410  -0.007  0.00  0.00     0.283 A 
ATOM      9  C   UNL d   1      -2.340  -0.796  -0.075  0.00  0.00     0.701 A 
ATOM     10  N   UNL d   1      -1.864   0.507  -0.006  0.00  0.00    -0.177 N 
ATOM     11  O   UNL d   1       3.276  -0.957   0.310  0.00  0.00    -0.246 OA
ATOM     12  O   UNL d   1       0.345   2.617  -0.026  0.00  0.00    -0.265 OA
ATOM     13  C   UNL d   1       1.300  -2.833   0.063  0.00  0.00     0.163 C 
ATOM     14  C   UNL d   1      -2.670   1.699  -0.005  0.00  0.00     0.176 C 
ENDROOT
BRANCH   9  15
ATOM     15  N   UNL d   1      -3.655  -1.129  -0.163  0.00  0.00    -0.132 N 
ATOM     16  H   UNL d   1      -4.395  -0.479   0.075  0.00  0.00     0.205 HD
BRANCH  15  17
ATOM     17  N   UNL d   1      -3.969  -2.333  -0.726  0.00  0.00    -0.297 N 
ATOM     18  C   UNL d   1      -5.181  -2.778  -0.678  0.00  0.00     0.119 C 
ATOM     19  HN  UNL d   1      -3.243  -2.882  -1.186  1.00  0.00     0.186 HD
BRANCH  18  20
ATOM     20  C   UNL d   1      -5.502  -4.072  -1.336  0.00  0.00    -0.017 A 
ATOM     21  C   UNL d   1      -6.813  -4.568  -1.335  0.00  0.00     0.052 A 
ATOM     22  C   UNL d   1      -7.102  -5.770  -1.997  0.00  0.00     0.102 A 
ATOM     23  C   UNL d   1      -6.066  -6.463  -2.647  0.00  0.00     0.099 A 
ATOM     24  C   UNL d   1      -4.761  -5.979  -2.641  0.00  0.00     0.040 A 
ATOM     25  C   UNL d   1      -4.481  -4.783  -1.984  0.00  0.00     0.016 A 
BRANCH  22  26
ATOM     26  O   UNL d   1      -8.339  -6.355  -2.081  0.00  0.00    -0.353 OA
ATOM     27  C   UNL d   1      -9.432  -5.703  -1.457  0.00  0.00     0.210 C 
ENDBRANCH  22  26
BRANCH  23  28
ATOM     28  O   UNL d   1      -6.350  -7.634  -3.299  0.00  0.00    -0.358 OA
ATOM     29  H   UNL d   1      -5.534  -7.992  -3.682  0.00  0.00     0.217 HD
ENDBRANCH  23  28
ENDBRANCH  18  20
ENDBRANCH  15  17
ENDBRANCH   9  15
BRANCH   3  30
ATOM     30  C   UNL d   1       2.999   1.743   0.022  0.00  0.00     0.175 C 
BRANCH  30  31
ATOM     31  C   UNL d   1       3.610   1.900  -1.358  0.00  0.00    -0.040 A 
ATOM     32  C   UNL d   1       3.214   2.949  -2.199  0.00  0.00     0.009 A 
ATOM     33  C   UNL d   1       3.761   3.080  -3.478  0.00  0.00     0.001 A 
ATOM     34  C   UNL d   1       4.703   2.159  -3.937  0.00  0.00     0.000 A 
ATOM     35  C   UNL d   1       5.109   1.114  -3.111  0.00  0.00     0.001 A 
ATOM     36  C   UNL d   1       4.569   0.988  -1.829  0.00  0.00     0.009 A 
ENDBRANCH  30  31
ENDBRANCH   3  30
TORSDOF 7
