REMARK  2 active torsions:
REMARK  status: ('A' for Active; 'I' for Inactive)
REMARK    1  A    between atoms: C_5  and  C_11 
REMARK    2  A    between atoms: C_17  and  C_7 
ROOT
ATOM      1  C   UNL d   1       2.030  -0.250  -1.892  0.00  0.00     0.039 A 
ATOM      2  C   UNL d   1       2.150  -0.535  -0.466  0.00  0.00     0.191 C 
ATOM      3  C   UNL d   1       2.042   0.670   0.412  0.00  0.00     0.003 C 
ATOM      4  C   UNL d   1       1.638   0.965  -2.423  0.00  0.00     0.055 A 
ATOM      5  S   UNL d   1       1.159   2.382  -1.498  0.00  0.00    -0.117 SA
ATOM      6  C   UNL d   1       2.919   0.905   1.405  0.00  0.00     0.023 C 
ATOM      7  S   UNL d   1       1.656   0.977  -4.129  0.00  0.00    -0.094 SA
ATOM      8  C   UNL d   1       2.303  -1.196  -2.939  0.00  0.00     0.024 A 
ATOM      9  C   UNL d   1       0.891   1.575   0.106  0.00  0.00     0.122 C 
ATOM     10  C   UNL d   1       2.150  -0.657  -4.196  0.00  0.00     0.052 A 
ATOM     11  O   UNL d   1       2.303  -1.665  -0.020  0.00  0.00    -0.287 OA
ENDROOT
BRANCH   6  12
ATOM     12  C   UNL d   1       4.112   0.109   1.702  0.00  0.00    -0.036 A 
ATOM     13  C   UNL d   1       5.323   0.408   1.069  0.00  0.00     0.012 A 
ATOM     14  C   UNL d   1       6.475  -0.322   1.373  0.00  0.00     0.017 A 
ATOM     15  C   UNL d   1       6.432  -1.361   2.314  0.00  0.00     0.048 A 
ATOM     16  C   UNL d   1       5.208  -1.665   2.932  0.00  0.00     0.017 A 
ATOM     17  C   UNL d   1       4.057  -0.935   2.628  0.00  0.00     0.012 A 
BRANCH  15  18
ATOM     18  C   UNL d   1       7.674  -2.140   2.674  0.00  0.00     0.417 C 
ATOM     19  F   UNL d   1       8.788  -1.731   2.004  0.00  0.00    -0.166 F 
ATOM     20  F   UNL d   1       7.982  -2.041   3.998  0.00  0.00    -0.166 F 
ATOM     21  F   UNL d   1       7.553  -3.472   2.418  0.00  0.00    -0.166 F 
ENDBRANCH  15  18
ENDBRANCH   6  12
TORSDOF 2
