REMARK  9 active torsions:
REMARK  status: ('A' for Active; 'I' for Inactive)
REMARK    1  A    between atoms: N_3  and  N_1 
REMARK    2  A    between atoms: O_5  and  C_10 
REMARK    3  A    between atoms: C_15  and  O_5 
REMARK    4  A    between atoms: O_6  and  C_9 
REMARK    5  A    between atoms: C_16  and  O_6 
REMARK    6  A    between atoms: C_13  and  C_7 
REMARK    7  A    between atoms: C_14  and  C_8 
REMARK    8  A    between atoms: C_17  and  C_15 
REMARK    9  A    between atoms: C_18  and  C_16 
ROOT
ATOM      1  N   UNL d   1       0.827  -0.159   0.043  0.00  0.00    -0.311 N 
ATOM      2  HN  UNL d   1       0.313  -0.664   0.765  1.00  0.00     0.186 HD
ATOM      3  C   UNL d   1       2.043   0.267   0.168  0.00  0.00     0.118 C 
ENDROOT
BRANCH   1   4
ATOM      4  N   UNL d   1       0.316   0.166  -1.204  0.00  0.00    -0.311 N 
ATOM      5  C   UNL d   1      -0.973   0.283  -1.174  0.00  0.00     0.118 C 
ATOM      6  HN  UNL d   1       0.885   0.297  -2.040  1.00  0.00     0.186 HD
BRANCH   5   7
ATOM      7  C   UNL d   1      -1.742   0.522  -2.409  0.00  0.00    -0.017 A 
ATOM      8  C   UNL d   1      -3.108   0.800  -2.333  0.00  0.00     0.049 A 
ATOM      9  C   UNL d   1      -3.838   1.010  -3.506  0.00  0.00     0.070 A 
ATOM     10  C   UNL d   1      -3.207   0.878  -4.747  0.00  0.00     0.037 A 
ATOM     11  C   UNL d   1      -1.841   0.607  -4.819  0.00  0.00     0.004 A 
ATOM     12  C   UNL d   1      -1.104   0.441  -3.651  0.00  0.00     0.013 A 
BRANCH   9  13
ATOM     13  O   UNL d   1      -5.157   1.335  -3.329  0.00  0.00    -0.347 OA
BRANCH  13  14
ATOM     14  C   UNL d   1      -5.782   1.972  -4.446  0.00  0.00     0.214 C 
BRANCH  14  15
ATOM     15  C   UNL d   1      -7.016   2.720  -4.000  0.00  0.00    -0.034 A 
ATOM     16  C   UNL d   1      -6.936   3.658  -2.960  0.00  0.00     0.009 A 
ATOM     17  C   UNL d   1      -8.053   4.414  -2.603  0.00  0.00     0.001 A 
ATOM     18  C   UNL d   1      -9.257   4.243  -3.281  0.00  0.00     0.000 A 
ATOM     19  C   UNL d   1      -9.348   3.311  -4.315  0.00  0.00     0.001 A 
ATOM     20  C   UNL d   1      -8.232   2.555  -4.674  0.00  0.00     0.009 A 
ENDBRANCH  14  15
ENDBRANCH  13  14
ENDBRANCH   9  13
ENDBRANCH   5   7
ENDBRANCH   1   4
BRANCH   3  21
ATOM     21  C   UNL d   1       2.834  -0.025   1.373  0.00  0.00    -0.017 A 
ATOM     22  C   UNL d   1       3.870   0.836   1.739  0.00  0.00     0.049 A 
ATOM     23  C   UNL d   1       4.600   0.582   2.901  0.00  0.00     0.070 A 
ATOM     24  C   UNL d   1       4.344  -0.580   3.639  0.00  0.00     0.037 A 
ATOM     25  C   UNL d   1       3.315  -1.444   3.261  0.00  0.00     0.004 A 
ATOM     26  C   UNL d   1       2.545  -1.159   2.138  0.00  0.00     0.013 A 
BRANCH  23  27
ATOM     27  O   UNL d   1       5.530   1.532   3.233  0.00  0.00    -0.347 OA
BRANCH  27  28
ATOM     28  C   UNL d   1       5.907   1.554   4.610  0.00  0.00     0.214 C 
BRANCH  28  29
ATOM     29  C   UNL d   1       6.483   2.903   4.958  0.00  0.00    -0.034 A 
ATOM     30  C   UNL d   1       5.631   3.964   5.299  0.00  0.00     0.009 A 
ATOM     31  C   UNL d   1       6.157   5.202   5.673  0.00  0.00     0.001 A 
ATOM     32  C   UNL d   1       7.537   5.393   5.697  0.00  0.00     0.000 A 
ATOM     33  C   UNL d   1       8.392   4.352   5.336  0.00  0.00     0.001 A 
ATOM     34  C   UNL d   1       7.868   3.113   4.962  0.00  0.00     0.009 A 
ENDBRANCH  28  29
ENDBRANCH  27  28
ENDBRANCH  23  27
ENDBRANCH   3  21
TORSDOF 9
