REMARK  4 active torsions:
REMARK  status: ('A' for Active; 'I' for Inactive)
REMARK    1  A    between atoms: C_6  and  N_1 
REMARK    2  A    between atoms: C_3  and  C_2 
REMARK       I    between atoms: N_5  and  C_3 
REMARK       I    between atoms: C_4  and  N_10 
REMARK       I    between atoms: N_11  and  C_4 
REMARK    3  A    between atoms: N_10  and  N_5 
REMARK    4  A    between atoms: C_14  and  N_11 
ROOT
ATOM      1  C   UNL d   1       2.145  -1.348   0.423  0.00  0.00     0.287 C 
ATOM      2  N   UNL d   1       3.286  -0.610   0.695  0.00  0.00    -0.261 N 
ATOM      3  O   UNL d   1       2.195  -2.574   0.366  0.00  0.00    -0.264 OA
ATOM      4  H   UNL d   1       3.228   0.330   1.083  0.00  0.00     0.190 HD
ENDROOT
BRANCH   2   5
ATOM      5  N   UNL d   1       4.488  -1.309   0.970  0.00  0.00    -0.248 N 
ATOM      6  C   UNL d   1       5.343  -0.741   1.891  0.00  0.00     0.339 C 
ATOM      7  N   UNL d   1       6.512  -1.458   2.047  0.00  0.00    -0.308 N 
ATOM      8  O   UNL d   1       5.029   0.286   2.477  0.00  0.00    -0.245 OA
ATOM      9  H   UNL d   1       6.553  -2.346   1.563  0.00  0.00     0.170 HD
ATOM     10  H   UNL d   1       4.861  -1.837   0.187  0.00  0.00     0.192 HD
BRANCH   7  11
ATOM     11  C   UNL d   1       7.624  -1.109   2.844  0.00  0.00     0.038 A 
ATOM     12  C   UNL d   1       7.694   0.070   3.593  0.00  0.00     0.055 A 
ATOM     13  C   UNL d   1       8.855   0.406   4.302  0.00  0.00     0.058 A 
ATOM     14 CL   UNL d   1       8.858   1.898   5.176  0.00  0.00    -0.082 Cl
ATOM     15  C   UNL d   1       9.960  -0.447   4.274  0.00  0.00     0.055 A 
ATOM     16  C   UNL d   1       9.884  -1.647   3.566  0.00  0.00     0.028 A 
ATOM     17 CL   UNL d   1      11.444  -0.069   5.073  0.00  0.00    -0.083 Cl
ATOM     18  C   UNL d   1       8.722  -1.978   2.857  0.00  0.00     0.031 A 
ENDBRANCH   7  11
ENDBRANCH   2   5
BRANCH   1  19
ATOM     19  C   UNL d   1       0.938  -0.565   0.184  0.00  0.00     0.109 A 
ATOM     20  N   UNL d   1      -0.157  -0.953  -0.607  0.00  0.00    -0.318 N 
ATOM     21  C   UNL d   1      -1.138   0.017  -0.470  0.00  0.00     0.098 A 
ATOM     22  C   UNL d   1      -0.689   1.022   0.350  0.00  0.00     0.020 A 
ATOM     23  C   UNL d   1       0.607   0.663   0.756  0.00  0.00     0.037 A 
BRANCH  20  24
ATOM     24  C   UNL d   1      -0.306  -2.098  -1.458  0.00  0.00     0.039 A 
ATOM     25  C   UNL d   1      -1.589  -2.623  -1.700  0.00  0.00     0.033 A 
ATOM     26  C   UNL d   1      -1.749  -3.763  -2.495  0.00  0.00     0.044 A 
ATOM     27  C   UNL d   1      -0.634  -4.375  -3.051  0.00  0.00     0.116 A 
ATOM     28  C   UNL d   1       0.635  -3.852  -2.852  0.00  0.00     0.044 A 
ATOM     29  F   UNL d   1      -0.786  -5.479  -3.793  0.00  0.00    -0.206 F 
ATOM     30  C   UNL d   1       0.798  -2.703  -2.072  0.00  0.00     0.033 A 
ENDBRANCH  20  24
ENDBRANCH   1  19
TORSDOF 4
