REMARK  9 active torsions:
REMARK  status: ('A' for Active; 'I' for Inactive)
REMARK    1  A    between atoms: N_5  and  C_1 
REMARK    2  A    between atoms: N_7  and  C_1 
REMARK    3  A    between atoms: C_2  and  N_5 
REMARK    4  A    between atoms: N_3  and  C_4 
REMARK    5  A    between atoms: C_6  and  N_7 
REMARK    6  A    between atoms: C_9  and  C_16 
REMARK    7  A    between atoms: O_27  and  C_9 
REMARK    8  A    between atoms: C_15  and  C_10 
REMARK    9  A    between atoms: C_31  and  O_27 
ROOT
ATOM      1  C   UNL d   1       1.132   2.337  -0.269  0.00  0.00     0.062 A 
ATOM      2  C   UNL d   1       2.196   2.331  -1.201  0.00  0.00     0.057 A 
ATOM      3  C   UNL d   1       0.647   3.557   0.244  0.00  0.00     0.047 A 
ATOM      4  C   UNL d   1       1.237   4.785  -0.081  0.00  0.00     0.011 A 
ATOM      5  C   UNL d   1       2.807   3.576  -1.464  0.00  0.00     0.033 A 
ATOM      6  C   UNL d   1       2.344   4.782  -0.920  0.00  0.00     0.017 A 
ENDROOT
BRANCH   1   7
ATOM      7  N   UNL d   1       0.420   1.195   0.174  0.00  0.00    -0.331 N 
ATOM      8  H   UNL d   1      -0.442   1.388   0.670  0.00  0.00     0.168 HD
BRANCH   7   9
ATOM      9  C   UNL d   1       0.866  -0.071   0.418  0.00  0.00     0.176 C 
ATOM     10  S   UNL d   1       2.356  -0.480   1.070  0.00  0.00    -0.041 SA
BRANCH   9  11
ATOM     11  N   UNL d   1      -0.052  -1.079   0.261  0.00  0.00    -0.332 N 
ATOM     12  H   UNL d   1       0.280  -1.974   0.617  0.00  0.00     0.168 HD
BRANCH  11  13
ATOM     13  C   UNL d   1      -1.369  -1.100  -0.270  0.00  0.00     0.057 A 
ATOM     14  C   UNL d   1      -1.933  -0.052  -1.007  0.00  0.00     0.055 A 
ATOM     15  C   UNL d   1      -3.262  -0.115  -1.434  0.00  0.00     0.036 A 
ATOM     16 CL   UNL d   1      -3.935   1.204  -2.312  0.00  0.00    -0.084 Cl
ATOM     17  C   UNL d   1      -4.046  -1.229  -1.157  0.00  0.00     0.026 A 
ATOM     18  C   UNL d   1      -3.486  -2.308  -0.475  0.00  0.00     0.028 A 
ATOM     19  C   UNL d   1      -2.155  -2.248  -0.047  0.00  0.00     0.060 A 
ATOM     20 CL   UNL d   1      -1.514  -3.620   0.792  0.00  0.00    -0.082 Cl
ENDBRANCH  11  13
ENDBRANCH   9  11
ENDBRANCH   7   9
ENDBRANCH   1   7
BRANCH   2  21
ATOM     21  N   UNL d   1       2.594   1.250  -1.978  0.00  0.00    -0.379 N 
ATOM     22  C   UNL d   1       1.626   0.339  -2.581  0.00  0.00     0.124 C 
ATOM     23  C   UNL d   1       1.988   0.105  -4.047  0.00  0.00     0.034 C 
ATOM     24  C   UNL d   1       3.444  -0.365  -4.200  0.00  0.00     0.088 C 
ATOM     25  C   UNL d   1       4.380   0.649  -3.528  0.00  0.00     0.034 C 
ATOM     26  C   UNL d   1       4.007   0.881  -2.063  0.00  0.00     0.124 C 
BRANCH  24  27
ATOM     27  C   UNL d   1       3.594  -1.789  -3.669  0.00  0.00     0.263 C 
ATOM     28  O   UNL d   1       2.683  -2.604  -3.632  0.00  0.00    -0.265 OA
BRANCH  27  29
ATOM     29  O   UNL d   1       4.881  -2.053  -3.311  0.00  0.00    -0.322 OA
BRANCH  29  30
ATOM     30  C   UNL d   1       5.137  -3.382  -2.831  0.00  0.00     0.174 C 
ATOM     31  C   UNL d   1       4.791  -3.494  -1.358  0.00  0.00     0.034 C 
ENDBRANCH  29  30
ENDBRANCH  27  29
ENDBRANCH  24  27
ENDBRANCH   2  21
BRANCH   4  32
ATOM     32  C   UNL d   1       0.618   6.024   0.482  0.00  0.00     0.155 C 
ATOM     33  O   UNL d   1      -0.366   5.922   1.218  0.00  0.00    -0.293 OA
ATOM     34  C   UNL d   1       1.147   7.392   0.130  0.00  0.00     0.096 C 
ENDBRANCH   4  32
TORSDOF 9
