REMARK  2 active torsions:
REMARK  status: ('A' for Active; 'I' for Inactive)
REMARK    1  A    between atoms: C_8  and  C_6 
REMARK    2  A    between atoms: O_20  and  C_7 
ROOT
ATOM      1  C   UNL d   1       0.796  -0.263   0.126  0.00  0.00     0.052 A 
ATOM      2  N   UNL d   1       1.425  -1.458   0.224  0.00  0.00    -0.335 N 
ATOM      3  HN  UNL d   1       0.910  -2.333   0.131  1.00  0.00     0.168 HD
ATOM      4  C   UNL d   1       1.491   0.963   0.106  0.00  0.00    -0.017 A 
ATOM      5  C   UNL d   1       3.502  -0.298   0.563  0.00  0.00     0.107 C 
ATOM      6  C   UNL d   1       2.927   0.969   0.243  0.00  0.00     0.008 C 
ATOM      7  C   UNL d   1       2.742  -1.453   0.446  0.00  0.00     0.164 C 
ATOM      8  C   UNL d   1      -0.676  -0.366   0.056  0.00  0.00    -0.003 A 
ATOM      9  C   UNL d   1       4.837  -0.486   1.038  0.00  0.00     0.104 C 
ATOM     10  N   UNL d   1       5.945  -0.641   1.399  0.00  0.00    -0.191 NA
ATOM     11  C   UNL d   1       0.672   2.224  -0.022  0.00  0.00     0.046 A 
ATOM     12  C   UNL d   1      -1.473   0.784  -0.025  0.00  0.00    -0.045 A 
ATOM     13  C   UNL d   1      -0.857   2.143  -0.121  0.00  0.00     0.044 A 
ATOM     14  C   UNL d   1      -1.331  -1.606   0.098  0.00  0.00     0.014 A 
ATOM     15  C   UNL d   1      -2.878   0.676  -0.041  0.00  0.00     0.008 A 
ATOM     16  C   UNL d   1      -2.723  -1.718   0.078  0.00  0.00     0.001 A 
ATOM     17  C   UNL d   1      -3.499  -0.567   0.015  0.00  0.00     0.001 A 
ENDROOT
BRANCH   6  18
ATOM     18  C   UNL d   1       3.822   2.158  -0.126  0.00  0.00    -0.023 C 
ATOM     19  C   UNL d   1       5.141   1.935  -0.560  0.00  0.00     0.024 C 
ATOM     20  C   UNL d   1       5.956   2.892  -1.169  0.00  0.00    -0.025 C 
ATOM     21  C   UNL d   1       7.285   2.577  -1.468  0.00  0.00     0.012 C 
ATOM     22  C   UNL d   1       5.385   4.084  -1.594  0.00  0.00    -0.026 C 
ATOM     23  C   UNL d   1       7.940   3.275  -2.460  0.00  0.00     0.001 C 
ATOM     24  C   UNL d   1       7.298   4.338  -3.085  0.00  0.00     0.001 C 
ATOM     25  C   UNL d   1       6.070   4.801  -2.596  0.00  0.00     0.012 C 
ATOM     26  C   UNL d   1       4.149   4.432  -1.023  0.00  0.00     0.013 C 
ATOM     27  C   UNL d   1       3.424   3.502  -0.239  0.00  0.00     0.013 C 
ENDBRANCH   6  18
BRANCH   7  28
ATOM     28  O   UNL d   1       3.395  -2.676   0.539  0.00  0.00    -0.340 OA
ATOM     29  C   UNL d   1       2.597  -3.786   0.150  0.00  0.00     0.211 C 
ENDBRANCH   7  28
TORSDOF 2
