REMARK  4 active torsions:
REMARK  status: ('A' for Active; 'I' for Inactive)
REMARK    1  A    between atoms: C_9  and  C_1 
REMARK    2  A    between atoms: N_7  and  C_9 
REMARK    3  A    between atoms: C_10  and  C_11 
REMARK    4  A    between atoms: O_13  and  C_12 
ROOT
ATOM      1  N   UNL d   1      -2.240   3.374   0.873  0.00  0.00    -0.388 N 
ATOM      2  HN  UNL d   1      -3.049   3.146   0.295  1.00  0.00     0.159 HD
ATOM      3  C   UNL d   1      -2.381   3.493   2.155  0.00  0.00     0.014 C 
ATOM      4  C   UNL d   1      -1.224   3.626   3.128  0.00  0.00     0.068 C 
ENDROOT
BRANCH   1   5
ATOM      5  C   UNL d   1      -0.924   3.564   0.242  0.00  0.00     0.159 C 
BRANCH   5   6
ATOM      6  C   UNL d   1       0.032   2.376   0.136  0.00  0.00    -0.028 C 
ATOM      7  C   UNL d   1      -0.440   1.047  -0.032  0.00  0.00    -0.047 C 
ATOM      8  C   UNL d   1       0.464  -0.045   0.026  0.00  0.00    -0.049 C 
ATOM      9  C   UNL d   1      -1.901   0.769  -0.298  0.00  0.00     0.049 C 
ATOM     10  C   UNL d   1      -0.038  -1.475   0.043  0.00  0.00     0.049 C 
ATOM     11  C   UNL d   1       1.861   0.189   0.037  0.00  0.00    -0.049 C 
ATOM     12  C   UNL d   1       2.352   1.516   0.048  0.00  0.00    -0.049 C 
ATOM     13  C   UNL d   1       2.800  -1.000  -0.002  0.00  0.00     0.049 C 
ATOM     14  C   UNL d   1       1.441   2.610   0.109  0.00  0.00    -0.047 C 
ATOM     15  C   UNL d   1       3.848   1.743  -0.012  0.00  0.00     0.049 C 
ATOM     16  C   UNL d   1       2.017   4.014   0.107  0.00  0.00     0.049 C 
ENDBRANCH   5   6
ENDBRANCH   1   5
BRANCH   3  17
ATOM     17  C   UNL d   1      -3.776   3.516   2.705  0.00  0.00     0.019 A 
ATOM     18  C   UNL d   1      -4.825   2.880   2.023  0.00  0.00     0.077 A 
ATOM     19  C   UNL d   1      -6.127   2.905   2.517  0.00  0.00     0.037 A 
ATOM     20  C   UNL d   1      -6.411   3.614   3.682  0.00  0.00     0.003 A 
ATOM     21  C   UNL d   1      -5.391   4.291   4.348  0.00  0.00     0.001 A 
ATOM     22  C   UNL d   1      -4.078   4.242   3.867  0.00  0.00     0.016 A 
BRANCH  18  23
ATOM     23  O   UNL d   1      -4.642   2.233   0.832  0.00  0.00    -0.360 OA
ATOM     24  H   UNL d   1      -3.762   2.531   0.507  0.00  0.00     0.217 HD
ENDBRANCH  18  23
ENDBRANCH   3  17
TORSDOF 4
