REMARK  3 active torsions:
REMARK  status: ('A' for Active; 'I' for Inactive)
REMARK    1  A    between atoms: C_10  and  C_2 
REMARK       I    between atoms: C_5  and  N_8 
REMARK    2  A    between atoms: C_6  and  C_5 
REMARK    3  A    between atoms: N_8  and  C_19 
ROOT
ATOM      1  C   UNL d   1       2.356  -1.645   0.229  0.00  0.00    -0.008 A 
ATOM      2  C   UNL d   1       2.344  -2.726  -0.661  0.00  0.00     0.016 A 
ATOM      3  C   UNL d   1       3.490  -1.455   1.028  0.00  0.00     0.016 A 
ATOM      4  C   UNL d   1       4.607  -3.346  -0.005  0.00  0.00     0.035 A 
ATOM      5  C   UNL d   1       4.603  -2.295   0.908  0.00  0.00     0.030 A 
ATOM      6  C   UNL d   1       3.458  -3.571  -0.775  0.00  0.00     0.030 A 
ENDROOT
BRANCH   4   7
ATOM      7  N   UNL d   1       5.708  -4.207  -0.205  0.00  0.00    -0.323 N 
ATOM      8  C   UNL d   1       6.952  -4.116   0.395  0.00  0.00     0.256 C 
ATOM      9  O   UNL d   1       7.322  -3.284   1.212  0.00  0.00    -0.267 OA
ATOM     10  H   UNL d   1       5.542  -4.978  -0.839  0.00  0.00     0.169 HD
BRANCH   8  11
ATOM     11  C   UNL d   1       7.917  -5.186   0.017  0.00  0.00     0.035 A 
ATOM     12  C   UNL d   1       7.962  -5.724  -1.273  0.00  0.00     0.041 A 
ATOM     13  C   UNL d   1       8.844  -6.770  -1.549  0.00  0.00     0.036 A 
ATOM     14 CL   UNL d   1       8.871  -7.460  -3.125  0.00  0.00    -0.084 Cl
ATOM     15  C   UNL d   1       9.691  -7.269  -0.563  0.00  0.00     0.047 A 
ATOM     16  C   UNL d   1       9.671  -6.698   0.707  0.00  0.00     0.036 A 
ATOM     17  C   UNL d   1       8.795  -5.657   1.003  0.00  0.00     0.041 A 
ATOM     18 CL   UNL d   1      10.723  -7.299   1.929  0.00  0.00    -0.084 Cl
ENDBRANCH   8  11
ENDBRANCH   4   7
BRANCH   1  19
ATOM     19  C   UNL d   1       1.211  -0.746   0.308  0.00  0.00     0.063 A 
ATOM     20  N   UNL d   1      -0.066  -1.165  -0.050  0.00  0.00    -0.292 N 
ATOM     21  N   UNL d   1      -0.961  -0.201   0.087  0.00  0.00    -0.061 NA
ATOM     22  HN  UNL d   1      -0.287  -2.105  -0.379  1.00  0.00     0.183 HD
ATOM     23  S   UNL d   1      -0.293   1.234   0.627  0.00  0.00    -0.010 SA
ATOM     24  C   UNL d   1       1.290   0.580   0.701  0.00  0.00     0.096 A 
ENDBRANCH   1  19
TORSDOF 3
