REMARK  6 active torsions:
REMARK  status: ('A' for Active; 'I' for Inactive)
REMARK    1  A    between atoms: C_10  and  C_1 
REMARK    2  A    between atoms: N_7  and  C_2 
REMARK    3  A    between atoms: C_6  and  C_3 
REMARK       I    between atoms: C_9  and  N_7 
REMARK       I    between atoms: N_13  and  C_9 
REMARK    4  A    between atoms: O_16  and  C_10 
REMARK    5  A    between atoms: C_17  and  N_13 
REMARK    6  A    between atoms: C_20  and  C_17 
ROOT
ATOM      1  C   UNL d   1      -1.164  -0.358   0.571  0.00  0.00     0.122 A 
ATOM      2  C   UNL d   1      -0.822   0.855   0.009  0.00  0.00     0.193 A 
ATOM      3  C   UNL d   1      -0.148  -1.259   0.106  0.00  0.00     0.089 A 
ATOM      4  N   UNL d   1       0.778  -0.578  -0.591  0.00  0.00    -0.257 N 
ATOM      5  HN  UNL d   1       1.623  -0.960  -1.015  1.00  0.00     0.195 HD
ATOM      6  O   UNL d   1       0.369   0.730  -0.621  0.00  0.00    -0.218 OA
ENDROOT
BRANCH   2   7
ATOM      7  N   UNL d   1      -1.498   2.048  -0.049  0.00  0.00    -0.286 N 
ATOM      8  C   UNL d   1      -1.132   3.197  -0.678  0.00  0.00     0.322 C 
ATOM      9  N   UNL d   1       0.168   3.359  -1.045  0.00  0.00    -0.339 N 
ATOM     10  O   UNL d   1      -1.988   4.066  -0.846  0.00  0.00    -0.247 OA
ATOM     11  H   UNL d   1       0.741   2.532  -1.138  0.00  0.00     0.164 HD
ATOM     12  H   UNL d   1      -2.463   2.050   0.266  0.00  0.00     0.172 HD
BRANCH   9  13
ATOM     13  C   UNL d   1       0.554   4.518  -1.820  0.00  0.00     0.162 C 
BRANCH  13  14
ATOM     14  C   UNL d   1       2.012   4.894  -1.708  0.00  0.00    -0.040 A 
ATOM     15  C   UNL d   1       2.640   5.521  -2.796  0.00  0.00     0.009 A 
ATOM     16  C   UNL d   1       3.947   6.001  -2.692  0.00  0.00     0.001 A 
ATOM     17  C   UNL d   1       4.645   5.863  -1.496  0.00  0.00     0.000 A 
ATOM     18  C   UNL d   1       4.038   5.242  -0.406  0.00  0.00     0.001 A 
ATOM     19  C   UNL d   1       2.726   4.764  -0.510  0.00  0.00     0.009 A 
ENDBRANCH  13  14
ENDBRANCH   9  13
ENDBRANCH   2   7
BRANCH   1  20
ATOM     20  C   UNL d   1      -2.339  -0.638   1.364  0.00  0.00     0.299 C 
ATOM     21  O   UNL d   1      -2.396  -1.566   2.164  0.00  0.00    -0.259 OA
BRANCH  20  22
ATOM     22  O   UNL d   1      -3.377   0.197   1.068  0.00  0.00    -0.322 OA
ATOM     23  C   UNL d   1      -4.636  -0.204   1.615  0.00  0.00     0.213 C 
ENDBRANCH  20  22
ENDBRANCH   1  20
BRANCH   3  24
ATOM     24  C   UNL d   1      -0.063  -2.727   0.201  0.00  0.00     0.037 A 
ATOM     25  C   UNL d   1      -1.170  -3.549  -0.111  0.00  0.00     0.048 A 
ATOM     26 CL   UNL d   1      -2.660  -2.945  -0.768  0.00  0.00    -0.083 Cl
ATOM     27  C   UNL d   1      -1.094  -4.946  -0.006  0.00  0.00     0.025 A 
ATOM     28  C   UNL d   1       0.106  -5.562   0.325  0.00  0.00     0.003 A 
ATOM     29  C   UNL d   1       1.229  -4.781   0.564  0.00  0.00     0.025 A 
ATOM     30  C   UNL d   1       1.148  -3.379   0.525  0.00  0.00     0.048 A 
ATOM     31 CL   UNL d   1       2.619  -2.539   0.900  0.00  0.00    -0.083 Cl
ENDBRANCH   3  24
TORSDOF 6
