REMARK  6 active torsions:
REMARK  status: ('A' for Active; 'I' for Inactive)
REMARK    1  A    between atoms: N_2  and  C_1 
REMARK    2  A    between atoms: N_3  and  C_1 
REMARK    3  A    between atoms: C_5  and  N_2 
REMARK    4  A    between atoms: C_7  and  N_3 
REMARK    5  A    between atoms: O_12  and  C_6 
REMARK    6  A    between atoms: C_13  and  O_12 
ROOT
ATOM      1  N   UNL d   1       0.479   0.839  -1.152  0.00  0.00    -0.362 N 
ATOM      2  H   UNL d   1       1.005   0.654  -0.318  0.00  0.00     0.162 HD
ENDROOT
BRANCH   1   3
ATOM      3  C   UNL d   1       1.255   1.107  -2.270  0.00  0.00     0.172 C 
ATOM      4  S   UNL d   1       0.715   1.853  -3.649  0.00  0.00    -0.041 SA
BRANCH   3   5
ATOM      5  N   UNL d   1       2.519   0.608  -2.001  0.00  0.00    -0.333 N 
ATOM      6  H   UNL d   1       2.484  -0.154  -1.343  0.00  0.00     0.168 HD
BRANCH   5   7
ATOM      7  C   UNL d   1       3.829   0.932  -2.380  0.00  0.00     0.034 A 
ATOM      8  C   UNL d   1       4.825   0.174  -1.740  0.00  0.00     0.032 A 
ATOM      9  C   UNL d   1       6.175   0.464  -1.905  0.00  0.00     0.039 A 
ATOM     10  C   UNL d   1       6.561   1.504  -2.742  0.00  0.00     0.068 A 
ATOM     11  C   UNL d   1       5.574   2.246  -3.399  0.00  0.00     0.039 A 
ATOM     12  C   UNL d   1       4.210   1.971  -3.215  0.00  0.00     0.032 A 
BRANCH  10  13
ATOM     13  O   UNL d   1       7.854   1.883  -2.983  0.00  0.00    -0.352 OA
BRANCH  13  14
ATOM     14  C   UNL d   1       8.869   1.150  -2.295  0.00  0.00     0.171 C 
ATOM     15  C   UNL d   1      10.223   1.631  -2.775  0.00  0.00     0.034 C 
ENDBRANCH  13  14
ENDBRANCH  10  13
ENDBRANCH   5   7
ENDBRANCH   3   5
ENDBRANCH   1   3
BRANCH   1  16
ATOM     16  C   UNL d   1      -0.949   0.825  -0.913  0.00  0.00     0.083 C 
ATOM     17  C   UNL d   1      -1.338   1.705   0.299  0.00  0.00     0.025 C 
ATOM     18  C   UNL d   1      -0.762   3.132   0.344  0.00  0.00     0.002 C 
ATOM     19  C   UNL d   1       0.716   3.273   0.754  0.00  0.00     0.000 C 
ATOM     20  C   UNL d   1       1.047   2.768   2.166  0.00  0.00     0.000 C 
ATOM     21  C   UNL d   1       2.466   2.192   2.315  0.00  0.00     0.000 C 
ATOM     22  C   UNL d   1       2.734   0.855   1.596  0.00  0.00     0.000 C 
ATOM     23  C   UNL d   1       1.831  -0.295   2.068  0.00  0.00     0.000 C 
ATOM     24  C   UNL d   1       1.877  -1.584   1.226  0.00  0.00     0.000 C 
ATOM     25  C   UNL d   1       0.782  -1.861   0.167  0.00  0.00     0.000 C 
ATOM     26  C   UNL d   1      -0.671  -1.434   0.458  0.00  0.00     0.002 C 
ATOM     27  C   UNL d   1      -1.380  -0.652  -0.684  0.00  0.00     0.025 C 
ENDBRANCH   1  16
TORSDOF 6
