REMARK  3 active torsions:
REMARK  status: ('A' for Active; 'I' for Inactive)
REMARK    1  A    between atoms: C_14  and  C_13 
REMARK    2  A    between atoms: O_18  and  C_13 
REMARK    3  A    between atoms: O_17  and  C_14 
ROOT
ATOM      1  C   UNL d   2       1.422   0.523   0.576  0.00  0.00     0.243 C 
ATOM      2  O   UNL d   2       0.771   1.360   1.204  0.00  0.00    -0.642 OA
ENDROOT
BRANCH   1   3
ATOM      3  C   UNL d   2       1.239  -0.209  -1.372  0.00  0.00     0.243 C 
ATOM      4  O   UNL d   2       1.675   0.205  -2.453  0.00  0.00    -0.642 OA
BRANCH   3   5
ATOM      5  O   UNL d   2       0.560  -1.333  -1.746  0.00  0.00    -0.769 OA
ATOM      6  H   UNL d   2       0.660  -1.298  -2.724  0.00  0.00     0.168 HD
ENDBRANCH   3   5
ENDBRANCH   1   3
BRANCH   1   7
ATOM      7  O   UNL d   2       2.425   0.221   1.462  0.00  0.00    -0.769 OA
ATOM      8  H   UNL d   2       2.292   0.882   2.175  0.00  0.00     0.168 HD
ENDBRANCH   1   7
TORSDOF 3
