REMARK  2 active torsions:
REMARK  status: ('A' for Active; 'I' for Inactive)
REMARK    1  A    between atoms: C_11  and  C_4 
REMARK    2  A    between atoms: C_9  and  C_8 
ROOT
ATOM      1  N   UNL d   1       0.487   1.270   0.216  0.00  0.00    -0.341 N 
ATOM      2  HN  UNL d   1       0.840   2.205   0.420  1.00  0.00     0.167 HD
ATOM      3  C   UNL d   1      -0.862   1.010   0.121  0.00  0.00     0.104 C 
ATOM      4  C   UNL d   1       1.288   0.262   0.034  0.00  0.00     0.109 C 
ATOM      5  C   UNL d   1      -1.394  -0.399   0.125  0.00  0.00     0.282 C 
ATOM      6  N   UNL d   1      -0.421  -1.374   0.129  0.00  0.00    -0.280 N 
ATOM      7  N   UNL d   1       0.897  -1.049  -0.215  0.00  0.00    -0.187 NA
ATOM      8  C   UNL d   1      -1.772   1.994   0.005  0.00  0.00     0.048 C 
ATOM      9  O   UNL d   1      -2.586  -0.690   0.137  0.00  0.00    -0.265 OA
ATOM     10  H   UNL d   1      -0.737  -2.320  -0.052  0.00  0.00     0.184 HD
ATOM     11  H   UNL d   1       1.574  -1.755   0.070  0.00  0.00     0.154 HD
ENDROOT
BRANCH   8  12
ATOM     12  C   UNL d   1      -1.399   3.413  -0.063  0.00  0.00    -0.012 A 
ATOM     13  C   UNL d   1      -1.106   4.058  -1.275  0.00  0.00     0.044 A 
ATOM     14 CL   UNL d   1      -1.227   3.244  -2.798  0.00  0.00    -0.083 Cl
ATOM     15  C   UNL d   1      -0.710   5.399  -1.283  0.00  0.00     0.024 A 
ATOM     16  C   UNL d   1      -0.607   6.107  -0.085  0.00  0.00     0.002 A 
ATOM     17  C   UNL d   1      -0.903   5.477   1.122  0.00  0.00     0.001 A 
ATOM     18  C   UNL d   1      -1.296   4.136   1.134  0.00  0.00     0.013 A 
ENDBRANCH   8  12
BRANCH   4  19
ATOM     19  C   UNL d   1       2.760   0.548   0.095  0.00  0.00     0.004 A 
ATOM     20  C   UNL d   1       3.234   1.600   0.887  0.00  0.00     0.015 A 
ATOM     21  C   UNL d   1       4.605   1.859   0.959  0.00  0.00     0.001 A 
ATOM     22  C   UNL d   1       5.502   1.075   0.235  0.00  0.00     0.000 A 
ATOM     23  C   UNL d   1       5.033   0.037  -0.570  0.00  0.00     0.001 A 
ATOM     24  C   UNL d   1       3.665  -0.227  -0.644  0.00  0.00     0.015 A 
ENDBRANCH   4  19
TORSDOF 2
