REMARK  6 active torsions:
REMARK  status: ('A' for Active; 'I' for Inactive)
REMARK    1  A    between atoms: C_8  and  N_1 
REMARK    2  A    between atoms: C_9  and  C_2 
REMARK    3  A    between atoms: C_7  and  C_10 
REMARK    4  A    between atoms: C_12  and  N_18 
REMARK    5  A    between atoms: N_18  and  C_14 
REMARK    6  A    between atoms: O_26  and  C_16 
ROOT
ATOM      1  N   UNL d   1       0.802   0.609  -0.163  0.00  0.00    -0.225 N 
ATOM      2  C   UNL d   1       1.027  -0.753   0.037  0.00  0.00     0.139 C 
ATOM      3  N   UNL d   1      -1.028  -0.287   0.492  0.00  0.00    -0.007 NA
ATOM      4  N   UNL d   1      -0.462   0.883   0.246  0.00  0.00     0.001 NA
ATOM      5  N   UNL d   1      -0.129  -1.306   0.358  0.00  0.00    -0.270 N 
ATOM      6  HN  UNL d   1      -0.313  -2.302   0.482  1.00  0.00     0.185 HD
ENDROOT
BRANCH   2   7
ATOM      7  C   UNL d   1       2.324  -1.327   0.010  0.00  0.00     0.068 C 
ATOM      8  C   UNL d   1       2.473  -2.640  -0.214  0.00  0.00     0.092 C 
BRANCH   8   9
ATOM      9  N   UNL d   1       3.651  -3.350  -0.229  0.00  0.00    -0.364 N 
ATOM     10  H   UNL d   1       4.497  -2.830  -0.048  0.00  0.00     0.165 HD
BRANCH   9  11
ATOM     11  C   UNL d   1       3.822  -4.692  -0.628  0.00  0.00     0.066 A 
ATOM     12  C   UNL d   1       2.932  -5.231  -1.589  0.00  0.00     0.048 A 
ATOM     13  C   UNL d   1       2.963  -6.575  -1.989  0.00  0.00     0.050 A 
ATOM     14  C   UNL d   1       3.908  -7.418  -1.409  0.00  0.00     0.019 A 
ATOM     15  C   UNL d   1       4.802  -6.912  -0.466  0.00  0.00     0.040 A 
ATOM     16  C   UNL d   1       4.777  -5.562  -0.064  0.00  0.00     0.094 A 
BRANCH  13  17
ATOM     17  C   UNL d   1       1.993  -7.105  -3.015  0.00  0.00     0.417 C 
ATOM     18  F   UNL d   1       1.156  -6.155  -3.518  0.00  0.00    -0.166 F 
ATOM     19  F   UNL d   1       2.622  -7.652  -4.092  0.00  0.00    -0.166 F 
ATOM     20  F   UNL d   1       1.190  -8.084  -2.515  0.00  0.00    -0.166 F 
ENDBRANCH  13  17
BRANCH  16  21
ATOM     21  O   UNL d   1       5.738  -5.332   0.882  0.00  0.00    -0.354 OA
ATOM     22  C   UNL d   1       5.873  -4.075   1.512  0.00  0.00     0.210 C 
ENDBRANCH  16  21
ENDBRANCH   9  11
ENDBRANCH   8   9
ENDBRANCH   2   7
BRANCH   1  23
ATOM     23  C   UNL d   1       1.636   1.628  -0.688  0.00  0.00     0.057 A 
ATOM     24  C   UNL d   1       1.407   2.959  -0.309  0.00  0.00     0.043 A 
ATOM     25  C   UNL d   1       2.272   3.981  -0.733  0.00  0.00    -0.024 A 
ATOM     26  C   UNL d   1       2.102   5.305  -0.299  0.00  0.00     0.012 A 
ATOM     27  C   UNL d   1       3.348   3.670  -1.595  0.00  0.00    -0.026 A 
ATOM     28  C   UNL d   1       2.993   6.304  -0.696  0.00  0.00     0.001 A 
ATOM     29  C   UNL d   1       4.053   5.995  -1.542  0.00  0.00     0.001 A 
ATOM     30  C   UNL d   1       4.225   4.688  -1.997  0.00  0.00     0.012 A 
ATOM     31  C   UNL d   1       3.521   2.348  -2.028  0.00  0.00     0.014 A 
ATOM     32  C   UNL d   1       2.675   1.331  -1.576  0.00  0.00     0.032 A 
ENDBRANCH   1  23
TORSDOF 6
