REMARK  7 active torsions:
REMARK  status: ('A' for Active; 'I' for Inactive)
REMARK    1  A    between atoms: C_16  and  N_1 
REMARK    2  A    between atoms: C_10  and  C_2 
REMARK    3  A    between atoms: N_3  and  C_10 
REMARK    4  A    between atoms: S_15  and  C_5 
REMARK    5  A    between atoms: C_19  and  S_15 
REMARK    6  A    between atoms: C_20  and  C_16 
REMARK    7  A    between atoms: C_18  and  C_19 
ROOT
ATOM      1  N   UNL d   1      -0.421  -1.307  -0.273  0.00  0.00    -0.309 N 
ATOM      2  C   UNL d   1       0.799  -0.664  -0.143  0.00  0.00     0.120 A 
ATOM      3  C   UNL d   1      -1.355  -0.323  -0.071  0.00  0.00     0.163 A 
ATOM      4  N   UNL d   1       0.580   0.629   0.021  0.00  0.00    -0.285 N 
ATOM      5  HN  UNL d   1       1.297   1.350   0.094  1.00  0.00     0.188 HD
ATOM      6  N   UNL d   1      -0.768   0.838   0.078  0.00  0.00    -0.278 N 
ATOM      7  HN  UNL d   1      -1.233   1.735   0.212  1.00  0.00     0.189 HD
ENDROOT
BRANCH   2   8
ATOM      8  C   UNL d   1       2.157  -1.277  -0.157  0.00  0.00     0.225 C 
BRANCH   8   9
ATOM      9  N   UNL d   1       2.768  -1.331   1.165  0.00  0.00    -0.267 N 
ATOM     10  N   UNL d   1       4.112  -1.202   1.242  0.00  0.00    -0.019 NA
ATOM     11  N   UNL d   1       4.402  -0.844   2.483  0.00  0.00    -0.282 N 
ATOM     12  C   UNL d   1       3.240  -0.865   3.209  0.00  0.00     0.074 A 
ATOM     13  HN  UNL d   1       5.326  -0.597   2.836  1.00  0.00     0.184 HD
ATOM     14  C   UNL d   1       2.197  -1.325   2.415  0.00  0.00     0.077 A 
ATOM     15  C   UNL d   1       2.992  -0.495   4.537  0.00  0.00     0.033 A 
ATOM     16  C   UNL d   1       0.916  -1.565   2.929  0.00  0.00     0.033 A 
ATOM     17  C   UNL d   1       0.685  -1.203   4.261  0.00  0.00     0.002 A 
ATOM     18  C   UNL d   1       1.696  -0.646   5.043  0.00  0.00     0.002 A 
ENDBRANCH   8   9
ENDBRANCH   2   8
BRANCH   1  19
ATOM     19  C   UNL d   1      -0.690  -2.723  -0.492  0.00  0.00     0.171 C 
BRANCH  19  20
ATOM     20  C   UNL d   1       0.150  -3.318  -1.591  0.00  0.00    -0.040 A 
ATOM     21  C   UNL d   1       1.011  -4.394  -1.320  0.00  0.00     0.009 A 
ATOM     22  C   UNL d   1       1.894  -4.851  -2.297  0.00  0.00     0.001 A 
ATOM     23  C   UNL d   1       1.897  -4.266  -3.562  0.00  0.00     0.000 A 
ATOM     24  C   UNL d   1       1.002  -3.240  -3.861  0.00  0.00     0.001 A 
ATOM     25  C   UNL d   1       0.126  -2.770  -2.884  0.00  0.00     0.009 A 
ENDBRANCH  19  20
ENDBRANCH   1  19
BRANCH   3  26
ATOM     26  S   UNL d   1      -3.065  -0.571  -0.012  0.00  0.00    -0.085 SA
BRANCH  26  27
ATOM     27  C   UNL d   1      -3.613   1.034  -0.671  0.00  0.00     0.160 C 
BRANCH  27  28
ATOM     28  C   UNL d   1      -3.153   1.240  -2.110  0.00  0.00     0.132 C 
ATOM     29  O   UNL d   1      -2.932   0.312  -2.886  0.00  0.00    -0.298 OA
ATOM     30  C   UNL d   1      -3.049   2.669  -2.568  0.00  0.00     0.091 C 
ENDBRANCH  27  28
ENDBRANCH  26  27
ENDBRANCH   3  26
TORSDOF 7
