REMARK  2 active torsions:
REMARK  status: ('A' for Active; 'I' for Inactive)
REMARK    1  A    between atoms: C_7  and  C_3 
REMARK    2  A    between atoms: N_13  and  C_4 
ROOT
ATOM      1  N   UNL d   1       0.099  -1.306   0.618  0.00  0.00    -0.336 N 
ATOM      2  HN  UNL d   1       0.509  -2.122   1.072  1.00  0.00     0.168 HD
ATOM      3  C   UNL d   1      -1.139  -1.286  -0.007  0.00  0.00     0.051 A 
ATOM      4  C   UNL d   1       0.666  -0.129   0.541  0.00  0.00     0.142 A 
ATOM      5  S   UNL d   1      -0.237   1.073  -0.287  0.00  0.00    -0.064 SA
ATOM      6  C   UNL d   1      -1.493  -0.065  -0.545  0.00  0.00     0.083 A 
ENDROOT
BRANCH   3   7
ATOM      7  C   UNL d   1      -1.984  -2.474  -0.043  0.00  0.00    -0.007 A 
ATOM      8  C   UNL d   1      -1.886  -3.422   0.987  0.00  0.00     0.039 A 
ATOM      9  C   UNL d   1      -2.693  -4.566   0.986  0.00  0.00     0.056 A 
ATOM     10 CL   UNL d   1      -2.523  -5.673   2.302  0.00  0.00    -0.083 Cl
ATOM     11  C   UNL d   1      -3.601  -4.779  -0.056  0.00  0.00     0.055 A 
ATOM     12  C   UNL d   1      -3.695  -3.847  -1.093  0.00  0.00     0.026 A 
ATOM     13 CL   UNL d   1      -4.630  -6.164  -0.126  0.00  0.00    -0.083 Cl
ATOM     14  C   UNL d   1      -2.892  -2.702  -1.087  0.00  0.00     0.015 A 
ENDBRANCH   3   7
BRANCH   4  15
ATOM     15  N   UNL d   1       1.875   0.142   1.055  0.00  0.00    -0.380 N 
ATOM     16  H   UNL d   1       2.454  -0.659   1.278  0.00  0.00     0.158 HD
ATOM     17  H   UNL d   1       2.381   0.943   0.698  0.00  0.00     0.158 HD
ENDBRANCH   4  15
TORSDOF 2
