REMARK  7 active torsions:
REMARK  status: ('A' for Active; 'I' for Inactive)
REMARK    1  A    between atoms: C_5  and  N_1 
REMARK    2  A    between atoms: C_4  and  N_2 
REMARK    3  A    between atoms: C_6  and  C_3 
REMARK    4  A    between atoms: C_11  and  C_4 
REMARK    5  A    between atoms: C_12  and  C_5 
REMARK    6  A    between atoms: O_28  and  C_15 
REMARK    7  A    between atoms: O_29  and  C_16 
ROOT
ATOM      1  N   UNL d   1       1.216   0.707  -0.287  0.00  0.00     0.131 N 
ATOM      2  N   UNL d   1      -1.248   0.655  -0.249  0.00  0.00     0.131 N 
ATOM      3  C   UNL d   1      -0.026   1.401   0.147  0.00  0.00     0.490 C 
ATOM      4  C   UNL d   1      -1.215  -0.715   0.309  0.00  0.00     0.278 C 
ATOM      5  C   UNL d   1       1.273  -0.617   0.343  0.00  0.00     0.278 C 
ATOM      6  C   UNL d   1       0.067  -1.468  -0.016  0.00  0.00     0.061 C 
ENDROOT
BRANCH   1   7
ATOM      7  C   UNL d   1       1.371   0.649  -1.752  0.00  0.00     0.314 C 
BRANCH   7   8
ATOM      8  C   UNL d   1       2.594  -0.075  -2.276  0.00  0.00    -0.030 A 
ATOM      9  C   UNL d   1       2.452  -1.218  -3.073  0.00  0.00     0.011 A 
ATOM     10  C   UNL d   1       3.568  -1.839  -3.642  0.00  0.00     0.037 A 
ATOM     11  C   UNL d   1       4.849  -1.329  -3.411  0.00  0.00     0.068 A 
ATOM     12  C   UNL d   1       4.995  -0.193  -2.613  0.00  0.00     0.037 A 
ATOM     13  C   UNL d   1       3.881   0.430  -2.043  0.00  0.00     0.011 A 
BRANCH  11  14
ATOM     14  O   UNL d   1       6.014  -1.836  -3.913  0.00  0.00    -0.356 OA
ATOM     15  C   UNL d   1       5.913  -3.019  -4.694  0.00  0.00     0.210 C 
ENDBRANCH  11  14
ENDBRANCH   7   8
ENDBRANCH   1   7
BRANCH   3  16
ATOM     16  C   UNL d   1      -0.039   2.891  -0.243  0.00  0.00     0.005 A 
ATOM     17  C   UNL d   1       0.157   3.874   0.747  0.00  0.00     0.014 A 
ATOM     18  C   UNL d   1       0.160   5.231   0.419  0.00  0.00     0.043 A 
ATOM     19  C   UNL d   1      -0.004   5.618  -0.906  0.00  0.00     0.116 A 
ATOM     20  C   UNL d   1      -0.218   4.677  -1.900  0.00  0.00     0.043 A 
ATOM     21  F   UNL d   1       0.032   6.919  -1.223  0.00  0.00    -0.206 F 
ATOM     22  C   UNL d   1      -0.270   3.323  -1.566  0.00  0.00     0.014 A 
ENDBRANCH   3  16
BRANCH   2  23
ATOM     23  C   UNL d   1      -2.461   1.353   0.256  0.00  0.00     0.314 C 
BRANCH  23  24
ATOM     24  C   UNL d   1      -3.763   0.651  -0.077  0.00  0.00    -0.030 A 
ATOM     25  C   UNL d   1      -4.577   0.141   0.944  0.00  0.00     0.011 A 
ATOM     26  C   UNL d   1      -5.746  -0.560   0.638  0.00  0.00     0.037 A 
ATOM     27  C   UNL d   1      -6.114  -0.756  -0.693  0.00  0.00     0.068 A 
ATOM     28  C   UNL d   1      -5.335  -0.208  -1.712  0.00  0.00     0.037 A 
ATOM     29  C   UNL d   1      -4.162   0.485  -1.410  0.00  0.00     0.011 A 
BRANCH  27  30
ATOM     30  O   UNL d   1      -7.233  -1.432  -1.100  0.00  0.00    -0.356 OA
ATOM     31  C   UNL d   1      -7.611  -2.522  -0.265  0.00  0.00     0.210 C 
ENDBRANCH  27  30
ENDBRANCH  23  24
ENDBRANCH   2  23
TORSDOF 7
