REMARK  3 active torsions:
REMARK  status: ('A' for Active; 'I' for Inactive)
REMARK       I    between atoms: N_2  and  C_1 
REMARK       I    between atoms: N_4  and  C_1 
REMARK    1  A    between atoms: C_3  and  N_2 
REMARK    2  A    between atoms: C_11  and  N_4 
REMARK    3  A    between atoms: N_7  and  C_5 
ROOT
ATOM      1  C   UNL d   1       1.045   1.380  -1.655  0.00  0.00     0.325 C 
ATOM      2  N   UNL d   1       2.244   0.682  -1.663  0.00  0.00    -0.306 N 
ATOM      3  N   UNL d   1       0.164   0.824  -0.745  0.00  0.00    -0.309 N 
ATOM      4  O   UNL d   1       0.794   2.336  -2.377  0.00  0.00    -0.247 OA
ATOM      5  H   UNL d   1       2.143  -0.313  -1.503  0.00  0.00     0.171 HD
ATOM      6  H   UNL d   1       0.586   0.435   0.085  0.00  0.00     0.170 HD
ENDROOT
BRANCH   2   7
ATOM      7  C   UNL d   1       3.330   1.045  -2.496  0.00  0.00     0.075 A 
ATOM      8  C   UNL d   1       4.076   0.029  -3.101  0.00  0.00     0.143 A 
ATOM      9  F   UNL d   1       3.758  -1.254  -2.873  0.00  0.00    -0.204 F 
ATOM     10  C   UNL d   1       5.115   0.326  -3.978  0.00  0.00     0.044 A 
ATOM     11  C   UNL d   1       5.439   1.658  -4.236  0.00  0.00     0.003 A 
ATOM     12  C   UNL d   1       4.731   2.680  -3.603  0.00  0.00     0.002 A 
ATOM     13  C   UNL d   1       3.676   2.377  -2.738  0.00  0.00     0.033 A 
ENDBRANCH   2   7
BRANCH   3  14
ATOM     14  C   UNL d   1      -1.228   1.016  -0.739  0.00  0.00     0.036 A 
ATOM     15  C   UNL d   1      -1.942   1.413  -1.869  0.00  0.00     0.032 A 
ATOM     16  C   UNL d   1      -3.341   1.513  -1.837  0.00  0.00     0.031 A 
ATOM     17  C   UNL d   1      -4.084   1.224  -0.683  0.00  0.00     0.029 A 
ATOM     18  C   UNL d   1      -3.340   0.837   0.445  0.00  0.00     0.031 A 
ATOM     19  C   UNL d   1      -1.941   0.725   0.422  0.00  0.00     0.032 A 
BRANCH  17  20
ATOM     20  N   UNL d   1      -5.473   1.234  -0.659  0.00  0.00    -0.390 N 
ATOM     21  C   UNL d   1      -6.181   1.736   0.516  0.00  0.00     0.149 C 
ATOM     22  C   UNL d   1      -6.249   1.251  -1.896  0.00  0.00     0.149 C 
ENDBRANCH  17  20
ENDBRANCH   3  14
TORSDOF 3
