REMARK  1 active torsions:
REMARK  status: ('A' for Active; 'I' for Inactive)
REMARK    1  A    between atoms: C_10  and  C_8 
ROOT
ATOM      1  C   UNL d   1       0.766  -0.452  -0.127  0.00  0.00     0.072 A 
ATOM      2  C   UNL d   1       1.312   0.812  -0.124  0.00  0.00     0.088 A 
ATOM      3  C   UNL d   1       1.664  -1.593  -0.207  0.00  0.00     0.256 C 
ATOM      4  N   UNL d   1       2.652   1.032  -0.149  0.00  0.00    -0.358 N 
ATOM      5  N   UNL d   1       2.999  -1.286  -0.199  0.00  0.00    -0.332 N 
ATOM      6  S   UNL d   1       0.132   2.030  -0.067  0.00  0.00    -0.076 SA
ATOM      7  C   UNL d   1      -0.665  -0.418  -0.052  0.00  0.00    -0.026 A 
ATOM      8  C   UNL d   1       3.461  -0.052   0.372  0.00  0.00     0.219 C 
ATOM      9  C   UNL d   1      -1.131   0.879  -0.018  0.00  0.00    -0.008 A 
ATOM     10  O   UNL d   1       1.283  -2.760  -0.291  0.00  0.00    -0.267 OA
ATOM     11  C   UNL d   1      -1.560  -1.608  -0.018  0.00  0.00     0.041 C 
ATOM     12  C   UNL d   1      -2.554   1.299   0.073  0.00  0.00     0.047 C 
ATOM     13  C   UNL d   1      -3.057  -1.301   0.071  0.00  0.00     0.005 C 
ATOM     14  C   UNL d   1      -3.545   0.144  -0.096  0.00  0.00     0.005 C 
ATOM     15  H   UNL d   1       2.981   1.960   0.101  0.00  0.00     0.162 HD
ATOM     16  H   UNL d   1       3.607  -2.089  -0.162  0.00  0.00     0.165 HD
ENDROOT
BRANCH   8  17
ATOM     17  C   UNL d   1       4.930   0.162   0.083  0.00  0.00    -0.013 A 
ATOM     18  C   UNL d   1       5.845   0.237   1.150  0.00  0.00     0.050 A 
ATOM     19  C   UNL d   1       7.185   0.366   0.856  0.00  0.00     0.105 A 
ATOM     20  O   UNL d   1       8.192   0.428   1.769  0.00  0.00    -0.323 OA
ATOM     21  C   UNL d   1       7.644   0.425  -0.438  0.00  0.00     0.105 A 
ATOM     22  C   UNL d   1       9.340   0.513   0.898  0.00  0.00     0.352 A 
ATOM     23  O   UNL d   1       8.998   0.531  -0.504  0.00  0.00    -0.323 OA
ATOM     24  C   UNL d   1       6.784   0.368  -1.513  0.00  0.00     0.040 A 
ATOM     25  C   UNL d   1       5.415   0.238  -1.247  0.00  0.00     0.014 A 
ENDBRANCH   8  17
TORSDOF 1
