REMARK  4 active torsions:
REMARK  status: ('A' for Active; 'I' for Inactive)
REMARK    1  A    between atoms: C_2  and  N_1 
REMARK    2  A    between atoms: C_6  and  C_3 
REMARK    3  A    between atoms: C_10  and  N_4 
REMARK    4  A    between atoms: O_18  and  C_13 
ROOT
ATOM      1  C   UNL d   1      -2.986   0.003   0.862  0.00  0.00     0.042 A 
ATOM      2  C   UNL d   1      -3.265  -0.678   2.070  0.00  0.00     0.006 A 
ATOM      3  C   UNL d   1      -4.083   0.662   0.264  0.00  0.00     0.030 A 
ATOM      4  C   UNL d   1      -4.553  -0.647   2.647  0.00  0.00     0.015 A 
ATOM      5  C   UNL d   1      -5.357   0.698   0.845  0.00  0.00     0.002 A 
ATOM      6  C   UNL d   1      -5.590   0.052   2.047  0.00  0.00     0.001 A 
ENDROOT
BRANCH   2   7
ATOM      7  C   UNL d   1      -2.225  -1.362   2.878  0.00  0.00     0.102 C 
ATOM      8  N   UNL d   1      -2.577  -2.284   3.722  0.00  0.00    -0.365 N 
ATOM      9  HN  UNL d   1      -3.557  -2.562   3.760  1.00  0.00     0.165 HD
BRANCH   8  10
ATOM     10  C   UNL d   1      -1.668  -2.911   4.580  0.00  0.00     0.032 A 
ATOM     11  C   UNL d   1      -0.574  -2.269   5.166  0.00  0.00     0.032 A 
ATOM     12  C   UNL d   1       0.180  -2.905   6.164  0.00  0.00     0.039 A 
ATOM     13  C   UNL d   1      -0.160  -4.189   6.591  0.00  0.00     0.068 A 
ATOM     14  C   UNL d   1      -1.233  -4.843   5.987  0.00  0.00     0.039 A 
ATOM     15  C   UNL d   1      -1.979  -4.208   4.992  0.00  0.00     0.032 A 
BRANCH  13  16
ATOM     16  O   UNL d   1       0.464  -4.900   7.578  0.00  0.00    -0.356 OA
ATOM     17  C   UNL d   1       1.436  -4.207   8.349  0.00  0.00     0.210 C 
ENDBRANCH  13  16
ENDBRANCH   8  10
ENDBRANCH   2   7
BRANCH   1  18
ATOM     18  N   UNL d   1      -1.710   0.113   0.315  0.00  0.00    -0.377 N 
ATOM     19  C   UNL d   1      -1.387   1.225  -0.602  0.00  0.00     0.153 C 
ATOM     20  C   UNL d   1       0.110   1.573  -0.462  0.00  0.00     0.291 C 
ATOM     21  N   UNL d   1       1.009   0.420  -0.699  0.00  0.00     0.087 N 
ATOM     22  C   UNL d   1       0.592  -0.736   0.134  0.00  0.00     0.291 C 
ATOM     23  C   UNL d   1       2.388   0.802  -0.392  0.00  0.00     0.310 C 
ATOM     24  C   UNL d   1      -0.915  -1.090  -0.006  0.00  0.00     0.153 C 
ENDBRANCH   1  18
TORSDOF 4
