REMARK  6 active torsions:
REMARK  status: ('A' for Active; 'I' for Inactive)
REMARK    1  A    between atoms: C_11  and  C_1 
REMARK    2  A    between atoms: O_21  and  C_9 
REMARK       I    between atoms: C_14  and  N_10 
REMARK    3  A    between atoms: O_27  and  C_11 
REMARK    4  A    between atoms: N_12  and  C_16 
REMARK    5  A    between atoms: C_26  and  O_21 
REMARK    6  A    between atoms: C_31  and  O_27 
ROOT
ATOM      1  C   UNL d   1       1.643  -3.030   5.016  0.00  0.00     0.127 A 
ATOM      2  N   UNL d   1       2.418  -2.256   3.118  0.00  0.00    -0.247 N 
ATOM      3  N   UNL d   1       0.541  -2.802   4.197  0.00  0.00    -0.335 N 
ATOM      4  HN  UNL d   1      -0.442  -2.951   4.426  1.00  0.00     0.168 HD
ATOM      5  C   UNL d   1       1.038  -2.354   3.061  0.00  0.00     0.127 A 
ATOM      6  C   UNL d   1       2.803  -2.686   4.353  0.00  0.00     0.154 A 
ATOM      7  N   UNL d   1       3.260  -1.817   2.148  0.00  0.00    -0.272 N 
ATOM      8  HN  UNL d   1       4.272  -1.757   2.257  1.00  0.00     0.189 HD
ATOM      9  C   UNL d   1       2.630  -1.486   1.071  0.00  0.00     0.163 A 
ATOM     10  C   UNL d   1       0.414  -1.996   1.844  0.00  0.00     0.054 A 
ATOM     11  C   UNL d   1       1.169  -1.577   0.822  0.00  0.00     0.061 A 
ENDROOT
BRANCH   9  12
ATOM     12  O   UNL d   1       3.239  -0.967  -0.062  0.00  0.00    -0.293 OA
BRANCH  12  13
ATOM     13  C   UNL d   1       4.500  -0.339   0.024  0.00  0.00     0.078 A 
ATOM     14  C   UNL d   1       5.361  -0.472  -1.058  0.00  0.00     0.039 A 
ATOM     15  C   UNL d   1       6.564   0.250  -1.078  0.00  0.00     0.032 A 
ATOM     16  C   UNL d   1       6.932   1.125  -0.040  0.00  0.00     0.030 A 
ATOM     17  C   UNL d   1       6.040   1.217   1.040  0.00  0.00     0.032 A 
ATOM     18  C   UNL d   1       4.835   0.505   1.076  0.00  0.00     0.039 A 
BRANCH  16  19
ATOM     19  N   UNL d   1       8.114   1.837  -0.076  0.00  0.00    -0.378 N 
ATOM     20  C   UNL d   1       8.795   2.307   1.146  0.00  0.00     0.143 C 
ATOM     21  C   UNL d   1      10.288   1.933   1.073  0.00  0.00     0.145 C 
ATOM     22  N   UNL d   1      10.910   2.424  -0.166  0.00  0.00    -0.349 N 
ATOM     23  C   UNL d   1      10.208   1.986  -1.385  0.00  0.00     0.145 C 
ATOM     24  C   UNL d   1      12.037   3.212  -0.073  0.00  0.00     0.215 C 
ATOM     25  C   UNL d   1       8.707   2.341  -1.328  0.00  0.00     0.143 C 
ATOM     26  O   UNL d   1      12.528   3.517   1.018  0.00  0.00    -0.274 OA
ATOM     27  C   UNL d   1      12.701   3.739  -1.321  0.00  0.00     0.117 C 
ENDBRANCH  16  19
ENDBRANCH  12  13
ENDBRANCH   9  12
BRANCH   1  28
ATOM     28  C   UNL d   1       1.576  -3.633   6.344  0.00  0.00     0.311 C 
ATOM     29  O   UNL d   1       2.572  -3.895   7.010  0.00  0.00    -0.258 OA
BRANCH  28  30
ATOM     30  O   UNL d   1       0.301  -3.967   6.696  0.00  0.00    -0.317 OA
BRANCH  30  31
ATOM     31  C   UNL d   1       0.195  -5.005   7.676  0.00  0.00     0.175 C 
ATOM     32  C   UNL d   1       0.231  -6.337   6.948  0.00  0.00     0.034 C 
ENDBRANCH  30  31
ENDBRANCH  28  30
ENDBRANCH   1  28
TORSDOF 6
