REMARK  7 active torsions:
REMARK  status: ('A' for Active; 'I' for Inactive)
REMARK    1  A    between atoms: C_2  and  S_1 
REMARK    2  A    between atoms: N_5  and  S_1 
REMARK    3  A    between atoms: C_6  and  N_5 
REMARK    4  A    between atoms: C_14  and  C_10 
REMARK    5  A    between atoms: C_18  and  C_14 
REMARK    6  A    between atoms: O_20  and  C_18 
REMARK    7  A    between atoms: C_22  and  O_20 
ROOT
ATOM      1  C   UNL d   1       0.811  -0.169   2.559  0.00  0.00     0.137 A 
ATOM      2  N   UNL d   1       2.025  -0.640   2.684  0.00  0.00    -0.343 N 
ATOM      3  HN  UNL d   1       2.756  -0.568   1.976  1.00  0.00     0.167 HD
ATOM      4  C   UNL d   1       2.174  -1.254   3.923  0.00  0.00     0.026 A 
ATOM      5  S   UNL d   1      -0.222  -0.394   3.907  0.00  0.00    -0.069 SA
ATOM      6  C   UNL d   1       1.028  -1.254   4.700  0.00  0.00     0.078 A 
ENDROOT
BRANCH   1   7
ATOM      7  N   UNL d   1       0.437   0.643   1.465  0.00  0.00    -0.159 NA
ATOM      8  H   UNL d   1      -0.371   1.216   1.705  0.00  0.00     0.148 HD
BRANCH   7   9
ATOM      9  S   UNL d   1      -0.047  -0.278   0.127  0.00  0.00     0.264 S 
ATOM     10  O   UNL d   1      -0.540   0.649  -0.868  0.00  0.00    -0.204 OA
ATOM     11  O   UNL d   1       0.927  -1.299  -0.199  0.00  0.00    -0.204 OA
BRANCH   9  12
ATOM     12  C   UNL d   1      -1.484  -1.161   0.602  0.00  0.00     0.161 A 
ATOM     13  N   UNL d   1      -2.580  -0.542   1.193  0.00  0.00    -0.341 N 
ATOM     14  C   UNL d   1      -3.442  -1.513   1.412  0.00  0.00     0.183 A 
ATOM     15  HN  UNL d   1      -2.692   0.448   1.410  1.00  0.00     0.167 HD
ATOM     16  N   UNL d   1      -2.932  -2.728   1.048  0.00  0.00    -0.354 N 
ATOM     17  C   UNL d   1      -1.686  -2.526   0.531  0.00  0.00     0.134 A 
ATOM     18  C   UNL d   1      -3.601  -3.995   1.204  0.00  0.00     0.156 C 
ENDBRANCH   9  12
ENDBRANCH   7   9
ENDBRANCH   1   7
BRANCH   4  19
ATOM     19  C   UNL d   1       3.528  -1.744   4.326  0.00  0.00     0.168 C 
BRANCH  19  20
ATOM     20  C   UNL d   1       3.546  -3.184   4.777  0.00  0.00     0.264 C 
ATOM     21  O   UNL d   1       2.582  -3.933   4.856  0.00  0.00    -0.265 OA
BRANCH  20  22
ATOM     22  O   UNL d   1       4.809  -3.495   5.202  0.00  0.00    -0.322 OA
BRANCH  22  23
ATOM     23  C   UNL d   1       4.918  -4.686   5.995  0.00  0.00     0.174 C 
ATOM     24  C   UNL d   1       4.671  -4.316   7.447  0.00  0.00     0.034 C 
ENDBRANCH  22  23
ENDBRANCH  20  22
ENDBRANCH  19  20
ENDBRANCH   4  19
TORSDOF 7
