REMARK  3 active torsions:
REMARK  status: ('A' for Active; 'I' for Inactive)
REMARK    1  A    between atoms: C_2  and  S_1 
REMARK    2  A    between atoms: N_3  and  S_1 
REMARK    3  A    between atoms: C_9  and  N_3 
ROOT
ATOM      1  S   UNL d   1       1.062  -0.825   0.426  0.00  0.00     0.250 S 
ATOM      2  O   UNL d   1       2.366  -1.208   0.923  0.00  0.00    -0.205 OA
ATOM      3  O   UNL d   1       0.006  -1.804   0.282  0.00  0.00    -0.205 OA
ENDROOT
BRANCH   1   4
ATOM      4  C   UNL d   1       1.390  -0.246  -1.226  0.00  0.00     0.115 A 
ATOM      5  S   UNL d   1       2.460   1.085  -1.361  0.00  0.00    -0.089 SA
ATOM      6  C   UNL d   1       2.352   1.080  -3.070  0.00  0.00     0.051 A 
ATOM      7  C   UNL d   1       1.529   0.076  -3.533  0.00  0.00     0.009 A 
ATOM      8  C   UNL d   1       0.978  -0.693  -2.468  0.00  0.00     0.033 A 
ENDBRANCH   1   4
BRANCH   1   9
ATOM      9  N   UNL d   1       0.457   0.505   1.371  0.00  0.00    -0.206 NA
ATOM     10  C   UNL d   1       1.098   0.523   2.715  0.00  0.00     0.130 C 
BRANCH   9  11
ATOM     11  C   UNL d   1      -1.054   0.657   1.403  0.00  0.00     0.074 C 
ATOM     12  C   UNL d   1      -1.663   0.879   0.005  0.00  0.00     0.021 C 
ATOM     13  C   UNL d   1      -1.336   2.249  -0.588  0.00  0.00     0.002 C 
ATOM     14  C   UNL d   1      -1.744   3.383   0.344  0.00  0.00     0.000 C 
ATOM     15  C   UNL d   1      -1.156   3.194   1.737  0.00  0.00     0.002 C 
ATOM     16  C   UNL d   1      -1.520   1.823   2.305  0.00  0.00     0.021 C 
ENDBRANCH   9  11
ENDBRANCH   1   9
TORSDOF 3
