REMARK  6 active torsions:
REMARK  status: ('A' for Active; 'I' for Inactive)
REMARK    1  A    between atoms: C_8  and  C_4 
REMARK    2  A    between atoms: C_9  and  C_5 
REMARK    3  A    between atoms: O_22  and  C_6 
REMARK    4  A    between atoms: O_23  and  C_7 
REMARK    5  A    between atoms: O_24  and  C_11 
REMARK    6  A    between atoms: O_25  and  C_12 
ROOT
ATOM      1  C   UNL d   1      -0.624  -1.349   1.424  0.00  0.00     0.017 C 
ATOM      2  C   UNL d   1      -0.745   1.111   1.681  0.00  0.00     0.017 C 
ATOM      3  C   UNL d   1      -0.253  -0.170   2.246  0.00  0.00     0.188 C 
ATOM      4  C   UNL d   1      -1.019  -2.446   2.096  0.00  0.00     0.025 C 
ATOM      5  C   UNL d   1      -1.290   1.967   2.561  0.00  0.00     0.025 C 
ATOM      6  O   UNL d   1      -1.305   0.064  -0.389  0.00  0.00    -0.382 OA
ATOM      7  O   UNL d   1       0.347  -0.252   3.310  0.00  0.00    -0.287 OA
ATOM      8  C   UNL d   1      -0.688   1.213   0.193  0.00  0.00     0.210 C 
ATOM      9  C   UNL d   1      -0.602  -1.133  -0.056  0.00  0.00     0.210 C 
ENDROOT
BRANCH   4  10
ATOM     10  C   UNL d   1      -1.530  -3.635   1.421  0.00  0.00    -0.033 A 
ATOM     11  C   UNL d   1      -0.645  -4.642   1.023  0.00  0.00     0.051 A 
ATOM     12  C   UNL d   1      -1.107  -5.735   0.285  0.00  0.00     0.102 A 
ATOM     13  C   UNL d   1      -2.472  -5.809  -0.031  0.00  0.00     0.099 A 
ATOM     14  C   UNL d   1      -3.363  -4.817   0.377  0.00  0.00     0.040 A 
ATOM     15  C   UNL d   1      -2.891  -3.727   1.103  0.00  0.00     0.014 A 
BRANCH  12  16
ATOM     16  O   UNL d   1      -0.316  -6.754  -0.180  0.00  0.00    -0.353 OA
ATOM     17  C   UNL d   1       1.072  -6.686   0.118  0.00  0.00     0.210 C 
ENDBRANCH  12  16
BRANCH  13  18
ATOM     18  O   UNL d   1      -2.930  -6.870  -0.767  0.00  0.00    -0.358 OA
ATOM     19  H   UNL d   1      -3.883  -6.768  -0.912  0.00  0.00     0.217 HD
ENDBRANCH  13  18
ENDBRANCH   4  10
BRANCH   5  20
ATOM     20  C   UNL d   1      -2.030   3.162   2.170  0.00  0.00    -0.033 A 
ATOM     21  C   UNL d   1      -1.372   4.377   1.955  0.00  0.00     0.051 A 
ATOM     22  C   UNL d   1      -2.097   5.516   1.590  0.00  0.00     0.102 A 
ATOM     23  C   UNL d   1      -3.488   5.413   1.433  0.00  0.00     0.099 A 
ATOM     24  C   UNL d   1      -4.149   4.201   1.633  0.00  0.00     0.040 A 
ATOM     25  C   UNL d   1      -3.417   3.075   2.002  0.00  0.00     0.014 A 
BRANCH  22  26
ATOM     26  O   UNL d   1      -1.553   6.755   1.374  0.00  0.00    -0.353 OA
ATOM     27  C   UNL d   1      -0.148   6.886   1.536  0.00  0.00     0.210 C 
ENDBRANCH  22  26
BRANCH  23  28
ATOM     28  O   UNL d   1      -4.207   6.524   1.079  0.00  0.00    -0.358 OA
ATOM     29  H   UNL d   1      -5.149   6.296   1.047  0.00  0.00     0.217 HD
ENDBRANCH  23  28
ENDBRANCH   5  20
TORSDOF 6
