REMARK  5 active torsions:
REMARK  status: ('A' for Active; 'I' for Inactive)
REMARK    1  A    between atoms: N_9  and  C_1 
REMARK    2  A    between atoms: N_5  and  C_10 
REMARK    3  A    between atoms: S_13  and  C_6 
REMARK    4  A    between atoms: C_20  and  S_13 
REMARK    5  A    between atoms: C_21  and  C_20 
ROOT
ATOM      1  C   UNL d   1      -0.500   1.097  -0.085  0.00  0.00     0.172 A 
ATOM      2  S   UNL d   1      -1.398  -0.306  -0.436  0.00  0.00    -0.026 SA
ATOM      3  N   UNL d   1       0.771   0.897   0.187  0.00  0.00    -0.278 N 
ATOM      4  HN  UNL d   1       1.434   1.638   0.415  1.00  0.00     0.189 HD
ATOM      5  C   UNL d   1       0.054  -1.192  -0.189  0.00  0.00     0.130 A 
ATOM      6  N   UNL d   1       1.094  -0.447   0.124  0.00  0.00    -0.286 N 
ATOM      7  HN  UNL d   1       2.028  -0.817   0.299  1.00  0.00     0.188 HD
ENDROOT
BRANCH   5   8
ATOM      8  S   UNL d   1       0.139  -2.933  -0.338  0.00  0.00    -0.099 SA
BRANCH   8   9
ATOM      9  C   UNL d   1       1.910  -3.217  -0.034  0.00  0.00     0.120 C 
BRANCH   9  10
ATOM     10  C   UNL d   1       2.247  -4.692  -0.094  0.00  0.00    -0.048 A 
ATOM     11  C   UNL d   1       2.607  -5.291  -1.313  0.00  0.00     0.010 A 
ATOM     12  C   UNL d   1       2.885  -6.660  -1.382  0.00  0.00     0.036 A 
ATOM     13  C   UNL d   1       2.799  -7.441  -0.223  0.00  0.00     0.102 A 
ATOM     14  C   UNL d   1       2.449  -6.859   1.001  0.00  0.00     0.036 A 
ATOM     15  C   UNL d   1       2.172  -5.489   1.060  0.00  0.00     0.010 A 
BRANCH  13  16
ATOM     16  N   UNL d   1       3.065  -8.883  -0.296  0.00  0.00    -0.116 N 
ATOM     17  O   UNL d   1       3.354  -9.362  -1.402  0.00  0.00    -0.532 OA
ATOM     18  O   UNL d   1       2.982  -9.540   0.753  0.00  0.00    -0.532 OA
ENDBRANCH  13  16
ENDBRANCH   9  10
ENDBRANCH   8   9
ENDBRANCH   5   8
BRANCH   1  19
ATOM     19  N   UNL d   1      -1.094   2.365  -0.090  0.00  0.00    -0.312 N 
ATOM     20  C   UNL d   1      -2.408   2.715  -0.365  0.00  0.00     0.098 A 
ATOM     21  C   UNL d   1      -2.552   4.082  -0.258  0.00  0.00     0.019 A 
ATOM     22  C   UNL d   1      -1.294   4.610   0.097  0.00  0.00     0.019 A 
ATOM     23  C   UNL d   1      -0.424   3.547   0.194  0.00  0.00     0.098 A 
ENDBRANCH   1  19
TORSDOF 5
