REMARK  10 active torsions:
REMARK  status: ('A' for Active; 'I' for Inactive)
REMARK    1  A    between atoms: C_4  and  C_1 
REMARK    2  A    between atoms: C_5  and  C_2 
REMARK    3  A    between atoms: O_6  and  C_4 
REMARK    4  A    between atoms: O_7  and  C_5 
REMARK    5  A    between atoms: C_15  and  O_6 
REMARK    6  A    between atoms: C_14  and  O_7 
REMARK    7  A    between atoms: C_8  and  C_15 
REMARK    8  A    between atoms: C_10  and  C_8 
REMARK    9  A    between atoms: C_9  and  C_14 
REMARK   10  A    between atoms: C_11  and  C_9 
ROOT
ATOM      1  C   UNL d   1       0.823   1.235  -0.014  0.00  0.00     0.058 A 
ATOM      2  C   UNL d   1       0.831  -1.229   0.001  0.00  0.00     0.058 A 
ATOM      3  C   UNL d   1       0.108   0.001   0.006  0.00  0.00     0.043 A 
ATOM      4 BR   UNL d   1      -1.809  -0.005   0.066  0.00  0.00    -0.049 Br
ATOM      5  C   UNL d   1       2.235   1.205  -0.025  0.00  0.00     0.019 A 
ATOM      6  C   UNL d   1       2.244  -1.190  -0.005  0.00  0.00     0.019 A 
ATOM      7  C   UNL d   1       2.941   0.010  -0.017  0.00  0.00     0.002 A 
ENDROOT
BRANCH   1   8
ATOM      8  C   UNL d   1       0.268   2.640   0.004  0.00  0.00     0.295 C 
ATOM      9  O   UNL d   1       0.987   3.626   0.097  0.00  0.00    -0.259 OA
BRANCH   8  10
ATOM     10  O   UNL d   1      -1.073   2.692  -0.063  0.00  0.00    -0.310 OA
BRANCH  10  11
ATOM     11  C   UNL d   1      -1.716   3.963   0.086  0.00  0.00     0.263 C 
BRANCH  11  12
ATOM     12  C   UNL d   1      -2.722   4.201  -1.035  0.00  0.00     0.183 C 
ATOM     13  O   UNL d   1      -2.855   3.444  -1.995  0.00  0.00    -0.290 OA
BRANCH  12  14
ATOM     14  C   UNL d   1      -3.545   5.446  -0.984  0.00  0.00     0.012 A 
ATOM     15  C   UNL d   1      -3.965   6.014  -2.195  0.00  0.00     0.016 A 
ATOM     16  C   UNL d   1      -4.726   7.187  -2.201  0.00  0.00     0.020 A 
ATOM     17  C   UNL d   1      -5.082   7.784  -0.993  0.00  0.00     0.011 A 
ATOM     18  C   UNL d   1      -4.684   7.218   0.218  0.00  0.00     0.020 A 
ATOM     19 BR   UNL d   1      -6.115   9.366  -0.996  0.00  0.00    -0.051 Br
ATOM     20  C   UNL d   1      -3.914   6.050   0.225  0.00  0.00     0.016 A 
ENDBRANCH  12  14
ENDBRANCH  11  12
ENDBRANCH  10  11
ENDBRANCH   8  10
ENDBRANCH   1   8
BRANCH   2  21
ATOM     21  C   UNL d   1       0.285  -2.637  -0.026  0.00  0.00     0.295 C 
ATOM     22  O   UNL d   1       1.014  -3.617  -0.084  0.00  0.00    -0.259 OA
BRANCH  21  23
ATOM     23  O   UNL d   1      -1.058  -2.698  -0.033  0.00  0.00    -0.310 OA
BRANCH  23  24
ATOM     24  C   UNL d   1      -1.681  -3.975  -0.204  0.00  0.00     0.263 C 
BRANCH  24  25
ATOM     25  C   UNL d   1      -2.704  -4.252   0.895  0.00  0.00     0.183 C 
ATOM     26  O   UNL d   1      -2.864  -3.519   1.870  0.00  0.00    -0.290 OA
BRANCH  25  27
ATOM     27  C   UNL d   1      -3.510  -5.505   0.798  0.00  0.00     0.012 A 
ATOM     28  C   UNL d   1      -3.958  -6.104   1.984  0.00  0.00     0.016 A 
ATOM     29  C   UNL d   1      -4.702  -7.288   1.943  0.00  0.00     0.020 A 
ATOM     30  C   UNL d   1      -5.013  -7.865   0.713  0.00  0.00     0.011 A 
ATOM     31  C   UNL d   1      -4.588  -7.269  -0.473  0.00  0.00     0.020 A 
ATOM     32 BR   UNL d   1      -6.022  -9.461   0.651  0.00  0.00    -0.051 Br
ATOM     33  C   UNL d   1      -3.834  -6.090  -0.433  0.00  0.00     0.016 A 
ENDBRANCH  25  27
ENDBRANCH  24  25
ENDBRANCH  23  24
ENDBRANCH  21  23
ENDBRANCH   2  21
TORSDOF 10
