REMARK  1 active torsions:
REMARK  status: ('A' for Active; 'I' for Inactive)
REMARK    1  A    between atoms: C_8  and  C_1 
ROOT
ATOM      1  C   UNL d   1       1.669  -1.582  -0.013  0.00  0.00     0.162 A 
ATOM      2  N   UNL d   1       0.420  -1.912  -0.030  0.00  0.00    -0.335 N 
ATOM      3  HN  UNL d   1       0.129  -2.890  -0.050  1.00  0.00     0.168 HD
ATOM      4  O   UNL d   1       2.168  -0.328   0.007  0.00  0.00    -0.257 OA
ATOM      5  C   UNL d   1       1.325   0.732   0.010  0.00  0.00     0.302 A 
ATOM      6  C   UNL d   1      -0.117   0.448  -0.000  0.00  0.00     0.066 A 
ATOM      7  C   UNL d   1      -0.509  -0.881  -0.018  0.00  0.00     0.050 A 
ATOM      8  O   UNL d   1       1.738   1.886   0.024  0.00  0.00    -0.259 OA
ATOM      9  C   UNL d   1      -1.067   1.475   0.010  0.00  0.00     0.020 A 
ATOM     10  C   UNL d   1      -1.868  -1.196  -0.020  0.00  0.00     0.030 A 
ATOM     11  C   UNL d   1      -2.425   1.155   0.004  0.00  0.00     0.001 A 
ATOM     12  C   UNL d   1      -2.826  -0.182  -0.010  0.00  0.00     0.002 A 
ENDROOT
BRANCH   1  13
ATOM     13  C   UNL d   1       2.748  -2.601  -0.011  0.00  0.00     0.016 A 
ATOM     14  C   UNL d   1       2.388  -3.955  -0.118  0.00  0.00     0.019 A 
ATOM     15  C   UNL d   1       3.366  -4.949  -0.086  0.00  0.00     0.043 A 
ATOM     16  C   UNL d   1       4.700  -4.588   0.051  0.00  0.00     0.116 A 
ATOM     17  C   UNL d   1       5.076  -3.252   0.152  0.00  0.00     0.043 A 
ATOM     18  F   UNL d   1       5.639  -5.541   0.093  0.00  0.00    -0.206 F 
ATOM     19  C   UNL d   1       4.100  -2.253   0.120  0.00  0.00     0.019 A 
ENDBRANCH   1  13
TORSDOF 1
