REMARK  3 active torsions:
REMARK  status: ('A' for Active; 'I' for Inactive)
REMARK    1  A    between atoms: C_6  and  C_1 
REMARK    2  A    between atoms: C_15  and  C_2 
REMARK    3  A    between atoms: C_10  and  C_8 
ROOT
ATOM      1  C   UNL d   1       0.115   1.268  -0.064  0.00  0.00     0.100 A 
ATOM      2  C   UNL d   1       1.443   0.861  -0.048  0.00  0.00    -0.003 A 
ATOM      3  S   UNL d   1      -0.957  -0.090   0.009  0.00  0.00    -0.085 SA
ATOM      4  C   UNL d   1       0.316  -1.235  -0.008  0.00  0.00     0.007 A 
ATOM      5  C   UNL d   1       1.522  -0.573  -0.095  0.00  0.00     0.032 A 
ENDROOT
BRANCH   4   6
ATOM      6  C   UNL d   1       0.020  -2.634   0.014  0.00  0.00     0.030 C 
ATOM      7  C   UNL d   1       0.843  -3.582   0.497  0.00  0.00     0.004 C 
ATOM      8  C   UNL d   1       2.109  -3.268   1.209  0.00  0.00     0.190 C 
ATOM      9  C   UNL d   1       0.597  -5.051   0.426  0.00  0.00     0.122 C 
ATOM     10  C   UNL d   1       3.341  -3.822   0.614  0.00  0.00     0.033 A 
ATOM     11  O   UNL d   1       2.137  -2.583   2.221  0.00  0.00    -0.287 OA
ATOM     12  C   UNL d   1       4.544  -3.149   0.877  0.00  0.00     0.040 A 
ATOM     13  C   UNL d   1       3.312  -4.943  -0.228  0.00  0.00     0.015 A 
ATOM     14  C   UNL d   1       5.724  -3.594   0.294  0.00  0.00     0.035 A 
ATOM     15 CL   UNL d   1       7.191  -2.739   0.566  0.00  0.00    -0.084 Cl
ATOM     16  C   UNL d   1       5.719  -4.718  -0.528  0.00  0.00     0.025 A 
ATOM     17  C   UNL d   1       4.519  -5.389  -0.786  0.00  0.00     0.021 A 
ATOM     18  S   UNL d   1       1.822  -5.829  -0.677  0.00  0.00    -0.124 SA
ENDBRANCH   4   6
BRANCH   1  19
ATOM     19  C   UNL d   1      -0.529   2.617  -0.128  0.00  0.00     0.424 C 
ATOM     20  F   UNL d   1       0.315   3.620  -0.480  0.00  0.00    -0.166 F 
ATOM     21  F   UNL d   1      -1.542   2.659  -1.036  0.00  0.00    -0.166 F 
ATOM     22  F   UNL d   1      -1.068   2.970   1.070  0.00  0.00    -0.166 F 
ENDBRANCH   1  19
BRANCH   2  23
ATOM     23  C   UNL d   1       2.627   1.734  -0.043  0.00  0.00    -0.025 A 
ATOM     24  C   UNL d   1       2.685   2.920   0.701  0.00  0.00     0.012 A 
ATOM     25  C   UNL d   1       3.833   3.716   0.687  0.00  0.00     0.001 A 
ATOM     26  C   UNL d   1       4.963   3.314  -0.021  0.00  0.00     0.000 A 
ATOM     27  C   UNL d   1       4.946   2.112  -0.717  0.00  0.00     0.001 A 
ATOM     28  C   UNL d   1       3.784   1.336  -0.737  0.00  0.00     0.012 A 
ENDBRANCH   2  23
TORSDOF 3
