REMARK  3 active torsions:
REMARK  status: ('A' for Active; 'I' for Inactive)
REMARK    1  A    between atoms: C_11  and  C_3 
REMARK    2  A    between atoms: O_20  and  C_4 
REMARK    3  A    between atoms: C_8  and  C_10 
ROOT
ATOM      1  N   UNL d   1       2.423   0.731   0.051  0.00  0.00    -0.322 N 
ATOM      2  HN  UNL d   1       3.308   1.236   0.093  1.00  0.00     0.169 HD
ATOM      3  C   UNL d   1       2.363  -0.609  -0.016  0.00  0.00     0.117 A 
ATOM      4  C   UNL d   1       1.242   1.354   0.060  0.00  0.00     0.150 A 
ATOM      5  N   UNL d   1       1.213  -1.311  -0.052  0.00  0.00    -0.344 N 
ATOM      6  HN  UNL d   1       1.221  -2.330  -0.093  1.00  0.00     0.167 HD
ATOM      7  C   UNL d   1       0.002   0.759   0.000  0.00  0.00     0.025 A 
ATOM      8  C   UNL d   1       0.045  -0.623  -0.031  0.00  0.00     0.022 A 
ATOM      9  S   UNL d   1      -2.756   0.742  -0.465  0.00  0.00    -0.164 SA
ATOM     10  C   UNL d   1      -1.240   1.591   0.053  0.00  0.00     0.118 C 
ATOM     11  C   UNL d   1      -1.195  -1.476  -0.106  0.00  0.00     0.068 C 
ATOM     12  C   UNL d   1      -2.462  -0.813   0.414  0.00  0.00     0.080 C 
ENDROOT
BRANCH   3  13
ATOM     13  C   UNL d   1       3.637  -1.356  -0.047  0.00  0.00     0.008 A 
ATOM     14  C   UNL d   1       4.877  -0.694   0.043  0.00  0.00     0.016 A 
ATOM     15  C   UNL d   1       6.089  -1.394   0.016  0.00  0.00     0.017 A 
ATOM     16  C   UNL d   1       6.103  -2.788  -0.104  0.00  0.00     0.048 A 
ATOM     17  C   UNL d   1       4.880  -3.464  -0.197  0.00  0.00     0.017 A 
ATOM     18  C   UNL d   1       3.670  -2.758  -0.169  0.00  0.00     0.016 A 
BRANCH  16  19
ATOM     19  C   UNL d   1       7.401  -3.557  -0.132  0.00  0.00     0.417 C 
ATOM     20  F   UNL d   1       8.506  -2.765  -0.033  0.00  0.00    -0.166 F 
ATOM     21  F   UNL d   1       7.497  -4.456   0.886  0.00  0.00    -0.166 F 
ATOM     22  F   UNL d   1       7.559  -4.272  -1.280  0.00  0.00    -0.166 F 
ENDBRANCH  16  19
ENDBRANCH   3  13
BRANCH   4  23
ATOM     23  O   UNL d   1       1.360   2.705   0.151  0.00  0.00    -0.346 OA
ATOM     24  H   UNL d   1       2.330   2.798   0.171  0.00  0.00     0.219 HD
ENDBRANCH   4  23
TORSDOF 3
