REMARK  3 active torsions:
REMARK  status: ('A' for Active; 'I' for Inactive)
REMARK    1  A    between atoms: O_14  and  C_6 
REMARK    2  A    between atoms: C_11  and  N_8 
REMARK    3  A    between atoms: C_15  and  C_10 
ROOT
ATOM      1  C   UNL d   1       2.738  -0.499  -2.321  0.00  0.00     0.131 A 
ATOM      2  C   UNL d   1       2.159  -0.515  -1.061  0.00  0.00     0.116 A 
ATOM      3  N   UNL d   1       1.410   1.442  -2.487  0.00  0.00    -0.304 N 
ATOM      4  HN  UNL d   1       0.990   2.267  -2.915  1.00  0.00     0.176 HD
ATOM      5  S   UNL d   1       1.146   0.887  -0.944  0.00  0.00     0.007 SA
ATOM      6  C   UNL d   1       2.267   0.612  -3.055  0.00  0.00     0.170 A 
ATOM      7  C   UNL d   1       3.705  -1.426  -2.806  0.00  0.00     0.107 C 
ATOM      8  N   UNL d   1       2.318  -1.344   0.006  0.00  0.00    -0.348 N 
ATOM      9  N   UNL d   1       4.486  -2.181  -3.219  0.00  0.00    -0.191 NA
ATOM     10  H   UNL d   1       1.917  -1.037   0.892  0.00  0.00     0.166 HD
ENDROOT
BRANCH   6  11
ATOM     11  O   UNL d   1       2.607   0.961  -4.301  0.00  0.00    -0.344 OA
ATOM     12  H   UNL d   1       2.122   1.784  -4.488  0.00  0.00     0.219 HD
ENDBRANCH   6  11
BRANCH   8  13
ATOM     13  C   UNL d   1       2.400  -2.755  -0.015  0.00  0.00     0.033 A 
ATOM     14  C   UNL d   1       3.005  -3.396   1.073  0.00  0.00     0.030 A 
ATOM     15  C   UNL d   1       3.096  -4.789   1.130  0.00  0.00     0.010 A 
ATOM     16  C   UNL d   1       2.575  -5.583   0.101  0.00  0.00    -0.055 A 
ATOM     17  C   UNL d   1       1.991  -4.943  -1.000  0.00  0.00     0.010 A 
ATOM     18  C   UNL d   1       1.904  -3.546  -1.055  0.00  0.00     0.030 A 
BRANCH  16  19
ATOM     19  C   UNL d   1       2.599  -7.099   0.175  0.00  0.00     0.010 C 
ATOM     20  C   UNL d   1       4.025  -7.651   0.228  0.00  0.00     0.015 C 
ATOM     21  C   UNL d   1       1.778  -7.601   1.367  0.00  0.00     0.015 C 
ENDBRANCH  16  19
ENDBRANCH   8  13
TORSDOF 3
