REMARK  4 active torsions:
REMARK  status: ('A' for Active; 'I' for Inactive)
REMARK    1  A    between atoms: C_10  and  C_3 
REMARK    2  A    between atoms: O_14  and  C_5 
REMARK    3  A    between atoms: O_15  and  C_8 
REMARK    4  A    between atoms: O_16  and  C_9 
ROOT
ATOM      1  C   UNL d   1       6.149  -2.290  -0.366  0.00  0.00     0.135 A 
ATOM      2  C   UNL d   1       6.214  -1.266   0.609  0.00  0.00     0.105 A 
ATOM      3  C   UNL d   1       5.069  -2.286  -1.277  0.00  0.00     0.105 A 
ATOM      4  C   UNL d   1       4.115  -0.328  -0.189  0.00  0.00    -0.030 A 
ATOM      5  C   UNL d   1       5.199  -0.296   0.682  0.00  0.00     0.051 A 
ATOM      6  C   UNL d   1       4.062  -1.313  -1.169  0.00  0.00     0.051 A 
ENDROOT
BRANCH   4   7
ATOM      7  C   UNL d   1       3.090   0.708  -0.111  0.00  0.00     0.023 C 
ATOM      8  C   UNL d   1       3.194   1.854  -0.803  0.00  0.00    -0.002 A 
ATOM      9  C   UNL d   1       2.151   2.919  -0.715  0.00  0.00     0.189 A 
ATOM     10  C   UNL d   1       4.263   2.304  -1.765  0.00  0.00     0.082 A 
ATOM     11  C   UNL d   1       2.546   3.970  -1.655  0.00  0.00     0.021 A 
ATOM     12  O   UNL d   1       1.165   2.925  -0.004  0.00  0.00    -0.287 OA
ATOM     13  C   UNL d   1       1.875   5.143  -1.948  0.00  0.00     0.016 A 
ATOM     14  C   UNL d   1       3.745   3.615  -2.274  0.00  0.00    -0.040 A 
ATOM     15  C   UNL d   1       2.436   5.980  -2.912  0.00  0.00     0.001 A 
ATOM     16  C   UNL d   1       3.640   5.631  -3.551  0.00  0.00     0.001 A 
ATOM     17  C   UNL d   1       4.307   4.443  -3.231  0.00  0.00     0.008 A 
ENDBRANCH   4   7
BRANCH   2  18
ATOM     18  O   UNL d   1       7.325  -1.164   1.414  0.00  0.00    -0.353 OA
ATOM     19  C   UNL d   1       7.102  -0.628   2.716  0.00  0.00     0.210 C 
ENDBRANCH   2  18
BRANCH   3  20
ATOM     20  O   UNL d   1       4.842  -3.099  -2.359  0.00  0.00    -0.353 OA
ATOM     21  C   UNL d   1       5.577  -4.299  -2.531  0.00  0.00     0.210 C 
ENDBRANCH   3  20
BRANCH   1  22
ATOM     22  O   UNL d   1       7.069  -3.290  -0.528  0.00  0.00    -0.351 OA
ATOM     23  C   UNL d   1       8.014  -3.587   0.488  0.00  0.00     0.210 C 
ENDBRANCH   1  22
TORSDOF 4
