REMARK  2 active torsions:
REMARK  status: ('A' for Active; 'I' for Inactive)
REMARK    1  A    between atoms: C_4  and  C_1 
REMARK       I    between atoms: C_2  and  N_3 
REMARK    2  A    between atoms: N_3  and  C_4 
ROOT
ATOM      1  C   UNL d   1       0.870  -1.131   0.041  0.00  0.00    -0.023 A 
ATOM      2  C   UNL d   1       1.260  -0.375  -1.077  0.00  0.00     0.018 A 
ATOM      3 BR   UNL d   1       0.927  -0.943  -2.859  0.00  0.00    -0.051 Br
ATOM      4  C   UNL d   1       1.120  -0.602   1.321  0.00  0.00     0.010 A 
ATOM      5  C   UNL d   1       1.912   0.854  -0.913  0.00  0.00     0.019 A 
ATOM      6  C   UNL d   1       1.767   0.625   1.482  0.00  0.00     0.001 A 
ATOM      7  C   UNL d   1       2.170   1.349   0.364  0.00  0.00     0.001 A 
ENDROOT
BRANCH   1   8
ATOM      8  C   UNL d   1       0.177  -2.465  -0.057  0.00  0.00     0.162 C 
BRANCH   8   9
ATOM      9  N   UNL d   1      -1.260  -2.322  -0.035  0.00  0.00    -0.357 N 
ATOM     10  C   UNL d   1      -2.070  -3.432  -0.054  0.00  0.00     0.213 C 
ATOM     11  O   UNL d   1      -1.642  -4.581  -0.045  0.00  0.00    -0.274 OA
ATOM     12  C   UNL d   1      -3.544  -3.130  -0.074  0.00  0.00     0.117 C 
ATOM     13  H   UNL d   1      -1.660  -1.399  -0.131  0.00  0.00     0.162 HD
ENDBRANCH   8   9
ENDBRANCH   1   8
TORSDOF 2
