REMARK  8 active torsions:
REMARK  status: ('A' for Active; 'I' for Inactive)
REMARK    1  A    between atoms: C_12  and  N_5 
REMARK    2  A    between atoms: O_13  and  C_8 
REMARK    3  A    between atoms: C_11  and  C_12 
REMARK    4  A    between atoms: C_20  and  O_13 
REMARK    5  A    between atoms: O_28  and  C_23 
REMARK    6  A    between atoms: C_32  and  O_28 
REMARK    7  A    between atoms: C_33  and  C_32 
REMARK    8  A    between atoms: C_34  and  C_33 
ROOT
ATOM      1  C   UNL d   1      -0.169  -0.828  -0.114  0.00  0.00     0.147 A 
ATOM      2  C   UNL d   1      -0.466   0.504  -0.147  0.00  0.00     0.151 A 
ATOM      3  N   UNL d   1      -1.278  -1.595  -0.029  0.00  0.00    -0.305 N 
ATOM      4  HN  UNL d   1      -1.334  -2.613  -0.029  1.00  0.00     0.171 HD
ATOM      5  N   UNL d   1      -1.842   0.567  -0.132  0.00  0.00    -0.300 N 
ATOM      6  N   UNL d   1       1.120  -1.298  -0.099  0.00  0.00    -0.287 N 
ATOM      7  N   UNL d   1       1.851   0.973  -0.097  0.00  0.00    -0.269 N 
ATOM      8  C   UNL d   1      -2.272  -0.734   0.053  0.00  0.00     0.233 C 
ATOM      9  C   UNL d   1       2.180  -0.393  -0.079  0.00  0.00     0.332 A 
ATOM     10  C   UNL d   1       0.552   1.498  -0.136  0.00  0.00     0.282 A 
ATOM     11  O   UNL d   1       3.350  -0.782  -0.036  0.00  0.00    -0.246 OA
ATOM     12  O   UNL d   1       0.316   2.701  -0.133  0.00  0.00    -0.265 OA
ATOM     13  C   UNL d   1       1.414  -2.717  -0.047  0.00  0.00     0.163 C 
ATOM     14  C   UNL d   1       2.930   1.939  -0.030  0.00  0.00     0.164 C 
ENDROOT
BRANCH   8  15
ATOM     15  O   UNL d   1      -3.544  -1.047   0.299  0.00  0.00    -0.279 OA
BRANCH  15  16
ATOM     16  C   UNL d   1      -3.882  -2.338   0.622  0.00  0.00     0.079 A 
ATOM     17  C   UNL d   1      -3.269  -3.028   1.668  0.00  0.00     0.040 A 
ATOM     18  C   UNL d   1      -3.671  -4.330   1.970  0.00  0.00     0.039 A 
ATOM     19  C   UNL d   1      -4.696  -4.943   1.244  0.00  0.00     0.068 A 
ATOM     20  C   UNL d   1      -5.315  -4.238   0.207  0.00  0.00     0.039 A 
ATOM     21  C   UNL d   1      -4.914  -2.934  -0.097  0.00  0.00     0.040 A 
BRANCH  19  22
ATOM     22  O   UNL d   1      -4.998  -6.220   1.637  0.00  0.00    -0.351 OA
BRANCH  22  23
ATOM     23  C   UNL d   1      -6.054  -6.860   0.924  0.00  0.00     0.175 C 
BRANCH  23  24
ATOM     24  C   UNL d   1      -6.279  -8.253   1.504  0.00  0.00     0.026 C 
BRANCH  24  25
ATOM     25  C   UNL d   1      -7.410  -8.961   0.761  0.00  0.00    -0.002 C 
ATOM     26  C   UNL d   1      -7.669 -10.354   1.307  0.00  0.00     0.005 C 
ENDBRANCH  24  25
ENDBRANCH  23  24
ENDBRANCH  22  23
ENDBRANCH  19  22
ENDBRANCH  15  16
ENDBRANCH   8  15
BRANCH   5  27
ATOM     27  C   UNL d   1      -2.697   1.755  -0.064  0.00  0.00     0.175 C 
BRANCH  27  28
ATOM     28  C   UNL d   1      -2.939   2.443  -1.396  0.00  0.00     0.004 A 
ATOM     29  C   UNL d   1      -3.662   1.831  -2.443  0.00  0.00     0.043 A 
ATOM     30 CL   UNL d   1      -4.464   0.313  -2.274  0.00  0.00    -0.084 Cl
ATOM     31  C   UNL d   1      -3.855   2.465  -3.680  0.00  0.00     0.024 A 
ATOM     32  C   UNL d   1      -3.353   3.738  -3.905  0.00  0.00     0.003 A 
ATOM     33  C   UNL d   1      -2.702   4.396  -2.871  0.00  0.00     0.024 A 
ATOM     34  C   UNL d   1      -2.522   3.773  -1.626  0.00  0.00     0.043 A 
ATOM     35 CL   UNL d   1      -1.878   4.786  -0.378  0.00  0.00    -0.084 Cl
ENDBRANCH  27  28
ENDBRANCH   5  27
TORSDOF 8
