REMARK  5 active torsions:
REMARK  status: ('A' for Active; 'I' for Inactive)
REMARK    1  A    between atoms: C_5  and  N_1 
REMARK    2  A    between atoms: N_2  and  O_6 
REMARK    3  A    between atoms: C_4  and  C_10 
REMARK    4  A    between atoms: O_6  and  C_4 
REMARK    5  A    between atoms: C_11  and  C_8 
ROOT
ATOM      1  O   UNL d   1      -2.620  -0.094  -3.365  0.00  0.00    -0.195 OA
ENDROOT
BRANCH   1   2
ATOM      2  N   UNL d   1      -3.211  -0.765  -4.452  0.00  0.00    -0.261 N 
ATOM      3  C   UNL d   1      -4.211  -0.142  -5.000  0.00  0.00     0.039 C 
ATOM      4  C   UNL d   1      -4.740   1.197  -4.534  0.00  0.00     0.071 C 
ATOM      5  HN  UNL d   1      -2.879  -1.671  -4.784  1.00  0.00     0.194 HD
BRANCH   3   6
ATOM      6  C   UNL d   1      -4.877  -0.797  -6.181  0.00  0.00    -0.012 A 
ATOM      7  C   UNL d   1      -4.446  -2.077  -6.578  0.00  0.00     0.016 A 
ATOM      8  C   UNL d   1      -5.024  -2.715  -7.678  0.00  0.00     0.043 A 
ATOM      9  C   UNL d   1      -6.032  -2.077  -8.386  0.00  0.00     0.116 A 
ATOM     10  C   UNL d   1      -6.475  -0.813  -8.011  0.00  0.00     0.043 A 
ATOM     11  F   UNL d   1      -6.584  -2.683  -9.444  0.00  0.00    -0.206 F 
ATOM     12  C   UNL d   1      -5.900  -0.171  -6.908  0.00  0.00     0.016 A 
ENDBRANCH   3   6
ENDBRANCH   1   2
BRANCH   1  13
ATOM     13  C   UNL d   1      -1.614  -0.878  -2.866  0.00  0.00     0.315 C 
ATOM     14  O   UNL d   1      -1.283  -1.991  -3.252  0.00  0.00    -0.257 OA
BRANCH  13  15
ATOM     15  C   UNL d   1      -0.907  -0.212  -1.733  0.00  0.00     0.041 A 
ATOM     16  C   UNL d   1       0.137  -0.926  -1.116  0.00  0.00     0.020 A 
ATOM     17  C   UNL d   1       0.855  -0.373  -0.051  0.00  0.00     0.037 A 
ATOM     18  C   UNL d   1       0.529   0.908   0.403  0.00  0.00     0.102 A 
ATOM     19  C   UNL d   1      -0.509   1.634  -0.202  0.00  0.00     0.037 A 
ATOM     20  C   UNL d   1      -1.226   1.072  -1.270  0.00  0.00     0.020 A 
BRANCH  18  21
ATOM     21  N   UNL d   1       1.280   1.495   1.522  0.00  0.00    -0.116 N 
ATOM     22  O   UNL d   1       0.965   2.636   1.889  0.00  0.00    -0.532 OA
ATOM     23  O   UNL d   1       2.182   0.815   2.031  0.00  0.00    -0.532 OA
ENDBRANCH  18  21
ENDBRANCH  13  15
ENDBRANCH   1  13
TORSDOF 5
