REMARK  3 active torsions:
REMARK  status: ('A' for Active; 'I' for Inactive)
REMARK    1  A    between atoms: C_9  and  N_1 
REMARK    2  A    between atoms: C_7  and  C_2 
REMARK    3  A    between atoms: C_10  and  C_7 
ROOT
ATOM      1  N   UNL d   1       0.851  -0.715   0.157  0.00  0.00    -0.306 N 
ATOM      2  C   UNL d   1       0.928   0.646   0.109  0.00  0.00     0.105 A 
ATOM      3  C   UNL d   1      -0.484  -0.965   0.377  0.00  0.00     0.194 A 
ATOM      4  N   UNL d   1      -0.203   1.268   0.292  0.00  0.00    -0.286 N 
ATOM      5  HN  UNL d   1      -0.372   2.274   0.301  1.00  0.00     0.188 HD
ATOM      6  N   UNL d   1      -1.102   0.272   0.469  0.00  0.00    -0.275 N 
ATOM      7  S   UNL d   1      -1.353  -2.363   0.523  0.00  0.00    -0.039 SA
ATOM      8  H   UNL d   1      -2.089   0.446   0.609  0.00  0.00     0.189 HD
ENDROOT
BRANCH   2   9
ATOM      9  C   UNL d   1       2.200   1.419  -0.151  0.00  0.00     0.116 C 
BRANCH   9  10
ATOM     10  C   UNL d   1       3.187   1.386   0.994  0.00  0.00    -0.051 A 
ATOM     11  C   UNL d   1       4.532   1.066   0.753  0.00  0.00     0.007 A 
ATOM     12  C   UNL d   1       5.450   1.020   1.801  0.00  0.00     0.001 A 
ATOM     13  C   UNL d   1       5.038   1.314   3.099  0.00  0.00     0.000 A 
ATOM     14  C   UNL d   1       3.712   1.659   3.347  0.00  0.00     0.001 A 
ATOM     15  C   UNL d   1       2.791   1.701   2.300  0.00  0.00     0.007 A 
ENDBRANCH   9  10
ENDBRANCH   2   9
BRANCH   1  16
ATOM     16  C   UNL d   1       1.977  -1.651  -0.072  0.00  0.00     0.093 C 
ATOM     17  C   UNL d   1       1.969  -2.287  -1.471  0.00  0.00     0.026 C 
ATOM     18  C   UNL d   1       1.491  -3.729  -1.537  0.00  0.00     0.002 C 
ATOM     19  C   UNL d   1       2.152  -4.591  -0.472  0.00  0.00     0.000 C 
ATOM     20  C   UNL d   1       1.870  -4.060   0.925  0.00  0.00     0.002 C 
ATOM     21  C   UNL d   1       2.283  -2.602   1.100  0.00  0.00     0.026 C 
ENDBRANCH   1  16
TORSDOF 3
