REMARK  2 active torsions:
REMARK  status: ('A' for Active; 'I' for Inactive)
REMARK    1  A    between atoms: C_7  and  C_1 
REMARK       I    between atoms: N_10  and  C_7 
REMARK    2  A    between atoms: N_13  and  N_10 
REMARK       I    between atoms: C_14  and  N_13 
ROOT
ATOM      1  C   UNL d   1       1.617   1.076  -0.048  0.00  0.00     0.132 A 
ATOM      2  N   UNL d   1       0.283   0.668  -0.051  0.00  0.00    -0.302 N 
ATOM      3  C   UNL d   1       0.279  -0.723  -0.067  0.00  0.00     0.113 A 
ATOM      4  N   UNL d   1       1.496  -1.208  -0.098  0.00  0.00    -0.344 N 
ATOM      5  HN  UNL d   1       1.766  -2.191  -0.127  1.00  0.00     0.167 HD
ATOM      6  C   UNL d   1       2.336  -0.119  -0.084  0.00  0.00     0.040 A 
ATOM      7  C   UNL d   1      -0.905   1.409  -0.039  0.00  0.00     0.099 A 
ATOM      8  C   UNL d   1      -0.980  -1.388  -0.045  0.00  0.00     0.056 A 
ATOM      9  C   UNL d   1      -2.092   0.779  -0.025  0.00  0.00     0.024 A 
ATOM     10  C   UNL d   1      -2.130  -0.679  -0.023  0.00  0.00    -0.057 A 
ATOM     11  C   UNL d   1       3.797  -0.385  -0.081  0.00  0.00     0.071 C 
ATOM     12  C   UNL d   1      -3.471  -1.349   0.009  0.00  0.00     0.048 C 
ENDROOT
BRANCH   1  13
ATOM     13  C   UNL d   1       2.029   2.462   0.017  0.00  0.00     0.289 C 
ATOM     14  N   UNL d   1       3.379   2.744  -0.075  0.00  0.00    -0.262 N 
ATOM     15  H   UNL d   1       4.104   2.082  -0.328  0.00  0.00     0.190 HD
ATOM     16  O   UNL d   1       1.243   3.404   0.155  0.00  0.00    -0.264 OA
BRANCH  14  17
ATOM     17  N   UNL d   1       3.761   4.095  -0.015  0.00  0.00    -0.268 N 
ATOM     18  C   UNL d   1       4.976   4.464  -0.544  0.00  0.00     0.232 C 
ATOM     19  O   UNL d   1       5.805   3.653  -0.953  0.00  0.00    -0.272 OA
ATOM     20  C   UNL d   1       5.200   5.952  -0.574  0.00  0.00     0.119 C 
ATOM     21  H   UNL d   1       2.995   4.758   0.105  0.00  0.00     0.190 HD
ENDBRANCH  14  17
ENDBRANCH   1  13
TORSDOF 2
