REMARK  3 active torsions:
REMARK  status: ('A' for Active; 'I' for Inactive)
REMARK    1  A    between atoms: C_7  and  N_1 
REMARK    2  A    between atoms: C_8  and  C_2 
REMARK    3  A    between atoms: O_21  and  C_15 
ROOT
ATOM      1  N   UNL d   1       0.953  -0.721   0.019  0.00  0.00    -0.271 N 
ATOM      2  C   UNL d   1       0.918   0.662  -0.020  0.00  0.00     0.139 A 
ATOM      3  N   UNL d   1      -0.287   1.167   0.004  0.00  0.00    -0.282 N 
ATOM      4  HN  UNL d   1      -0.548   2.153   0.005  1.00  0.00     0.188 HD
ATOM      5  C   UNL d   1      -0.386  -1.091   0.052  0.00  0.00     0.199 A 
ATOM      6  N   UNL d   1      -1.114   0.093   0.027  0.00  0.00    -0.274 N 
ATOM      7  S   UNL d   1      -1.158  -2.555   0.202  0.00  0.00    -0.039 SA
ATOM      8  H   UNL d   1      -2.119   0.182   0.087  0.00  0.00     0.189 HD
ENDROOT
BRANCH   1   9
ATOM      9  C   UNL d   1       2.081  -1.584   0.107  0.00  0.00     0.043 A 
ATOM     10  C   UNL d   1       3.222  -1.223   0.840  0.00  0.00     0.033 A 
ATOM     11  C   UNL d   1       4.380  -2.015   0.830  0.00  0.00     0.039 A 
ATOM     12  C   UNL d   1       4.401  -3.211   0.120  0.00  0.00     0.068 A 
ATOM     13  C   UNL d   1       3.250  -3.623  -0.544  0.00  0.00     0.039 A 
ATOM     14  C   UNL d   1       2.109  -2.812  -0.566  0.00  0.00     0.033 A 
BRANCH  12  15
ATOM     15  O   UNL d   1       5.463  -4.067   0.047  0.00  0.00    -0.356 OA
ATOM     16  C   UNL d   1       6.747  -3.453   0.080  0.00  0.00     0.210 C 
ENDBRANCH  12  15
ENDBRANCH   1   9
BRANCH   2  17
ATOM     17  C   UNL d   1       2.091   1.555  -0.126  0.00  0.00     0.010 A 
ATOM     18  C   UNL d   1       3.195   1.256  -0.935  0.00  0.00     0.017 A 
ATOM     19  C   UNL d   1       4.304   2.108  -0.954  0.00  0.00     0.025 A 
ATOM     20  C   UNL d   1       4.285   3.290  -0.215  0.00  0.00     0.034 A 
ATOM     21  C   UNL d   1       3.162   3.635   0.534  0.00  0.00     0.025 A 
ATOM     22 CL   UNL d   1       5.655   4.329  -0.232  0.00  0.00    -0.084 Cl
ATOM     23  C   UNL d   1       2.066   2.769   0.578  0.00  0.00     0.017 A 
ENDBRANCH   2  17
TORSDOF 3
