REMARK  4 active torsions:
REMARK  status: ('A' for Active; 'I' for Inactive)
REMARK    1  A    between atoms: C_3  and  C_1 
REMARK    2  A    between atoms: C_11  and  C_2 
REMARK    3  A    between atoms: C_8  and  C_3 
REMARK    4  A    between atoms: C_21  and  C_16 
ROOT
ATOM      1  C   UNL d   1      -2.374  -0.756  -0.121  0.00  0.00     0.042 A 
ATOM      2  C   UNL d   1      -1.154  -1.462  -0.062  0.00  0.00     0.002 A 
ATOM      3  C   UNL d   1      -2.346   0.631  -0.129  0.00  0.00     0.104 A 
ATOM      4  N   UNL d   1      -1.223   1.371  -0.046  0.00  0.00    -0.364 N 
ATOM      5  HN  UNL d   1      -1.263   2.390  -0.049  1.00  0.00     0.165 HD
ATOM      6  C   UNL d   1       0.054  -0.688   0.068  0.00  0.00     0.003 A 
ATOM      7  C   UNL d   1      -0.054   0.726   0.041  0.00  0.00     0.043 A 
ATOM      8  C   UNL d   1       1.357  -1.233   0.221  0.00  0.00     0.014 A 
ATOM      9  C   UNL d   1       1.095   1.504   0.097  0.00  0.00     0.030 A 
ATOM     10  C   UNL d   1       2.499  -0.431   0.270  0.00  0.00     0.001 A 
ATOM     11  C   UNL d   1       2.367   0.945   0.195  0.00  0.00     0.002 A 
ENDROOT
BRANCH   1  12
ATOM     12  C   UNL d   1      -3.701  -1.390  -0.284  0.00  0.00     0.194 C 
ATOM     13  O   UNL d   1      -3.875  -2.159  -1.225  0.00  0.00    -0.287 OA
BRANCH  12  14
ATOM     14  C   UNL d   1      -4.845  -1.051   0.620  0.00  0.00     0.015 A 
ATOM     15  C   UNL d   1      -4.676  -0.448   1.872  0.00  0.00     0.016 A 
ATOM     16  C   UNL d   1      -5.792  -0.132   2.659  0.00  0.00     0.008 A 
ATOM     17  C   UNL d   1      -7.088  -0.424   2.213  0.00  0.00    -0.059 A 
ATOM     18  C   UNL d   1      -7.251  -1.050   0.972  0.00  0.00     0.008 A 
ATOM     19  C   UNL d   1      -6.140  -1.360   0.183  0.00  0.00     0.016 A 
BRANCH  17  20
ATOM     20  C   UNL d   1      -8.288  -0.108   3.071  0.00  0.00     0.034 C 
ATOM     21  C   UNL d   1      -8.604  -1.237   4.040  0.00  0.00     0.010 C 
ENDBRANCH  17  20
ENDBRANCH  12  14
ENDBRANCH   1  12
BRANCH   2  22
ATOM     22  C   UNL d   1      -1.098  -2.948  -0.170  0.00  0.00    -0.024 A 
ATOM     23  C   UNL d   1      -0.299  -3.565  -1.155  0.00  0.00     0.012 A 
ATOM     24  C   UNL d   1      -0.183  -4.955  -1.241  0.00  0.00     0.001 A 
ATOM     25  C   UNL d   1      -0.907  -5.765  -0.374  0.00  0.00     0.000 A 
ATOM     26  C   UNL d   1      -1.739  -5.183   0.580  0.00  0.00     0.001 A 
ATOM     27  C   UNL d   1      -1.822  -3.789   0.691  0.00  0.00     0.012 A 
ENDBRANCH   2  22
TORSDOF 4
