REMARK  3 active torsions:
REMARK  status: ('A' for Active; 'I' for Inactive)
REMARK    1  A    between atoms: N_6  and  C_1 
REMARK       I    between atoms: C_8  and  N_6 
REMARK    2  A    between atoms: C_14  and  C_7 
REMARK       I    between atoms: N_9  and  C_8 
REMARK    3  A    between atoms: C_12  and  N_9 
ROOT
ATOM      1  N   UNL d   1      -0.341  -2.246  -0.156  0.00  0.00    -0.293 N 
ATOM      2  C   UNL d   1      -0.222  -3.174  -1.232  0.00  0.00     0.326 C 
ATOM      3  N   UNL d   1       0.810  -3.001  -2.112  0.00  0.00    -0.309 N 
ATOM      4  O   UNL d   1      -1.113  -3.996  -1.271  0.00  0.00    -0.247 OA
ATOM      5  H   UNL d   1      -1.210  -2.416   0.342  0.00  0.00     0.172 HD
ATOM      6  H   UNL d   1       1.495  -2.305  -1.903  0.00  0.00     0.170 HD
ENDROOT
BRANCH   1   7
ATOM      7  C   UNL d   1       0.399  -1.135   0.224  0.00  0.00     0.127 C 
ATOM      8  C   UNL d   1       1.682  -0.755  -0.102  0.00  0.00     0.082 C 
ATOM      9  C   UNL d   1       1.857   0.551   0.436  0.00  0.00     0.062 C 
ATOM     10  N   UNL d   1       0.799   0.893   1.177  0.00  0.00    -0.296 N 
ATOM     11  N   UNL d   1      -0.045  -0.141   1.074  0.00  0.00    -0.281 N 
ATOM     12  HN  UNL d   1       0.663   1.754   1.707  1.00  0.00     0.187 HD
ATOM     13  C   UNL d   1      -1.313  -0.045   1.758  0.00  0.00     0.179 C 
BRANCH   9  14
ATOM     14  C   UNL d   1       2.960   1.484   0.211  0.00  0.00    -0.008 A 
ATOM     15  C   UNL d   1       2.717   2.865   0.282  0.00  0.00     0.014 A 
ATOM     16  C   UNL d   1       3.730   3.783   0.007  0.00  0.00     0.001 A 
ATOM     17  C   UNL d   1       4.999   3.329  -0.337  0.00  0.00     0.000 A 
ATOM     18  C   UNL d   1       5.258   1.961  -0.402  0.00  0.00     0.001 A 
ATOM     19  C   UNL d   1       4.243   1.038  -0.130  0.00  0.00     0.014 A 
ENDBRANCH   9  14
ENDBRANCH   1   7
BRANCH   3  20
ATOM     20  C   UNL d   1       0.901  -3.520  -3.425  0.00  0.00     0.038 C 
ATOM     21  C   UNL d   1      -0.117  -4.241  -4.046  0.00  0.00     0.054 C 
ATOM     22  C   UNL d   1      -0.100  -4.421  -5.436  0.00  0.00     0.042 C 
ATOM     23 CL   UNL d   1      -1.468  -5.188  -6.163  0.00  0.00    -0.084 Cl
ATOM     24  C   UNL d   1       0.956  -3.924  -6.213  0.00  0.00    -0.040 C 
ATOM     25  C   UNL d   1       2.055  -3.358  -5.556  0.00  0.00     0.011 C 
ATOM     26  C   UNL d   1       0.882  -3.868  -7.714  0.00  0.00     0.050 C 
ATOM     27  C   UNL d   1       2.026  -3.155  -4.175  0.00  0.00     0.030 C 
ENDBRANCH   3  20
TORSDOF 3
