REMARK  3 active torsions:
REMARK  status: ('A' for Active; 'I' for Inactive)
REMARK       I    between atoms: N_2  and  C_1 
REMARK    1  A    between atoms: C_4  and  C_1 
REMARK    2  A    between atoms: C_3  and  C_7 
REMARK    3  A    between atoms: C_10  and  C_3 
ROOT
ATOM      1  C   UNL d   1      -0.986  -0.147   1.085  0.00  0.00     0.249 C 
ATOM      2  N   UNL d   1      -1.788   0.075  -0.022  0.00  0.00    -0.348 N 
ATOM      3  C   UNL d   1      -1.641  -0.444  -1.376  0.00  0.00     0.127 C 
ATOM      4  C   UNL d   1      -2.964   0.932   0.132  0.00  0.00     0.127 C 
ATOM      5  C   UNL d   1      -2.531   1.774  -2.257  0.00  0.00     0.064 C 
ATOM      6  O   UNL d   1      -1.277   0.327   2.187  0.00  0.00    -0.268 OA
ATOM      7  C   UNL d   1      -1.411   0.722  -2.339  0.00  0.00     0.032 C 
ATOM      8  C   UNL d   1      -2.865   2.143  -0.797  0.00  0.00     0.032 C 
ENDROOT
BRANCH   5   9
ATOM      9  C   UNL d   1      -3.780   1.302  -3.003  0.00  0.00     0.163 C 
ATOM     10  O   UNL d   1      -4.664   0.663  -2.439  0.00  0.00    -0.292 OA
BRANCH   9  11
ATOM     11  C   UNL d   1      -3.937   1.612  -4.458  0.00  0.00     0.010 A 
ATOM     12  C   UNL d   1      -2.868   1.988  -5.279  0.00  0.00     0.015 A 
ATOM     13  C   UNL d   1      -3.081   2.245  -6.637  0.00  0.00     0.001 A 
ATOM     14  C   UNL d   1      -4.361   2.137  -7.179  0.00  0.00     0.000 A 
ATOM     15  C   UNL d   1      -5.431   1.768  -6.368  0.00  0.00     0.001 A 
ATOM     16  C   UNL d   1      -5.220   1.502  -5.014  0.00  0.00     0.015 A 
ENDBRANCH   9  11
ENDBRANCH   5   9
BRANCH   1  17
ATOM     17  C   UNL d   1       0.285  -0.952   0.984  0.00  0.00     0.002 C 
ATOM     18  C   UNL d   1       0.609  -1.650   2.095  0.00  0.00    -0.019 C 
ATOM     19  C   UNL d   1       1.862  -2.429   2.341  0.00  0.00     0.036 C 
ATOM     20  C   UNL d   1       1.223  -0.802  -0.171  0.00  0.00     0.054 C 
ENDBRANCH   1  17
TORSDOF 3
