REMARK  5 active torsions:
REMARK  status: ('A' for Active; 'I' for Inactive)
REMARK    1  A    between atoms: C_5  and  N_2 
REMARK    2  A    between atoms: C_7  and  C_3 
REMARK    3  A    between atoms: O_14  and  C_6 
REMARK    4  A    between atoms: O_15  and  C_7 
REMARK    5  A    between atoms: C_22  and  O_15 
ROOT
ATOM      1  C   UNL d   1      -0.702  -1.052  -0.317  0.00  0.00     0.102 C 
ATOM      2  N   UNL d   1       0.726  -1.029  -0.299  0.00  0.00    -0.301 N 
ATOM      3  C   UNL d   1      -1.525  -2.042  -0.763  0.00  0.00     0.153 C 
ATOM      4  S   UNL d   1      -1.388   0.491   0.246  0.00  0.00    -0.105 SA
ATOM      5  C   UNL d   1       1.280   0.341  -0.007  0.00  0.00     0.144 C 
ATOM      6  C   UNL d   1      -0.993  -3.276  -1.232  0.00  0.00     0.108 C 
ATOM      7  N   UNL d   1      -0.559  -4.291  -1.604  0.00  0.00    -0.191 NA
ATOM      8  C   UNL d   1       0.131   1.362  -0.202  0.00  0.00     0.141 C 
ATOM      9  C   UNL d   1       2.410   0.778  -0.943  0.00  0.00     0.072 C 
ENDROOT
BRANCH   3  10
ATOM     10  C   UNL d   1      -3.011  -1.904  -0.896  0.00  0.00     0.306 C 
ATOM     11  O   UNL d   1      -3.625  -0.861  -1.055  0.00  0.00    -0.258 OA
BRANCH  10  12
ATOM     12  O   UNL d   1      -3.600  -3.134  -0.906  0.00  0.00    -0.317 OA
BRANCH  12  13
ATOM     13  C   UNL d   1      -5.023  -3.147  -1.119  0.00  0.00     0.174 C 
ATOM     14  C   UNL d   1      -5.362  -2.965  -2.589  0.00  0.00     0.034 C 
ENDBRANCH  12  13
ENDBRANCH  10  12
ENDBRANCH   3  10
BRANCH   2  15
ATOM     15  C   UNL d   1       1.530  -2.134   0.126  0.00  0.00     0.116 A 
ATOM     16  C   UNL d   1       2.798  -2.390  -0.429  0.00  0.00     0.146 A 
ATOM     17  F   UNL d   1       3.260  -1.651  -1.446  0.00  0.00    -0.204 F 
ATOM     18  C   UNL d   1       3.616  -3.440  -0.001  0.00  0.00     0.045 A 
ATOM     19  C   UNL d   1       3.162  -4.324   0.968  0.00  0.00     0.006 A 
ATOM     20  C   UNL d   1       1.896  -4.137   1.514  0.00  0.00     0.045 A 
ATOM     21  C   UNL d   1       1.110  -3.051   1.113  0.00  0.00     0.146 A 
ATOM     22  F   UNL d   1      -0.085  -2.909   1.706  0.00  0.00    -0.204 F 
ENDBRANCH   2  15
BRANCH   5  23
ATOM     23  O   UNL d   1       1.730   0.443   1.343  0.00  0.00    -0.370 OA
ATOM     24  H   UNL d   1       2.442  -0.205   1.452  0.00  0.00     0.212 HD
ENDBRANCH   5  23
TORSDOF 5
