REMARK  3 active torsions:
REMARK  status: ('A' for Active; 'I' for Inactive)
REMARK    1  A    between atoms: C_3  and  C_1 
REMARK       I    between atoms: N_11  and  C_3 
REMARK    2  A    between atoms: N_10  and  C_12 
REMARK    3  A    between atoms: C_17  and  N_11 
ROOT
ATOM      1  C   UNL d   1      -1.403  -3.074   0.592  0.00  0.00     0.258 C 
ATOM      2  N   UNL d   1      -0.203  -3.605   0.155  0.00  0.00    -0.323 N 
ATOM      3  O   UNL d   1      -1.536  -2.032   1.233  0.00  0.00    -0.267 OA
ATOM      4  H   UNL d   1      -0.248  -4.447  -0.415  0.00  0.00     0.169 HD
ENDROOT
BRANCH   2   5
ATOM      5  C   UNL d   1       1.070  -2.996   0.287  0.00  0.00     0.037 A 
ATOM      6  C   UNL d   1       1.322  -1.907   1.137  0.00  0.00     0.058 A 
ATOM      7  C   UNL d   1       2.558  -1.243   1.166  0.00  0.00     0.032 A 
ATOM      8  C   UNL d   1       3.558  -1.731   0.313  0.00  0.00     0.029 A 
ATOM      9  C   UNL d   1       3.348  -2.849  -0.499  0.00  0.00     0.004 A 
ATOM     10  C   UNL d   1       2.109  -3.489  -0.503  0.00  0.00     0.029 A 
BRANCH   7  11
ATOM     11  N   UNL d   1       2.816  -0.173   2.006  0.00  0.00    -0.377 N 
ATOM     12  C   UNL d   1       2.127   0.006   3.296  0.00  0.00     0.149 C 
ATOM     13  C   UNL d   1       1.164   1.200   3.254  0.00  0.00     0.187 C 
ATOM     14  O   UNL d   1       1.837   2.398   2.830  0.00  0.00    -0.388 OA
ATOM     15  C   UNL d   1       2.368   2.216   1.507  0.00  0.00     0.187 C 
ATOM     16  C   UNL d   1       3.391   1.066   1.450  0.00  0.00     0.149 C 
ENDBRANCH   7  11
ENDBRANCH   2   5
BRANCH   1  17
ATOM     17  C   UNL d   1      -2.650  -3.771   0.209  0.00  0.00     0.061 A 
ATOM     18  C   UNL d   1      -2.716  -5.041  -0.418  0.00  0.00     0.082 A 
ATOM     19  N   UNL d   1      -1.691  -5.843  -0.767  0.00  0.00    -0.310 N 
ATOM     20  C   UNL d   1      -4.064  -5.636  -0.780  0.00  0.00     0.068 A 
ATOM     21  S   UNL d   1      -2.359  -7.210  -1.438  0.00  0.00     0.068 SA
ATOM     22  HN  UNL d   1      -0.697  -5.649  -0.644  1.00  0.00     0.176 HD
ATOM     23  N   UNL d   1      -3.973  -6.842  -1.358  0.00  0.00    -0.310 N 
ATOM     24  HN  UNL d   1      -4.747  -7.421  -1.685  1.00  0.00     0.176 HD
ATOM     25  C   UNL d   1      -5.271  -4.945  -0.514  0.00  0.00     0.032 A 
ATOM     26  C   UNL d   1      -5.147  -3.696   0.109  0.00  0.00     0.003 A 
ATOM     27  C   UNL d   1      -3.897  -3.140   0.457  0.00  0.00     0.019 A 
ENDBRANCH   1  17
TORSDOF 3
