REMARK  6 active torsions:
REMARK  status: ('A' for Active; 'I' for Inactive)
REMARK    1  A    between atoms: C_4  and  C_1 
REMARK    2  A    between atoms: C_2  and  C_3 
REMARK       I    between atoms: N_7  and  C_4 
REMARK    3  A    between atoms: S_19  and  C_5 
REMARK    4  A    between atoms: C_12  and  N_7 
REMARK    5  A    between atoms: C_8  and  C_12 
REMARK    6  A    between atoms: C_25  and  S_19 
ROOT
ATOM      1  C   UNL d   1       0.743   1.433  -0.399  0.00  0.00     0.080 A 
ATOM      2  C   UNL d   1       1.403   0.199  -0.243  0.00  0.00     0.067 A 
ATOM      3  C   UNL d   1      -0.641   1.434  -0.623  0.00  0.00     0.086 A 
ATOM      4  N   UNL d   1      -1.362   0.281  -0.612  0.00  0.00    -0.360 N 
ATOM      5  HN  UNL d   1      -2.373   0.301  -0.747  1.00  0.00     0.166 HD
ATOM      6  C   UNL d   1      -0.720  -0.887  -0.419  0.00  0.00     0.089 A 
ATOM      7  C   UNL d   1       0.642  -0.978  -0.240  0.00  0.00     0.034 A 
ENDROOT
BRANCH   1   8
ATOM      8  C   UNL d   1       1.508   2.700  -0.301  0.00  0.00     0.255 C 
ATOM      9  N   UNL d   1       2.165   2.887   0.898  0.00  0.00    -0.352 N 
ATOM     10  H   UNL d   1       2.178   2.160   1.602  0.00  0.00     0.163 HD
ATOM     11  O   UNL d   1       1.564   3.476  -1.241  0.00  0.00    -0.268 OA
BRANCH   9  12
ATOM     12  C   UNL d   1       3.038   4.023   1.105  0.00  0.00     0.163 C 
BRANCH  12  13
ATOM     13  C   UNL d   1       3.490   4.073   2.544  0.00  0.00    -0.019 A 
ATOM     14  C   UNL d   1       4.691   3.497   2.993  0.00  0.00     0.043 A 
ATOM     15  C   UNL d   1       5.024   3.505   4.351  0.00  0.00     0.048 A 
ATOM     16 CL   UNL d   1       5.796   2.728   1.910  0.00  0.00    -0.084 Cl
ATOM     17  C   UNL d   1       4.155   4.083   5.273  0.00  0.00     0.035 A 
ATOM     18  C   UNL d   1       2.962   4.658   4.852  0.00  0.00     0.024 A 
ATOM     19 CL   UNL d   1       4.553   4.068   6.947  0.00  0.00    -0.084 Cl
ATOM     20  C   UNL d   1       2.630   4.652   3.496  0.00  0.00     0.012 A 
ENDBRANCH  12  13
ENDBRANCH   9  12
ENDBRANCH   1   8
BRANCH   2  21
ATOM     21  C   UNL d   1       2.894   0.108  -0.062  0.00  0.00     0.418 C 
ATOM     22  F   UNL d   1       3.602   0.927  -0.879  0.00  0.00    -0.166 F 
ATOM     23  F   UNL d   1       3.260   0.412   1.214  0.00  0.00    -0.166 F 
ATOM     24  F   UNL d   1       3.378  -1.145  -0.291  0.00  0.00    -0.166 F 
ENDBRANCH   2  21
BRANCH   3  25
ATOM     25  S   UNL d   1      -1.593   2.921  -0.933  0.00  0.00    -0.112 SA
BRANCH  25  26
ATOM     26  C   UNL d   1      -3.276   2.240  -1.141  0.00  0.00     0.076 C 
ATOM     27  C   UNL d   1      -4.185   3.257  -1.810  0.00  0.00     0.016 C 
ENDBRANCH  25  26
ENDBRANCH   3  25
TORSDOF 6
