REMARK  3 active torsions:
REMARK  status: ('A' for Active; 'I' for Inactive)
REMARK    1  A    between atoms: C_9  and  N_1 
REMARK    2  A    between atoms: C_3  and  C_2 
REMARK    3  A    between atoms: C_10  and  C_8 
ROOT
ATOM      1  N   UNL d   1      -0.123  -1.307  -0.099  0.00  0.00    -0.223 N 
ATOM      2  C   UNL d   1       1.099  -0.635  -0.111  0.00  0.00     0.151 A 
ATOM      3  N   UNL d   1      -1.115  -0.394  -0.132  0.00  0.00     0.001 NA
ATOM      4  N   UNL d   1      -0.526   0.788  -0.106  0.00  0.00    -0.007 NA
ATOM      5  N   UNL d   1       0.834   0.659  -0.086  0.00  0.00    -0.269 N 
ATOM      6  HN  UNL d   1       1.515   1.418  -0.058  1.00  0.00     0.185 HD
ENDROOT
BRANCH   1   7
ATOM      7  C   UNL d   1      -0.418  -2.685   0.062  0.00  0.00     0.071 A 
ATOM      8  C   UNL d   1      -1.496  -3.300  -0.611  0.00  0.00     0.076 A 
ATOM      9  C   UNL d   1      -1.751  -4.664  -0.349  0.00  0.00     0.018 A 
ATOM     10  C   UNL d   1      -0.950  -5.399   0.524  0.00  0.00     0.001 A 
ATOM     11  C   UNL d   1       0.118  -4.781   1.172  0.00  0.00     0.002 A 
ATOM     12  C   UNL d   1       0.378  -3.433   0.950  0.00  0.00     0.032 A 
BRANCH   8  13
ATOM     13  C   UNL d   1      -2.374  -2.628  -1.650  0.00  0.00     0.419 C 
ATOM     14  F   UNL d   1      -1.775  -1.610  -2.322  0.00  0.00    -0.166 F 
ATOM     15  F   UNL d   1      -2.748  -3.504  -2.632  0.00  0.00    -0.166 F 
ATOM     16  F   UNL d   1      -3.535  -2.148  -1.133  0.00  0.00    -0.166 F 
ENDBRANCH   8  13
ENDBRANCH   1   7
BRANCH   2  17
ATOM     17  C   UNL d   1       2.441  -1.217  -0.216  0.00  0.00     0.049 A 
ATOM     18  C   UNL d   1       3.512  -0.645   0.488  0.00  0.00     0.133 A 
ATOM     19  C   UNL d   1       4.799  -1.173   0.419  0.00  0.00     0.085 A 
ATOM     20  F   UNL d   1       3.314   0.421   1.277  0.00  0.00    -0.205 F 
ATOM     21  C   UNL d   1       5.025  -2.294  -0.363  0.00  0.00     0.119 A 
ATOM     22  C   UNL d   1       3.994  -2.879  -1.089  0.00  0.00     0.043 A 
ATOM     23  F   UNL d   1       6.254  -2.823  -0.422  0.00  0.00    -0.206 F 
ATOM     24  C   UNL d   1       2.708  -2.331  -1.031  0.00  0.00     0.021 A 
ENDBRANCH   2  17
TORSDOF 3
