REMARK  2 active torsions:
REMARK  status: ('A' for Active; 'I' for Inactive)
REMARK    1  A    between atoms: C_8  and  C_4 
REMARK    2  A    between atoms: C_11  and  C_9 
ROOT
ATOM      1  C   UNL d   1      -3.304   3.319  -2.186  0.00  0.00     0.089 A 
ATOM      2  O   UNL d   1      -2.410   2.377  -1.773  0.00  0.00    -0.310 OA
ATOM      3  C   UNL d   1      -3.096   1.336  -1.189  0.00  0.00     0.077 A 
ATOM      4  C   UNL d   1      -4.580   2.894  -1.892  0.00  0.00     0.041 A 
ATOM      5  C   UNL d   1      -4.450   1.629  -1.272  0.00  0.00     0.040 A 
ENDROOT
BRANCH   3   6
ATOM      6  C   UNL d   1      -2.473   0.168  -0.679  0.00  0.00     0.061 C 
ATOM      7  C   UNL d   1      -1.269   0.166  -0.079  0.00  0.00     0.117 C 
ATOM      8  C   UNL d   1      -0.684  -1.145   0.228  0.00  0.00     0.302 C 
ATOM      9  C   UNL d   1      -0.508   1.371   0.277  0.00  0.00     0.302 C 
ATOM     10  O   UNL d   1       0.662  -1.154   0.333  0.00  0.00    -0.280 OA
ATOM     11  O   UNL d   1      -1.348  -2.163   0.366  0.00  0.00    -0.259 OA
ATOM     12  C   UNL d   1       1.388  -0.025  -0.159  0.00  0.00     0.175 C 
ATOM     13  O   UNL d   1       0.831   1.228   0.237  0.00  0.00    -0.280 OA
ATOM     14  C   UNL d   1       1.524  -0.093  -1.683  0.00  0.00     0.080 C 
ATOM     15  C   UNL d   1       2.777  -0.083   0.477  0.00  0.00     0.080 C 
ATOM     16  O   UNL d   1      -1.017   2.419   0.648  0.00  0.00    -0.259 OA
ENDBRANCH   3   6
BRANCH   1  17
ATOM     17  C   UNL d   1      -2.749   4.487  -2.858  0.00  0.00     0.036 A 
ATOM     18  C   UNL d   1      -3.507   5.190  -3.806  0.00  0.00     0.132 A 
ATOM     19  C   UNL d   1      -2.989   6.285  -4.491  0.00  0.00     0.085 A 
ATOM     20  F   UNL d   1      -4.761   4.808  -4.096  0.00  0.00    -0.205 F 
ATOM     21  C   UNL d   1      -1.693   6.695  -4.220  0.00  0.00     0.119 A 
ATOM     22  C   UNL d   1      -0.917   6.037  -3.272  0.00  0.00     0.043 A 
ATOM     23  F   UNL d   1      -1.181   7.740  -4.883  0.00  0.00    -0.206 F 
ATOM     24  C   UNL d   1      -1.444   4.933  -2.591  0.00  0.00     0.020 A 
ENDBRANCH   1  17
TORSDOF 2
