REMARK  4 active torsions:
REMARK  status: ('A' for Active; 'I' for Inactive)
REMARK    1  A    between atoms: C_9  and  C_3 
REMARK    2  A    between atoms: S_11  and  C_7 
REMARK    3  A    between atoms: C_12  and  C_9 
REMARK    4  A    between atoms: O_18  and  C_13 
ROOT
ATOM      1  N   UNL d   1       0.241   0.746   1.457  0.00  0.00    -0.301 N 
ATOM      2  HN  UNL d   1       0.380   1.229   2.345  1.00  0.00     0.171 HD
ATOM      3  C   UNL d   1      -0.640  -1.133  -0.009  0.00  0.00     0.098 A 
ATOM      4  C   UNL d   1      -0.320  -0.512   1.359  0.00  0.00     0.271 A 
ATOM      5  N   UNL d   1      -0.266  -0.538  -1.110  0.00  0.00    -0.297 N 
ATOM      6  HN  UNL d   1      -0.444  -0.921  -2.039  1.00  0.00     0.187 HD
ATOM      7  C   UNL d   1       0.571   1.250   0.315  0.00  0.00     0.161 A 
ATOM      8  N   UNL d   1       0.385   0.641  -0.902  0.00  0.00    -0.280 N 
ATOM      9  O   UNL d   1      -0.560  -1.197   2.347  0.00  0.00    -0.266 OA
ATOM     10  H   UNL d   1       0.671   1.179  -1.720  0.00  0.00     0.189 HD
ENDROOT
BRANCH   3  11
ATOM     11  C   UNL d   1      -1.410  -2.429  -0.038  0.00  0.00     0.103 C 
BRANCH  11  12
ATOM     12  C   UNL d   1      -2.901  -2.201  -0.073  0.00  0.00    -0.052 A 
ATOM     13  C   UNL d   1      -3.566  -2.028  -1.293  0.00  0.00     0.010 A 
ATOM     14  C   UNL d   1      -4.933  -1.743  -1.319  0.00  0.00     0.037 A 
ATOM     15  C   UNL d   1      -5.659  -1.619  -0.132  0.00  0.00     0.068 A 
ATOM     16  C   UNL d   1      -5.010  -1.828   1.084  0.00  0.00     0.037 A 
ATOM     17  C   UNL d   1      -3.639  -2.111   1.114  0.00  0.00     0.010 A 
BRANCH  15  18
ATOM     18  O   UNL d   1      -6.975  -1.285  -0.297  0.00  0.00    -0.356 OA
ATOM     19  C   UNL d   1      -7.720  -1.008   0.882  0.00  0.00     0.210 C 
ENDBRANCH  15  18
ENDBRANCH  11  12
ENDBRANCH   3  11
BRANCH   7  20
ATOM     20  S   UNL d   1       1.325   2.825   0.215  0.00  0.00    -0.097 SA
ATOM     21  C   UNL d   1       1.326   3.330   1.949  0.00  0.00     0.099 C 
ENDBRANCH   7  20
TORSDOF 4
