REMARK  8 active torsions:
REMARK  status: ('A' for Active; 'I' for Inactive)
REMARK    1  A    between atoms: N_8  and  C_3 
REMARK    2  A    between atoms: N_9  and  C_4 
REMARK    3  A    between atoms: N_7  and  C_5 
REMARK       I    between atoms: C_6  and  N_7 
REMARK    4  A    between atoms: C_13  and  C_6 
REMARK    5  A    between atoms: C_14  and  N_8 
REMARK    6  A    between atoms: C_15  and  N_8 
REMARK    7  A    between atoms: C_16  and  N_9 
REMARK    8  A    between atoms: C_17  and  N_9 
ROOT
ATOM      1  N   UNL d   1      -1.295   0.073  -0.112  0.00  0.00    -0.327 N 
ATOM      2  HN  UNL d   1      -2.307   0.050  -0.239  1.00  0.00     0.169 HD
ATOM      3  C   UNL d   1      -0.658   1.289  -0.067  0.00  0.00     0.132 A 
ATOM      4  C   UNL d   1      -0.618  -1.105   0.006  0.00  0.00     0.104 A 
ATOM      5  C   UNL d   1       0.748   1.312   0.017  0.00  0.00     0.079 A 
ATOM      6  C   UNL d   1       0.766  -1.083   0.144  0.00  0.00     0.051 A 
ATOM      7  C   UNL d   1       1.453   0.122   0.141  0.00  0.00     0.037 A 
ENDROOT
BRANCH   5   8
ATOM      8  N   UNL d   1       1.519   2.488  -0.125  0.00  0.00    -0.324 N 
ATOM      9  C   UNL d   1       2.211   2.828  -1.265  0.00  0.00     0.226 C 
ATOM     10  O   UNL d   1       3.122   3.664  -1.189  0.00  0.00    -0.273 OA
ATOM     11  H   UNL d   1       1.948   2.848   0.717  0.00  0.00     0.169 HD
BRANCH   9  12
ATOM     12  C   UNL d   1       1.816   2.173  -2.592  0.00  0.00     0.078 C 
ATOM     13  C   UNL d   1       2.862   1.130  -3.022  0.00  0.00     0.014 C 
ATOM     14  C   UNL d   1       3.815   1.527  -4.149  0.00  0.00     0.001 C 
ATOM     15  C   UNL d   1       3.155   2.380  -5.218  0.00  0.00     0.000 C 
ATOM     16  C   UNL d   1       2.549   3.620  -4.585  0.00  0.00     0.001 C 
ATOM     17  C   UNL d   1       1.430   3.232  -3.631  0.00  0.00     0.014 C 
ENDBRANCH   9  12
ENDBRANCH   5   8
BRANCH   3  18
ATOM     18  N   UNL d   1      -1.444   2.441  -0.102  0.00  0.00    -0.366 N 
BRANCH  18  19
ATOM     19  C   UNL d   1      -1.040   3.764   0.388  0.00  0.00     0.120 C 
ATOM     20  C   UNL d   1      -0.860   3.803   1.899  0.00  0.00     0.026 C 
ENDBRANCH  18  19
BRANCH  18  21
ATOM     21  C   UNL d   1      -2.760   2.364  -0.737  0.00  0.00     0.120 C 
ATOM     22  C   UNL d   1      -2.671   2.866  -2.176  0.00  0.00     0.026 C 
ENDBRANCH  18  21
ENDBRANCH   3  18
BRANCH   4  23
ATOM     23  N   UNL d   1      -1.312  -2.314   0.015  0.00  0.00    -0.368 N 
BRANCH  23  24
ATOM     24  C   UNL d   1      -0.734  -3.572   0.497  0.00  0.00     0.120 C 
ATOM     25  C   UNL d   1      -0.580  -3.579   2.012  0.00  0.00     0.026 C 
ENDBRANCH  23  24
BRANCH  23  26
ATOM     26  C   UNL d   1      -2.553  -2.413  -0.758  0.00  0.00     0.120 C 
ATOM     27  C   UNL d   1      -2.275  -2.949  -2.162  0.00  0.00     0.026 C 
ENDBRANCH  23  26
ENDBRANCH   4  23
TORSDOF 8
