REMARK  2 active torsions:
REMARK  status: ('A' for Active; 'I' for Inactive)
REMARK    1  A    between atoms: C_3  and  C_1 
REMARK    2  A    between atoms: S_15  and  C_6 
ROOT
ATOM      1  C   UNL d   1      -0.333   1.041  -0.001  0.00  0.00     0.106 A 
ATOM      2  N   UNL d   1      -1.143  -0.069   0.007  0.00  0.00    -0.324 N 
ATOM      3  N   UNL d   1       0.923   0.632  -0.006  0.00  0.00    -0.286 N 
ATOM      4  HN  UNL d   1       1.745   1.235  -0.014  1.00  0.00     0.188 HD
ATOM      5  C   UNL d   1      -0.308  -1.146   0.006  0.00  0.00     0.160 A 
ATOM      6  N   UNL d   1       0.936  -0.747  -0.002  0.00  0.00    -0.278 N 
ATOM      7  HN  UNL d   1       1.763  -1.344  -0.004  1.00  0.00     0.189 HD
ATOM      8  H   UNL d   1      -2.152  -0.100   0.013  0.00  0.00     0.169 HD
ENDROOT
BRANCH   1   9
ATOM      9  C   UNL d   1      -0.828   2.468  -0.003  0.00  0.00     0.021 C 
ATOM     10  C   UNL d   1      -1.684   2.766   1.256  0.00  0.00     0.022 C 
ATOM     11  C   UNL d   1      -2.167   4.229   1.254  0.00  0.00    -0.013 C 
ATOM     12  C   UNL d   1      -0.951   5.169   1.245  0.00  0.00     0.009 C 
ATOM     13  C   UNL d   1      -3.011   4.484  -0.007  0.00  0.00     0.009 C 
ATOM     14  C   UNL d   1      -0.101   4.913  -0.009  0.00  0.00    -0.013 C 
ATOM     15  C   UNL d   1       0.377   3.451  -0.005  0.00  0.00     0.022 C 
ATOM     16  C   UNL d   1      -0.952   5.163  -1.263  0.00  0.00     0.009 C 
ATOM     17  C   UNL d   1      -2.168   4.223  -1.266  0.00  0.00    -0.013 C 
ATOM     18  C   UNL d   1      -1.685   2.760  -1.262  0.00  0.00     0.022 C 
ENDBRANCH   1   9
BRANCH   5  19
ATOM     19  S   UNL d   1      -0.930  -2.752   0.015  0.00  0.00    -0.097 SA
ATOM     20  C   UNL d   1       0.602  -3.719   0.006  0.00  0.00     0.099 C 
ENDBRANCH   5  19
TORSDOF 2
