REMARK  4 active torsions:
REMARK  status: ('A' for Active; 'I' for Inactive)
REMARK    1  A    between atoms: C_7  and  C_1 
REMARK    2  A    between atoms: C_22  and  N_5 
REMARK       I    between atoms: N_11  and  C_7 
REMARK    3  A    between atoms: C_8  and  C_10 
REMARK    4  A    between atoms: N_13  and  N_11 
REMARK       I    between atoms: C_14  and  N_13 
ROOT
ATOM      1  C   UNL d   1       2.411  -0.799  -0.040  0.00  0.00     0.100 A 
ATOM      2  C   UNL d   1      -0.126  -0.705   0.046  0.00  0.00     0.043 A 
ATOM      3  C   UNL d   1       1.120  -1.514   0.042  0.00  0.00     0.201 A 
ATOM      4  C   UNL d   1       2.358   0.542  -0.051  0.00  0.00     0.112 A 
ATOM      5  N   UNL d   1       1.216   1.333  -0.002  0.00  0.00    -0.355 N 
ATOM      6  C   UNL d   1      -0.050   0.706   0.007  0.00  0.00     0.048 A 
ATOM      7  C   UNL d   1      -1.359  -1.377   0.075  0.00  0.00     0.034 A 
ATOM      8  C   UNL d   1      -2.561  -0.661   0.042  0.00  0.00     0.049 A 
ATOM      9  C   UNL d   1      -1.267   1.404  -0.031  0.00  0.00     0.031 A 
ATOM     10  O   UNL d   1       1.074  -2.740   0.093  0.00  0.00    -0.286 OA
ATOM     11  C   UNL d   1      -2.500   0.736  -0.018  0.00  0.00     0.018 A 
ENDROOT
BRANCH   1  12
ATOM     12  C   UNL d   1       3.742  -1.459  -0.107  0.00  0.00     0.275 C 
ATOM     13  N   UNL d   1       3.750  -2.833  -0.129  0.00  0.00    -0.263 N 
ATOM     14  H   UNL d   1       2.899  -3.409  -0.101  0.00  0.00     0.190 HD
ATOM     15  O   UNL d   1       4.787  -0.805  -0.149  0.00  0.00    -0.266 OA
BRANCH  13  16
ATOM     16  N   UNL d   1       4.989  -3.477  -0.221  0.00  0.00    -0.268 N 
ATOM     17  C   UNL d   1       5.053  -4.844  -0.366  0.00  0.00     0.232 C 
ATOM     18  O   UNL d   1       4.072  -5.581  -0.366  0.00  0.00    -0.272 OA
ATOM     19  C   UNL d   1       6.457  -5.370  -0.525  0.00  0.00     0.119 C 
ATOM     20  H   UNL d   1       5.806  -2.869  -0.242  0.00  0.00     0.190 HD
ENDBRANCH  13  16
ENDBRANCH   1  12
BRANCH   5  21
ATOM     21  C   UNL d   1       1.318   2.803   0.074  0.00  0.00     0.124 C 
ATOM     22  C   UNL d   1       1.261   3.438  -1.307  0.00  0.00     0.027 C 
ENDBRANCH   5  21
BRANCH   8  23
ATOM     23  C   UNL d   1      -3.894  -1.368   0.051  0.00  0.00     0.417 C 
ATOM     24  F   UNL d   1      -3.795  -2.722   0.143  0.00  0.00    -0.166 F 
ATOM     25  F   UNL d   1      -4.681  -0.978   1.091  0.00  0.00    -0.166 F 
ATOM     26  F   UNL d   1      -4.617  -1.121  -1.077  0.00  0.00    -0.166 F 
ENDBRANCH   8  23
TORSDOF 4
