REMARK  2 active torsions:
REMARK  status: ('A' for Active; 'I' for Inactive)
REMARK    1  A    between atoms: C_7  and  C_3 
REMARK    2  A    between atoms: C_9  and  C_6 
ROOT
ATOM      1  N   UNL d   1       1.434  -0.695   0.535  0.00  0.00    -0.351 N 
ATOM      2  HN  UNL d   1       2.176  -1.186   1.034  1.00  0.00     0.162 HD
ATOM      3  C   UNL d   1       1.286   0.761   0.271  0.00  0.00     0.340 A 
ATOM      4  C   UNL d   1      -0.526  -0.126  -0.659  0.00  0.00     0.312 A 
ATOM      5  O   UNL d   1       0.113   1.050  -0.493  0.00  0.00    -0.281 OA
ATOM      6  C   UNL d   1       0.369  -1.178  -0.038  0.00  0.00     0.117 A 
ATOM      7  O   UNL d   1      -1.596  -0.308  -1.191  0.00  0.00    -0.258 OA
ENDROOT
BRANCH   6   8
ATOM      8  C   UNL d   1       0.076  -2.622  -0.075  0.00  0.00    -0.004 A 
ATOM      9  C   UNL d   1      -0.697  -3.195  -1.090  0.00  0.00     0.014 A 
ATOM     10  C   UNL d   1      -0.905  -4.577  -1.113  0.00  0.00     0.001 A 
ATOM     11  C   UNL d   1      -0.348  -5.387  -0.124  0.00  0.00     0.000 A 
ATOM     12  C   UNL d   1       0.422  -4.821   0.890  0.00  0.00     0.001 A 
ATOM     13  C   UNL d   1       0.639  -3.443   0.912  0.00  0.00     0.014 A 
ENDBRANCH   6   8
BRANCH   3  14
ATOM     14  C   UNL d   1       1.343   1.613   1.573  0.00  0.00     0.431 C 
ATOM     15  F   UNL d   1       1.624   0.868   2.668  0.00  0.00    -0.166 F 
ATOM     16  F   UNL d   1       2.301   2.567   1.481  0.00  0.00    -0.166 F 
ATOM     17  F   UNL d   1       0.170   2.242   1.816  0.00  0.00    -0.166 F 
ENDBRANCH   3  14
TORSDOF 2
