REMARK  3 active torsions:
REMARK  status: ('A' for Active; 'I' for Inactive)
REMARK    1  A    between atoms: C_16  and  C_3 
REMARK    2  A    between atoms: C_17  and  C_6 
REMARK    3  A    between atoms: C_11  and  C_10 
ROOT
ATOM      1  N   UNL d   1      -0.083   0.285  -0.136  0.00  0.00    -0.254 N 
ATOM      2  C   UNL d   1       0.576   1.471  -0.092  0.00  0.00     0.160 A 
ATOM      3  C   UNL d   1      -1.452   0.583  -0.116  0.00  0.00     0.082 A 
ATOM      4  N   UNL d   1      -0.184   2.512  -0.011  0.00  0.00    -0.333 N 
ATOM      5  HN  UNL d   1       0.094   3.492   0.038  1.00  0.00     0.168 HD
ATOM      6  C   UNL d   1      -1.459   1.990  -0.008  0.00  0.00     0.073 A 
ATOM      7  C   UNL d   1       0.730  -0.841  -0.202  0.00  0.00     0.271 A 
ATOM      8  C   UNL d   1       2.156  -0.380  -0.109  0.00  0.00     0.079 A 
ATOM      9  S   UNL d   1       2.273   1.360  -0.156  0.00  0.00    -0.048 SA
ATOM     10  C   UNL d   1       3.184  -1.237   0.012  0.00  0.00     0.061 C 
ATOM     11  O   UNL d   1       0.311  -1.982  -0.285  0.00  0.00    -0.266 OA
ENDROOT
BRANCH  10  12
ATOM     12  C   UNL d   1       4.529  -0.796   0.202  0.00  0.00     0.077 A 
ATOM     13  O   UNL d   1       4.856   0.344   0.904  0.00  0.00    -0.316 OA
ATOM     14  C   UNL d   1       6.196   0.535   0.854  0.00  0.00     0.050 A 
ATOM     15  C   UNL d   1       6.700   1.767   1.496  0.00  0.00     0.076 C 
ATOM     16  C   UNL d   1       6.785  -0.505   0.178  0.00  0.00     0.035 A 
ATOM     17  C   UNL d   1       5.726  -1.364  -0.220  0.00  0.00     0.040 A 
ENDBRANCH  10  12
BRANCH   3  18
ATOM     18  C   UNL d   1      -2.552  -0.389  -0.242  0.00  0.00    -0.006 A 
ATOM     19  C   UNL d   1      -2.559  -1.609   0.448  0.00  0.00     0.014 A 
ATOM     20  C   UNL d   1      -3.636  -2.498   0.332  0.00  0.00     0.001 A 
ATOM     21  C   UNL d   1      -4.740  -2.169  -0.450  0.00  0.00     0.000 A 
ATOM     22  C   UNL d   1      -4.758  -0.959  -1.134  0.00  0.00     0.001 A 
ATOM     23  C   UNL d   1      -3.665  -0.089  -1.045  0.00  0.00     0.014 A 
ENDBRANCH   3  18
BRANCH   6  24
ATOM     24  C   UNL d   1      -2.563   2.937   0.082  0.00  0.00    -0.007 A 
ATOM     25  C   UNL d   1      -3.757   2.676   0.756  0.00  0.00     0.014 A 
ATOM     26  C   UNL d   1      -4.734   3.674   0.865  0.00  0.00     0.001 A 
ATOM     27  C   UNL d   1      -4.518   4.942   0.327  0.00  0.00     0.000 A 
ATOM     28  C   UNL d   1      -3.325   5.221  -0.332  0.00  0.00     0.001 A 
ATOM     29  C   UNL d   1      -2.362   4.223  -0.455  0.00  0.00     0.014 A 
ENDBRANCH   6  24
TORSDOF 3
