REMARK  6 active torsions:
REMARK  status: ('A' for Active; 'I' for Inactive)
REMARK    1  A    between atoms: N_2  and  S_1 
REMARK    2  A    between atoms: C_4  and  S_1 
REMARK       I    between atoms: C_6  and  N_2 
REMARK    3  A    between atoms: C_5  and  C_3 
REMARK       I    between atoms: N_13  and  C_6 
REMARK    4  A    between atoms: C_16  and  N_13 
REMARK    5  A    between atoms: C_17  and  C_16 
REMARK    6  A    between atoms: C_18  and  C_17 
ROOT
ATOM      1  S   UNL d   1       1.139  -0.153   0.141  0.00  0.00     0.267 S 
ATOM      2  O   UNL d   1       2.575  -0.288   0.224  0.00  0.00    -0.200 OA
ATOM      3  O   UNL d   1       0.454   1.057   0.545  0.00  0.00    -0.200 OA
ENDROOT
BRANCH   1   4
ATOM      4  N   UNL d   1       0.450  -1.354   1.067  0.00  0.00    -0.232 N 
ATOM      5  C   UNL d   1       0.836  -2.677   0.997  0.00  0.00     0.329 C 
ATOM      6  O   UNL d   1       1.650  -3.092   0.185  0.00  0.00    -0.246 OA
ATOM      7  N   UNL d   1       0.165  -3.488   1.865  0.00  0.00    -0.342 N 
ATOM      8  H   UNL d   1      -0.483  -3.092   2.528  0.00  0.00     0.164 HD
ATOM      9  H   UNL d   1      -0.180  -1.001   1.775  0.00  0.00     0.183 HD
BRANCH   7  10
ATOM     10  C   UNL d   1       0.468  -4.903   1.929  0.00  0.00     0.124 C 
BRANCH  10  11
ATOM     11  C   UNL d   1       1.631  -5.205   2.874  0.00  0.00     0.019 C 
BRANCH  11  12
ATOM     12  C   UNL d   1       1.279  -4.904   4.331  0.00  0.00    -0.003 C 
ATOM     13  C   UNL d   1       2.428  -5.246   5.265  0.00  0.00     0.005 C 
ENDBRANCH  11  12
ENDBRANCH  10  11
ENDBRANCH   7  10
ENDBRANCH   1   4
BRANCH   1  14
ATOM     14  C   UNL d   1       0.647  -0.448  -1.550  0.00  0.00     0.095 A 
ATOM     15  C   UNL d   1       1.160   0.357  -2.584  0.00  0.00     0.071 A 
ATOM     16  C   UNL d   1       0.753   0.079  -3.910  0.00  0.00     0.018 A 
ATOM     17  C   UNL d   1      -0.128  -0.963  -4.200  0.00  0.00     0.001 A 
ATOM     18  C   UNL d   1      -0.630  -1.745  -3.170  0.00  0.00     0.002 A 
ATOM     19  C   UNL d   1      -0.256  -1.484  -1.850  0.00  0.00     0.026 A 
BRANCH  15  20
ATOM     20  C   UNL d   1       2.125   1.509  -2.408  0.00  0.00     0.419 C 
ATOM     21  F   UNL d   1       2.449   1.859  -1.143  0.00  0.00    -0.166 F 
ATOM     22  F   UNL d   1       3.306   1.273  -3.048  0.00  0.00    -0.166 F 
ATOM     23  F   UNL d   1       1.635   2.651  -2.975  0.00  0.00    -0.166 F 
ENDBRANCH  15  20
ENDBRANCH   1  14
TORSDOF 6
