REMARK  6 active torsions:
REMARK  status: ('A' for Active; 'I' for Inactive)
REMARK    1  A    between atoms: C_4  and  C_1 
REMARK    2  A    between atoms: C_7  and  C_1 
REMARK    3  A    between atoms: C_3  and  C_2 
REMARK    4  A    between atoms: C_6  and  C_3 
REMARK    5  A    between atoms: C_5  and  C_4 
REMARK    6  A    between atoms: C_10  and  C_5 
ROOT
ATOM      1  C   UNL d   1       2.665  -0.363  -0.547  0.00  0.00    -0.031 C 
ATOM      2  C   UNL d   1       3.179  -1.602  -0.795  0.00  0.00    -0.004 C 
ATOM      3  C   UNL d   1       2.322  -2.852  -0.742  0.00  0.00     0.053 C 
ENDROOT
BRANCH   1   4
ATOM      4  C   UNL d   1       3.400   0.950  -0.323  0.00  0.00     0.123 C 
BRANCH   4   5
ATOM      5  C   UNL d   1       3.380   1.933  -1.493  0.00  0.00     0.163 C 
ATOM      6  O   UNL d   1       2.995   1.630  -2.624  0.00  0.00    -0.292 OA
BRANCH   5   7
ATOM      7  C   UNL d   1       3.876   3.331  -1.238  0.00  0.00     0.010 A 
ATOM      8  C   UNL d   1       4.169   3.805   0.050  0.00  0.00     0.015 A 
ATOM      9  C   UNL d   1       4.625   5.113   0.240  0.00  0.00     0.001 A 
ATOM     10  C   UNL d   1       4.801   5.959  -0.849  0.00  0.00     0.000 A 
ATOM     11  C   UNL d   1       4.512   5.501  -2.136  0.00  0.00     0.001 A 
ATOM     12  C   UNL d   1       4.050   4.195  -2.329  0.00  0.00     0.015 A 
ENDBRANCH   5   7
ENDBRANCH   4   5
ENDBRANCH   1   4
BRANCH   1  13
ATOM     13  C   UNL d   1       1.209  -0.199  -0.305  0.00  0.00    -0.029 A 
ATOM     14  C   UNL d   1       0.712  -0.228   1.005  0.00  0.00     0.012 A 
ATOM     15  C   UNL d   1      -0.657  -0.075   1.242  0.00  0.00     0.001 A 
ATOM     16  C   UNL d   1      -1.532   0.102   0.173  0.00  0.00     0.000 A 
ATOM     17  C   UNL d   1      -1.045   0.128  -1.134  0.00  0.00     0.001 A 
ATOM     18  C   UNL d   1       0.323  -0.020  -1.375  0.00  0.00     0.012 A 
ENDBRANCH   1  13
BRANCH   2  19
ATOM     19  C   UNL d   1       4.672  -1.804  -1.008  0.00  0.00     0.188 C 
ATOM     20  O   UNL d   1       5.499  -0.919  -0.809  0.00  0.00    -0.287 OA
BRANCH  19  21
ATOM     21  C   UNL d   1       5.216  -3.139  -1.378  0.00  0.00     0.015 A 
ATOM     22  C   UNL d   1       4.744  -3.871  -2.470  0.00  0.00     0.016 A 
ATOM     23  C   UNL d   1       5.260  -5.145  -2.736  0.00  0.00     0.007 A 
ATOM     24  C   UNL d   1       6.293  -5.675  -1.952  0.00  0.00    -0.062 A 
ATOM     25  C   UNL d   1       6.818  -4.903  -0.910  0.00  0.00     0.007 A 
ATOM     26  C   UNL d   1       6.802  -7.063  -2.215  0.00  0.00     0.048 C 
ATOM     27  C   UNL d   1       6.286  -3.642  -0.627  0.00  0.00     0.016 A 
ENDBRANCH  19  21
ENDBRANCH   2  19
TORSDOF 6
