REMARK  5 active torsions:
REMARK  status: ('A' for Active; 'I' for Inactive)
REMARK    1  A    between atoms: N_6  and  S_1 
REMARK    2  A    between atoms: C_8  and  S_1 
REMARK    3  A    between atoms: C_3  and  C_12 
REMARK    4  A    between atoms: C_19  and  N_6 
REMARK    5  A    between atoms: N_14  and  C_13 
ROOT
ATOM      1  S   UNL d   1       1.065   0.065   0.010  0.00  0.00     0.263 S 
ATOM      2  O   UNL d   1       2.515   0.053  -0.052  0.00  0.00    -0.200 OA
ATOM      3  O   UNL d   1       0.365   0.902   0.960  0.00  0.00    -0.200 OA
ENDROOT
BRANCH   1   4
ATOM      4  N   UNL d   1       0.502  -1.506   0.265  0.00  0.00    -0.281 N 
ATOM      5  H   UNL d   1      -0.453  -1.530   0.616  0.00  0.00     0.179 HD
BRANCH   4   6
ATOM      6  C   UNL d   1       0.906  -2.530  -0.630  0.00  0.00     0.042 A 
ATOM      7  C   UNL d   1       2.100  -3.208  -0.419  0.00  0.00     0.032 A 
ATOM      8  C   UNL d   1       2.525  -4.183  -1.335  0.00  0.00     0.031 A 
ATOM      9  C   UNL d   1       1.791  -4.485  -2.494  0.00  0.00     0.029 A 
ATOM     10  C   UNL d   1       0.583  -3.782  -2.663  0.00  0.00     0.031 A 
ATOM     11  C   UNL d   1       0.139  -2.822  -1.747  0.00  0.00     0.032 A 
BRANCH   9  12
ATOM     12  N   UNL d   1       2.173  -5.460  -3.409  0.00  0.00    -0.390 N 
ATOM     13  C   UNL d   1       1.989  -5.212  -4.841  0.00  0.00     0.149 C 
ATOM     14  C   UNL d   1       3.220  -6.430  -3.099  0.00  0.00     0.149 C 
ENDBRANCH   9  12
ENDBRANCH   4   6
ENDBRANCH   1   4
BRANCH   1  15
ATOM     15  C   UNL d   1       0.454   0.494  -1.612  0.00  0.00     0.079 A 
ATOM     16  C   UNL d   1      -0.798   1.109  -1.738  0.00  0.00     0.026 A 
ATOM     17  C   UNL d   1      -1.249   1.511  -3.002  0.00  0.00     0.015 A 
ATOM     18  C   UNL d   1      -0.456   1.310  -4.143  0.00  0.00    -0.008 A 
ATOM     19  C   UNL d   1       0.791   0.681  -3.995  0.00  0.00     0.015 A 
ATOM     20  C   UNL d   1       1.252   0.287  -2.735  0.00  0.00     0.026 A 
BRANCH  18  21
ATOM     21  C   UNL d   1      -0.881   1.748  -5.466  0.00  0.00     0.063 A 
ATOM     22  N   UNL d   1      -0.470   1.075  -6.613  0.00  0.00    -0.292 N 
ATOM     23  N   UNL d   1      -0.931   1.642  -7.715  0.00  0.00    -0.061 NA
ATOM     24  HN  UNL d   1       0.118   0.241  -6.604  1.00  0.00     0.183 HD
ATOM     25  S   UNL d   1      -1.851   3.004  -7.408  0.00  0.00    -0.010 SA
ATOM     26  C   UNL d   1      -1.665   2.864  -5.706  0.00  0.00     0.096 A 
ENDBRANCH  18  21
ENDBRANCH   1  15
TORSDOF 5
