REMARK  9 active torsions:
REMARK  status: ('A' for Active; 'I' for Inactive)
REMARK    1  A    between atoms: N_2  and  C_1 
REMARK    2  A    between atoms: N_11  and  C_1 
REMARK    3  A    between atoms: C_3  and  N_2 
REMARK    4  A    between atoms: N_8  and  C_4 
REMARK    5  A    between atoms: C_14  and  N_8 
REMARK    6  A    between atoms: C_15  and  N_8 
REMARK    7  A    between atoms: C_16  and  N_11 
REMARK    8  A    between atoms: O_12  and  C_17 
REMARK    9  A    between atoms: C_17  and  C_16 
ROOT
ATOM      1  C   UNL d   1       0.944   1.557   1.910  0.00  0.00     0.040 A 
ATOM      2  C   UNL d   1       2.221   2.719   4.195  0.00  0.00     0.030 A 
ATOM      3  C   UNL d   1       2.538   3.109   2.881  0.00  0.00     0.038 A 
ATOM      4  C   UNL d   1       1.919   2.552   1.737  0.00  0.00    -0.033 A 
ATOM      5  C   UNL d   1       0.592   1.183   3.208  0.00  0.00     0.032 A 
ATOM      6  C   UNL d   1       1.210   1.762   4.323  0.00  0.00     0.031 A 
ATOM      7  C   UNL d   1       2.233   3.146   0.393  0.00  0.00     0.050 C 
ENDROOT
BRANCH   1   8
ATOM      8  N   UNL d   1       0.393   0.854   0.810  0.00  0.00    -0.333 N 
ATOM      9  H   UNL d   1       0.877   0.935  -0.076  0.00  0.00     0.168 HD
BRANCH   8  10
ATOM     10  C   UNL d   1      -0.872   0.339   0.710  0.00  0.00     0.172 C 
ATOM     11  S   UNL d   1      -2.272   1.016   1.326  0.00  0.00    -0.041 SA
BRANCH  10  12
ATOM     12  N   UNL d   1      -0.996  -0.799  -0.035  0.00  0.00    -0.365 N 
ATOM     13  H   UNL d   1      -1.951  -1.146  -0.055  0.00  0.00     0.161 HD
BRANCH  12  14
ATOM     14  C   UNL d   1      -0.001  -1.860  -0.173  0.00  0.00     0.148 C 
BRANCH  14  15
ATOM     15  C   UNL d   1      -0.135  -2.895   0.951  0.00  0.00     0.183 C 
BRANCH  15  16
ATOM     16  O   UNL d   1      -1.439  -3.481   0.924  0.00  0.00    -0.399 OA
ATOM     17  H   UNL d   1      -1.517  -4.042   1.710  0.00  0.00     0.209 HD
ENDBRANCH  15  16
ENDBRANCH  14  15
ENDBRANCH  12  14
ENDBRANCH  10  12
ENDBRANCH   8  10
ENDBRANCH   1   8
BRANCH   2  18
ATOM     18  N   UNL d   1       2.866   3.289   5.294  0.00  0.00    -0.382 N 
BRANCH  18  19
ATOM     19  C   UNL d   1       4.327   3.433   5.233  0.00  0.00     0.118 C 
ATOM     20  C   UNL d   1       4.716   4.902   5.170  0.00  0.00     0.026 C 
ENDBRANCH  18  19
BRANCH  18  21
ATOM     21  C   UNL d   1       2.283   3.210   6.642  0.00  0.00     0.118 C 
ATOM     22  C   UNL d   1       1.074   4.125   6.773  0.00  0.00     0.026 C 
ENDBRANCH  18  21
ENDBRANCH   2  18
TORSDOF 9
