REMARK  7 active torsions:
REMARK  status: ('A' for Active; 'I' for Inactive)
REMARK    1  A    between atoms: C_4  and  S_1 
REMARK    2  A    between atoms: C_5  and  S_1 
REMARK    3  A    between atoms: C_2  and  C_7 
REMARK    4  A    between atoms: C_3  and  C_6 
REMARK    5  A    between atoms: C_8  and  C_4 
REMARK       I    between atoms: N_9  and  C_8 
REMARK    6  A    between atoms: C_13  and  N_9 
REMARK    7  A    between atoms: O_24  and  C_17 
ROOT
ATOM      1  S   UNL d   1       0.640  -0.029   0.106  0.00  0.00     0.184 S 
ATOM      2  O   UNL d   1       0.288   0.912   1.147  0.00  0.00    -0.222 OA
ATOM      3  O   UNL d   1       2.039  -0.263  -0.235  0.00  0.00    -0.222 OA
ENDROOT
BRANCH   1   4
ATOM      4  C   UNL d   1      -0.171   0.434  -1.373  0.00  0.00     0.248 C 
BRANCH   4   5
ATOM      5  C   UNL d   1       0.221   1.846  -1.749  0.00  0.00     0.236 C 
ATOM      6  N   UNL d   1       1.578   2.114  -1.798  0.00  0.00    -0.324 N 
ATOM      7  H   UNL d   1       2.252   1.359  -1.679  0.00  0.00     0.169 HD
ATOM      8  O   UNL d   1      -0.648   2.623  -2.133  0.00  0.00    -0.272 OA
BRANCH   6   9
ATOM      9  C   UNL d   1       2.154   3.365  -2.126  0.00  0.00     0.068 A 
ATOM     10  C   UNL d   1       3.423   3.407  -2.729  0.00  0.00     0.095 A 
ATOM     11  C   UNL d   1       4.057   4.634  -2.949  0.00  0.00     0.039 A 
ATOM     12  C   UNL d   1       3.433   5.827  -2.576  0.00  0.00     0.003 A 
ATOM     13  C   UNL d   1       2.174   5.790  -1.985  0.00  0.00     0.002 A 
ATOM     14  C   UNL d   1       1.530   4.568  -1.773  0.00  0.00     0.032 A 
BRANCH  10  15
ATOM     15  O   UNL d   1       4.131   2.282  -3.073  0.00  0.00    -0.354 OA
ATOM     16  C   UNL d   1       3.495   1.506  -4.091  0.00  0.00     0.210 C 
ENDBRANCH  10  15
ENDBRANCH   6   9
ENDBRANCH   4   5
ENDBRANCH   1   4
BRANCH   1  17
ATOM     17  C   UNL d   1      -0.009  -1.620   0.617  0.00  0.00     0.061 A 
ATOM     18  C   UNL d   1       0.540  -2.786   0.070  0.00  0.00     0.039 A 
ATOM     19  C   UNL d   1       0.373  -4.020   0.725  0.00  0.00     0.050 A 
ATOM     20  C   UNL d   1      -0.366  -4.060   1.923  0.00  0.00     0.032 A 
ATOM     21  C   UNL d   1      -0.938  -2.899   2.466  0.00  0.00     0.050 A 
ATOM     22  C   UNL d   1      -0.776  -1.679   1.788  0.00  0.00     0.039 A 
BRANCH  19  23
ATOM     23  C   UNL d   1       1.097  -5.263   0.253  0.00  0.00     0.417 C 
ATOM     24  F   UNL d   1       1.731  -5.098  -0.940  0.00  0.00    -0.166 F 
ATOM     25  F   UNL d   1       2.053  -5.662   1.136  0.00  0.00    -0.166 F 
ATOM     26  F   UNL d   1       0.264  -6.326   0.094  0.00  0.00    -0.166 F 
ENDBRANCH  19  23
BRANCH  21  27
ATOM     27  C   UNL d   1      -1.577  -2.946   3.840  0.00  0.00     0.417 C 
ATOM     28  F   UNL d   1      -2.098  -1.755   4.240  0.00  0.00    -0.166 F 
ATOM     29  F   UNL d   1      -2.592  -3.849   3.915  0.00  0.00    -0.166 F 
ATOM     30  F   UNL d   1      -0.682  -3.306   4.801  0.00  0.00    -0.166 F 
ENDBRANCH  21  27
ENDBRANCH   1  17
TORSDOF 7
