REMARK  1 active torsions:
REMARK  status: ('A' for Active; 'I' for Inactive)
REMARK    1  A    between atoms: C_6  and  N_1 
ROOT
ATOM      1  N   UNL d   1      -2.422  -0.654   0.010  0.00  0.00    -0.241 N 
ATOM      2  C   UNL d   1      -1.363  -1.175   0.731  0.00  0.00     0.284 A 
ATOM      3  C   UNL d   1      -2.018   0.452  -0.717  0.00  0.00     0.284 A 
ATOM      4  C   UNL d   1      -0.202  -0.344   0.425  0.00  0.00     0.134 A 
ATOM      5  C   UNL d   1      -0.596   0.634  -0.441  0.00  0.00     0.134 A 
ATOM      6  N   UNL d   1       1.061  -0.496   0.873  0.00  0.00    -0.358 N 
ATOM      7  HN  UNL d   1       1.346  -1.235   1.515  1.00  0.00     0.165 HD
ATOM      8  N   UNL d   1       0.226   1.579  -0.941  0.00  0.00    -0.358 N 
ATOM      9  HN  UNL d   1      -0.080   2.311  -1.583  1.00  0.00     0.165 HD
ATOM     10  O   UNL d   1      -1.298  -2.149   1.461  0.00  0.00    -0.265 OA
ATOM     11  O   UNL d   1      -2.649   1.205  -1.437  0.00  0.00    -0.265 OA
ATOM     12  C   UNL d   1       1.913   0.440   0.378  0.00  0.00     0.105 A 
ATOM     13  C   UNL d   1       1.505   1.452  -0.500  0.00  0.00     0.105 A 
ENDROOT
BRANCH   1  14
ATOM     14  C   UNL d   1      -3.739  -1.202  -0.006  0.00  0.00     0.046 A 
ATOM     15  C   UNL d   1      -4.185  -2.061   1.010  0.00  0.00     0.031 A 
ATOM     16  C   UNL d   1      -5.468  -2.622   0.980  0.00  0.00     0.009 A 
ATOM     17  C   UNL d   1      -6.336  -2.356  -0.081  0.00  0.00    -0.062 A 
ATOM     18  C   UNL d   1      -5.913  -1.488  -1.088  0.00  0.00     0.009 A 
ATOM     19  C   UNL d   1      -7.704  -2.968  -0.110  0.00  0.00     0.048 C 
ATOM     20  C   UNL d   1      -4.635  -0.916  -1.047  0.00  0.00     0.031 A 
ENDBRANCH   1  14
TORSDOF 1
