REMARK  4 active torsions:
REMARK  status: ('A' for Active; 'I' for Inactive)
REMARK    1  A    between atoms: C_6  and  C_1 
REMARK    2  A    between atoms: C_7  and  N_2 
REMARK    3  A    between atoms: C_8  and  C_4 
REMARK    4  A    between atoms: O_11  and  C_6 
ROOT
ATOM      1  C   UNL d   1      -0.377   1.180  -0.040  0.00  0.00     0.062 A 
ATOM      2  N   UNL d   1       0.986  -0.650   0.019  0.00  0.00    -0.314 N 
ATOM      3  C   UNL d   1       0.949   0.749   0.019  0.00  0.00     0.030 A 
ATOM      4  C   UNL d   1      -0.341  -1.119   0.003  0.00  0.00     0.051 A 
ATOM      5  C   UNL d   1      -1.164  -0.001  -0.038  0.00  0.00     0.051 A 
ATOM      6  C   UNL d   1       2.154   1.634   0.156  0.00  0.00     0.070 C 
ENDROOT
BRANCH   2   7
ATOM      7  C   UNL d   1       2.172  -1.455   0.018  0.00  0.00     0.039 A 
ATOM      8  C   UNL d   1       2.249  -2.617   0.798  0.00  0.00     0.030 A 
ATOM      9  C   UNL d   1       3.343  -3.478   0.675  0.00  0.00     0.002 A 
ATOM     10  C   UNL d   1       4.392  -3.155  -0.184  0.00  0.00     0.000 A 
ATOM     11  C   UNL d   1       4.349  -1.974  -0.920  0.00  0.00     0.002 A 
ATOM     12  C   UNL d   1       3.237  -1.131  -0.834  0.00  0.00     0.030 A 
ENDBRANCH   2   7
BRANCH   4  13
ATOM     13  C   UNL d   1      -0.795  -2.528  -0.025  0.00  0.00    -0.009 A 
ATOM     14  C   UNL d   1      -0.158  -3.510  -0.798  0.00  0.00     0.014 A 
ATOM     15  C   UNL d   1      -0.507  -4.858  -0.680  0.00  0.00     0.001 A 
ATOM     16  C   UNL d   1      -1.561  -5.236   0.146  0.00  0.00     0.000 A 
ATOM     17  C   UNL d   1      -2.277  -4.264   0.838  0.00  0.00     0.001 A 
ATOM     18  C   UNL d   1      -1.892  -2.922   0.759  0.00  0.00     0.014 A 
ENDBRANCH   4  13
BRANCH   1  19
ATOM     19  C   UNL d   1      -0.798   2.587  -0.071  0.00  0.00     0.178 C 
ATOM     20  O   UNL d   1      -0.031   3.538  -0.113  0.00  0.00    -0.646 OA
BRANCH  19  21
ATOM     21  O   UNL d   1      -2.146   2.789  -0.051  0.00  0.00    -0.773 OA
ATOM     22  H   UNL d   1      -2.657   1.968  -0.012  0.00  0.00     0.167 HD
ENDBRANCH  19  21
ENDBRANCH   1  19
TORSDOF 4
