REMARK  3 active torsions:
REMARK  status: ('A' for Active; 'I' for Inactive)
REMARK    1  A    between atoms: C_14  and  N_1 
REMARK       I    between atoms: C_9  and  N_10 
REMARK    2  A    between atoms: C_18  and  C_9 
REMARK    3  A    between atoms: N_10  and  C_11 
ROOT
ATOM      1  N   UNL d   1      -1.261   1.388   0.071  0.00  0.00    -0.372 N 
ATOM      2  C   UNL d   1      -0.041   0.689   0.035  0.00  0.00     0.039 A 
ATOM      3  C   UNL d   1      -2.463   0.697  -0.454  0.00  0.00     0.026 C 
ATOM      4  C   UNL d   1       0.004  -0.719  -0.087  0.00  0.00    -0.028 A 
ATOM      5  C   UNL d   1       1.200   1.352   0.121  0.00  0.00     0.059 A 
ATOM      6  C   UNL d   1      -1.259  -1.555  -0.128  0.00  0.00     0.019 C 
ATOM      7  C   UNL d   1      -2.498  -0.713   0.171  0.00  0.00     0.039 C 
ATOM      8  C   UNL d   1       1.242  -1.393  -0.125  0.00  0.00     0.012 A 
ATOM      9  C   UNL d   1       2.433   0.686   0.089  0.00  0.00     0.036 A 
ATOM     10  C   UNL d   1       2.445  -0.697  -0.055  0.00  0.00     0.030 A 
ATOM     11  C   UNL d   1      -2.415   0.697  -1.994  0.00  0.00     0.038 C 
ATOM     12  C   UNL d   1      -3.793   1.366  -0.046  0.00  0.00     0.038 C 
ATOM     13  C   UNL d   1      -1.409  -2.363  -1.423  0.00  0.00     0.015 C 
ENDROOT
BRANCH   9  14
ATOM     14  N   UNL d   1       3.677   1.351   0.186  0.00  0.00    -0.327 N 
ATOM     15  C   UNL d   1       3.871   2.660   0.594  0.00  0.00     0.221 C 
ATOM     16  O   UNL d   1       3.002   3.432   0.990  0.00  0.00    -0.273 OA
ATOM     17  H   UNL d   1       4.502   0.783   0.039  0.00  0.00     0.169 HD
BRANCH  15  18
ATOM     18  C   UNL d   1       5.327   3.081   0.525  0.00  0.00     0.098 C 
ATOM     19  C   UNL d   1       5.510   4.500   1.043  0.00  0.00     0.014 C 
ENDBRANCH  15  18
ENDBRANCH   9  14
BRANCH   1  20
ATOM     20  C   UNL d   1      -1.306   2.794   0.504  0.00  0.00     0.119 C 
ATOM     21  C   UNL d   1      -1.140   3.776  -0.647  0.00  0.00     0.026 C 
ENDBRANCH   1  20
TORSDOF 3
