REMARK  2 active torsions:
REMARK  status: ('A' for Active; 'I' for Inactive)
REMARK       I    between atoms: C_9  and  N_11 
REMARK    1  A    between atoms: C_14  and  C_9 
REMARK    2  A    between atoms: N_11  and  C_10 
ROOT
ATOM      1  C   UNL d   1      -4.182  -4.127   2.293  0.00  0.00     0.069 A 
ATOM      2  S   UNL d   1      -4.076  -6.123   3.646  0.00  0.00     0.068 SA
ATOM      3  C   UNL d   1      -2.804  -4.710   2.161  0.00  0.00     0.067 A 
ATOM      4  C   UNL d   1      -4.545  -2.951   1.594  0.00  0.00     0.061 A 
ATOM      5  N   UNL d   1      -4.974  -4.830   3.119  0.00  0.00    -0.310 N 
ATOM      6  HN  UNL d   1      -5.938  -4.613   3.373  1.00  0.00     0.176 HD
ATOM      7  N   UNL d   1      -2.632  -5.835   2.871  0.00  0.00    -0.310 N 
ATOM      8  HN  UNL d   1      -1.786  -6.401   2.926  1.00  0.00     0.176 HD
ATOM      9  C   UNL d   1      -3.565  -2.375   0.763  0.00  0.00     0.037 A 
ATOM     10  C   UNL d   1      -1.834  -4.084   1.347  0.00  0.00     0.035 A 
ATOM     11  C   UNL d   1      -2.251  -2.915   0.675  0.00  0.00     0.032 A 
ENDROOT
BRANCH   9  12
ATOM     12  N   UNL d   1      -3.831  -1.236  -0.041  0.00  0.00    -0.323 N 
ATOM     13  C   UNL d   1      -5.084  -0.720  -0.328  0.00  0.00     0.256 C 
ATOM     14  O   UNL d   1      -6.154  -1.161   0.083  0.00  0.00    -0.267 OA
ATOM     15  H   UNL d   1      -3.031  -0.802  -0.477  0.00  0.00     0.169 HD
BRANCH  13  16
ATOM     16  C   UNL d   1      -5.135   0.473  -1.224  0.00  0.00     0.032 A 
ATOM     17  C   UNL d   1      -4.158   0.758  -2.184  0.00  0.00     0.017 A 
ATOM     18  C   UNL d   1      -4.289   1.887  -3.001  0.00  0.00     0.007 A 
ATOM     19  C   UNL d   1      -5.400   2.733  -2.882  0.00  0.00    -0.062 A 
ATOM     20  C   UNL d   1      -6.383   2.436  -1.934  0.00  0.00     0.007 A 
ATOM     21  C   UNL d   1      -5.521   3.946  -3.756  0.00  0.00     0.048 C 
ATOM     22  C   UNL d   1      -6.253   1.313  -1.116  0.00  0.00     0.017 A 
ENDBRANCH  13  16
ENDBRANCH   9  12
TORSDOF 2
