REMARK  3 active torsions:
REMARK  status: ('A' for Active; 'I' for Inactive)
REMARK    1  A    between atoms: C_7  and  C_1 
REMARK    2  A    between atoms: C_2  and  C_8 
REMARK       I    between atoms: N_9  and  C_2 
REMARK    3  A    between atoms: C_12  and  N_9 
ROOT
ATOM      1  C   UNL d   1      -3.041  -1.362   1.076  0.00  0.00     0.015 A 
ATOM      2  C   UNL d   1      -2.727  -2.711   1.350  0.00  0.00     0.045 A 
ATOM      3  C   UNL d   1      -3.420  -3.744   0.696  0.00  0.00     0.018 A 
ATOM      4  C   UNL d   1      -4.010  -1.084   0.096  0.00  0.00     0.015 A 
ATOM      5  C   UNL d   1      -4.684  -2.113  -0.564  0.00  0.00     0.001 A 
ATOM      6  C   UNL d   1      -4.404  -3.440  -0.250  0.00  0.00     0.001 A 
ENDROOT
BRANCH   2   7
ATOM      7  C   UNL d   1      -1.571  -3.057   2.212  0.00  0.00     0.252 C 
ATOM      8  N   UNL d   1      -1.765  -4.024   3.184  0.00  0.00    -0.352 N 
ATOM      9  H   UNL d   1      -2.650  -4.511   3.249  0.00  0.00     0.163 HD
ATOM     10  O   UNL d   1      -0.500  -2.480   2.049  0.00  0.00    -0.268 OA
BRANCH   8  11
ATOM     11  C   UNL d   1      -0.680  -4.363   4.105  0.00  0.00     0.084 C 
ATOM     12  C   UNL d   1       0.226  -5.471   3.550  0.00  0.00     0.025 C 
ATOM     13  C   UNL d   1      -0.362  -6.874   3.698  0.00  0.00     0.002 C 
ATOM     14  C   UNL d   1      -0.818  -7.154   5.125  0.00  0.00     0.000 C 
ATOM     15  C   UNL d   1      -1.800  -6.096   5.614  0.00  0.00     0.002 C 
ATOM     16  C   UNL d   1      -1.210  -4.693   5.504  0.00  0.00     0.025 C 
ENDBRANCH   8  11
ENDBRANCH   2   7
BRANCH   1  17
ATOM     17  C   UNL d   1      -2.481  -0.244   1.828  0.00  0.00     0.112 A 
ATOM     18  O   UNL d   1      -2.196   0.886   1.120  0.00  0.00    -0.237 OA
ATOM     19  N   UNL d   1      -1.764   1.881   1.983  0.00  0.00    -0.265 N 
ATOM     20  C   UNL d   1      -1.790   1.334   3.204  0.00  0.00     0.031 A 
ATOM     21  HN  UNL d   1      -1.485   2.831   1.739  1.00  0.00     0.194 HD
ATOM     22  C   UNL d   1      -2.220  -0.010   3.157  0.00  0.00     0.066 A 
ATOM     23  C   UNL d   1      -1.426   2.137   4.392  0.00  0.00     0.070 C 
ENDBRANCH   1  17
TORSDOF 3
