REMARK  3 active torsions:
REMARK  status: ('A' for Active; 'I' for Inactive)
REMARK    1  A    between atoms: C_2  and  C_1 
REMARK    2  A    between atoms: C_10  and  N_3 
REMARK    3  A    between atoms: O_19  and  C_7 
ROOT
ATOM      1  C   UNL d   1      -2.765  -2.484  -0.036  0.00  0.00     0.102 C 
ATOM      2  N   UNL d   1      -4.058  -2.527   0.046  0.00  0.00    -0.365 N 
ATOM      3  HN  UNL d   1      -4.593  -1.661   0.118  1.00  0.00     0.165 HD
ENDROOT
BRANCH   1   4
ATOM      4  C   UNL d   1      -2.043  -1.194  -0.014  0.00  0.00     0.014 A 
ATOM      5  C   UNL d   1      -2.717   0.034   0.014  0.00  0.00     0.077 A 
ATOM      6  C   UNL d   1      -2.002   1.229   0.026  0.00  0.00     0.039 A 
ATOM      7  C   UNL d   1      -0.607   1.203   0.015  0.00  0.00     0.022 A 
ATOM      8  C   UNL d   1       0.064  -0.021  -0.008  0.00  0.00     0.011 A 
ATOM      9  C   UNL d   1      -0.644  -1.223  -0.023  0.00  0.00     0.034 A 
ATOM     10 BR   UNL d   1       1.954  -0.051  -0.019  0.00  0.00    -0.051 Br
BRANCH   5  11
ATOM     11  O   UNL d   1      -4.080   0.133   0.027  0.00  0.00    -0.360 OA
ATOM     12  H   UNL d   1      -4.438  -0.783   0.046  0.00  0.00     0.217 HD
ENDBRANCH   5  11
ENDBRANCH   1   4
BRANCH   2  13
ATOM     13  C   UNL d   1      -4.724  -3.766   0.036  0.00  0.00     0.035 A 
ATOM     14  C   UNL d   1      -4.213  -4.931   0.615  0.00  0.00     0.075 A 
ATOM     15  C   UNL d   1      -4.959  -6.107   0.599  0.00  0.00     0.157 A 
ATOM     16  F   UNL d   1      -4.444  -7.215   1.149  0.00  0.00    -0.203 F 
ATOM     17  C   UNL d   1      -6.225  -6.134   0.029  0.00  0.00     0.154 A 
ATOM     18  C   UNL d   1      -6.760  -4.984  -0.534  0.00  0.00     0.048 A 
ATOM     19  F   UNL d   1      -6.942  -7.265   0.029  0.00  0.00    -0.203 F 
ATOM     20  C   UNL d   1      -6.008  -3.804  -0.530  0.00  0.00     0.032 A 
ENDBRANCH   2  13
TORSDOF 3
