REMARK  5 active torsions:
REMARK  status: ('A' for Active; 'I' for Inactive)
REMARK    1  A    between atoms: C_2  and  C_1 
REMARK    2  A    between atoms: N_5  and  C_2 
REMARK    3  A    between atoms: C_3  and  C_4 
REMARK    4  A    between atoms: C_6  and  N_5 
REMARK    5  A    between atoms: O_20  and  N_8 
ROOT
ATOM      1  C   UNL d   1       1.326   2.636  -0.058  0.00  0.00     0.138 C 
ATOM      2  N   UNL d   1       2.620   2.744  -0.176  0.00  0.00    -0.252 N 
ATOM      3  HN  UNL d   1       3.227   1.978  -0.469  1.00  0.00     0.196 HD
ENDROOT
BRANCH   1   4
ATOM      4  C   UNL d   1       0.784   1.247  -0.273  0.00  0.00     0.040 A 
ATOM      5  C   UNL d   1      -0.284   0.658   0.421  0.00  0.00     0.064 A 
ATOM      6  C   UNL d   1      -0.703  -0.632   0.029  0.00  0.00     0.034 A 
ATOM      7  C   UNL d   1      -0.031  -1.294  -0.984  0.00  0.00     0.088 A 
ATOM      8  N   UNL d   1       1.023  -0.768  -1.629  0.00  0.00    -0.374 N 
ATOM      9  C   UNL d   1       1.405   0.481  -1.261  0.00  0.00     0.103 A 
ATOM     10  HN  UNL d   1       1.513  -1.282  -2.361  1.00  0.00     0.164 HD
BRANCH   5  11
ATOM     11  C   UNL d   1      -1.005   1.277   1.583  0.00  0.00     0.418 C 
ATOM     12  F   UNL d   1      -0.369   2.323   2.177  0.00  0.00    -0.166 F 
ATOM     13  F   UNL d   1      -2.242   1.729   1.241  0.00  0.00    -0.166 F 
ATOM     14  F   UNL d   1      -1.211   0.379   2.590  0.00  0.00    -0.166 F 
ENDBRANCH   5  11
ENDBRANCH   1   4
BRANCH   1  15
ATOM     15  N   UNL d   1       0.403   3.626   0.238  0.00  0.00    -0.339 N 
ATOM     16  H   UNL d   1       0.192   3.657   1.239  0.00  0.00     0.167 HD
BRANCH  15  17
ATOM     17  C   UNL d   1       0.446   4.965  -0.246  0.00  0.00     0.055 A 
ATOM     18  C   UNL d   1      -0.051   6.023   0.545  0.00  0.00     0.062 A 
ATOM     19  C   UNL d   1      -0.081   7.336   0.071  0.00  0.00     0.050 A 
ATOM     20 CL   UNL d   1      -0.621   5.723   2.152  0.00  0.00    -0.082 Cl
ATOM     21  C   UNL d   1       0.372   7.604  -1.214  0.00  0.00     0.035 A 
ATOM     22  C   UNL d   1       0.851   6.579  -2.026  0.00  0.00     0.026 A 
ATOM     23 CL   UNL d   1       0.332   9.219  -1.811  0.00  0.00    -0.084 Cl
ATOM     24  C   UNL d   1       0.877   5.263  -1.546  0.00  0.00     0.033 A 
ENDBRANCH  15  17
ENDBRANCH   1  15
BRANCH   2  25
ATOM     25  O   UNL d   1       3.086   4.023   0.141  0.00  0.00    -0.288 OA
ATOM     26  H   UNL d   1       4.044   3.945  -0.021  0.00  0.00     0.244 HD
ENDBRANCH   2  25
TORSDOF 5
