REMARK  3 active torsions:
REMARK  status: ('A' for Active; 'I' for Inactive)
REMARK    1  A    between atoms: C_2  and  S_1 
REMARK    2  A    between atoms: N_3  and  S_1 
REMARK    3  A    between atoms: N_9  and  C_8 
ROOT
ATOM      1  C   UNL d   1       0.317   0.248   1.836  0.00  0.00     0.090 A 
ATOM      2  C   UNL d   1       0.601   1.389   2.643  0.00  0.00    -0.001 A 
ATOM      3  C   UNL d   1       0.099   1.413   3.978  0.00  0.00    -0.003 A 
ATOM      4  C   UNL d   1       0.392   2.522   4.830  0.00  0.00     0.017 A 
ATOM      5  C   UNL d   1      -0.441  -0.827   2.326  0.00  0.00     0.026 A 
ATOM      6  C   UNL d   1       1.355   2.506   2.207  0.00  0.00     0.014 A 
ATOM      7  C   UNL d   1      -0.667   0.311   4.429  0.00  0.00     0.014 A 
ATOM      8  C   UNL d   1      -0.931  -0.793   3.620  0.00  0.00     0.002 A 
ATOM      9  C   UNL d   1       1.581   3.610   3.025  0.00  0.00     0.003 A 
ATOM     10  C   UNL d   1       1.085   3.624   4.318  0.00  0.00     0.024 A 
ENDROOT
BRANCH   1  11
ATOM     11  S   UNL d   1       1.012   0.042   0.202  0.00  0.00     0.261 S 
ATOM     12  O   UNL d   1       0.385  -1.107  -0.424  0.00  0.00    -0.200 OA
ATOM     13  O   UNL d   1       2.452   0.093   0.354  0.00  0.00    -0.200 OA
BRANCH  11  14
ATOM     14  N   UNL d   1       0.507   1.417  -0.705  0.00  0.00    -0.307 N 
ATOM     15  C   UNL d   1      -0.969   1.591  -0.818  0.00  0.00     0.135 C 
ATOM     16  C   UNL d   1      -1.521   1.898  -2.209  0.00  0.00     0.021 C 
ATOM     17  C   UNL d   1      -1.195   3.303  -2.709  0.00  0.00     0.002 C 
ATOM     18  C   UNL d   1       0.192   3.427  -3.324  0.00  0.00     0.002 C 
ATOM     19  C   UNL d   1       1.327   3.079  -2.370  0.00  0.00     0.021 C 
ATOM     20  C   UNL d   1       1.325   1.617  -1.933  0.00  0.00     0.135 C 
ENDBRANCH  11  14
ENDBRANCH   1  11
BRANCH   4  21
ATOM     21  N   UNL d   1      -0.172   2.656   6.119  0.00  0.00    -0.302 NA
ATOM     22  H   UNL d   1      -0.293   1.776   6.606  0.00  0.00     0.124 HD
ATOM     23  H   UNL d   1       0.317   3.330   6.700  0.00  0.00     0.124 HD
ENDBRANCH   4  21
TORSDOF 3
