REMARK  9 active torsions:
REMARK  status: ('A' for Active; 'I' for Inactive)
REMARK    1  A    between atoms: O_14  and  C_2 
REMARK    2  A    between atoms: C_3  and  C_12 
REMARK       I    between atoms: N_4  and  C_7 
REMARK    3  A    between atoms: C_8  and  N_4 
REMARK    4  A    between atoms: C_15  and  N_4 
REMARK    5  A    between atoms: C_7  and  C_19 
REMARK    6  A    between atoms: C_19  and  O_14 
REMARK    7  A    between atoms: C_16  and  C_15 
REMARK    8  A    between atoms: O_25  and  C_16 
REMARK    9  A    between atoms: C_31  and  O_25 
ROOT
ATOM      1  C   UNL d   1      -1.245   1.580   2.535  0.00  0.00     0.101 A 
ATOM      2  C   UNL d   1      -1.034   2.046   1.235  0.00  0.00     0.164 A 
ATOM      3  N   UNL d   1      -1.501   1.416   0.131  0.00  0.00    -0.340 N 
ATOM      4  HN  UNL d   1      -1.318   1.785  -0.802  1.00  0.00     0.167 HD
ATOM      5  C   UNL d   1      -1.976   0.393   2.707  0.00  0.00    -0.035 A 
ATOM      6  C   UNL d   1      -0.716   2.310   3.646  0.00  0.00     0.104 C 
ATOM      7  N   UNL d   1      -0.294   2.880   4.564  0.00  0.00    -0.191 NA
ATOM      8  C   UNL d   1      -2.217   0.281   0.306  0.00  0.00     0.008 A 
ATOM      9  C   UNL d   1      -2.470  -0.257   1.567  0.00  0.00     0.033 A 
ATOM     10  C   UNL d   1      -2.253  -0.236   4.047  0.00  0.00     0.050 C 
ATOM     11  C   UNL d   1      -2.752  -0.391  -0.923  0.00  0.00     0.068 C 
ENDROOT
BRANCH   2  12
ATOM     12  O   UNL d   1      -0.281   3.198   1.072  0.00  0.00    -0.325 OA
BRANCH  12  13
ATOM     13  C   UNL d   1      -0.176   3.636  -0.281  0.00  0.00     0.280 C 
BRANCH  13  14
ATOM     14  C   UNL d   1       0.602   4.960  -0.351  0.00  0.00     0.249 C 
ATOM     15  N   UNL d   1       1.998   4.909  -0.236  0.00  0.00    -0.307 N 
ATOM     16  O   UNL d   1      -0.024   6.017  -0.476  0.00  0.00    -0.271 OA
BRANCH  15  17
ATOM     17  C   UNL d   1       2.777   6.101  -0.394  0.00  0.00     0.038 A 
ATOM     18  C   UNL d   1       3.761   6.433   0.548  0.00  0.00     0.046 A 
ATOM     19  C   UNL d   1       4.588   7.558   0.377  0.00  0.00     0.050 A 
ATOM     20  C   UNL d   1       4.432   8.342  -0.774  0.00  0.00     0.016 A 
ATOM     21  C   UNL d   1       3.440   8.035  -1.706  0.00  0.00     0.003 A 
ATOM     22  C   UNL d   1       2.604   6.932  -1.506  0.00  0.00     0.030 A 
BRANCH  19  23
ATOM     23  C   UNL d   1       5.631   7.920   1.405  0.00  0.00     0.417 C 
ATOM     24  F   UNL d   1       5.608   7.121   2.509  0.00  0.00    -0.166 F 
ATOM     25  F   UNL d   1       6.897   7.831   0.910  0.00  0.00    -0.166 F 
ATOM     26  F   UNL d   1       5.498   9.195   1.865  0.00  0.00    -0.166 F 
ENDBRANCH  19  23
ENDBRANCH  15  17
BRANCH  15  27
ATOM     27  C   UNL d   1       2.751   3.655  -0.040  0.00  0.00     0.243 C 
BRANCH  27  28
ATOM     28  C   UNL d   1       3.161   2.903  -1.313  0.00  0.00     0.277 C 
ATOM     29  O   UNL d   1       3.803   1.858  -1.276  0.00  0.00    -0.263 OA
BRANCH  28  30
ATOM     30  O   UNL d   1       2.779   3.530  -2.458  0.00  0.00    -0.321 OA
BRANCH  30  31
ATOM     31  C   UNL d   1       3.419   3.085  -3.668  0.00  0.00     0.174 C 
ATOM     32  C   UNL d   1       2.498   2.215  -4.502  0.00  0.00     0.034 C 
ENDBRANCH  30  31
ENDBRANCH  28  30
ENDBRANCH  27  28
ENDBRANCH  15  27
ENDBRANCH  13  14
ENDBRANCH  12  13
ENDBRANCH   2  12
TORSDOF 9
