REMARK  5 active torsions:
REMARK  status: ('A' for Active; 'I' for Inactive)
REMARK    1  A    between atoms: C_3  and  C_1 
REMARK       I    between atoms: N_6  and  C_3 
REMARK    2  A    between atoms: C_25  and  N_10 
REMARK    3  A    between atoms: O_30  and  C_11 
REMARK    4  A    between atoms: O_31  and  C_14 
REMARK    5  A    between atoms: C_24  and  C_25 
ROOT
ATOM      1  C   UNL d   1      -2.941  -2.256  -0.281  0.00  0.00     0.260 C 
ATOM      2  N   UNL d   1      -2.849  -3.618  -0.569  0.00  0.00    -0.344 N 
ATOM      3  N   UNL d   1      -2.325  -6.455  -1.236  0.00  0.00     0.095 N 
ATOM      4  O   UNL d   1      -2.232  -1.711   0.562  0.00  0.00    -0.267 OA
ATOM      5  C   UNL d   1      -1.978  -4.433   0.289  0.00  0.00     0.156 C 
ATOM      6  C   UNL d   1      -3.806  -4.401  -1.367  0.00  0.00     0.156 C 
ATOM      7  C   UNL d   1      -3.103  -5.552  -2.114  0.00  0.00     0.292 C 
ATOM      8  C   UNL d   1      -1.365  -5.633  -0.462  0.00  0.00     0.292 C 
ENDROOT
BRANCH   1   9
ATOM      9  C   UNL d   1      -3.925  -1.439  -1.042  0.00  0.00     0.108 C 
ATOM     10  C   UNL d   1      -4.885  -0.573  -0.319  0.00  0.00     0.304 C 
ATOM     11  O   UNL d   1      -5.818   0.106  -1.103  0.00  0.00    -0.274 OA
ATOM     12  O   UNL d   1      -4.909  -0.464   0.901  0.00  0.00    -0.259 OA
ATOM     13  C   UNL d   1      -5.857  -0.037  -2.502  0.00  0.00     0.092 A 
ATOM     14  C   UNL d   1      -4.896  -0.782  -3.162  0.00  0.00     0.002 A 
ATOM     15  C   UNL d   1      -6.906   0.578  -3.181  0.00  0.00     0.077 A 
ATOM     16  C   UNL d   1      -3.865  -1.446  -2.385  0.00  0.00     0.037 C 
ATOM     17  C   UNL d   1      -4.998  -0.922  -4.543  0.00  0.00     0.054 A 
ATOM     18  C   UNL d   1      -6.045  -0.312  -5.260  0.00  0.00     0.102 A 
ATOM     19  C   UNL d   1      -7.014   0.449  -4.572  0.00  0.00     0.104 A 
BRANCH  18  20
ATOM     20  O   UNL d   1      -5.965  -0.584  -6.601  0.00  0.00    -0.353 OA
ATOM     21  C   UNL d   1      -6.871   0.054  -7.488  0.00  0.00     0.210 C 
ENDBRANCH  18  20
BRANCH  19  22
ATOM     22  O   UNL d   1      -8.030   1.017  -5.291  0.00  0.00    -0.353 OA
ATOM     23  C   UNL d   1      -8.970   1.832  -4.601  0.00  0.00     0.210 C 
ENDBRANCH  19  22
ENDBRANCH   1   9
BRANCH   3  24
ATOM     24  C   UNL d   1      -3.245  -7.233  -0.392  0.00  0.00     0.311 C 
BRANCH  24  25
ATOM     25  C   UNL d   1      -2.587  -8.262   0.495  0.00  0.00    -0.027 A 
ATOM     26  C   UNL d   1      -2.762  -8.185   1.887  0.00  0.00     0.048 A 
ATOM     27  C   UNL d   1      -2.224  -9.186   2.665  0.00  0.00     0.105 A 
ATOM     28  O   UNL d   1      -2.326  -9.276   4.015  0.00  0.00    -0.323 OA
ATOM     29  C   UNL d   1      -1.522 -10.232   2.115  0.00  0.00     0.105 A 
ATOM     30  C   UNL d   1      -1.635 -10.520   4.252  0.00  0.00     0.352 A 
ATOM     31  O   UNL d   1      -1.097 -11.116   3.053  0.00  0.00    -0.323 OA
ATOM     32  C   UNL d   1      -1.312 -10.331   0.756  0.00  0.00     0.040 A 
ATOM     33  C   UNL d   1      -1.853  -9.334  -0.061  0.00  0.00     0.012 A 
ENDBRANCH  24  25
ENDBRANCH   3  24
TORSDOF 5
