REMARK  4 active torsions:
REMARK  status: ('A' for Active; 'I' for Inactive)
REMARK    1  A    between atoms: N_7  and  C_1 
REMARK    2  A    between atoms: C_6  and  S_19 
REMARK       I    between atoms: C_16  and  N_7 
REMARK    3  A    between atoms: C_21  and  C_16 
REMARK    4  A    between atoms: S_19  and  C_21 
ROOT
ATOM      1  C   UNL d   1       2.542  -0.778   0.094  0.00  0.00     0.098 A 
ATOM      2  C   UNL d   1       2.013   0.497   0.157  0.00  0.00     0.085 A 
ATOM      3  C   UNL d   1       0.570   0.455   0.096  0.00  0.00    -0.021 A 
ATOM      4  C   UNL d   1       0.108  -0.849   0.045  0.00  0.00    -0.007 A 
ATOM      5  S   UNL d   1       1.358  -1.986  -0.089  0.00  0.00    -0.075 SA
ATOM      6  C   UNL d   1       2.789   1.706   0.184  0.00  0.00     0.103 C 
ATOM      7  N   UNL d   1       3.415   2.689   0.176  0.00  0.00    -0.191 NA
ATOM      8  C   UNL d   1      -0.379   1.624   0.030  0.00  0.00     0.042 C 
ATOM      9  C   UNL d   1      -1.327  -1.267   0.062  0.00  0.00     0.051 C 
ATOM     10  C   UNL d   1      -1.845   1.205   0.253  0.00  0.00     0.009 C 
ATOM     11  C   UNL d   1      -2.229  -0.124  -0.439  0.00  0.00    -0.014 C 
ATOM     12  C   UNL d   1      -2.190  -0.016  -1.967  0.00  0.00     0.010 C 
ENDROOT
BRANCH   1  13
ATOM     13  N   UNL d   1       3.806  -1.319   0.131  0.00  0.00    -0.319 N 
ATOM     14  C   UNL d   1       4.796  -0.827   0.950  0.00  0.00     0.232 C 
ATOM     15  O   UNL d   1       4.689   0.130   1.715  0.00  0.00    -0.272 OA
ATOM     16  H   UNL d   1       3.895  -2.265  -0.223  0.00  0.00     0.169 HD
BRANCH  14  17
ATOM     17  C   UNL d   1       6.107  -1.580   0.859  0.00  0.00     0.185 C 
BRANCH  17  18
ATOM     18  S   UNL d   1       6.914  -1.281  -0.724  0.00  0.00    -0.083 SA
BRANCH  18  19
ATOM     19  C   UNL d   1       7.140   0.428  -0.818  0.00  0.00     0.160 A 
ATOM     20  N   UNL d   1       6.764   1.344   0.121  0.00  0.00    -0.331 N 
ATOM     21  C   UNL d   1       7.096   2.560  -0.398  0.00  0.00     0.199 A 
ATOM     22  H   UNL d   1       6.278   1.188   0.995  0.00  0.00     0.168 HD
ATOM     23  N   UNL d   1       7.670   2.401  -1.567  0.00  0.00    -0.294 N 
ATOM     24  N   UNL d   1       7.691   1.050  -1.835  0.00  0.00    -0.279 N 
ATOM     25  HN  UNL d   1       8.033   3.141  -2.166  1.00  0.00     0.187 HD
ATOM     26  HN  UNL d   1       8.068   0.610  -2.674  1.00  0.00     0.189 HD
ENDBRANCH  18  19
ENDBRANCH  17  18
ENDBRANCH  14  17
ENDBRANCH   1  13
TORSDOF 4
