REMARK  4 active torsions:
REMARK  status: ('A' for Active; 'I' for Inactive)
REMARK    1  A    between atoms: C_12  and  C_5 
REMARK    2  A    between atoms: S_14  and  C_7 
REMARK    3  A    between atoms: N_15  and  C_8 
REMARK    4  A    between atoms: C_9  and  C_13 
ROOT
ATOM      1  N   UNL d   1       1.657  -1.313   0.030  0.00  0.00    -0.335 N 
ATOM      2  HN  UNL d   1       2.247  -2.144   0.069  1.00  0.00     0.168 HD
ATOM      3  N   UNL d   1       1.466   1.048  -0.016  0.00  0.00    -0.331 N 
ATOM      4  HN  UNL d   1       1.915   1.964  -0.017  1.00  0.00     0.168 HD
ATOM      5  C   UNL d   1       2.190  -0.083   0.023  0.00  0.00     0.117 A 
ATOM      6  C   UNL d   1      -0.509  -0.300  -0.060  0.00  0.00     0.116 A 
ATOM      7  C   UNL d   1       0.314  -1.411  -0.016  0.00  0.00     0.095 A 
ATOM      8  C   UNL d   1       0.131   0.928  -0.052  0.00  0.00     0.103 A 
ATOM      9  C   UNL d   1      -1.933  -0.385  -0.096  0.00  0.00     0.105 C 
ATOM     10  N   UNL d   1      -3.092  -0.415  -0.092  0.00  0.00    -0.191 NA
ENDROOT
BRANCH   7  11
ATOM     11  S   UNL d   1      -0.344  -3.082  -0.022  0.00  0.00    -0.115 SA
ATOM     12  C   UNL d   1       1.186  -4.059  -0.003  0.00  0.00     0.097 C 
ENDBRANCH   7  11
BRANCH   8  13
ATOM     13  N   UNL d   1      -0.553   2.138  -0.170  0.00  0.00    -0.287 NA
ATOM     14  H   UNL d   1      -1.341   2.246   0.460  0.00  0.00     0.125 HD
ATOM     15  H   UNL d   1       0.113   2.903  -0.089  0.00  0.00     0.125 HD
ENDBRANCH   8  13
BRANCH   5  16
ATOM     16  C   UNL d   1       3.661   0.027   0.043  0.00  0.00     0.008 A 
ATOM     17  C   UNL d   1       4.307   1.277   0.033  0.00  0.00     0.016 A 
ATOM     18  C   UNL d   1       5.703   1.382   0.043  0.00  0.00     0.017 A 
ATOM     19  C   UNL d   1       6.503   0.233   0.064  0.00  0.00     0.048 A 
ATOM     20  C   UNL d   1       5.878  -1.020   0.073  0.00  0.00     0.017 A 
ATOM     21  C   UNL d   1       4.482  -1.117   0.064  0.00  0.00     0.016 A 
BRANCH  19  22
ATOM     22  C   UNL d   1       8.008   0.324   0.078  0.00  0.00     0.417 C 
ATOM     23  F   UNL d   1       8.478   1.603   0.052  0.00  0.00    -0.166 F 
ATOM     24  F   UNL d   1       8.553  -0.251   1.186  0.00  0.00    -0.166 F 
ATOM     25  F   UNL d   1       8.578  -0.304  -0.988  0.00  0.00    -0.166 F 
ENDBRANCH  19  22
ENDBRANCH   5  16
TORSDOF 4
