REMARK  4 active torsions:
REMARK  status: ('A' for Active; 'I' for Inactive)
REMARK    1  A    between atoms: C_9  and  C_3 
REMARK    2  A    between atoms: C_8  and  C_7 
REMARK    3  A    between atoms: O_16  and  C_10 
REMARK    4  A    between atoms: O_17  and  C_14 
ROOT
ATOM      1  N   UNL d   1       1.567  -0.081   0.329  0.00  0.00    -0.331 N 
ATOM      2  HN  UNL d   1       2.512  -0.459   0.270  1.00  0.00     0.168 HD
ATOM      3  C   UNL d   1       1.191   1.159   0.341  0.00  0.00     0.162 A 
ATOM      4  C   UNL d   1       0.376  -0.758   0.415  0.00  0.00     0.111 A 
ATOM      5  O   UNL d   1      -0.127   1.415   0.515  0.00  0.00    -0.256 OA
ATOM      6  C   UNL d   1      -0.751   0.201   0.607  0.00  0.00     0.316 A 
ATOM      7  C   UNL d   1       0.291  -2.076   0.204  0.00  0.00     0.050 C 
ATOM      8  O   UNL d   1      -1.929   0.010   0.816  0.00  0.00    -0.257 OA
ENDROOT
BRANCH   7   9
ATOM      9  C   UNL d   1      -0.943  -2.841   0.017  0.00  0.00     0.002 A 
ATOM     10  C   UNL d   1      -1.553  -3.030  -1.236  0.00  0.00     0.078 A 
ATOM     11  C   UNL d   1      -2.759  -3.737  -1.309  0.00  0.00     0.040 A 
ATOM     12  C   UNL d   1      -3.346  -4.287  -0.168  0.00  0.00     0.039 A 
ATOM     13  C   UNL d   1      -2.735  -4.130   1.072  0.00  0.00     0.069 A 
ATOM     14  C   UNL d   1      -1.545  -3.399   1.159  0.00  0.00     0.051 A 
BRANCH  10  15
ATOM     15  O   UNL d   1      -1.154  -2.528  -2.446  0.00  0.00    -0.355 OA
ATOM     16  C   UNL d   1       0.237  -2.529  -2.739  0.00  0.00     0.210 C 
ENDBRANCH  10  15
BRANCH  13  17
ATOM     17  O   UNL d   1      -3.191  -4.639   2.258  0.00  0.00    -0.356 OA
ATOM     18  C   UNL d   1      -4.377  -5.423   2.205  0.00  0.00     0.210 C 
ENDBRANCH  13  17
ENDBRANCH   7   9
BRANCH   3  19
ATOM     19  C   UNL d   1       2.048   2.333   0.123  0.00  0.00     0.015 A 
ATOM     20  C   UNL d   1       3.421   2.135  -0.077  0.00  0.00     0.016 A 
ATOM     21  C   UNL d   1       4.245   3.215  -0.399  0.00  0.00     0.001 A 
ATOM     22  C   UNL d   1       3.703   4.493  -0.519  0.00  0.00     0.000 A 
ATOM     23  C   UNL d   1       2.340   4.699  -0.302  0.00  0.00     0.001 A 
ATOM     24  C   UNL d   1       1.511   3.622   0.021  0.00  0.00     0.016 A 
ENDBRANCH   3  19
TORSDOF 4
