REMARK  0 active torsions:
REMARK  status: ('A' for Active; 'I' for Inactive)
ROOT
ATOM      1  C   UNL d   1       1.201   0.940  -0.000  0.00  0.00     0.102 A 
ATOM      2  C   UNL d   1       0.746  -0.351  -0.003  0.00  0.00     0.069 A 
ATOM      3  S   UNL d   1      -0.059   2.067   0.001  0.00  0.00    -0.064 SA
ATOM      4  C   UNL d   1      -0.682  -0.462  -0.003  0.00  0.00     0.032 A 
ATOM      5  C   UNL d   1      -1.232   0.822  -0.001  0.00  0.00     0.088 A 
ATOM      6  C   UNL d   1       2.595   1.283   0.001  0.00  0.00     0.267 A 
ATOM      7  N   UNL d   1       1.627  -1.445  -0.005  0.00  0.00    -0.350 N 
ATOM      8  HN  UNL d   1       1.306  -2.413  -0.007  1.00  0.00     0.166 HD
ATOM      9  N   UNL d   1       3.414   0.156  -0.002  0.00  0.00    -0.314 N 
ATOM     10  C   UNL d   1       2.881  -1.120  -0.005  0.00  0.00     0.186 A 
ATOM     11  N   UNL d   1      -2.541   1.147  -0.002  0.00  0.00    -0.354 N 
ATOM     12  HN  UNL d   1      -2.868   2.113  -0.001  1.00  0.00     0.166 HD
ATOM     13  C   UNL d   1      -1.595  -1.549  -0.004  0.00  0.00    -0.045 A 
ATOM     14  C   UNL d   1      -2.965  -1.230  -0.004  0.00  0.00     0.032 A 
ATOM     15  O   UNL d   1       3.034   2.431   0.004  0.00  0.00    -0.266 OA
ATOM     16  C   UNL d   1      -3.381   0.096  -0.004  0.00  0.00     0.006 A 
ATOM     17  C   UNL d   1       4.854   0.311  -0.002  0.00  0.00     0.160 C 
ATOM     18  C   UNL d   1      -1.216  -3.005  -0.005  0.00  0.00     0.049 C 
ATOM     19  C   UNL d   1      -4.851   0.404  -0.006  0.00  0.00     0.068 C 
ENDROOT
TORSDOF 0
