REMARK  3 active torsions:
REMARK  status: ('A' for Active; 'I' for Inactive)
REMARK    1  A    between atoms: C_6  and  C_1 
REMARK    2  A    between atoms: C_12  and  N_5 
REMARK    3  A    between atoms: C_8  and  C_6 
ROOT
ATOM      1  C   UNL d   1       0.898  -0.691   0.013  0.00  0.00     0.122 A 
ATOM      2  N   UNL d   1       0.924   0.658  -0.029  0.00  0.00    -0.289 N 
ATOM      3  HN  UNL d   1       1.747   1.257  -0.094  1.00  0.00     0.188 HD
ATOM      4  C   UNL d   1      -0.436  -1.155   0.083  0.00  0.00     0.094 A 
ATOM      5  N   UNL d   1      -0.376   1.051   0.033  0.00  0.00    -0.266 N 
ATOM      6  C   UNL d   1      -1.220  -0.030   0.120  0.00  0.00     0.142 A 
ATOM      7  C   UNL d   1      -0.921  -2.492   0.140  0.00  0.00     0.103 C 
ATOM      8  N   UNL d   1      -1.374  -3.559   0.212  0.00  0.00    -0.191 NA
ENDROOT
BRANCH   1   9
ATOM      9  C   UNL d   1       2.099  -1.546  -0.053  0.00  0.00     0.218 C 
ATOM     10  O   UNL d   1       2.010  -2.694  -0.484  0.00  0.00    -0.284 OA
BRANCH   9  11
ATOM     11  C   UNL d   1       3.339  -0.973   0.454  0.00  0.00     0.057 A 
ATOM     12  S   UNL d   1       4.827  -1.554  -0.179  0.00  0.00    -0.098 SA
ATOM     13  C   UNL d   1       5.743  -0.542   0.848  0.00  0.00     0.050 A 
ATOM     14  C   UNL d   1       4.944   0.215   1.673  0.00  0.00     0.009 A 
ATOM     15  C   UNL d   1       3.558  -0.028   1.443  0.00  0.00     0.023 A 
ENDBRANCH   9  11
ENDBRANCH   1   9
BRANCH   5  16
ATOM     16  C   UNL d   1      -0.744   2.425   0.010  0.00  0.00     0.056 A 
ATOM     17  C   UNL d   1       0.232   3.413  -0.180  0.00  0.00     0.032 A 
ATOM     18  C   UNL d   1      -0.138   4.762  -0.227  0.00  0.00     0.009 A 
ATOM     19  C   UNL d   1      -1.478   5.141  -0.072  0.00  0.00    -0.062 A 
ATOM     20  C   UNL d   1      -2.445   4.153   0.130  0.00  0.00     0.009 A 
ATOM     21  C   UNL d   1      -1.873   6.586  -0.146  0.00  0.00     0.048 C 
ATOM     22  C   UNL d   1      -2.084   2.805   0.168  0.00  0.00     0.032 A 
ENDBRANCH   5  16
TORSDOF 3
