REMARK  2 active torsions:
REMARK  status: ('A' for Active; 'I' for Inactive)
REMARK    1  A    between atoms: C_6  and  C_1 
REMARK    2  A    between atoms: C_8  and  C_5 
ROOT
ATOM      1  C   UNL d   1      -0.079   1.183   0.247  0.00  0.00     0.136 C 
ATOM      2  N   UNL d   1      -1.433  -0.807  -0.043  0.00  0.00    -0.228 NA
ATOM      3  N   UNL d   1      -0.085  -1.152   0.072  0.00  0.00    -0.290 N 
ATOM      4  C   UNL d   1       0.768  -0.068   0.182  0.00  0.00     0.242 C 
ATOM      5  C   UNL d   1      -1.442   0.660  -0.277  0.00  0.00     0.127 C 
ATOM      6  O   UNL d   1       1.986  -0.136   0.230  0.00  0.00    -0.271 OA
ATOM      7  H   UNL d   1      -1.857  -1.277  -0.847  0.00  0.00     0.147 HD
ATOM      8  H   UNL d   1       0.270  -2.102   0.048  0.00  0.00     0.183 HD
ENDROOT
BRANCH   1   9
ATOM      9  C   UNL d   1      -0.119   1.764   1.653  0.00  0.00    -0.043 A 
ATOM     10  C   UNL d   1       0.366   3.059   1.889  0.00  0.00     0.008 A 
ATOM     11  C   UNL d   1       0.364   3.597   3.179  0.00  0.00     0.001 A 
ATOM     12  C   UNL d   1      -0.120   2.848   4.250  0.00  0.00     0.000 A 
ATOM     13  C   UNL d   1      -0.605   1.562   4.032  0.00  0.00     0.001 A 
ATOM     14  C   UNL d   1      -0.606   1.024   2.744  0.00  0.00     0.008 A 
ENDBRANCH   1   9
BRANCH   5  15
ATOM     15  C   UNL d   1      -1.682   0.971  -1.756  0.00  0.00    -0.038 A 
ATOM     16  C   UNL d   1      -2.823   1.695  -2.138  0.00  0.00     0.009 A 
ATOM     17  C   UNL d   1      -3.082   1.960  -3.485  0.00  0.00     0.001 A 
ATOM     18  C   UNL d   1      -2.208   1.507  -4.470  0.00  0.00     0.000 A 
ATOM     19  C   UNL d   1      -1.072   0.789  -4.111  0.00  0.00     0.001 A 
ATOM     20  C   UNL d   1      -0.809   0.525  -2.765  0.00  0.00     0.009 A 
ENDBRANCH   5  15
TORSDOF 2
