REMARK  3 active torsions:
REMARK  status: ('A' for Active; 'I' for Inactive)
REMARK    1  A    between atoms: C_6  and  N_1 
REMARK    2  A    between atoms: C_7  and  C_6 
REMARK    3  A    between atoms: O_9  and  C_7 
ROOT
ATOM      1  N   UNL d   1       0.150  -1.616   0.012  0.00  0.00    -0.335 N 
ATOM      2  C   UNL d   1      -1.032  -0.895   0.012  0.00  0.00     0.046 A 
ATOM      3  C   UNL d   1       1.243  -0.767   0.033  0.00  0.00     0.046 A 
ATOM      4  C   UNL d   1       0.741   0.538   0.033  0.00  0.00     0.003 A 
ATOM      5  C   UNL d   1      -0.684   0.456   0.027  0.00  0.00     0.003 A 
ATOM      6  C   UNL d   1       2.627  -1.018   0.032  0.00  0.00     0.030 A 
ATOM      7  C   UNL d   1      -2.374  -1.311  -0.007  0.00  0.00     0.030 A 
ATOM      8  C   UNL d   1      -1.708   1.427   0.020  0.00  0.00     0.014 A 
ATOM      9  C   UNL d   1       1.644   1.622   0.028  0.00  0.00     0.014 A 
ATOM     10  C   UNL d   1       3.019   1.379   0.019  0.00  0.00     0.001 A 
ATOM     11  C   UNL d   1       3.501   0.076   0.023  0.00  0.00     0.002 A 
ATOM     12  C   UNL d   1      -3.370  -0.330  -0.008  0.00  0.00     0.002 A 
ATOM     13  C   UNL d   1      -3.045   1.023   0.004  0.00  0.00     0.001 A 
ENDROOT
BRANCH   1  14
ATOM     14  C   UNL d   1       0.221  -3.071  -0.078  0.00  0.00     0.239 C 
BRANCH  14  15
ATOM     15  C   UNL d   1      -0.448  -3.819   1.048  0.00  0.00     0.158 C 
ATOM     16  O   UNL d   1      -0.929  -4.935   0.894  0.00  0.00    -0.649 OA
BRANCH  15  17
ATOM     17  O   UNL d   1      -0.416  -3.236   2.266  0.00  0.00    -0.775 OA
ATOM     18  H   UNL d   1      -0.041  -2.332   2.295  0.00  0.00     0.167 HD
ENDBRANCH  15  17
ENDBRANCH  14  15
ENDBRANCH   1  14
TORSDOF 3
