REMARK  2 active torsions:
REMARK  status: ('A' for Active; 'I' for Inactive)
REMARK    1  A    between atoms: C_4  and  N_1 
REMARK    2  A    between atoms: N_2  and  C_3 
ROOT
ATOM      1  C   UNL d   1      -1.675  -3.225  -0.146  0.00  0.00     0.130 A 
ATOM      2  C   UNL d   1      -1.681  -1.917  -0.666  0.00  0.00     0.077 A 
ATOM      3  C   UNL d   1      -2.499  -4.229  -0.687  0.00  0.00     0.038 A 
ATOM      4  C   UNL d   1      -2.554  -1.647  -1.738  0.00  0.00     0.032 A 
ATOM      5  C   UNL d   1      -3.338  -3.936  -1.761  0.00  0.00     0.003 A 
ATOM      6  C   UNL d   1      -3.368  -2.646  -2.282  0.00  0.00     0.002 A 
ENDROOT
BRANCH   2   7
ATOM      7  N   UNL d   1      -0.796  -0.880  -0.256  0.00  0.00    -0.258 N 
ATOM      8  C   UNL d   1       0.578  -1.084  -0.176  0.00  0.00     0.372 C 
ATOM      9  O   UNL d   1       1.208   0.105   0.079  0.00  0.00    -0.297 OA
ATOM     10  O   UNL d   1       1.183  -2.132  -0.353  0.00  0.00    -0.238 OA
ATOM     11  C   UNL d   1       0.234   1.155   0.047  0.00  0.00     0.237 C 
ATOM     12  C   UNL d   1      -1.076   0.452  -0.061  0.00  0.00     0.037 C 
ATOM     13  C   UNL d   1      -2.282   1.004   0.116  0.00  0.00     0.041 C 
ENDBRANCH   2   7
BRANCH   1  14
ATOM     14  N   UNL d   1      -0.949  -3.560   1.076  0.00  0.00    -0.113 N 
ATOM     15  O   UNL d   1      -0.978  -2.734   2.000  0.00  0.00    -0.532 OA
ATOM     16  O   UNL d   1      -0.433  -4.685   1.142  0.00  0.00    -0.532 OA
ENDBRANCH   1  14
TORSDOF 2
