REMARK  4 active torsions:
REMARK  status: ('A' for Active; 'I' for Inactive)
REMARK    1  A    between atoms: C_7  and  C_3 
REMARK    2  A    between atoms: C_12  and  N_4 
REMARK       I    between atoms: N_10  and  C_7 
REMARK       I    between atoms: C_8  and  N_11 
REMARK    3  A    between atoms: C_9  and  C_8 
REMARK    4  A    between atoms: N_11  and  N_10 
ROOT
ATOM      1  C   UNL d   1      -0.749  -2.561   0.048  0.00  0.00     0.288 C 
ATOM      2  N   UNL d   1       0.286  -3.476   0.030  0.00  0.00    -0.262 N 
ATOM      3  O   UNL d   1      -1.928  -2.914   0.102  0.00  0.00    -0.264 OA
ATOM      4  H   UNL d   1       1.258  -3.177  -0.036  0.00  0.00     0.190 HD
ENDROOT
BRANCH   1   5
ATOM      5  C   UNL d   1      -0.348  -1.143   0.017  0.00  0.00     0.119 A 
ATOM      6  N   UNL d   1       0.926  -0.711   0.017  0.00  0.00    -0.292 N 
ATOM      7  N   UNL d   1       0.845   0.654   0.014  0.00  0.00    -0.287 N 
ATOM      8  HN  UNL d   1       1.772  -1.280   0.019  1.00  0.00     0.187 HD
ATOM      9  C   UNL d   1      -0.468   1.091   0.011  0.00  0.00     0.028 A 
ATOM     10  C   UNL d   1      -0.965   2.491   0.016  0.00  0.00     0.070 C 
ATOM     11  C   UNL d   1      -1.240  -0.050   0.005  0.00  0.00     0.063 A 
BRANCH   7  12
ATOM     12  C   UNL d   1       2.095   1.452   0.019  0.00  0.00     0.043 C 
ATOM     13  C   UNL d   1       3.355   0.547  -0.003  0.00  0.00     0.039 C 
ATOM     14  C   UNL d   1       2.181   2.347  -1.236  0.00  0.00     0.039 C 
ATOM     15  C   UNL d   1       2.196   2.307   1.299  0.00  0.00     0.039 C 
ENDBRANCH   7  12
ENDBRANCH   1   5
BRANCH   2  16
ATOM     16  N   UNL d   1      -0.015  -4.846   0.131  0.00  0.00    -0.261 N 
ATOM     17  C   UNL d   1       0.866  -5.798  -0.347  0.00  0.00     0.293 C 
ATOM     18  O   UNL d   1       1.971  -5.494  -0.802  0.00  0.00    -0.264 OA
ATOM     19  H   UNL d   1      -0.972  -5.100   0.374  0.00  0.00     0.190 HD
BRANCH  17  20
ATOM     20  C   UNL d   1       0.387  -7.165  -0.255  0.00  0.00     0.144 A 
ATOM     21  O   UNL d   1      -0.827  -7.427   0.332  0.00  0.00    -0.317 OA
ATOM     22  C   UNL d   1      -1.001  -8.775   0.312  0.00  0.00     0.143 A 
ATOM     23  C   UNL d   1       0.071  -9.393  -0.287  0.00  0.00     0.027 A 
ATOM     24  C   UNL d   1       0.962  -8.357  -0.655  0.00  0.00     0.045 A 
ENDBRANCH  17  20
ENDBRANCH   2  16
TORSDOF 4
