REMARK  3 active torsions:
REMARK  status: ('A' for Active; 'I' for Inactive)
REMARK    1  A    between atoms: N_3  and  C_1 
REMARK    2  A    between atoms: C_4  and  C_2 
REMARK    3  A    between atoms: O_13  and  C_4 
ROOT
ATOM      1  C   UNL d   1       1.313   0.740  -0.022  0.00  0.00     0.063 A 
ATOM      2  C   UNL d   1       1.056  -0.522  -0.545  0.00  0.00     0.105 A 
ATOM      3  S   UNL d   1      -0.619  -0.931  -0.421  0.00  0.00    -0.093 SA
ATOM      4  C   UNL d   1       0.110   1.330   0.503  0.00  0.00     0.039 A 
ATOM      5  C   UNL d   1      -0.994   0.521   0.375  0.00  0.00     0.053 A 
ENDROOT
BRANCH   1   6
ATOM      6  N   UNL d   1       2.583   1.439   0.004  0.00  0.00    -0.319 N 
ATOM      7  C   UNL d   1       3.565   1.469  -0.992  0.00  0.00     0.013 A 
ATOM      8  C   UNL d   1       4.582   2.313  -0.584  0.00  0.00     0.027 A 
ATOM      9  C   UNL d   1       3.509   0.799  -2.321  0.00  0.00     0.068 C 
ATOM     10  C   UNL d   1       4.226   2.854   0.655  0.00  0.00     0.027 A 
ATOM     11  C   UNL d   1       3.011   2.308   1.019  0.00  0.00     0.013 A 
ATOM     12  C   UNL d   1       2.318   2.547   2.318  0.00  0.00     0.068 C 
ENDBRANCH   1   6
BRANCH   2  13
ATOM     13  C   UNL d   1       1.952  -1.545  -1.058  0.00  0.00     0.185 C 
ATOM     14  O   UNL d   1       3.083  -1.772  -0.659  0.00  0.00    -0.646 OA
BRANCH  13  15
ATOM     15  O   UNL d   1       1.401  -2.230  -2.094  0.00  0.00    -0.772 OA
ATOM     16  H   UNL d   1       0.487  -1.936  -2.281  0.00  0.00     0.167 HD
ENDBRANCH  13  15
ENDBRANCH   2  13
TORSDOF 3
