REMARK  2 active torsions:
REMARK  status: ('A' for Active; 'I' for Inactive)
REMARK    1  A    between atoms: C_2  and  C_1 
REMARK    2  A    between atoms: C_12  and  N_3 
ROOT
ATOM      1  C   UNL d   1      -0.780  -1.837  -0.307  0.00  0.00     0.151 C 
ATOM      2  N   UNL d   1      -1.760  -1.011  -0.832  0.00  0.00    -0.224 N 
ATOM      3  N   UNL d   1      -1.165   0.161  -1.180  0.00  0.00     0.001 NA
ATOM      4  N   UNL d   1       0.026   0.136  -0.606  0.00  0.00    -0.007 NA
ATOM      5  N   UNL d   1       0.264  -1.079  -0.022  0.00  0.00    -0.269 N 
ATOM      6  HN  UNL d   1       1.084  -1.347   0.523  1.00  0.00     0.185 HD
ENDROOT
BRANCH   1   7
ATOM      7  C   UNL d   1      -0.702  -3.325  -0.255  0.00  0.00     0.038 C 
ATOM      8  C   UNL d   1      -1.300  -4.307  -1.105  0.00  0.00     0.006 A 
ATOM      9  C   UNL d   1      -0.622  -5.506  -0.853  0.00  0.00     0.043 A 
ATOM     10  C   UNL d   1      -2.247  -4.301  -2.156  0.00  0.00     0.021 A 
ATOM     11  C   UNL d   1      -0.784  -6.655  -1.634  0.00  0.00     0.031 A 
ATOM     12  N   UNL d   1       0.212  -5.293   0.220  0.00  0.00    -0.364 N 
ATOM     13  C   UNL d   1      -1.700  -6.604  -2.686  0.00  0.00     0.009 A 
ATOM     14  C   UNL d   1      -2.463  -5.460  -2.926  0.00  0.00    -0.061 A 
ATOM     15  C   UNL d   1      -3.449  -5.442  -4.059  0.00  0.00     0.048 C 
ATOM     16  C   UNL d   1       0.200  -3.972   0.566  0.00  0.00     0.104 C 
ATOM     17  H   UNL d   1       0.818  -5.995   0.623  0.00  0.00     0.165 HD
ENDBRANCH   1   7
BRANCH   2  18
ATOM     18  C   UNL d   1      -3.169  -1.103  -0.806  0.00  0.00     0.056 A 
ATOM     19  C   UNL d   1      -3.817  -1.910   0.140  0.00  0.00     0.032 A 
ATOM     20  C   UNL d   1      -5.208  -1.863   0.253  0.00  0.00     0.021 A 
ATOM     21  C   UNL d   1      -5.953  -1.038  -0.592  0.00  0.00     0.011 A 
ATOM     22  C   UNL d   1      -5.320  -0.255  -1.552  0.00  0.00     0.021 A 
ATOM     23 BR   UNL d   1      -7.833  -0.961  -0.414  0.00  0.00    -0.051 Br
ATOM     24  C   UNL d   1      -3.926  -0.272  -1.652  0.00  0.00     0.032 A 
ENDBRANCH   2  18
TORSDOF 2
