REMARK  3 active torsions:
REMARK  status: ('A' for Active; 'I' for Inactive)
REMARK    1  A    between atoms: C_5  and  C_1 
REMARK    2  A    between atoms: O_8  and  C_2 
REMARK    3  A    between atoms: O_10  and  C_5 
ROOT
ATOM      1  C   UNL d   1       2.141  -1.291   0.026  0.00  0.00     0.114 A 
ATOM      2  C   UNL d   1       0.750  -1.343   0.004  0.00  0.00     0.109 A 
ATOM      3  S   UNL d   1       2.726   0.322   0.020  0.00  0.00    -0.092 SA
ATOM      4  C   UNL d   1       0.190  -0.022  -0.008  0.00  0.00     0.052 A 
ATOM      5  C   UNL d   1       1.151   0.963  -0.009  0.00  0.00     0.072 A 
ATOM      6 BR   UNL d   1      -1.638   0.477  -0.014  0.00  0.00    -0.048 Br
ENDROOT
BRANCH   1   7
ATOM      7  C   UNL d   1       3.069  -2.412   0.022  0.00  0.00     0.302 C 
ATOM      8  O   UNL d   1       2.845  -3.529  -0.431  0.00  0.00    -0.259 OA
BRANCH   7   9
ATOM      9  O   UNL d   1       4.247  -2.071   0.629  0.00  0.00    -0.322 OA
ATOM     10  C   UNL d   1       5.191  -3.139   0.708  0.00  0.00     0.213 C 
ENDBRANCH   7   9
ENDBRANCH   1   7
BRANCH   2  11
ATOM     11  O   UNL d   1       0.193  -2.584   0.022  0.00  0.00    -0.353 OA
ATOM     12  C   UNL d   1      -1.214  -2.695  -0.005  0.00  0.00     0.210 C 
ENDBRANCH   2  11
TORSDOF 3
