REMARK  2 active torsions:
REMARK  status: ('A' for Active; 'I' for Inactive)
REMARK    1  A    between atoms: S_11  and  C_7 
REMARK    2  A    between atoms: N_12  and  C_8 
ROOT
ATOM      1  N   UNL d   1      -0.650   1.239  -0.015  0.00  0.00    -0.180 N 
ATOM      2  HN  UNL d   1      -1.226   2.080  -0.033  1.00  0.00     0.185 HD
ATOM      3  N   UNL d   1      -0.629  -1.194   0.070  0.00  0.00    -0.171 N 
ATOM      4  HN  UNL d   1      -1.200  -2.038   0.103  1.00  0.00     0.186 HD
ATOM      5  C   UNL d   1      -1.215   0.019  -0.003  0.00  0.00     0.679 A 
ATOM      6  S   UNL d   1       1.773   0.033   0.009  0.00  0.00    -0.029 SA
ATOM      7  C   UNL d   1       0.626   1.322  -0.002  0.00  0.00     0.128 A 
ATOM      8  C   UNL d   1       0.652  -1.278   0.097  0.00  0.00     0.159 A 
ATOM      9  N   UNL d   1      -2.495  -0.018  -0.062  0.00  0.00    -0.234 N 
ATOM     10  HN  UNL d   1      -3.138   0.772  -0.127  1.00  0.00     0.174 HD
ATOM     11  H   UNL d   1      -2.731  -1.013  -0.029  0.00  0.00     0.174 HD
ENDROOT
BRANCH   8  12
ATOM     12  N   UNL d   1       1.252  -2.495   0.184  0.00  0.00    -0.379 N 
ATOM     13  H   UNL d   1       2.204  -2.559  -0.154  0.00  0.00     0.158 HD
ATOM     14  H   UNL d   1       0.655  -3.278  -0.059  0.00  0.00     0.158 HD
ENDBRANCH   8  12
BRANCH   7  15
ATOM     15  S   UNL d   1       1.350   2.918  -0.010  0.00  0.00    -0.117 SA
ATOM     16  H   UNL d   1       2.619   2.493   0.009  0.00  0.00     0.109 HD
ENDBRANCH   7  15
TORSDOF 2
