REMARK  7 active torsions:
REMARK  status: ('A' for Active; 'I' for Inactive)
REMARK    1  A    between atoms: N_13  and  C_3 
REMARK    2  A    between atoms: N_12  and  C_4 
REMARK    3  A    between atoms: O_17  and  C_8 
REMARK    4  A    between atoms: O_18  and  C_10 
REMARK    5  A    between atoms: C_19  and  N_12 
REMARK    6  A    between atoms: C_15  and  C_21 
REMARK    7  A    between atoms: C_21  and  C_19 
ROOT
ATOM      1  N   UNL d   1       0.315   3.089   0.092  0.00  0.00    -0.279 NA
ATOM      2  H   UNL d   1       1.053   3.283  -0.581  0.00  0.00     0.129 HD
ENDROOT
BRANCH   1   3
ATOM      3  C   UNL d   1       0.109   1.706   0.067  0.00  0.00     0.084 A 
ATOM      4  N   UNL d   1       1.035   0.988  -0.585  0.00  0.00    -0.324 N 
ATOM      5  C   UNL d   1       0.875  -0.338  -0.610  0.00  0.00     0.156 A 
ATOM      6  HN  UNL d   1       1.828   1.436  -1.043  1.00  0.00     0.169 HD
ATOM      7  N   UNL d   1      -0.120  -1.008  -0.025  0.00  0.00    -0.337 N 
ATOM      8  C   UNL d   1      -1.039  -0.273   0.629  0.00  0.00     0.011 A 
ATOM      9  HN  UNL d   1      -0.181  -2.025  -0.071  1.00  0.00     0.168 HD
ATOM     10  C   UNL d   1      -0.949   1.099   0.714  0.00  0.00     0.067 A 
ATOM     11  C   UNL d   1      -2.160  -1.013   1.292  0.00  0.00     0.068 C 
BRANCH   5  12
ATOM     12  N   UNL d   1       1.850  -1.093  -1.236  0.00  0.00    -0.274 NA
ATOM     13  H   UNL d   1       2.721  -0.581  -1.227  0.00  0.00     0.127 HD
ATOM     14  H   UNL d   1       1.857  -2.017  -0.827  0.00  0.00     0.127 HD
ENDBRANCH   5  12
ENDBRANCH   1   3
BRANCH   1  15
ATOM     15  C   UNL d   1      -0.879   3.920  -0.030  0.00  0.00     0.098 C 
BRANCH  15  16
ATOM     16  C   UNL d   1      -0.542   5.415  -0.107  0.00  0.00     0.053 C 
BRANCH  16  17
ATOM     17  C   UNL d   1      -1.744   6.346  -0.111  0.00  0.00    -0.054 A 
ATOM     18  C   UNL d   1      -1.525   7.737  -0.155  0.00  0.00     0.046 A 
ATOM     19  C   UNL d   1      -2.589   8.658  -0.123  0.00  0.00     0.102 A 
ATOM     20  C   UNL d   1      -3.905   8.169  -0.067  0.00  0.00     0.101 A 
ATOM     21  C   UNL d   1      -4.127   6.792  -0.014  0.00  0.00     0.040 A 
ATOM     22  C   UNL d   1      -3.064   5.889  -0.044  0.00  0.00     0.010 A 
BRANCH  19  23
ATOM     23  O   UNL d   1      -2.418  10.016  -0.108  0.00  0.00    -0.353 OA
ATOM     24  C   UNL d   1      -1.093  10.528  -0.123  0.00  0.00     0.210 C 
ENDBRANCH  19  23
BRANCH  20  25
ATOM     25  O   UNL d   1      -5.064   8.898   0.009  0.00  0.00    -0.353 OA
ATOM     26  C   UNL d   1      -5.088  10.136  -0.687  0.00  0.00     0.210 C 
ENDBRANCH  20  25
ENDBRANCH  16  17
ENDBRANCH  15  16
ENDBRANCH   1  15
TORSDOF 7
