REMARK  4 active torsions:
REMARK  status: ('A' for Active; 'I' for Inactive)
REMARK    1  A    between atoms: C_17  and  N_4 
REMARK    2  A    between atoms: C_16  and  C_5 
REMARK    3  A    between atoms: C_18  and  C_6 
REMARK    4  A    between atoms: N_11  and  N_13 
ROOT
ATOM      1  N   UNL d   1       2.740   7.029  -0.134  0.00  0.00    -0.292 N 
ATOM      2  HN  UNL d   1       3.736   7.196  -0.277  1.00  0.00     0.187 HD
ATOM      3  N   UNL d   1       1.767   7.962  -0.002  0.00  0.00    -0.266 N 
ATOM      4  C   UNL d   1       0.713   6.014   0.056  0.00  0.00     0.027 A 
ATOM      5  C   UNL d   1       2.125   5.840  -0.037  0.00  0.00     0.072 A 
ATOM      6  C   UNL d   1       0.529   7.377   0.121  0.00  0.00     0.132 A 
ENDROOT
BRANCH   4   7
ATOM      7  C   UNL d   1      -0.356   5.046   0.087  0.00  0.00     0.122 C 
ATOM      8  N   UNL d   1      -0.196   3.933  -0.547  0.00  0.00    -0.309 N 
ATOM      9  HN  UNL d   1       0.636   3.700  -1.090  1.00  0.00     0.186 HD
BRANCH   8  10
ATOM     10  N   UNL d   1      -1.286   3.095  -0.404  0.00  0.00    -0.280 N 
ATOM     11  C   UNL d   1      -1.487   2.248  -1.366  0.00  0.00     0.164 C 
ATOM     12  N   UNL d   1      -0.891   2.097  -2.592  0.00  0.00    -0.301 N 
ATOM     13  S   UNL d   1      -2.732   1.043  -1.117  0.00  0.00    -0.083 SA
ATOM     14  C   UNL d   1      -1.278   0.995  -3.327  0.00  0.00     0.235 C 
ATOM     15  C   UNL d   1       0.105   2.982  -3.169  0.00  0.00     0.161 C 
ATOM     16  O   UNL d   1      -0.770   0.637  -4.386  0.00  0.00    -0.272 OA
ATOM     17  C   UNL d   1      -2.432   0.261  -2.706  0.00  0.00     0.185 C 
ATOM     18  HN  UNL d   1      -1.898   3.139   0.412  1.00  0.00     0.189 HD
ENDBRANCH   8  10
ENDBRANCH   4   7
BRANCH   5  19
ATOM     19  C   UNL d   1       2.908   4.598   0.007  0.00  0.00    -0.007 A 
ATOM     20  C   UNL d   1       4.073   4.457  -0.760  0.00  0.00     0.014 A 
ATOM     21  C   UNL d   1       4.830   3.282  -0.697  0.00  0.00     0.001 A 
ATOM     22  C   UNL d   1       4.431   2.236   0.136  0.00  0.00     0.000 A 
ATOM     23  C   UNL d   1       3.283   2.366   0.910  0.00  0.00     0.001 A 
ATOM     24  C   UNL d   1       2.532   3.543   0.853  0.00  0.00     0.014 A 
ENDBRANCH   5  19
BRANCH   3  25
ATOM     25  C   UNL d   1       2.077   9.352   0.006  0.00  0.00     0.056 A 
ATOM     26  C   UNL d   1       3.405   9.767  -0.181  0.00  0.00     0.031 A 
ATOM     27  C   UNL d   1       3.727  11.126  -0.163  0.00  0.00     0.002 A 
ATOM     28  C   UNL d   1       2.731  12.078   0.045  0.00  0.00     0.000 A 
ATOM     29  C   UNL d   1       1.410  11.675   0.232  0.00  0.00     0.002 A 
ATOM     30  C   UNL d   1       1.079  10.317   0.211  0.00  0.00     0.031 A 
ENDBRANCH   3  25
TORSDOF 4
