REMARK  4 active torsions:
REMARK  status: ('A' for Active; 'I' for Inactive)
REMARK       I    between atoms: N_3  and  C_1 
REMARK       I    between atoms: N_4  and  C_1 
REMARK    1  A    between atoms: C_2  and  N_3 
REMARK    2  A    between atoms: C_6  and  N_4 
REMARK    3  A    between atoms: N_5  and  C_7 
REMARK    4  A    between atoms: O_15  and  C_9 
ROOT
ATOM      1  C   UNL d   1       1.108   0.808   1.962  0.00  0.00     0.325 C 
ATOM      2  N   UNL d   1       2.397   0.804   1.471  0.00  0.00    -0.306 N 
ATOM      3  N   UNL d   1       0.224   0.395   0.978  0.00  0.00    -0.307 N 
ATOM      4  O   UNL d   1       0.791   1.120   3.103  0.00  0.00    -0.247 OA
ATOM      5  H   UNL d   1       2.489   0.851   0.468  0.00  0.00     0.171 HD
ATOM      6  H   UNL d   1       0.602  -0.197   0.255  0.00  0.00     0.170 HD
ENDROOT
BRANCH   3   7
ATOM      7  C   UNL d   1      -1.162   0.220   1.187  0.00  0.00     0.063 A 
ATOM      8  C   UNL d   1      -1.811  -0.879   0.563  0.00  0.00     0.057 A 
ATOM      9  C   UNL d   1      -3.211  -0.925   0.684  0.00  0.00     0.031 A 
ATOM     10  C   UNL d   1      -3.930   0.051   1.386  0.00  0.00     0.002 A 
ATOM     11  C   UNL d   1      -3.265   1.104   2.002  0.00  0.00     0.002 A 
ATOM     12  C   UNL d   1      -1.881   1.184   1.908  0.00  0.00     0.032 A 
BRANCH   8  13
ATOM     13  N   UNL d   1      -1.106  -1.874  -0.126  0.00  0.00    -0.379 N 
ATOM     14  C   UNL d   1       0.077  -2.510   0.477  0.00  0.00     0.123 C 
ATOM     15  C   UNL d   1      -0.126  -4.000   0.729  0.00  0.00     0.020 C 
ATOM     16  C   UNL d   1      -0.673  -4.715  -0.497  0.00  0.00     0.003 C 
ATOM     17  C   UNL d   1      -1.960  -4.039  -0.957  0.00  0.00     0.020 C 
ATOM     18  C   UNL d   1      -1.710  -2.566  -1.272  0.00  0.00     0.123 C 
ENDBRANCH   8  13
ENDBRANCH   3   7
BRANCH   2  19
ATOM     19  C   UNL d   1       3.567   1.061   2.214  0.00  0.00     0.071 A 
ATOM     20  C   UNL d   1       3.643   0.823   3.591  0.00  0.00     0.056 A 
ATOM     21  C   UNL d   1       4.846   1.026   4.269  0.00  0.00     0.036 A 
ATOM     22 CL   UNL d   1       4.946   0.677   5.953  0.00  0.00    -0.084 Cl
ATOM     23  C   UNL d   1       5.976   1.478   3.593  0.00  0.00     0.026 A 
ATOM     24  C   UNL d   1       5.911   1.716   2.219  0.00  0.00     0.041 A 
ATOM     25  C   UNL d   1       4.710   1.513   1.534  0.00  0.00     0.095 A 
BRANCH  25  26
ATOM     26  O   UNL d   1       4.735   1.703   0.174  0.00  0.00    -0.354 OA
ATOM     27  C   UNL d   1       3.936   2.810  -0.252  0.00  0.00     0.210 C 
ENDBRANCH  25  26
ENDBRANCH   2  19
TORSDOF 4
