REMARK  5 active torsions:
REMARK  status: ('A' for Active; 'I' for Inactive)
REMARK    1  A    between atoms: N_2  and  C_1 
REMARK    2  A    between atoms: N_3  and  C_1 
REMARK    3  A    between atoms: C_5  and  N_2 
REMARK    4  A    between atoms: C_7  and  N_3 
REMARK    5  A    between atoms: O_12  and  C_6 
ROOT
ATOM      1  C   UNL d   1       0.922   0.061   0.000  0.00  0.00     0.172 C 
ATOM      2  S   UNL d   1       0.391   1.649   0.063  0.00  0.00    -0.041 SA
ENDROOT
BRANCH   1   3
ATOM      3  N   UNL d   1       2.153  -0.441   0.416  0.00  0.00    -0.333 N 
ATOM      4  H   UNL d   1       2.401  -1.336   0.014  0.00  0.00     0.168 HD
BRANCH   3   5
ATOM      5  C   UNL d   1       3.170   0.144   1.204  0.00  0.00     0.034 A 
ATOM      6  C   UNL d   1       2.971   1.209   2.078  0.00  0.00     0.032 A 
ATOM      7  C   UNL d   1       4.040   1.786   2.772  0.00  0.00     0.039 A 
ATOM      8  C   UNL d   1       5.327   1.283   2.615  0.00  0.00     0.068 A 
ATOM      9  C   UNL d   1       5.522   0.150   1.825  0.00  0.00     0.039 A 
ATOM     10  C   UNL d   1       4.452  -0.419   1.127  0.00  0.00     0.032 A 
BRANCH   8  11
ATOM     11  O   UNL d   1       6.442   1.800   3.215  0.00  0.00    -0.356 OA
ATOM     12  C   UNL d   1       6.403   3.210   3.423  0.00  0.00     0.210 C 
ENDBRANCH   8  11
ENDBRANCH   3   5
ENDBRANCH   1   3
BRANCH   1  13
ATOM     13  N   UNL d   1       0.137  -0.972  -0.501  0.00  0.00    -0.362 N 
ATOM     14  H   UNL d   1       0.615  -1.813  -0.791  0.00  0.00     0.162 HD
BRANCH  13  15
ATOM     15  C   UNL d   1      -1.318  -0.959  -0.706  0.00  0.00     0.083 C 
ATOM     16  C   UNL d   1      -1.923  -2.260  -0.161  0.00  0.00     0.025 C 
ATOM     17  C   UNL d   1      -1.612  -3.470  -1.040  0.00  0.00     0.002 C 
ATOM     18  C   UNL d   1      -2.023  -3.226  -2.488  0.00  0.00     0.000 C 
ATOM     19  C   UNL d   1      -1.401  -1.953  -3.054  0.00  0.00     0.002 C 
ATOM     20  C   UNL d   1      -1.697  -0.738  -2.175  0.00  0.00     0.025 C 
ENDBRANCH  13  15
ENDBRANCH   1  13
TORSDOF 5
