REMARK  10 active torsions:
REMARK  status: ('A' for Active; 'I' for Inactive)
REMARK    1  A    between atoms: N_2  and  C_1 
REMARK    2  A    between atoms: O_20  and  C_4 
REMARK    3  A    between atoms: C_5  and  N_12 
REMARK    4  A    between atoms: N_13  and  C_5 
REMARK    5  A    between atoms: S_11  and  C_7 
REMARK    6  A    between atoms: C_8  and  C_18 
REMARK       I    between atoms: N_14  and  C_8 
REMARK    7  A    between atoms: O_22  and  C_9 
REMARK    8  A    between atoms: C_18  and  S_11 
REMARK    9  A    between atoms: N_12  and  N_14 
REMARK   10  A    between atoms: C_19  and  N_13 
ROOT
ATOM      1  C   UNL d   1      -5.258  -0.566  -0.769  0.00  0.00     0.245 C 
ATOM      2  N   UNL d   1      -6.239  -1.288  -0.113  0.00  0.00    -0.267 N 
ATOM      3  O   UNL d   1      -5.526   0.309  -1.588  0.00  0.00    -0.271 OA
ATOM      4  H   UNL d   1      -6.023  -1.899   0.670  0.00  0.00     0.190 HD
ENDROOT
BRANCH   1   5
ATOM      5  C   UNL d   1      -3.834  -0.942  -0.362  0.00  0.00     0.184 C 
BRANCH   5   6
ATOM      6  S   UNL d   1      -3.003   0.552   0.276  0.00  0.00    -0.118 SA
BRANCH   6   7
ATOM      7  C   UNL d   1      -1.345  -0.064   0.577  0.00  0.00     0.037 A 
ATOM      8  C   UNL d   1      -0.305   0.534  -0.159  0.00  0.00     0.060 A 
ATOM      9  C   UNL d   1       1.041   0.235   0.087  0.00  0.00     0.102 A 
ATOM     10  C   UNL d   1       1.322  -0.653   1.123  0.00  0.00     0.138 A 
ATOM     11  C   UNL d   1       0.302  -1.290   1.855  0.00  0.00     0.077 A 
ATOM     12  C   UNL d   1      -1.038  -0.995   1.589  0.00  0.00     0.087 A 
BRANCH   9  13
ATOM     13  O   UNL d   1       1.912   0.933  -0.699  0.00  0.00    -0.353 OA
ATOM     14  C   UNL d   1       3.085   0.261  -1.150  0.00  0.00     0.210 C 
ENDBRANCH   9  13
BRANCH  10  15
ATOM     15  N   UNL d   1       2.675  -0.895   1.575  0.00  0.00    -0.113 N 
ATOM     16  O   UNL d   1       3.086  -2.061   1.509  0.00  0.00    -0.532 OA
ATOM     17  O   UNL d   1       3.307   0.069   2.026  0.00  0.00    -0.532 OA
ENDBRANCH  10  15
BRANCH  12  18
ATOM     18  O   UNL d   1      -2.093  -1.537   2.277  0.00  0.00    -0.355 OA
ATOM     19  C   UNL d   1      -1.798  -2.326   3.425  0.00  0.00     0.210 C 
ENDBRANCH  12  18
ENDBRANCH   6   7
ENDBRANCH   5   6
ENDBRANCH   1   5
BRANCH   2  20
ATOM     20  N   UNL d   1      -7.556  -0.802  -0.161  0.00  0.00    -0.274 N 
ATOM     21  H   UNL d   1      -7.664   0.101  -0.629  0.00  0.00     0.189 HD
BRANCH  20  22
ATOM     22  C   UNL d   1      -8.630  -1.649  -0.197  0.00  0.00     0.191 C 
ATOM     23  S   UNL d   1      -8.540  -3.301  -0.466  0.00  0.00    -0.039 SA
BRANCH  22  24
ATOM     24  N   UNL d   1      -9.869  -1.110   0.025  0.00  0.00    -0.332 N 
ATOM     25  H   UNL d   1     -10.618  -1.757  -0.201  0.00  0.00     0.168 HD
BRANCH  24  26
ATOM     26  C   UNL d   1     -10.258   0.004   0.806  0.00  0.00     0.034 A 
ATOM     27  C   UNL d   1      -9.374   0.838   1.500  0.00  0.00     0.032 A 
ATOM     28  C   UNL d   1      -9.858   1.847   2.342  0.00  0.00     0.044 A 
ATOM     29  C   UNL d   1     -11.226   2.016   2.499  0.00  0.00     0.116 A 
ATOM     30  C   UNL d   1     -12.123   1.209   1.814  0.00  0.00     0.044 A 
ATOM     31  F   UNL d   1     -11.684   2.958   3.333  0.00  0.00    -0.206 F 
ATOM     32  C   UNL d   1     -11.637   0.207   0.965  0.00  0.00     0.032 A 
ENDBRANCH  24  26
ENDBRANCH  22  24
ENDBRANCH  20  22
ENDBRANCH   2  20
TORSDOF 10
