REMARK  6 active torsions:
REMARK  status: ('A' for Active; 'I' for Inactive)
REMARK    1  A    between atoms: C_2  and  S_1 
REMARK    2  A    between atoms: C_5  and  S_1 
REMARK    3  A    between atoms: C_3  and  C_2 
REMARK    4  A    between atoms: C_4  and  C_3 
REMARK    5  A    between atoms: O_10  and  C_4 
REMARK    6  A    between atoms: C_15  and  O_10 
ROOT
ATOM      1  N   UNL d   1      -8.200   4.745   1.089  0.00  0.00    -0.191 NA
ATOM      2  C   UNL d   1      -7.371   3.991   0.796  0.00  0.00     0.099 C 
ATOM      3  C   UNL d   1      -6.338   3.054   0.449  0.00  0.00     0.044 A 
ATOM      4  C   UNL d   1      -4.310   1.250  -0.216  0.00  0.00     0.079 A 
ATOM      5  C   UNL d   1      -6.076   2.737  -0.894  0.00  0.00     0.025 A 
ATOM      6  C   UNL d   1      -5.584   2.450   1.458  0.00  0.00     0.025 A 
ATOM      7  C   UNL d   1      -5.057   1.830  -1.233  0.00  0.00     0.039 A 
ATOM      8  C   UNL d   1      -4.574   1.547   1.125  0.00  0.00     0.039 A 
ENDROOT
BRANCH   4   9
ATOM      9  O   UNL d   1      -3.258   0.315  -0.398  0.00  0.00    -0.279 OA
BRANCH   9  10
ATOM     10  C   UNL d   1      -2.543  -0.050  -1.547  0.00  0.00     0.265 C 
ATOM     11  O   UNL d   1      -2.727   0.348  -2.688  0.00  0.00    -0.265 OA
BRANCH  10  12
ATOM     12  C   UNL d   1      -1.493  -1.073  -1.133  0.00  0.00     0.131 C 
BRANCH  12  13
ATOM     13  C   UNL d   1      -0.031  -0.597  -1.177  0.00  0.00     0.118 C 
ATOM     14  C   UNL d   1       0.532  -0.566  -2.590  0.00  0.00     0.027 C 
BRANCH  13  15
ATOM     15  S   UNL d   1       0.164   0.934  -0.275  0.00  0.00     0.179 S 
ATOM     16  O   UNL d   1      -0.053   0.626   1.127  0.00  0.00    -0.222 OA
ATOM     17  O   UNL d   1      -0.636   1.957  -0.923  0.00  0.00    -0.222 OA
BRANCH  15  18
ATOM     18  C   UNL d   1       1.864   1.460  -0.421  0.00  0.00     0.059 A 
ATOM     19  C   UNL d   1       2.192   2.460  -1.346  0.00  0.00     0.025 A 
ATOM     20  C   UNL d   1       3.474   3.019  -1.343  0.00  0.00     0.025 A 
ATOM     21  C   UNL d   1       4.418   2.585  -0.414  0.00  0.00     0.034 A 
ATOM     22  C   UNL d   1       4.093   1.592   0.512  0.00  0.00     0.025 A 
ATOM     23 CL   UNL d   1       5.982   3.302  -0.387  0.00  0.00    -0.084 Cl
ATOM     24  C   UNL d   1       2.811   1.029   0.516  0.00  0.00     0.025 A 
ENDBRANCH  15  18
ENDBRANCH  13  15
ENDBRANCH  12  13
ENDBRANCH  10  12
ENDBRANCH   9  10
ENDBRANCH   4   9
TORSDOF 6
