REMARK  4 active torsions:
REMARK  status: ('A' for Active; 'I' for Inactive)
REMARK    1  A    between atoms: C_15  and  C_3 
REMARK    2  A    between atoms: O_10  and  C_4 
REMARK    3  A    between atoms: C_11  and  O_10 
REMARK    4  A    between atoms: C_12  and  C_11 
ROOT
ATOM      1  N   UNL d   1       0.614   0.342  -0.094  0.00  0.00    -0.280 N 
ATOM      2  C   UNL d   1       1.522   1.397  -0.111  0.00  0.00     0.266 A 
ATOM      3  C   UNL d   1       2.983   0.980  -0.101  0.00  0.00     0.078 A 
ATOM      4  C   UNL d   1       3.376  -0.319  -0.031  0.00  0.00     0.108 A 
ATOM      5  C   UNL d   1       1.034  -0.970  -0.046  0.00  0.00     0.066 A 
ATOM      6  C   UNL d   1      -0.763   0.367  -0.086  0.00  0.00     0.027 A 
ATOM      7  C   UNL d   1       2.369  -1.412   0.007  0.00  0.00     0.027 A 
ATOM      8  C   UNL d   1      -1.230  -0.936  -0.059  0.00  0.00    -0.022 A 
ATOM      9  C   UNL d   1      -0.088  -1.788  -0.025  0.00  0.00     0.000 A 
ATOM     10  O   UNL d   1       1.125   2.551  -0.110  0.00  0.00    -0.267 OA
ATOM     11  C   UNL d   1       2.510  -2.800   0.119  0.00  0.00     0.017 A 
ATOM     12  C   UNL d   1      -1.625   1.593  -0.042  0.00  0.00     0.058 C 
ATOM     13  C   UNL d   1       0.099  -3.175   0.037  0.00  0.00     0.014 A 
ATOM     14  C   UNL d   1      -2.678  -1.275  -0.049  0.00  0.00     0.041 C 
ATOM     15  C   UNL d   1       1.405  -3.664   0.113  0.00  0.00     0.002 A 
ATOM     16  C   UNL d   1      -3.086   1.225  -0.353  0.00  0.00     0.006 C 
ATOM     17  C   UNL d   1      -3.531  -0.061   0.364  0.00  0.00     0.005 C 
ENDROOT
BRANCH   4  18
ATOM     18  O   UNL d   1       4.794  -0.594   0.108  0.00  0.00    -0.273 OA
BRANCH  18  19
ATOM     19  C   UNL d   1       5.593  -1.610  -0.345  0.00  0.00     0.305 C 
ATOM     20  O   UNL d   1       5.236  -2.586  -0.989  0.00  0.00    -0.258 OA
BRANCH  19  21
ATOM     21  C   UNL d   1       6.978  -1.298  -0.056  0.00  0.00     0.080 A 
ATOM     22  S   UNL d   1       7.614  -1.512   1.518  0.00  0.00    -0.096 SA
ATOM     23  C   UNL d   1       9.190  -1.061   1.012  0.00  0.00     0.050 A 
ATOM     24  C   UNL d   1       9.228  -0.737  -0.326  0.00  0.00     0.009 A 
ATOM     25  C   UNL d   1       7.953  -0.890  -0.946  0.00  0.00     0.025 A 
ENDBRANCH  19  21
ENDBRANCH  18  19
ENDBRANCH   4  18
BRANCH   3  26
ATOM     26  C   UNL d   1       3.940   2.104  -0.169  0.00  0.00    -0.018 A 
ATOM     27  C   UNL d   1       4.132   2.771  -1.389  0.00  0.00     0.012 A 
ATOM     28  C   UNL d   1       4.889   3.943  -1.443  0.00  0.00     0.001 A 
ATOM     29  C   UNL d   1       5.463   4.454  -0.281  0.00  0.00     0.000 A 
ATOM     30  C   UNL d   1       5.288   3.790   0.933  0.00  0.00     0.001 A 
ATOM     31  C   UNL d   1       4.529   2.617   0.991  0.00  0.00     0.012 A 
ENDBRANCH   3  26
TORSDOF 4
