REMARK  5 active torsions:
REMARK  status: ('A' for Active; 'I' for Inactive)
REMARK    1  A    between atoms: C_14  and  N_1 
REMARK    2  A    between atoms: C_4  and  C_14 
REMARK    3  A    between atoms: S_15  and  C_5 
REMARK    4  A    between atoms: C_18  and  S_15 
REMARK    5  A    between atoms: C_17  and  C_18 
ROOT
ATOM      1  N   UNL d   1       0.030  -1.387   0.591  0.00  0.00    -0.338 N 
ATOM      2  S   UNL d   1       0.011   1.712   0.248  0.00  0.00    -0.086 SA
ATOM      3  C   UNL d   1       1.264  -0.789   0.217  0.00  0.00     0.052 A 
ATOM      4  C   UNL d   1      -1.224  -0.795   0.296  0.00  0.00     0.052 A 
ATOM      5  C   UNL d   1      -1.359   0.585   0.053  0.00  0.00     0.032 A 
ATOM      6  C   UNL d   1       1.380   0.596  -0.011  0.00  0.00     0.032 A 
ATOM      7  C   UNL d   1       2.384  -1.602  -0.031  0.00  0.00     0.031 A 
ATOM      8  C   UNL d   1      -2.350  -1.619   0.108  0.00  0.00     0.031 A 
ATOM      9  C   UNL d   1       2.596   1.141  -0.447  0.00  0.00     0.021 A 
ATOM     10  C   UNL d   1      -2.591   1.114  -0.358  0.00  0.00     0.021 A 
ATOM     11  C   UNL d   1       3.583  -1.056  -0.493  0.00  0.00     0.002 A 
ATOM     12  C   UNL d   1      -3.568  -1.089  -0.318  0.00  0.00     0.002 A 
ATOM     13  C   UNL d   1       3.691   0.315  -0.697  0.00  0.00     0.002 A 
ATOM     14  C   UNL d   1      -3.689   0.277  -0.552  0.00  0.00     0.002 A 
ENDROOT
BRANCH   1  15
ATOM     15  C   UNL d   1       0.081  -2.091   1.906  0.00  0.00     0.207 C 
BRANCH  15  16
ATOM     16  C   UNL d   1       0.561  -1.338   3.130  0.00  0.00     0.116 A 
ATOM     17  N   UNL d   1      -0.124  -0.272   3.684  0.00  0.00    -0.323 N 
ATOM     18  C   UNL d   1       0.676   0.112   4.647  0.00  0.00     0.160 A 
ATOM     19  HN  UNL d   1      -1.026   0.119   3.411  1.00  0.00     0.169 HD
ATOM     20  N   UNL d   1       1.749  -0.717   4.723  0.00  0.00    -0.278 N 
ATOM     21  N   UNL d   1       1.692  -1.671   3.778  0.00  0.00    -0.286 N 
ATOM     22  H   UNL d   1       2.524  -0.685   5.374  0.00  0.00     0.189 HD
ATOM     23  HN  UNL d   1       2.335  -2.443   3.601  1.00  0.00     0.188 HD
BRANCH  18  24
ATOM     24  S   UNL d   1       0.527   1.452   5.713  0.00  0.00    -0.085 SA
BRANCH  24  25
ATOM     25  C   UNL d   1      -1.269   1.671   5.749  0.00  0.00     0.160 C 
BRANCH  25  26
ATOM     26  C   UNL d   1      -1.942   0.492   6.423  0.00  0.00     0.132 C 
ATOM     27  O   UNL d   1      -1.617   0.093   7.541  0.00  0.00    -0.298 OA
ATOM     28  C   UNL d   1      -3.075  -0.157   5.671  0.00  0.00     0.091 C 
ENDBRANCH  25  26
ENDBRANCH  24  25
ENDBRANCH  18  24
ENDBRANCH  15  16
ENDBRANCH   1  15
TORSDOF 5
