REMARK  5 active torsions:
REMARK  status: ('A' for Active; 'I' for Inactive)
REMARK    1  A    between atoms: C_4  and  C_1 
REMARK    2  A    between atoms: O_15  and  C_3 
REMARK    3  A    between atoms: C_11  and  N_5 
REMARK    4  A    between atoms: O_10  and  C_13 
REMARK    5  A    between atoms: C_14  and  O_10 
ROOT
ATOM      1  C   UNL d   1      -0.865   5.955  -0.006  0.00  0.00     0.032 A 
ATOM      2  C   UNL d   1      -0.588   8.749   0.125  0.00  0.00     0.076 A 
ATOM      3  C   UNL d   1      -0.051   6.636  -0.921  0.00  0.00     0.032 A 
ATOM      4  C   UNL d   1      -1.585   6.697   0.931  0.00  0.00     0.032 A 
ATOM      5  C   UNL d   1       0.083   8.026  -0.863  0.00  0.00     0.039 A 
ATOM      6  C   UNL d   1      -1.452   8.089   0.998  0.00  0.00     0.039 A 
ENDROOT
BRANCH   1   7
ATOM      7  N   UNL d   1      -1.040   4.561  -0.043  0.00  0.00    -0.365 N 
ATOM      8  C   UNL d   1       0.018   3.816  -0.136  0.00  0.00     0.102 C 
ATOM      9  HN  UNL d   1      -1.971   4.147   0.003  1.00  0.00     0.165 HD
BRANCH   8  10
ATOM     10  C   UNL d   1      -0.076   2.344  -0.216  0.00  0.00     0.015 A 
ATOM     11  C   UNL d   1       1.053   1.583  -0.535  0.00  0.00     0.094 A 
ATOM     12  C   UNL d   1       0.947   0.190  -0.624  0.00  0.00     0.046 A 
ATOM     13 BR   UNL d   1       2.455  -0.869  -1.071  0.00  0.00    -0.048 Br
ATOM     14  C   UNL d   1      -0.272  -0.444  -0.389  0.00  0.00     0.041 A 
ATOM     15  C   UNL d   1      -1.392   0.324  -0.067  0.00  0.00     0.013 A 
ATOM     16  C   UNL d   1      -1.303   1.712   0.018  0.00  0.00     0.034 A 
ATOM     17 BR   UNL d   1      -3.047  -0.531   0.254  0.00  0.00    -0.051 Br
BRANCH  11  18
ATOM     18  O   UNL d   1       2.247   2.212  -0.775  0.00  0.00    -0.358 OA
ATOM     19  H   UNL d   1       2.906   1.530  -1.004  0.00  0.00     0.217 HD
ENDBRANCH  11  18
ENDBRANCH   8  10
ENDBRANCH   1   7
BRANCH   2  20
ATOM     20  O   UNL d   1      -0.504  10.118   0.257  0.00  0.00    -0.311 OA
BRANCH  20  21
ATOM     21  C   UNL d   1       0.715  10.725   0.051  0.00  0.00     0.076 A 
ATOM     22  C   UNL d   1       0.693  11.968  -0.585  0.00  0.00     0.039 A 
ATOM     23  C   UNL d   1       1.887  12.648  -0.834  0.00  0.00     0.026 A 
ATOM     24  C   UNL d   1       3.099  12.085  -0.436  0.00  0.00     0.034 A 
ATOM     25  C   UNL d   1       3.125  10.862   0.232  0.00  0.00     0.026 A 
ATOM     26 CL   UNL d   1       4.574  12.907  -0.767  0.00  0.00    -0.084 Cl
ATOM     27  C   UNL d   1       1.929  10.189   0.494  0.00  0.00     0.039 A 
ENDBRANCH  20  21
ENDBRANCH   2  20
TORSDOF 5
