REMARK  6 active torsions:
REMARK  status: ('A' for Active; 'I' for Inactive)
REMARK    1  A    between atoms: C_2  and  C_1 
REMARK    2  A    between atoms: S_5  and  C_1 
REMARK    3  A    between atoms: C_6  and  C_1 
REMARK    4  A    between atoms: O_14  and  C_2 
REMARK    5  A    between atoms: C_3  and  C_6 
REMARK    6  A    between atoms: C_11  and  S_5 
ROOT
ATOM      1  C   UNL d   1       0.919  -0.029  -0.218  0.00  0.00     0.156 C 
ENDROOT
BRANCH   1   2
ATOM      2  C   UNL d   1       0.357   1.352  -0.512  0.00  0.00     0.273 C 
ATOM      3  O   UNL d   1       1.013   2.315  -0.882  0.00  0.00    -0.264 OA
BRANCH   2   4
ATOM      4  O   UNL d   1      -0.997   1.359  -0.329  0.00  0.00    -0.326 OA
ATOM      5  C   UNL d   1      -1.656   2.580  -0.669  0.00  0.00     0.213 C 
ENDBRANCH   2   4
ENDBRANCH   1   2
BRANCH   1   6
ATOM      6  S   UNL d   1       0.274  -1.271  -1.438  0.00  0.00    -0.115 SA
BRANCH   6   7
ATOM      7  C   UNL d   1       0.975  -0.718  -2.979  0.00  0.00     0.001 A 
ATOM      8  C   UNL d   1       1.919  -1.524  -3.624  0.00  0.00     0.020 A 
ATOM      9  C   UNL d   1       2.474  -1.129  -4.845  0.00  0.00     0.025 A 
ATOM     10  C   UNL d   1       2.066   0.064  -5.436  0.00  0.00     0.034 A 
ATOM     11  C   UNL d   1       1.099   0.855  -4.823  0.00  0.00     0.025 A 
ATOM     12 CL   UNL d   1       2.743   0.551  -6.939  0.00  0.00    -0.084 Cl
ATOM     13  C   UNL d   1       0.547   0.458  -3.602  0.00  0.00     0.020 A 
ENDBRANCH   6   7
ENDBRANCH   1   6
BRANCH   1  14
ATOM     14  C   UNL d   1       2.456   0.006  -0.072  0.00  0.00     0.066 C 
BRANCH  14  15
ATOM     15  C   UNL d   1       3.075  -1.324   0.320  0.00  0.00    -0.035 A 
ATOM     16  C   UNL d   1       2.878  -1.924   1.577  0.00  0.00     0.042 A 
ATOM     17  C   UNL d   1       3.348  -3.215   1.834  0.00  0.00     0.048 A 
ATOM     18 CL   UNL d   1       2.073  -1.103   2.866  0.00  0.00    -0.084 Cl
ATOM     19  C   UNL d   1       4.045  -3.906   0.848  0.00  0.00     0.035 A 
ATOM     20  C   UNL d   1       4.312  -3.305  -0.377  0.00  0.00     0.024 A 
ATOM     21 CL   UNL d   1       4.582  -5.513   1.146  0.00  0.00    -0.084 Cl
ATOM     22  C   UNL d   1       3.839  -2.018  -0.635  0.00  0.00     0.010 A 
ENDBRANCH  14  15
ENDBRANCH   1  14
TORSDOF 6
