REMARK  5 active torsions:
REMARK  status: ('A' for Active; 'I' for Inactive)
REMARK    1  A    between atoms: N_2  and  S_1 
REMARK    2  A    between atoms: C_5  and  S_1 
REMARK    3  A    between atoms: C_3  and  N_2 
REMARK    4  A    between atoms: O_8  and  C_4 
REMARK    5  A    between atoms: C_13  and  O_8 
ROOT
ATOM      1  C   UNL d   1       0.970   1.839   2.146  0.00  0.00     0.094 A 
ATOM      2  C   UNL d   1      -0.028   2.365   2.976  0.00  0.00     0.175 A 
ATOM      3  N   UNL d   1       0.193   2.716   4.270  0.00  0.00    -0.345 N 
ATOM      4  HN  UNL d   1      -0.546   3.125   4.842  1.00  0.00     0.167 HD
ATOM      5  C   UNL d   1       2.224   1.601   2.711  0.00  0.00     0.036 A 
ATOM      6  C   UNL d   1       1.427   2.501   4.768  0.00  0.00     0.090 A 
ATOM      7  C   UNL d   1       2.460   1.940   4.040  0.00  0.00     0.019 A 
ENDROOT
BRANCH   1   8
ATOM      8  N   UNL d   1       0.799   1.617   0.743  0.00  0.00    -0.276 N 
ATOM      9  H   UNL d   1       1.140   0.739   0.356  0.00  0.00     0.179 HD
BRANCH   8  10
ATOM     10  S   UNL d   1       1.096   2.917  -0.305  0.00  0.00     0.263 S 
ATOM     11  O   UNL d   1       0.257   4.035   0.070  0.00  0.00    -0.200 OA
ATOM     12  O   UNL d   1       1.062   2.365  -1.644  0.00  0.00    -0.200 OA
BRANCH  10  13
ATOM     13  C   UNL d   1       2.789   3.368   0.039  0.00  0.00     0.079 A 
ATOM     14  C   UNL d   1       3.832   2.753  -0.661  0.00  0.00     0.026 A 
ATOM     15  C   UNL d   1       5.156   3.100  -0.371  0.00  0.00     0.008 A 
ATOM     16  C   UNL d   1       5.443   4.062   0.608  0.00  0.00    -0.062 A 
ATOM     17  C   UNL d   1       4.387   4.691   1.281  0.00  0.00     0.008 A 
ATOM     18  C   UNL d   1       6.869   4.419   0.915  0.00  0.00     0.048 C 
ATOM     19  C   UNL d   1       3.062   4.357   0.989  0.00  0.00     0.026 A 
ENDBRANCH  10  13
ENDBRANCH   8  10
ENDBRANCH   1   8
BRANCH   2  20
ATOM     20  O   UNL d   1      -1.315   2.499   2.464  0.00  0.00    -0.292 OA
BRANCH  20  21
ATOM     21  C   UNL d   1      -2.373   2.341   3.339  0.00  0.00     0.078 A 
ATOM     22  C   UNL d   1      -3.470   3.186   3.163  0.00  0.00     0.039 A 
ATOM     23  C   UNL d   1      -4.591   3.071   3.993  0.00  0.00     0.026 A 
ATOM     24  C   UNL d   1      -4.614   2.099   4.993  0.00  0.00     0.034 A 
ATOM     25  C   UNL d   1      -3.535   1.233   5.159  0.00  0.00     0.026 A 
ATOM     26 CL   UNL d   1      -5.984   1.962   6.025  0.00  0.00    -0.084 Cl
ATOM     27  C   UNL d   1      -2.421   1.343   4.322  0.00  0.00     0.039 A 
ENDBRANCH  20  21
ENDBRANCH   2  20
TORSDOF 5
