REMARK  5 active torsions:
REMARK  status: ('A' for Active; 'I' for Inactive)
REMARK    1  A    between atoms: C_4  and  C_1 
REMARK    2  A    between atoms: O_18  and  C_2 
REMARK    3  A    between atoms: O_14  and  C_9 
REMARK    4  A    between atoms: C_21  and  O_14 
REMARK    5  A    between atoms: C_19  and  C_21 
ROOT
ATOM      1  C   UNL d   1       2.035  -0.713  -0.016  0.00  0.00     0.026 A 
ATOM      2  C   UNL d   1       0.857  -1.486   0.000  0.00  0.00     0.086 A 
ATOM      3  C   UNL d   1      -0.419  -0.887  -0.015  0.00  0.00     0.005 A 
ATOM      4  C   UNL d   1       1.921   0.675   0.067  0.00  0.00     0.019 A 
ATOM      5  C   UNL d   1      -0.504   0.518  -0.032  0.00  0.00     0.077 A 
ATOM      6  C   UNL d   1       0.667   1.282   0.078  0.00  0.00     0.038 A 
ATOM      7  C   UNL d   1      -1.671  -1.723  -0.028  0.00  0.00     0.054 C 
ENDROOT
BRANCH   5   8
ATOM      8  O   UNL d   1      -1.758   1.080  -0.174  0.00  0.00    -0.346 OA
BRANCH   8   9
ATOM      9  C   UNL d   1      -1.743   2.441  -0.619  0.00  0.00     0.214 C 
BRANCH   9  10
ATOM     10  C   UNL d   1      -3.051   2.940  -1.193  0.00  0.00    -0.032 A 
ATOM     11  C   UNL d   1      -3.057   4.219  -1.782  0.00  0.00     0.035 A 
ATOM     12  C   UNL d   1      -4.221   4.749  -2.345  0.00  0.00     0.056 A 
ATOM     13 CL   UNL d   1      -4.123   6.321  -3.055  0.00  0.00    -0.083 Cl
ATOM     14  C   UNL d   1      -5.400   4.003  -2.319  0.00  0.00     0.055 A 
ATOM     15  C   UNL d   1      -5.406   2.734  -1.726  0.00  0.00     0.026 A 
ATOM     16 CL   UNL d   1      -6.877   4.586  -2.999  0.00  0.00    -0.083 Cl
ATOM     17  C   UNL d   1      -4.239   2.205  -1.164  0.00  0.00     0.011 A 
ENDBRANCH   9  10
ENDBRANCH   8   9
ENDBRANCH   5   8
BRANCH   2  18
ATOM     18  O   UNL d   1       0.926  -2.860   0.009  0.00  0.00    -0.359 OA
ATOM     19  H   UNL d   1       1.872  -3.092   0.149  0.00  0.00     0.217 HD
ENDBRANCH   2  18
BRANCH   1  20
ATOM     20  C   UNL d   1       3.363  -1.313  -0.159  0.00  0.00     0.062 A 
ATOM     21  N   UNL d   1       3.622  -2.569   0.250  0.00  0.00    -0.300 N 
ATOM     22  N   UNL d   1       4.918  -2.757  -0.053  0.00  0.00    -0.311 N 
ATOM     23  HN  UNL d   1       2.980  -3.228   0.691  1.00  0.00     0.187 HD
ATOM     24  C   UNL d   1       5.490  -1.698  -0.688  0.00  0.00     0.109 A 
ATOM     25  H   UNL d   1       5.348  -3.644   0.192  0.00  0.00     0.186 HD
ATOM     26  C   UNL d   1       4.511  -0.741  -0.773  0.00  0.00     0.050 A 
ENDBRANCH   1  20
TORSDOF 5
