REMARK  8 active torsions:
REMARK  status: ('A' for Active; 'I' for Inactive)
REMARK    1  A    between atoms: O_6  and  C_1 
REMARK    2  A    between atoms: C_8  and  C_1 
REMARK    3  A    between atoms: C_12  and  C_2 
REMARK    4  A    between atoms: N_17  and  C_2 
REMARK    5  A    between atoms: N_3  and  O_6 
REMARK    6  A    between atoms: C_9  and  O_10 
REMARK    7  A    between atoms: O_10  and  C_12 
REMARK    8  A    between atoms: O_24  and  C_19 
ROOT
ATOM      1  C   UNL d   1      -1.633  -2.175   0.695  0.00  0.00     0.120 C 
ATOM      2  N   UNL d   1      -0.904  -1.155   0.377  0.00  0.00    -0.243 N 
ATOM      3  HN  UNL d   1       0.109  -1.200   0.266  1.00  0.00     0.196 HD
ENDROOT
BRANCH   1   4
ATOM      4  C   UNL d   1      -0.901  -3.519   0.883  0.00  0.00     0.253 C 
BRANCH   4   5
ATOM      5  O   UNL d   1      -0.689  -3.799   2.263  0.00  0.00    -0.342 OA
BRANCH   5   6
ATOM      6  C   UNL d   1      -0.081  -5.003   2.535  0.00  0.00     0.091 A 
ATOM      7  C   UNL d   1       0.786  -5.082   3.639  0.00  0.00     0.069 A 
ATOM      8  C   UNL d   1       1.379  -6.297   3.999  0.00  0.00     0.050 A 
ATOM      9 CL   UNL d   1       1.163  -3.689   4.591  0.00  0.00    -0.081 Cl
ATOM     10  C   UNL d   1       1.098  -7.444   3.264  0.00  0.00     0.035 A 
ATOM     11  C   UNL d   1       0.234  -7.386   2.174  0.00  0.00     0.026 A 
ATOM     12 CL   UNL d   1       1.804  -8.949   3.707  0.00  0.00    -0.084 Cl
ATOM     13  C   UNL d   1      -0.356  -6.171   1.814  0.00  0.00     0.040 A 
ENDBRANCH   5   6
ENDBRANCH   4   5
ENDBRANCH   1   4
BRANCH   1  14
ATOM     14  N   UNL d   1      -3.003  -2.163   0.823  0.00  0.00    -0.386 N 
ATOM     15  H   UNL d   1      -3.456  -1.377   0.370  0.00  0.00     0.157 HD
ATOM     16  H   UNL d   1      -3.493  -3.045   0.708  0.00  0.00     0.157 HD
ENDBRANCH   1  14
BRANCH   2  17
ATOM     17  O   UNL d   1      -1.655   0.029   0.200  0.00  0.00    -0.193 OA
BRANCH  17  18
ATOM     18  C   UNL d   1      -1.010   0.815  -0.719  0.00  0.00     0.315 C 
ATOM     19  O   UNL d   1      -0.138   0.455  -1.497  0.00  0.00    -0.257 OA
BRANCH  18  20
ATOM     20  C   UNL d   1      -1.495   2.225  -0.697  0.00  0.00     0.041 A 
ATOM     21  C   UNL d   1      -0.904   3.121  -1.602  0.00  0.00     0.020 A 
ATOM     22  C   UNL d   1      -1.267   4.472  -1.622  0.00  0.00     0.038 A 
ATOM     23  C   UNL d   1      -2.231   4.943  -0.734  0.00  0.00     0.068 A 
ATOM     24  C   UNL d   1      -2.841   4.050   0.153  0.00  0.00     0.038 A 
ATOM     25  C   UNL d   1      -2.473   2.697   0.183  0.00  0.00     0.020 A 
BRANCH  23  26
ATOM     26  O   UNL d   1      -2.675   6.235  -0.668  0.00  0.00    -0.356 OA
ATOM     27  C   UNL d   1      -1.760   7.233  -1.110  0.00  0.00     0.210 C 
ENDBRANCH  23  26
ENDBRANCH  18  20
ENDBRANCH  17  18
ENDBRANCH   2  17
TORSDOF 8
