REMARK  3 active torsions:
REMARK  status: ('A' for Active; 'I' for Inactive)
REMARK       I    between atoms: N_2  and  C_1 
REMARK       I    between atoms: N_3  and  C_1 
REMARK    1  A    between atoms: C_9  and  N_3 
REMARK    2  A    between atoms: C_4  and  C_8 
REMARK    3  A    between atoms: C_11  and  C_4 
ROOT
ATOM      1  C   UNL d   1       0.923  -0.131   0.073  0.00  0.00     0.318 C 
ATOM      2  N   UNL d   1       0.376  -0.339  -1.184  0.00  0.00    -0.334 N 
ATOM      3  N   UNL d   1       0.441   0.964   0.746  0.00  0.00    -0.335 N 
ATOM      4  O   UNL d   1       1.761  -0.891   0.558  0.00  0.00    -0.247 OA
ATOM      5  C   UNL d   1       0.778  -1.515  -1.950  0.00  0.00     0.128 C 
ATOM      6  C   UNL d   1      -0.692   0.438  -1.809  0.00  0.00     0.128 C 
ATOM      7  C   UNL d   1      -1.644  -1.730  -2.763  0.00  0.00     0.064 C 
ATOM      8  C   UNL d   1      -1.934  -0.433  -1.987  0.00  0.00     0.032 C 
ATOM      9  C   UNL d   1      -0.412  -2.450  -2.192  0.00  0.00     0.032 C 
ATOM     10  H   UNL d   1       0.259   1.737   0.129  0.00  0.00     0.165 HD
ENDROOT
BRANCH   3  11
ATOM     11  C   UNL d   1       0.883   1.389   2.089  0.00  0.00     0.023 C 
ATOM     12  C   UNL d   1       2.310   1.956   2.028  0.00  0.00     0.037 C 
ATOM     13  C   UNL d   1      -0.074   2.502   2.566  0.00  0.00     0.037 C 
ATOM     14  C   UNL d   1       0.816   0.250   3.122  0.00  0.00     0.037 C 
ENDBRANCH   3  11
BRANCH   7  15
ATOM     15  C   UNL d   1      -1.505  -1.452  -4.264  0.00  0.00     0.163 C 
ATOM     16  O   UNL d   1      -1.162  -0.347  -4.682  0.00  0.00    -0.292 OA
BRANCH  15  17
ATOM     17  C   UNL d   1      -1.798  -2.526  -5.267  0.00  0.00     0.010 A 
ATOM     18  C   UNL d   1      -2.144  -3.834  -4.912  0.00  0.00     0.015 A 
ATOM     19  C   UNL d   1      -2.405  -4.786  -5.904  0.00  0.00     0.001 A 
ATOM     20  C   UNL d   1      -2.325  -4.439  -7.252  0.00  0.00     0.000 A 
ATOM     21  C   UNL d   1      -1.987  -3.139  -7.616  0.00  0.00     0.001 A 
ATOM     22  C   UNL d   1      -1.726  -2.187  -6.629  0.00  0.00     0.015 A 
ENDBRANCH  15  17
ENDBRANCH   7  15
TORSDOF 3
