REMARK  1 active torsions:
REMARK  status: ('A' for Active; 'I' for Inactive)
REMARK    1  A    between atoms: O_13  and  C_10 
ROOT
ATOM      1  C   UNL d   1       0.051  -0.770   0.016  0.00  0.00     0.045 A 
ATOM      2  C   UNL d   1      -0.022   0.625   0.006  0.00  0.00     0.086 A 
ATOM      3  C   UNL d   1      -1.200  -1.543   0.082  0.00  0.00     0.165 C 
ATOM      4  O   UNL d   1      -1.196   1.329  -0.021  0.00  0.00    -0.340 OA
ATOM      5  C   UNL d   1       1.286  -1.427  -0.009  0.00  0.00     0.044 A 
ATOM      6  C   UNL d   1       1.153   1.377   0.028  0.00  0.00     0.076 A 
ATOM      7  C   UNL d   1      -2.359   0.586  -0.432  0.00  0.00     0.067 C 
ATOM      8  C   UNL d   1      -2.453  -0.747   0.311  0.00  0.00     0.121 C 
ATOM      9  C   UNL d   1       2.454  -0.670  -0.012  0.00  0.00     0.068 A 
ATOM     10  C   UNL d   1       2.384   0.726   0.018  0.00  0.00     0.090 A 
ATOM     11  O   UNL d   1      -1.192  -2.767   0.019  0.00  0.00    -0.292 OA
ATOM     12 CL   UNL d   1       3.982  -1.466  -0.044  0.00  0.00    -0.081 Cl
ATOM     13  C   UNL d   1      -2.360   0.412  -1.962  0.00  0.00     0.046 C 
ATOM     14  C   UNL d   1      -3.571   1.449  -0.051  0.00  0.00     0.046 C 
ENDROOT
BRANCH  10  15
ATOM     15  O   UNL d   1       3.507   1.507   0.032  0.00  0.00    -0.359 OA
ATOM     16  H   UNL d   1       4.279   0.909   0.024  0.00  0.00     0.217 HD
ENDBRANCH  10  15
TORSDOF 1
