REMARK  6 active torsions:
REMARK  status: ('A' for Active; 'I' for Inactive)
REMARK    1  A    between atoms: C_12  and  N_1 
REMARK    2  A    between atoms: S_8  and  C_2 
REMARK    3  A    between atoms: O_21  and  C_3 
REMARK    4  A    between atoms: C_16  and  S_8 
REMARK    5  A    between atoms: C_10  and  C_13 
REMARK    6  A    between atoms: C_13  and  C_16 
ROOT
ATOM      1  N   UNL d   1       0.440   0.409  -0.530  0.00  0.00    -0.255 N 
ATOM      2  C   UNL d   1       0.913  -0.866  -0.245  0.00  0.00     0.169 A 
ATOM      3  C   UNL d   1      -0.770   0.453   0.154  0.00  0.00     0.245 A 
ATOM      4  N   UNL d   1       0.054  -1.521   0.503  0.00  0.00    -0.276 N 
ATOM      5  HN  UNL d   1       0.153  -2.482   0.830  1.00  0.00     0.189 HD
ATOM      6  N   UNL d   1      -0.998  -0.684   0.767  0.00  0.00    -0.263 N 
ATOM      7  HN  UNL d   1      -1.814  -0.906   1.338  1.00  0.00     0.190 HD
ENDROOT
BRANCH   2   8
ATOM      8  S   UNL d   1       2.511  -1.440  -0.607  0.00  0.00    -0.084 SA
BRANCH   8   9
ATOM      9  C   UNL d   1       2.411  -3.162  -0.037  0.00  0.00     0.166 C 
BRANCH   9  10
ATOM     10  C   UNL d   1       3.764  -3.843  -0.172  0.00  0.00     0.169 C 
ATOM     11  O   UNL d   1       4.589  -3.569  -1.042  0.00  0.00    -0.291 OA
BRANCH  10  12
ATOM     12  C   UNL d   1       4.106  -4.911   0.805  0.00  0.00     0.013 A 
ATOM     13  C   UNL d   1       3.123  -5.719   1.385  0.00  0.00     0.054 A 
ATOM     14  C   UNL d   1       3.489  -6.684   2.323  0.00  0.00     0.103 A 
ATOM     15  O   UNL d   1       2.471  -7.421   2.873  0.00  0.00    -0.346 OA
ATOM     16  C   UNL d   1       4.835  -6.869   2.663  0.00  0.00     0.102 A 
ATOM     17  C   UNL d   1       2.895  -8.063   4.080  0.00  0.00     0.202 C 
ATOM     18  C   UNL d   1       4.235  -8.752   3.880  0.00  0.00     0.202 C 
ATOM     19  O   UNL d   1       5.260  -7.801   3.572  0.00  0.00    -0.346 OA
ATOM     20  C   UNL d   1       5.815  -6.071   2.079  0.00  0.00     0.040 A 
ATOM     21  C   UNL d   1       5.454  -5.096   1.147  0.00  0.00     0.018 A 
ENDBRANCH  10  12
ENDBRANCH   9  10
ENDBRANCH   8   9
ENDBRANCH   2   8
BRANCH   1  22
ATOM     22  C   UNL d   1       1.022   1.445  -1.314  0.00  0.00     0.045 A 
ATOM     23  C   UNL d   1       1.755   1.139  -2.468  0.00  0.00     0.030 A 
ATOM     24  C   UNL d   1       2.332   2.159  -3.228  0.00  0.00     0.002 A 
ATOM     25  C   UNL d   1       2.174   3.489  -2.850  0.00  0.00     0.000 A 
ATOM     26  C   UNL d   1       1.435   3.804  -1.711  0.00  0.00     0.002 A 
ATOM     27  C   UNL d   1       0.860   2.788  -0.942  0.00  0.00     0.030 A 
ENDBRANCH   1  22
BRANCH   3  28
ATOM     28  O   UNL d   1      -1.663   1.436   0.137  0.00  0.00    -0.331 OA
ATOM     29  H   UNL d   1      -1.511   1.979  -0.654  0.00  0.00     0.221 HD
ENDBRANCH   3  28
TORSDOF 6
