REMARK  7 active torsions:
REMARK  status: ('A' for Active; 'I' for Inactive)
REMARK    1  A    between atoms: C_15  and  C_3 
REMARK    2  A    between atoms: C_4  and  N_12 
REMARK    3  A    between atoms: N_11  and  C_4 
REMARK    4  A    between atoms: C_7  and  C_17 
REMARK    5  A    between atoms: C_18  and  C_9 
REMARK    6  A    between atoms: C_17  and  N_11 
REMARK    7  A    between atoms: N_12  and  C_18 
ROOT
ATOM      1  C   UNL d   1      -1.416  -1.779   1.151  0.00  0.00     0.156 C 
ENDROOT
BRANCH   1   2
ATOM      2  N   UNL d   1      -1.192  -3.217   0.971  0.00  0.00    -0.365 N 
ATOM      3  H   UNL d   1      -0.226  -3.522   0.978  0.00  0.00     0.161 HD
BRANCH   2   4
ATOM      4  C   UNL d   1      -2.099  -4.230   1.196  0.00  0.00     0.168 C 
ATOM      5  S   UNL d   1      -3.575  -4.050   1.952  0.00  0.00    -0.041 SA
BRANCH   4   6
ATOM      6  N   UNL d   1      -1.605  -5.418   0.693  0.00  0.00    -0.361 N 
ATOM      7  H   UNL d   1      -1.012  -5.327  -0.123  0.00  0.00     0.162 HD
BRANCH   6   8
ATOM      8  C   UNL d   1      -2.268  -6.707   0.818  0.00  0.00     0.187 C 
BRANCH   8   9
ATOM      9  C   UNL d   1      -1.644  -7.713  -0.081  0.00  0.00     0.070 A 
ATOM     10  O   UNL d   1      -1.306  -7.307  -1.344  0.00  0.00    -0.325 OA
ATOM     11  C   UNL d   1      -0.841  -8.402  -2.000  0.00  0.00     0.142 A 
ATOM     12  C   UNL d   1      -0.870  -9.508  -1.179  0.00  0.00     0.027 A 
ATOM     13  C   UNL d   1      -1.379  -9.057   0.065  0.00  0.00     0.036 A 
ENDBRANCH   8   9
ENDBRANCH   6   8
ENDBRANCH   4   6
ENDBRANCH   2   4
ENDBRANCH   1   2
BRANCH   1  14
ATOM     14  C   UNL d   1      -0.871  -0.982  -0.035  0.00  0.00     0.175 C 
ATOM     15  O   UNL d   1      -1.214   0.398   0.120  0.00  0.00    -0.273 OA
ATOM     16  N   UNL d   1      -1.787   0.882  -1.077  0.00  0.00    -0.270 N 
ATOM     17  C   UNL d   1      -1.940  -0.124  -1.880  0.00  0.00     0.045 C 
ATOM     18  HN  UNL d   1      -2.037   1.851  -1.275  1.00  0.00     0.194 HD
ATOM     19  C   UNL d   1      -1.470  -1.430  -1.351  0.00  0.00     0.096 C 
BRANCH  17  20
ATOM     20  C   UNL d   1      -2.546  -0.030  -3.226  0.00  0.00    -0.012 A 
ATOM     21  C   UNL d   1      -2.992   1.214  -3.688  0.00  0.00     0.013 A 
ATOM     22  C   UNL d   1      -3.563   1.331  -4.958  0.00  0.00     0.001 A 
ATOM     23  C   UNL d   1      -3.692   0.203  -5.771  0.00  0.00     0.000 A 
ATOM     24  C   UNL d   1      -3.259  -1.040  -5.311  0.00  0.00     0.001 A 
ATOM     25  C   UNL d   1      -2.688  -1.160  -4.044  0.00  0.00     0.013 A 
ENDBRANCH  17  20
ENDBRANCH   1  14
TORSDOF 7
