REMARK  4 active torsions:
REMARK  status: ('A' for Active; 'I' for Inactive)
REMARK    1  A    between atoms: N_11  and  N_1 
REMARK    2  A    between atoms: C_6  and  C_16 
REMARK    3  A    between atoms: C_19  and  N_9 
REMARK    4  A    between atoms: C_20  and  C_10 
ROOT
ATOM      1  N   UNL d   1       4.653  -5.148  -0.649  0.00  0.00    -0.292 N 
ATOM      2  HN  UNL d   1       5.121  -5.898  -1.156  1.00  0.00     0.187 HD
ATOM      3  C   UNL d   1       3.152  -3.549  -0.024  0.00  0.00     0.027 A 
ATOM      4  N   UNL d   1       5.153  -4.420   0.381  0.00  0.00    -0.266 N 
ATOM      5  C   UNL d   1       3.417  -4.676  -0.862  0.00  0.00     0.072 A 
ATOM      6  C   UNL d   1       4.269  -3.442   0.775  0.00  0.00     0.132 A 
ENDROOT
BRANCH   3   7
ATOM      7  C   UNL d   1       1.994  -2.684   0.039  0.00  0.00     0.123 C 
ATOM      8  N   UNL d   1       1.295  -2.535  -1.034  0.00  0.00    -0.300 N 
ATOM      9  HN  UNL d   1       1.619  -2.950  -1.907  1.00  0.00     0.186 HD
BRANCH   8  10
ATOM     10  N   UNL d   1       0.132  -1.832  -1.018  0.00  0.00    -0.210 N 
ATOM     11  C   UNL d   1      -0.414  -1.244  -2.139  0.00  0.00     0.161 A 
ATOM     12  N   UNL d   1      -1.581  -0.695  -1.924  0.00  0.00    -0.281 N 
ATOM     13  C   UNL d   1       0.229  -1.231  -3.436  0.00  0.00     0.052 A 
ATOM     14  N   UNL d   1      -1.855  -0.950  -0.609  0.00  0.00    -0.273 N 
ATOM     15  HN  UNL d   1      -2.160  -0.186  -2.592  1.00  0.00     0.188 HD
ATOM     16  C   UNL d   1      -0.837  -1.709  -0.036  0.00  0.00     0.214 A 
ATOM     17  H   UNL d   1      -2.741  -0.699  -0.189  0.00  0.00     0.189 HD
ATOM     18  S   UNL d   1      -0.956  -2.318   1.504  0.00  0.00    -0.037 SA
ATOM     19  S   UNL d   1       0.019   0.140  -4.451  0.00  0.00    -0.098 SA
ATOM     20  C   UNL d   1       1.014  -2.184  -4.055  0.00  0.00     0.023 A 
ATOM     21  C   UNL d   1       0.986  -0.533  -5.687  0.00  0.00     0.050 A 
ATOM     22  C   UNL d   1       1.444  -1.787  -5.358  0.00  0.00     0.009 A 
ENDBRANCH   8  10
ENDBRANCH   3   7
BRANCH   5  23
ATOM     23  C   UNL d   1       2.519  -5.298  -1.840  0.00  0.00    -0.007 A 
ATOM     24  C   UNL d   1       1.144  -5.404  -1.581  0.00  0.00     0.014 A 
ATOM     25  C   UNL d   1       0.255  -5.829  -2.566  0.00  0.00     0.001 A 
ATOM     26  C   UNL d   1       0.742  -6.226  -3.807  0.00  0.00     0.000 A 
ATOM     27  C   UNL d   1       2.116  -6.210  -4.053  0.00  0.00     0.001 A 
ATOM     28  C   UNL d   1       3.003  -5.749  -3.077  0.00  0.00     0.014 A 
ENDBRANCH   5  23
BRANCH   4  29
ATOM     29  C   UNL d   1       6.429  -4.718   0.938  0.00  0.00     0.056 A 
ATOM     30  C   UNL d   1       6.914  -4.029   2.060  0.00  0.00     0.031 A 
ATOM     31  C   UNL d   1       8.151  -4.373   2.614  0.00  0.00     0.002 A 
ATOM     32  C   UNL d   1       8.914  -5.394   2.051  0.00  0.00     0.000 A 
ATOM     33  C   UNL d   1       8.446  -6.074   0.928  0.00  0.00     0.002 A 
ATOM     34  C   UNL d   1       7.209  -5.740   0.372  0.00  0.00     0.031 A 
ENDBRANCH   4  29
TORSDOF 4
