REMARK  8 active torsions:
REMARK  status: ('A' for Active; 'I' for Inactive)
REMARK    1  A    between atoms: C_7  and  C_1 
REMARK    2  A    between atoms: C_3  and  C_2 
REMARK    3  A    between atoms: N_20  and  C_2 
REMARK    4  A    between atoms: N_4  and  O_10 
REMARK    5  A    between atoms: C_6  and  C_11 
REMARK    6  A    between atoms: O_10  and  C_6 
REMARK    7  A    between atoms: S_21  and  C_13 
REMARK    8  A    between atoms: C_26  and  S_21 
ROOT
ATOM      1  C   UNL d   1      -2.863   6.753   0.193  0.00  0.00     0.110 C 
ATOM      2  N   UNL d   1      -2.424   5.549   0.408  0.00  0.00    -0.246 N 
ATOM      3  HN  UNL d   1      -3.004   4.798   0.782  1.00  0.00     0.196 HD
ENDROOT
BRANCH   2   4
ATOM      4  O   UNL d   1      -1.060   5.387   0.069  0.00  0.00    -0.193 OA
BRANCH   4   5
ATOM      5  C   UNL d   1      -0.706   4.080   0.287  0.00  0.00     0.315 C 
ATOM      6  O   UNL d   1      -1.413   3.193   0.748  0.00  0.00    -0.257 OA
BRANCH   5   7
ATOM      7  C   UNL d   1       0.714   3.817  -0.099  0.00  0.00     0.042 A 
ATOM      8  C   UNL d   1       1.561   4.781  -0.665  0.00  0.00     0.034 A 
ATOM      9  C   UNL d   1       2.892   4.456  -1.001  0.00  0.00     0.048 A 
ATOM     10  C   UNL d   1       3.364   3.155  -0.760  0.00  0.00     0.016 A 
ATOM     11  C   UNL d   1       2.527   2.191  -0.204  0.00  0.00     0.002 A 
ATOM     12  C   UNL d   1       1.211   2.522   0.123  0.00  0.00     0.018 A 
BRANCH   9  13
ATOM     13  C   UNL d   1       3.825   5.475  -1.614  0.00  0.00     0.417 C 
ATOM     14  F   UNL d   1       3.243   6.691  -1.810  0.00  0.00    -0.166 F 
ATOM     15  F   UNL d   1       4.295   5.085  -2.830  0.00  0.00    -0.166 F 
ATOM     16  F   UNL d   1       4.922   5.705  -0.843  0.00  0.00    -0.166 F 
ENDBRANCH   9  13
ENDBRANCH   5   7
ENDBRANCH   4   5
ENDBRANCH   2   4
BRANCH   1  17
ATOM     17  C   UNL d   1      -4.306   7.018   0.481  0.00  0.00     0.019 A 
ATOM     18  C   UNL d   1      -4.998   6.247   1.408  0.00  0.00     0.103 A 
ATOM     19  N   UNL d   1      -6.303   6.441   1.738  0.00  0.00    -0.360 N 
ATOM     20  C   UNL d   1      -6.967   7.425   1.094  0.00  0.00     0.069 A 
ATOM     21  HN  UNL d   1      -6.763   5.866   2.444  1.00  0.00     0.166 HD
ATOM     22  C   UNL d   1      -6.361   8.228   0.131  0.00  0.00     0.038 A 
ATOM     23  C   UNL d   1      -5.011   8.029  -0.171  0.00  0.00     0.019 A 
BRANCH  20  24
ATOM     24  S   UNL d   1      -8.699   7.666   1.452  0.00  0.00    -0.113 SA
BRANCH  24  25
ATOM     25  C   UNL d   1      -8.776   7.018   3.154  0.00  0.00     0.076 C 
ATOM     26  C   UNL d   1     -10.203   7.087   3.674  0.00  0.00     0.016 C 
ENDBRANCH  24  25
ENDBRANCH  20  24
ENDBRANCH   1  17
BRANCH   1  27
ATOM     27  N   UNL d   1      -2.078   7.785  -0.265  0.00  0.00    -0.286 NA
ATOM     28  H   UNL d   1      -1.087   7.591  -0.171  0.00  0.00     0.125 HD
ATOM     29  H   UNL d   1      -2.318   8.708   0.081  0.00  0.00     0.125 HD
ENDBRANCH   1  27
TORSDOF 8
