REMARK  8 active torsions:
REMARK  status: ('A' for Active; 'I' for Inactive)
REMARK    1  A    between atoms: C_2  and  C_1 
REMARK    2  A    between atoms: C_3  and  C_1 
REMARK    3  A    between atoms: C_6  and  C_2 
REMARK    4  A    between atoms: S_4  and  C_3 
REMARK    5  A    between atoms: C_9  and  C_3 
REMARK    6  A    between atoms: C_12  and  S_4 
REMARK    7  A    between atoms: C_5  and  C_12 
REMARK    8  A    between atoms: O_14  and  C_5 
ROOT
ATOM      1  C   UNL d   1       2.529   0.176   0.028  0.00  0.00     0.088 C 
ENDROOT
BRANCH   1   2
ATOM      2  C   UNL d   1       0.999   0.019   0.065  0.00  0.00     0.104 C 
BRANCH   2   3
ATOM      3  C   UNL d   1       0.457  -1.110  -0.787  0.00  0.00     0.161 C 
ATOM      4  O   UNL d   1       0.278  -0.948  -1.995  0.00  0.00    -0.292 OA
BRANCH   3   5
ATOM      5  C   UNL d   1       0.058  -2.410  -0.165  0.00  0.00     0.010 A 
ATOM      6  C   UNL d   1       0.451  -2.797   1.123  0.00  0.00     0.016 A 
ATOM      7  C   UNL d   1      -0.003  -4.010   1.661  0.00  0.00     0.020 A 
ATOM      8  C   UNL d   1      -0.842  -4.836   0.914  0.00  0.00     0.011 A 
ATOM      9  C   UNL d   1      -1.220  -4.472  -0.378  0.00  0.00     0.020 A 
ATOM     10 BR   UNL d   1      -1.474  -6.455   1.654  0.00  0.00    -0.051 Br
ATOM     11  C   UNL d   1      -0.769  -3.263  -0.913  0.00  0.00     0.016 A 
ENDBRANCH   3   5
ENDBRANCH   2   3
ENDBRANCH   1   2
BRANCH   1  12
ATOM     12  S   UNL d   1       3.211   0.369  -1.685  0.00  0.00    -0.149 SA
BRANCH  12  13
ATOM     13  C   UNL d   1       2.554   2.017  -2.136  0.00  0.00     0.184 C 
BRANCH  13  14
ATOM     14  C   UNL d   1       3.012   2.436  -3.522  0.00  0.00     0.149 C 
ATOM     15  O   UNL d   1       3.050   3.602  -3.892  0.00  0.00    -0.649 OA
BRANCH  14  16
ATOM     16  O   UNL d   1       3.316   1.412  -4.356  0.00  0.00    -0.776 OA
ATOM     17  H   UNL d   1       3.246   0.555  -3.880  0.00  0.00     0.167 HD
ENDBRANCH  14  16
ENDBRANCH  13  14
ENDBRANCH  12  13
ENDBRANCH   1  12
BRANCH   1  18
ATOM     18  C   UNL d   1       3.080   1.244   0.978  0.00  0.00    -0.044 A 
ATOM     19  C   UNL d   1       2.252   2.084   1.743  0.00  0.00     0.008 A 
ATOM     20  C   UNL d   1       2.788   3.006   2.646  0.00  0.00     0.001 A 
ATOM     21  C   UNL d   1       4.166   3.122   2.792  0.00  0.00     0.000 A 
ATOM     22  C   UNL d   1       5.009   2.317   2.032  0.00  0.00     0.001 A 
ATOM     23  C   UNL d   1       4.473   1.383   1.141  0.00  0.00     0.008 A 
ENDBRANCH   1  18
TORSDOF 8
