REMARK  4 active torsions:
REMARK  status: ('A' for Active; 'I' for Inactive)
REMARK    1  A    between atoms: C_11  and  N_2 
REMARK    2  A    between atoms: C_14  and  C_4 
REMARK    3  A    between atoms: C_9  and  O_10 
REMARK    4  A    between atoms: O_10  and  C_14 
ROOT
ATOM      1  C   UNL d   1       1.947   1.141  -1.422  0.00  0.00     0.210 C 
ENDROOT
BRANCH   1   2
ATOM      2  O   UNL d   1       3.294   0.748  -1.698  0.00  0.00    -0.347 OA
BRANCH   2   3
ATOM      3  C   UNL d   1       3.752   0.997  -2.968  0.00  0.00     0.090 A 
ATOM      4  C   UNL d   1       5.126   1.234  -3.138  0.00  0.00     0.069 A 
ATOM      5  C   UNL d   1       5.665   1.470  -4.407  0.00  0.00     0.050 A 
ATOM      6 CL   UNL d   1       6.206   1.254  -1.786  0.00  0.00    -0.081 Cl
ATOM      7  C   UNL d   1       4.829   1.450  -5.519  0.00  0.00     0.035 A 
ATOM      8  C   UNL d   1       3.471   1.187  -5.373  0.00  0.00     0.026 A 
ATOM      9 CL   UNL d   1       5.475   1.740  -7.086  0.00  0.00    -0.084 Cl
ATOM     10  C   UNL d   1       2.935   0.955  -4.103  0.00  0.00     0.040 A 
ENDBRANCH   2   3
ENDBRANCH   1   2
BRANCH   1  11
ATOM     11  C   UNL d   1       1.560   0.693  -0.010  0.00  0.00     0.176 C 
ATOM     12  O   UNL d   1       0.201   1.083   0.261  0.00  0.00    -0.295 OA
ATOM     13  C   UNL d   1      -0.609  -0.006   0.069  0.00  0.00     0.363 C 
ATOM     14  N   UNL d   1       0.166  -1.125  -0.121  0.00  0.00    -0.322 N 
ATOM     15  O   UNL d   1      -1.825   0.051   0.070  0.00  0.00    -0.238 OA
ATOM     16  C   UNL d   1       1.545  -0.817   0.130  0.00  0.00     0.163 C 
BRANCH  14  17
ATOM     17  C   UNL d   1      -0.358  -2.482  -0.262  0.00  0.00     0.081 C 
ATOM     18  C   UNL d   1       0.105  -3.107  -1.578  0.00  0.00     0.032 C 
ATOM     19  C   UNL d   1       0.011  -3.368   0.926  0.00  0.00     0.032 C 
ENDBRANCH  14  17
ENDBRANCH   1  11
TORSDOF 4
