REMARK  7 active torsions:
REMARK  status: ('A' for Active; 'I' for Inactive)
REMARK    1  A    between atoms: C_5  and  S_1 
REMARK    2  A    between atoms: N_6  and  S_1 
REMARK    3  A    between atoms: C_2  and  N_6 
REMARK    4  A    between atoms: S_18  and  C_8 
REMARK    5  A    between atoms: C_17  and  C_11 
REMARK    6  A    between atoms: C_21  and  S_18 
REMARK    7  A    between atoms: C_23  and  C_21 
ROOT
ATOM      1  C   UNL d   1       0.865   2.694   0.215  0.00  0.00     0.188 A 
ATOM      2  N   UNL d   1       1.976   3.395  -0.168  0.00  0.00    -0.310 N 
ATOM      3  HN  UNL d   1       2.629   3.190  -0.924  1.00  0.00     0.170 HD
ATOM      4  C   UNL d   1       1.994   4.395   0.679  0.00  0.00     0.161 A 
ATOM      5  N   UNL d   1       0.161   3.248   1.204  0.00  0.00    -0.273 N 
ATOM      6  HN  UNL d   1      -0.732   2.959   1.603  1.00  0.00     0.189 HD
ATOM      7  N   UNL d   1       0.944   4.290   1.534  0.00  0.00    -0.277 N 
ATOM      8  H   UNL d   1       0.692   4.896   2.306  0.00  0.00     0.189 HD
ENDROOT
BRANCH   1   9
ATOM      9  N   UNL d   1       0.346   1.617  -0.465  0.00  0.00    -0.149 NA
ATOM     10  H   UNL d   1      -0.663   1.580  -0.351  0.00  0.00     0.149 HD
BRANCH   9  11
ATOM     11  S   UNL d   1       0.941   0.094  -0.052  0.00  0.00     0.254 S 
ATOM     12  O   UNL d   1       0.119  -0.877  -0.741  0.00  0.00    -0.205 OA
ATOM     13  O   UNL d   1       2.384   0.075  -0.166  0.00  0.00    -0.205 OA
BRANCH  11  14
ATOM     14  C   UNL d   1       0.622  -0.209   1.682  0.00  0.00     0.116 A 
ATOM     15  S   UNL d   1      -1.012  -0.133   2.186  0.00  0.00    -0.075 SA
ATOM     16  C   UNL d   1      -0.620  -0.513   3.818  0.00  0.00     0.033 A 
ATOM     17  C   UNL d   1       0.748  -0.691   3.957  0.00  0.00     0.023 A 
ATOM     18  C   UNL d   1       1.459  -0.522   2.733  0.00  0.00     0.034 A 
BRANCH  16  19
ATOM     19  C   UNL d   1      -1.649  -0.573   4.870  0.00  0.00     0.049 A 
ATOM     20  N   UNL d   1      -1.190  -0.253   6.107  0.00  0.00    -0.365 N 
ATOM     21  C   UNL d   1      -2.081  -0.257   7.124  0.00  0.00     0.088 A 
ATOM     22  HN  UNL d   1      -0.210  -0.017   6.263  1.00  0.00     0.165 HD
ATOM     23  C   UNL d   1      -3.419  -0.576   6.977  0.00  0.00     0.017 A 
ATOM     24  C   UNL d   1      -3.871  -0.924   5.710  0.00  0.00     0.004 A 
ATOM     25  C   UNL d   1      -2.976  -0.927   4.640  0.00  0.00     0.031 A 
ENDBRANCH  16  19
ENDBRANCH  11  14
ENDBRANCH   9  11
ENDBRANCH   1   9
BRANCH   4  26
ATOM     26  S   UNL d   1       3.091   5.714   0.807  0.00  0.00    -0.088 SA
BRANCH  26  27
ATOM     27  C   UNL d   1       3.599   5.928  -0.924  0.00  0.00     0.121 C 
BRANCH  27  28
ATOM     28  C   UNL d   1       4.571   7.079  -1.078  0.00  0.00    -0.048 A 
ATOM     29  C   UNL d   1       5.955   6.850  -1.023  0.00  0.00     0.009 A 
ATOM     30  C   UNL d   1       6.859   7.905  -1.172  0.00  0.00     0.024 A 
ATOM     31  C   UNL d   1       6.387   9.200  -1.370  0.00  0.00     0.034 A 
ATOM     32  C   UNL d   1       5.018   9.450  -1.413  0.00  0.00     0.024 A 
ATOM     33 CL   UNL d   1       7.502  10.498  -1.566  0.00  0.00    -0.084 Cl
ATOM     34  C   UNL d   1       4.112   8.394  -1.265  0.00  0.00     0.009 A 
ENDBRANCH  27  28
ENDBRANCH  26  27
ENDBRANCH   4  26
TORSDOF 7
