REMARK  0 active torsions:
REMARK  status: ('A' for Active; 'I' for Inactive)
ROOT
ATOM      1  N   UNL d   1      -0.211   1.649  -0.196  0.00  0.00    -0.358 N 
ATOM      2  C   UNL d   1       0.880   0.845  -0.397  0.00  0.00     0.017 A 
ATOM      3  C   UNL d   1       0.457  -0.471  -0.372  0.00  0.00    -0.023 A 
ATOM      4  C   UNL d   1      -0.959  -0.450  -0.175  0.00  0.00    -0.001 A 
ATOM      5  C   UNL d   1      -1.345   0.885  -0.050  0.00  0.00     0.043 A 
ATOM      6  C   UNL d   1       1.315  -1.693  -0.490  0.00  0.00     0.041 C 
ATOM      7  C   UNL d   1       2.256   1.379  -0.585  0.00  0.00     0.057 C 
ATOM      8  C   UNL d   1      -1.952  -1.448  -0.075  0.00  0.00     0.014 A 
ATOM      9  C   UNL d   1      -2.671   1.271   0.184  0.00  0.00     0.030 A 
ATOM     10  C   UNL d   1       2.794  -1.528  -0.100  0.00  0.00     0.005 C 
ATOM     11  C   UNL d   1       3.211   0.934   0.525  0.00  0.00     0.006 C 
ATOM     12  C   UNL d   1      -3.283  -1.079   0.152  0.00  0.00     0.001 A 
ATOM     13  C   UNL d   1      -3.634   0.262   0.284  0.00  0.00     0.002 A 
ATOM     14  C   UNL d   1       3.070  -0.516   1.015  0.00  0.00     0.001 C 
ATOM     15  H   UNL d   1      -0.194   2.657  -0.150  0.00  0.00     0.166 HD
ENDROOT
TORSDOF 0
