REMARK  2 active torsions:
REMARK  status: ('A' for Active; 'I' for Inactive)
REMARK    1  A    between atoms: C_7  and  C_2 
REMARK       I    between atoms: N_9  and  C_7 
REMARK    2  A    between atoms: C_14  and  N_9 
ROOT
ATOM      1  C   UNL d   1       3.678  -0.769   0.204  0.00  0.00     0.263 C 
ATOM      2  N   UNL d   1       3.868  -2.105   0.495  0.00  0.00    -0.323 N 
ATOM      3  O   UNL d   1       4.572   0.035  -0.047  0.00  0.00    -0.267 OA
ATOM      4  H   UNL d   1       3.029  -2.653   0.695  0.00  0.00     0.169 HD
ENDROOT
BRANCH   1   5
ATOM      5  C   UNL d   1       2.251  -0.325   0.166  0.00  0.00     0.115 A 
ATOM      6  C   UNL d   1       1.079  -1.212   0.358  0.00  0.00     0.266 A 
ATOM      7  N   UNL d   1      -0.148  -0.619   0.180  0.00  0.00    -0.293 N 
ATOM      8  O   UNL d   1       1.224  -2.402   0.636  0.00  0.00    -0.267 OA
ATOM      9  C   UNL d   1      -0.248   0.699  -0.162  0.00  0.00     0.149 A 
ATOM     10  C   UNL d   1      -1.382  -1.369   0.174  0.00  0.00     0.145 C 
ATOM     11  N   UNL d   1       0.742   1.506  -0.304  0.00  0.00    -0.345 N 
ATOM     12  S   UNL d   1      -1.899   1.173  -0.408  0.00  0.00    -0.092 SA
ATOM     13  C   UNL d   1       1.989   0.958  -0.135  0.00  0.00     0.113 A 
ATOM     14  HN  UNL d   1       0.610   2.492  -0.529  1.00  0.00     0.167 HD
ATOM     15  C   UNL d   1      -2.560  -0.409   0.172  0.00  0.00     0.103 C 
ENDBRANCH   1   5
BRANCH   2  16
ATOM     16  C   UNL d   1       5.081  -2.828   0.446  0.00  0.00     0.036 A 
ATOM     17  C   UNL d   1       6.323  -2.255   0.151  0.00  0.00     0.056 A 
ATOM     18  C   UNL d   1       7.465  -3.055   0.054  0.00  0.00     0.074 A 
ATOM     19 CL   UNL d   1       8.979  -2.329  -0.332  0.00  0.00    -0.081 Cl
ATOM     20  C   UNL d   1       7.373  -4.428   0.259  0.00  0.00     0.138 A 
ATOM     21  C   UNL d   1       6.151  -5.010   0.575  0.00  0.00     0.046 A 
ATOM     22  F   UNL d   1       8.454  -5.214   0.151  0.00  0.00    -0.204 F 
ATOM     23  C   UNL d   1       5.008  -4.211   0.672  0.00  0.00     0.032 A 
ENDBRANCH   2  16
TORSDOF 2
