REMARK  7 active torsions:
REMARK  status: ('A' for Active; 'I' for Inactive)
REMARK    1  A    between atoms: N_7  and  C_1 
REMARK    2  A    between atoms: N_10  and  C_1 
REMARK    3  A    between atoms: C_2  and  N_8 
REMARK    4  A    between atoms: C_3  and  C_4 
REMARK    5  A    between atoms: C_21  and  N_10 
REMARK    6  A    between atoms: O_28  and  C_23 
REMARK    7  A    between atoms: C_29  and  O_28 
ROOT
ATOM      1  N   UNL d   1       0.389  -0.978   0.894  0.00  0.00    -0.355 N 
ATOM      2  N   UNL d   1      -0.271  -3.470   2.067  0.00  0.00    -0.363 N 
ATOM      3  C   UNL d   1       0.873  -1.322   2.244  0.00  0.00     0.145 C 
ATOM      4  C   UNL d   1      -0.799  -1.725   0.429  0.00  0.00     0.145 C 
ATOM      5  C   UNL d   1       0.996  -2.838   2.444  0.00  0.00     0.144 C 
ATOM      6  C   UNL d   1      -0.647  -3.249   0.663  0.00  0.00     0.144 C 
ENDROOT
BRANCH   1   7
ATOM      7  C   UNL d   1       0.956   0.018   0.131  0.00  0.00     0.174 C 
ATOM      8  S   UNL d   1       2.578   0.038  -0.276  0.00  0.00    -0.041 SA
BRANCH   7   9
ATOM      9  N   UNL d   1       0.112   0.945  -0.425  0.00  0.00    -0.333 N 
ATOM     10  H   UNL d   1       0.458   1.409  -1.258  0.00  0.00     0.168 HD
BRANCH   9  11
ATOM     11  C   UNL d   1      -1.048   1.490   0.164  0.00  0.00     0.034 A 
ATOM     12  C   UNL d   1      -1.242   1.493   1.548  0.00  0.00     0.032 A 
ATOM     13  C   UNL d   1      -2.430   1.968   2.106  0.00  0.00     0.039 A 
ATOM     14  C   UNL d   1      -3.441   2.453   1.281  0.00  0.00     0.068 A 
ATOM     15  C   UNL d   1      -3.214   2.529  -0.097  0.00  0.00     0.039 A 
ATOM     16  C   UNL d   1      -2.013   2.070  -0.654  0.00  0.00     0.032 A 
BRANCH  14  17
ATOM     17  O   UNL d   1      -4.673   2.877   1.701  0.00  0.00    -0.352 OA
BRANCH  17  18
ATOM     18  C   UNL d   1      -4.965   2.694   3.087  0.00  0.00     0.171 C 
ATOM     19  C   UNL d   1      -6.417   3.064   3.329  0.00  0.00     0.034 C 
ENDBRANCH  17  18
ENDBRANCH  14  17
ENDBRANCH   9  11
ENDBRANCH   7   9
ENDBRANCH   1   7
BRANCH   2  20
ATOM     20  C   UNL d   1      -1.026  -4.294   2.864  0.00  0.00     0.125 A 
ATOM     21  N   UNL d   1      -1.637  -5.329   2.230  0.00  0.00    -0.350 N 
ATOM     22  C   UNL d   1      -2.404  -6.196   2.936  0.00  0.00     0.106 A 
ATOM     23  HN  UNL d   1      -1.518  -5.453   1.225  1.00  0.00     0.166 HD
ATOM     24  C   UNL d   1      -2.625  -6.099   4.293  0.00  0.00     0.065 A 
ATOM     25  C   UNL d   1      -2.023  -5.030   4.955  0.00  0.00     0.045 A 
ATOM     26  C   UNL d   1      -1.229  -4.121   4.248  0.00  0.00     0.078 A 
ATOM     27 CL   UNL d   1      -0.683  -2.751   5.154  0.00  0.00    -0.080 Cl
BRANCH  24  28
ATOM     28  C   UNL d   1      -3.498  -7.093   4.990  0.00  0.00     0.418 C 
ATOM     29  F   UNL d   1      -3.617  -6.867   6.327  0.00  0.00    -0.166 F 
ATOM     30  F   UNL d   1      -4.768  -7.106   4.499  0.00  0.00    -0.166 F 
ATOM     31  F   UNL d   1      -3.037  -8.370   4.868  0.00  0.00    -0.166 F 
ENDBRANCH  24  28
ENDBRANCH   2  20
TORSDOF 7
