REMARK  4 active torsions:
REMARK  status: ('A' for Active; 'I' for Inactive)
REMARK       I    between atoms: N_2  and  C_1 
REMARK       I    between atoms: N_3  and  C_1 
REMARK    1  A    between atoms: C_5  and  N_2 
REMARK    2  A    between atoms: C_6  and  N_3 
REMARK    3  A    between atoms: O_12  and  C_7 
REMARK    4  A    between atoms: C_16  and  O_12 
ROOT
ATOM      1  C   UNL d   1       1.020  -0.099  -0.055  0.00  0.00     0.321 C 
ATOM      2  N   UNL d   1       2.368   0.197   0.041  0.00  0.00    -0.335 N 
ATOM      3  N   UNL d   1       0.253   0.842   0.596  0.00  0.00    -0.309 N 
ATOM      4  O   UNL d   1       0.600  -1.084  -0.652  0.00  0.00    -0.247 OA
ATOM      5  H   UNL d   1       2.614   0.761   0.841  0.00  0.00     0.165 HD
ATOM      6  H   UNL d   1       0.725   1.690   0.868  0.00  0.00     0.170 HD
ENDROOT
BRANCH   3   7
ATOM      7  C   UNL d   1      -1.151   0.819   0.759  0.00  0.00     0.036 A 
ATOM      8  C   UNL d   1      -1.956  -0.257   0.376  0.00  0.00     0.032 A 
ATOM      9  C   UNL d   1      -3.347  -0.199   0.515  0.00  0.00     0.039 A 
ATOM     10  C   UNL d   1      -3.950   0.942   1.037  0.00  0.00     0.068 A 
ATOM     11  C   UNL d   1      -3.150   1.992   1.484  0.00  0.00     0.039 A 
ATOM     12  C   UNL d   1      -1.759   1.936   1.340  0.00  0.00     0.032 A 
BRANCH  10  13
ATOM     13  O   UNL d   1      -5.299   1.125   1.162  0.00  0.00    -0.352 OA
BRANCH  13  14
ATOM     14  C   UNL d   1      -6.102   0.412   0.218  0.00  0.00     0.171 C 
ATOM     15  C   UNL d   1      -7.415   1.157   0.062  0.00  0.00     0.034 C 
ENDBRANCH  13  14
ENDBRANCH  10  13
ENDBRANCH   3   7
BRANCH   2  16
ATOM     16  C   UNL d   1       3.420  -0.719  -0.438  0.00  0.00     0.023 C 
ATOM     17  C   UNL d   1       3.296  -0.995  -1.948  0.00  0.00     0.037 C 
ATOM     18  C   UNL d   1       4.787  -0.051  -0.197  0.00  0.00     0.037 C 
ATOM     19  C   UNL d   1       3.381  -2.040   0.349  0.00  0.00     0.037 C 
ENDBRANCH   2  16
TORSDOF 4
