REMARK  6 active torsions:
REMARK  status: ('A' for Active; 'I' for Inactive)
REMARK    1  A    between atoms: C_7  and  N_1 
REMARK    2  A    between atoms: C_12  and  C_2 
REMARK    3  A    between atoms: C_9  and  C_7 
REMARK    4  A    between atoms: C_10  and  C_8 
REMARK    5  A    between atoms: C_11  and  C_9 
REMARK    6  A    between atoms: O_21  and  C_20 
ROOT
ATOM      1  N   UNL d   1       1.374  -1.056  -0.308  0.00  0.00    -0.290 N 
ATOM      2  C   UNL d   1       0.081  -1.396  -0.023  0.00  0.00     0.121 A 
ATOM      3  N   UNL d   1      -0.750  -0.392   0.018  0.00  0.00    -0.337 N 
ATOM      4  HN  UNL d   1      -1.750  -0.424   0.219  1.00  0.00     0.167 HD
ATOM      5  C   UNL d   1       0.009   0.719  -0.267  0.00  0.00     0.105 A 
ATOM      6  C   UNL d   1       1.411   0.298  -0.529  0.00  0.00     0.276 A 
ATOM      7  C   UNL d   1      -0.381   1.996  -0.352  0.00  0.00     0.072 C 
ATOM      8  O   UNL d   1       2.326   0.984  -0.940  0.00  0.00    -0.265 OA
ENDROOT
BRANCH   1   9
ATOM      9  C   UNL d   1       2.553  -1.873  -0.562  0.00  0.00     0.217 C 
BRANCH   9  10
ATOM     10  C   UNL d   1       3.365  -2.155   0.707  0.00  0.00     0.177 C 
ATOM     11  O   UNL d   1       2.974  -1.837   1.830  0.00  0.00    -0.291 OA
BRANCH  10  12
ATOM     12  C   UNL d   1       4.649  -2.917   0.569  0.00  0.00     0.014 A 
ATOM     13  C   UNL d   1       5.377  -3.254   1.728  0.00  0.00     0.052 A 
ATOM     14  C   UNL d   1       6.600  -3.923   1.623  0.00  0.00     0.069 A 
ATOM     15  C   UNL d   1       7.082  -4.272   0.359  0.00  0.00     0.037 A 
ATOM     16  C   UNL d   1       6.356  -3.968  -0.790  0.00  0.00     0.004 A 
ATOM     17  C   UNL d   1       5.142  -3.294  -0.686  0.00  0.00     0.015 A 
BRANCH  14  18
ATOM     18  O   UNL d   1       7.422  -4.287   2.651  0.00  0.00    -0.356 OA
ATOM     19  C   UNL d   1       7.033  -3.923   3.968  0.00  0.00     0.210 C 
ENDBRANCH  14  18
ENDBRANCH  10  12
ENDBRANCH   9  10
ENDBRANCH   1   9
BRANCH   2  20
ATOM     20  C   UNL d   1      -0.415  -2.785   0.158  0.00  0.00     0.008 A 
ATOM     21  C   UNL d   1       0.343  -3.831   0.688  0.00  0.00     0.015 A 
ATOM     22  C   UNL d   1      -0.198  -5.117   0.790  0.00  0.00     0.001 A 
ATOM     23  C   UNL d   1      -1.514  -5.358   0.401  0.00  0.00     0.000 A 
ATOM     24  C   UNL d   1      -2.295  -4.314  -0.085  0.00  0.00     0.001 A 
ATOM     25  C   UNL d   1      -1.748  -3.037  -0.208  0.00  0.00     0.015 A 
ENDBRANCH   2  20
BRANCH   7  26
ATOM     26  C   UNL d   1      -1.712   2.453  -0.126  0.00  0.00     0.077 A 
ATOM     27  O   UNL d   1      -2.020   3.799  -0.139  0.00  0.00    -0.323 OA
ATOM     28  C   UNL d   1      -3.342   3.944   0.109  0.00  0.00     0.142 A 
ATOM     29  C   UNL d   1      -3.936   2.723   0.281  0.00  0.00     0.027 A 
ATOM     30  C   UNL d   1      -2.898   1.771   0.134  0.00  0.00     0.039 A 
ENDBRANCH   7  26
TORSDOF 6
