REMARK  3 active torsions:
REMARK  status: ('A' for Active; 'I' for Inactive)
REMARK    1  A    between atoms: N_6  and  C_1 
REMARK    2  A    between atoms: C_12  and  C_4 
REMARK    3  A    between atoms: C_9  and  N_7 
ROOT
ATOM      1  N   UNL d   1       0.128  -2.623  -0.003  0.00  0.00    -0.358 N 
ATOM      2  N   UNL d   1      -0.116  -5.475   0.265  0.00  0.00    -0.378 N 
ATOM      3  C   UNL d   1       0.726  -3.317   1.158  0.00  0.00     0.145 C 
ATOM      4  C   UNL d   1      -1.056  -3.316  -0.549  0.00  0.00     0.145 C 
ATOM      5  C   UNL d   1       1.065  -4.786   0.820  0.00  0.00     0.143 C 
ATOM      6  C   UNL d   1      -0.721  -4.786  -0.889  0.00  0.00     0.143 C 
ENDROOT
BRANCH   1   7
ATOM      7  C   UNL d   1       0.188  -1.258   0.009  0.00  0.00     0.147 A 
ATOM      8  N   UNL d   1       0.840  -0.574   0.927  0.00  0.00    -0.336 N 
ATOM      9  C   UNL d   1       0.832   0.784   0.659  0.00  0.00     0.051 A 
ATOM     10  HN  UNL d   1       1.296  -0.994   1.737  1.00  0.00     0.168 HD
ATOM     11  C   UNL d   1       0.130   1.140  -0.472  0.00  0.00     0.083 A 
ATOM     12  S   UNL d   1      -0.509  -0.256  -1.223  0.00  0.00    -0.064 SA
BRANCH   9  13
ATOM     13  C   UNL d   1       1.515   1.725   1.539  0.00  0.00    -0.009 A 
ATOM     14  C   UNL d   1       2.038   2.938   1.063  0.00  0.00     0.015 A 
ATOM     15  C   UNL d   1       2.697   3.816   1.930  0.00  0.00     0.024 A 
ATOM     16  C   UNL d   1       2.839   3.487   3.275  0.00  0.00     0.034 A 
ATOM     17  C   UNL d   1       2.332   2.285   3.764  0.00  0.00     0.024 A 
ATOM     18 CL   UNL d   1       3.650   4.569   4.339  0.00  0.00    -0.084 Cl
ATOM     19  C   UNL d   1       1.677   1.407   2.896  0.00  0.00     0.015 A 
ENDBRANCH   9  13
ENDBRANCH   1   7
BRANCH   2  20
ATOM     20  C   UNL d   1      -0.624  -6.629   0.818  0.00  0.00     0.032 A 
ATOM     21  C   UNL d   1      -1.996  -6.919   0.801  0.00  0.00     0.054 A 
ATOM     22  C   UNL d   1      -2.516  -8.085   1.381  0.00  0.00     0.058 A 
ATOM     23 CL   UNL d   1      -4.228  -8.321   1.311  0.00  0.00    -0.082 Cl
ATOM     24  C   UNL d   1      -1.662  -9.000   1.994  0.00  0.00     0.055 A 
ATOM     25  C   UNL d   1      -0.294  -8.744   2.018  0.00  0.00     0.028 A 
ATOM     26 CL   UNL d   1      -2.225 -10.454   2.735  0.00  0.00    -0.083 Cl
ATOM     27  C   UNL d   1       0.211  -7.574   1.437  0.00  0.00     0.031 A 
ENDBRANCH   2  20
TORSDOF 3
