REMARK  2 active torsions:
REMARK  status: ('A' for Active; 'I' for Inactive)
REMARK    1  A    between atoms: C_6  and  N_1 
REMARK    2  A    between atoms: C_8  and  C_7 
ROOT
ATOM      1  N   UNL d   1       0.112  -1.266  -0.073  0.00  0.00    -0.262 N 
ATOM      2  C   UNL d   1       0.955  -0.174   0.063  0.00  0.00     0.153 A 
ATOM      3  C   UNL d   1      -1.496   0.472  -0.069  0.00  0.00     0.077 A 
ATOM      4  C   UNL d   1      -1.248  -0.992  -0.224  0.00  0.00     0.271 A 
ATOM      5  S   UNL d   1       0.006   1.312   0.049  0.00  0.00    -0.054 SA
ATOM      6  C   UNL d   1      -2.673   1.107   0.047  0.00  0.00     0.043 C 
ATOM      7  S   UNL d   1       2.626  -0.115   0.126  0.00  0.00    -0.052 SA
ATOM      8  O   UNL d   1      -2.134  -1.807  -0.443  0.00  0.00    -0.266 OA
ENDROOT
BRANCH   1   9
ATOM      9  C   UNL d   1       0.553  -2.622  -0.086  0.00  0.00     0.045 A 
ATOM     10  C   UNL d   1       1.328  -3.136   0.963  0.00  0.00     0.054 A 
ATOM     11  C   UNL d   1       1.697  -4.482   0.963  0.00  0.00     0.036 A 
ATOM     12 CL   UNL d   1       2.600  -5.117   2.283  0.00  0.00    -0.084 Cl
ATOM     13  C   UNL d   1       1.322  -5.324  -0.082  0.00  0.00     0.024 A 
ATOM     14  C   UNL d   1       0.556  -4.820  -1.131  0.00  0.00     0.004 A 
ATOM     15  C   UNL d   1       0.162  -3.481  -1.125  0.00  0.00     0.030 A 
ENDBRANCH   1   9
BRANCH   6  16
ATOM     16  C   UNL d   1      -3.921   0.435   0.105  0.00  0.00     0.006 A 
ATOM     17  S   UNL d   1      -4.631   0.110   1.638  0.00  0.00    -0.102 SA
ATOM     18  C   UNL d   1      -5.989  -0.646   0.928  0.00  0.00     0.050 A 
ATOM     19  C   UNL d   1      -5.927  -0.633  -0.445  0.00  0.00     0.008 A 
ATOM     20  C   UNL d   1      -4.738  -0.004  -0.920  0.00  0.00     0.019 A 
ENDBRANCH   6  16
TORSDOF 2
