REMARK  7 active torsions:
REMARK  status: ('A' for Active; 'I' for Inactive)
REMARK    1  A    between atoms: O_2  and  C_1 
REMARK       I    between atoms: N_13  and  C_1 
REMARK    2  A    between atoms: C_4  and  O_2 
REMARK    3  A    between atoms: C_3  and  C_14 
REMARK       I    between atoms: N_6  and  C_3 
REMARK    4  A    between atoms: C_5  and  C_10 
REMARK    5  A    between atoms: C_10  and  N_6 
REMARK    6  A    between atoms: O_8  and  C_7 
REMARK    7  A    between atoms: C_14  and  O_8 
ROOT
ATOM      1  O   UNL d   1       2.166  -3.029   0.367  0.00  0.00    -0.339 OA
ENDROOT
BRANCH   1   2
ATOM      2  C   UNL d   1       1.238  -3.517  -0.514  0.00  0.00     0.103 A 
ATOM      3  C   UNL d   1       1.533  -4.699  -1.206  0.00  0.00     0.114 A 
ATOM      4  C   UNL d   1       0.660  -5.195  -2.184  0.00  0.00     0.040 A 
ATOM      5  C   UNL d   1      -0.544  -4.543  -2.443  0.00  0.00     0.003 A 
ATOM      6  C   UNL d   1      -0.865  -3.385  -1.741  0.00  0.00     0.003 A 
ATOM      7  C   UNL d   1       0.027  -2.868  -0.797  0.00  0.00     0.040 A 
BRANCH   3   8
ATOM      8  O   UNL d   1       2.725  -5.445  -1.053  0.00  0.00    -0.259 OA
BRANCH   8   9
ATOM      9  C   UNL d   1       3.184  -5.835   0.200  0.00  0.00     0.365 C 
ATOM     10  O   UNL d   1       2.735  -5.486   1.285  0.00  0.00    -0.238 OA
ATOM     11  N   UNL d   1       4.224  -6.710   0.046  0.00  0.00    -0.341 N 
ATOM     12  C   UNL d   1       4.956  -7.260   1.158  0.00  0.00     0.151 C 
ATOM     13  H   UNL d   1       4.507  -6.923  -0.901  0.00  0.00     0.164 HD
ENDBRANCH   8   9
ENDBRANCH   3   8
ENDBRANCH   1   2
BRANCH   1  14
ATOM     14  C   UNL d   1       1.664  -2.124   1.346  0.00  0.00     0.278 C 
BRANCH  14  15
ATOM     15  C   UNL d   1       2.598  -1.976   2.541  0.00  0.00     0.242 C 
ATOM     16  N   UNL d   1       3.270  -3.120   2.891  0.00  0.00    -0.355 N 
ATOM     17  H   UNL d   1       3.136  -3.955   2.315  0.00  0.00     0.162 HD
ATOM     18  O   UNL d   1       2.669  -0.926   3.177  0.00  0.00    -0.271 OA
BRANCH  16  19
ATOM     19  C   UNL d   1       4.218  -3.161   3.979  0.00  0.00     0.162 C 
BRANCH  19  20
ATOM     20  C   UNL d   1       3.885  -4.250   4.967  0.00  0.00    -0.019 A 
ATOM     21  C   UNL d   1       4.757  -5.302   5.280  0.00  0.00     0.042 A 
ATOM     22 CL   UNL d   1       6.304  -5.479   4.529  0.00  0.00    -0.084 Cl
ATOM     23  C   UNL d   1       4.399  -6.263   6.234  0.00  0.00     0.024 A 
ATOM     24  C   UNL d   1       3.169  -6.187   6.885  0.00  0.00     0.002 A 
ATOM     25  C   UNL d   1       2.292  -5.149   6.588  0.00  0.00     0.001 A 
ATOM     26  C   UNL d   1       2.648  -4.187   5.641  0.00  0.00     0.010 A 
ENDBRANCH  19  20
ENDBRANCH  16  19
ENDBRANCH  14  15
ENDBRANCH   1  14
TORSDOF 7
