REMARK  6 active torsions:
REMARK  status: ('A' for Active; 'I' for Inactive)
REMARK    1  A    between atoms: C_3  and  C_1 
REMARK    2  A    between atoms: C_4  and  C_2 
REMARK    3  A    between atoms: C_5  and  C_3 
REMARK    4  A    between atoms: O_11  and  C_4 
REMARK    5  A    between atoms: O_14  and  C_10 
REMARK    6  A    between atoms: C_15  and  O_14 
ROOT
ATOM      1  C   UNL d   1       3.302   1.308  -0.101  0.00  0.00     0.014 A 
ATOM      2  C   UNL d   1       2.884   2.436   0.614  0.00  0.00     0.018 A 
ATOM      3  C   UNL d   1       4.473   1.377  -0.864  0.00  0.00     0.018 A 
ATOM      4  C   UNL d   1       4.754   3.710  -0.257  0.00  0.00     0.068 A 
ATOM      5  C   UNL d   1       5.195   2.573  -0.936  0.00  0.00     0.037 A 
ATOM      6  C   UNL d   1       3.606   3.633   0.531  0.00  0.00     0.037 A 
ENDROOT
BRANCH   1   7
ATOM      7  C   UNL d   1       2.560   0.016  -0.066  0.00  0.00     0.182 C 
ATOM      8  O   UNL d   1       3.139  -1.044  -0.275  0.00  0.00    -0.288 OA
BRANCH   7   9
ATOM      9  C   UNL d   1       1.094   0.056   0.178  0.00  0.00     0.062 C 
ATOM     10  C   UNL d   1       0.405  -1.092   0.235  0.00  0.00     0.085 C 
BRANCH  10  11
ATOM     11  C   UNL d   1      -1.048  -1.025   0.461  0.00  0.00     0.165 C 
ATOM     12  O   UNL d   1      -1.668   0.012   0.631  0.00  0.00    -0.647 OA
BRANCH  11  13
ATOM     13  O   UNL d   1      -1.622  -2.241   0.464  0.00  0.00    -0.773 OA
ATOM     14  H   UNL d   1      -1.021  -2.993   0.311  0.00  0.00     0.167 HD
ENDBRANCH  11  13
ENDBRANCH  10  11
ENDBRANCH   7   9
ENDBRANCH   1   7
BRANCH   4  15
ATOM     15  O   UNL d   1       5.547   4.817  -0.386  0.00  0.00    -0.352 OA
BRANCH  15  16
ATOM     16  C   UNL d   1       4.885   6.077  -0.261  0.00  0.00     0.171 C 
ATOM     17  C   UNL d   1       5.911   7.174  -0.478  0.00  0.00     0.034 C 
ENDBRANCH  15  16
ENDBRANCH   4  15
TORSDOF 6
