REMARK  3 active torsions:
REMARK  status: ('A' for Active; 'I' for Inactive)
REMARK    1  A    between atoms: C_7  and  C_1 
REMARK    2  A    between atoms: C_9  and  N_3 
REMARK    3  A    between atoms: O_10  and  C_4 
ROOT
ATOM      1  C   UNL d   1       2.443  -0.664  -0.119  0.00  0.00     0.112 C 
ATOM      2  C   UNL d   1       2.403   0.825  -0.220  0.00  0.00     0.269 C 
ATOM      3  N   UNL d   1       1.167   1.457  -0.038  0.00  0.00    -0.277 N 
ATOM      4  C   UNL d   1       1.292  -1.354   0.009  0.00  0.00     0.097 C 
ATOM      5  C   UNL d   1      -0.062   0.729   0.025  0.00  0.00     0.056 A 
ATOM      6  C   UNL d   1      -0.009  -0.673   0.043  0.00  0.00     0.025 A 
ATOM      7  O   UNL d   1       3.452   1.431  -0.429  0.00  0.00    -0.266 OA
ATOM      8  C   UNL d   1      -1.326   1.352  -0.025  0.00  0.00     0.031 A 
ATOM      9  C   UNL d   1      -1.205  -1.417   0.052  0.00  0.00     0.016 A 
ATOM     10  C   UNL d   1      -2.506   0.600  -0.031  0.00  0.00     0.002 A 
ATOM     11  C   UNL d   1      -2.446  -0.785   0.013  0.00  0.00     0.001 A 
ENDROOT
BRANCH   3  12
ATOM     12  C   UNL d   1       1.135   2.882   0.021  0.00  0.00     0.043 A 
ATOM     13  C   UNL d   1       1.658   3.641  -1.034  0.00  0.00     0.030 A 
ATOM     14  C   UNL d   1       1.713   5.032  -0.946  0.00  0.00     0.002 A 
ATOM     15  C   UNL d   1       1.265   5.676   0.205  0.00  0.00     0.000 A 
ATOM     16  C   UNL d   1       0.748   4.931   1.265  0.00  0.00     0.002 A 
ATOM     17  C   UNL d   1       0.677   3.538   1.174  0.00  0.00     0.030 A 
ENDBRANCH   3  12
BRANCH   1  18
ATOM     18  C   UNL d   1       3.723  -1.443  -0.155  0.00  0.00     0.164 C 
ATOM     19  O   UNL d   1       3.687  -2.653  -0.427  0.00  0.00    -0.292 OA
ATOM     20  C   UNL d   1       5.051  -0.813   0.173  0.00  0.00     0.097 C 
ENDBRANCH   1  18
BRANCH   4  21
ATOM     21  O   UNL d   1       1.218  -2.740   0.091  0.00  0.00    -0.359 OA
ATOM     22  H   UNL d   1       2.107  -3.114  -0.100  0.00  0.00     0.217 HD
ENDBRANCH   4  21
TORSDOF 3
