REMARK  5 active torsions:
REMARK  status: ('A' for Active; 'I' for Inactive)
REMARK    1  A    between atoms: C_7  and  C_2 
REMARK    2  A    between atoms: S_10  and  C_22 
REMARK    3  A    between atoms: C_21  and  S_10 
REMARK    4  A    between atoms: C_22  and  C_14 
REMARK    5  A    between atoms: C_15  and  C_21 
ROOT
ATOM      1  C   UNL d   1       2.383  -1.719   0.017  0.00  0.00    -0.008 A 
ATOM      2  C   UNL d   1       3.532  -1.264  -0.644  0.00  0.00     0.014 A 
ATOM      3  C   UNL d   1       2.395  -3.006   0.570  0.00  0.00     0.014 A 
ATOM      4  C   UNL d   1       4.670  -2.073  -0.743  0.00  0.00     0.009 A 
ATOM      5  C   UNL d   1       3.531  -3.817   0.469  0.00  0.00     0.009 A 
ATOM      6  C   UNL d   1       4.682  -3.357  -0.183  0.00  0.00    -0.049 A 
ENDROOT
BRANCH   6   7
ATOM      7  C   UNL d   1       5.894  -4.247  -0.319  0.00  0.00     0.112 C 
BRANCH   7   8
ATOM      8  S   UNL d   1       5.799  -5.269  -1.819  0.00  0.00    -0.160 SA
BRANCH   8   9
ATOM      9  C   UNL d   1       7.359  -6.183  -1.631  0.00  0.00     0.112 C 
BRANCH   9  10
ATOM     10  C   UNL d   1       7.580  -7.133  -2.783  0.00  0.00    -0.049 A 
ATOM     11  C   UNL d   1       8.226  -6.697  -3.951  0.00  0.00     0.009 A 
ATOM     12  C   UNL d   1       8.408  -7.568  -5.028  0.00  0.00     0.024 A 
ATOM     13  C   UNL d   1       7.941  -8.878  -4.946  0.00  0.00     0.034 A 
ATOM     14  C   UNL d   1       7.295  -9.325  -3.796  0.00  0.00     0.024 A 
ATOM     15 CL   UNL d   1       8.159  -9.948  -6.276  0.00  0.00    -0.084 Cl
ATOM     16  C   UNL d   1       7.112  -8.454  -2.719  0.00  0.00     0.009 A 
ENDBRANCH   9  10
ENDBRANCH   8   9
ENDBRANCH   7   8
ENDBRANCH   6   7
BRANCH   1  17
ATOM     17  C   UNL d   1       1.204  -0.862   0.087  0.00  0.00     0.063 A 
ATOM     18  N   UNL d   1       0.968   0.120  -0.872  0.00  0.00    -0.292 N 
ATOM     19  N   UNL d   1      -0.151   0.784  -0.639  0.00  0.00    -0.061 NA
ATOM     20  HN  UNL d   1       1.587   0.306  -1.661  1.00  0.00     0.183 HD
ATOM     21  S   UNL d   1      -0.940   0.264   0.739  0.00  0.00    -0.010 SA
ATOM     22  C   UNL d   1       0.247  -0.925   1.087  0.00  0.00     0.096 A 
ENDBRANCH   1  17
TORSDOF 5
