REMARK  3 active torsions:
REMARK  status: ('A' for Active; 'I' for Inactive)
REMARK    1  A    between atoms: C_6  and  C_1 
REMARK    2  A    between atoms: O_11  and  C_6 
REMARK    3  A    between atoms: O_13  and  C_10 
ROOT
ATOM      1  C   UNL d   1      -2.440  -0.167  -0.058  0.00  0.00     0.109 A 
ATOM      2  N   UNL d   1      -1.649   0.963  -0.042  0.00  0.00    -0.351 N 
ATOM      3  C   UNL d   1      -1.579  -1.250  -0.030  0.00  0.00     0.049 A 
ATOM      4  C   UNL d   1      -0.248  -0.765  -0.019  0.00  0.00    -0.004 A 
ATOM      5  C   UNL d   1      -0.315   0.626  -0.026  0.00  0.00     0.043 A 
ATOM      6  C   UNL d   1       1.009  -1.390  -0.009  0.00  0.00     0.050 A 
ATOM      7  C   UNL d   1       0.835   1.424  -0.023  0.00  0.00     0.033 A 
ATOM      8  C   UNL d   1       2.175  -0.616  -0.016  0.00  0.00     0.069 A 
ATOM      9  C   UNL d   1       2.083   0.776  -0.020  0.00  0.00     0.039 A 
ATOM     10  H   UNL d   1      -2.014   1.907  -0.054  0.00  0.00     0.166 HD
ENDROOT
BRANCH   1  11
ATOM     11  C   UNL d   1      -3.880  -0.134  -0.101  0.00  0.00     0.309 C 
ATOM     12  O   UNL d   1      -4.555   0.887  -0.131  0.00  0.00    -0.258 OA
BRANCH  11  13
ATOM     13  O   UNL d   1      -4.367  -1.404  -0.109  0.00  0.00    -0.321 OA
ATOM     14  C   UNL d   1      -5.787  -1.502  -0.154  0.00  0.00     0.213 C 
ENDBRANCH  11  13
ENDBRANCH   1  11
BRANCH   8  15
ATOM     15  O   UNL d   1       3.328  -1.354  -0.021  0.00  0.00    -0.356 OA
ATOM     16  C   UNL d   1       4.555  -0.641  -0.044  0.00  0.00     0.210 C 
ENDBRANCH   8  15
TORSDOF 3
