REMARK  1 active torsions:
REMARK  status: ('A' for Active; 'I' for Inactive)
REMARK    1  A    between atoms: C_2  and  N_1 
ROOT
ATOM      1  C   UNL d   1       0.017   2.312   0.036  0.00  0.00     0.052 A 
ATOM      2  C   UNL d   1      -0.679   3.065   1.003  0.00  0.00    -0.035 A 
ATOM      3  C   UNL d   1       0.718   2.991  -0.980  0.00  0.00     0.037 A 
ATOM      4  C   UNL d   1      -0.707   4.468   0.885  0.00  0.00     0.009 A 
ATOM      5  C   UNL d   1       0.674   4.385  -1.097  0.00  0.00    -0.060 A 
ATOM      6  C   UNL d   1      -0.042   5.120  -0.152  0.00  0.00     0.007 A 
ATOM      7  C   UNL d   1      -1.354   2.476   2.213  0.00  0.00     0.050 C 
ATOM      8  C   UNL d   1       1.379   5.090  -2.216  0.00  0.00     0.048 C 
ENDROOT
BRANCH   1   9
ATOM      9  N   UNL d   1       0.028   0.896   0.039  0.00  0.00    -0.245 N 
ATOM     10  C   UNL d   1      -1.085   0.110   0.154  0.00  0.00     0.255 A 
ATOM     11  C   UNL d   1      -0.640  -1.285   0.036  0.00  0.00     0.080 A 
ATOM     12  O   UNL d   1      -2.263   0.402   0.258  0.00  0.00    -0.268 OA
ATOM     13  C   UNL d   1       0.669  -1.279  -0.206  0.00  0.00     0.080 A 
ATOM     14  C   UNL d   1       1.111   0.120  -0.256  0.00  0.00     0.255 A 
ATOM     15  O   UNL d   1       2.267   0.423  -0.498  0.00  0.00    -0.268 OA
ENDBRANCH   1   9
TORSDOF 1
