REMARK  6 active torsions:
REMARK  status: ('A' for Active; 'I' for Inactive)
REMARK    1  A    between atoms: N_7  and  C_2 
REMARK    2  A    between atoms: C_6  and  C_5 
REMARK    3  A    between atoms: C_11  and  C_6 
REMARK    4  A    between atoms: N_9  and  N_7 
REMARK    5  A    between atoms: O_20  and  C_11 
REMARK    6  A    between atoms: C_12  and  C_13 
ROOT
ATOM      1  N   UNL d   1      -0.276   1.139   0.012  0.00  0.00    -0.305 N 
ATOM      2  C   UNL d   1       1.001   0.704  -0.067  0.00  0.00     0.162 A 
ATOM      3  C   UNL d   1      -1.280   0.219  -0.041  0.00  0.00     0.238 A 
ATOM      4  S   UNL d   1       1.059  -1.033  -0.058  0.00  0.00    -0.077 SA
ATOM      5  C   UNL d   1      -0.757  -1.201  -0.135  0.00  0.00     0.157 A 
ATOM      6  O   UNL d   1      -2.465   0.525  -0.080  0.00  0.00    -0.272 OA
ATOM      7  H   UNL d   1      -0.479   2.126   0.025  0.00  0.00     0.171 HD
ENDROOT
BRANCH   2   8
ATOM      8  N   UNL d   1       1.980   1.540  -0.168  0.00  0.00    -0.280 N 
ATOM      9  HN  UNL d   1       1.853   2.552  -0.183  1.00  0.00     0.189 HD
BRANCH   8  10
ATOM     10  N   UNL d   1       3.228   0.923  -0.254  0.00  0.00    -0.307 N 
ATOM     11  C   UNL d   1       4.109   1.675  -0.835  0.00  0.00     0.144 C 
ATOM     12  HN  UNL d   1       3.425  -0.013   0.100  1.00  0.00     0.186 HD
BRANCH  11  13
ATOM     13  C   UNL d   1       5.447   1.201  -1.035  0.00  0.00     0.091 A 
ATOM     14  O   UNL d   1       6.331   2.015  -1.685  0.00  0.00    -0.321 OA
ATOM     15  C   UNL d   1       7.513   1.349  -1.750  0.00  0.00     0.142 A 
ATOM     16  C   UNL d   1       7.407   0.116  -1.153  0.00  0.00     0.027 A 
ATOM     17  C   UNL d   1       6.072   0.016  -0.695  0.00  0.00     0.040 A 
ENDBRANCH  11  13
ENDBRANCH   8  10
ENDBRANCH   2   8
BRANCH   5  18
ATOM     18  C   UNL d   1      -1.199  -1.820  -1.455  0.00  0.00     0.135 C 
BRANCH  18  19
ATOM     19  C   UNL d   1      -0.801  -3.269  -1.544  0.00  0.00     0.141 C 
ATOM     20  O   UNL d   1      -0.782  -4.036  -0.594  0.00  0.00    -0.650 OA
BRANCH  19  21
ATOM     21  O   UNL d   1      -0.512  -3.671  -2.802  0.00  0.00    -0.776 OA
ATOM     22  H   UNL d   1      -0.573  -2.976  -3.484  0.00  0.00     0.167 HD
ENDBRANCH  19  21
ENDBRANCH  18  19
ENDBRANCH   5  18
TORSDOF 6
