REMARK  4 active torsions:
REMARK  status: ('A' for Active; 'I' for Inactive)
REMARK    1  A    between atoms: C_5  and  N_1 
REMARK    2  A    between atoms: C_11  and  C_7 
REMARK    3  A    between atoms: C_9  and  C_8 
REMARK    4  A    between atoms: C_10  and  C_12 
ROOT
ATOM      1  N   UNL d   1      -0.272  -1.210   0.157  0.00  0.00    -0.179 N 
ATOM      2  N   UNL d   1       1.002  -0.760   0.388  0.00  0.00    -0.266 N 
ATOM      3  HN  UNL d   1       1.806  -1.271   0.753  1.00  0.00     0.190 HD
ATOM      4  C   UNL d   1      -1.057  -0.231  -0.403  0.00  0.00     0.394 A 
ATOM      5  O   UNL d   1      -0.279   0.894  -0.442  0.00  0.00    -0.240 OA
ATOM      6  C   UNL d   1       0.922   0.479   0.025  0.00  0.00     0.178 A 
ATOM      7  O   UNL d   1      -2.227  -0.254  -0.749  0.00  0.00    -0.236 OA
ENDROOT
BRANCH   1   8
ATOM      8  C   UNL d   1      -0.520  -2.588   0.162  0.00  0.00     0.147 A 
ATOM      9  C   UNL d   1      -0.137  -3.374   1.246  0.00  0.00     0.093 A 
ATOM     10  C   UNL d   1      -0.271  -4.770   1.125  0.00  0.00     0.021 A 
ATOM     11  C   UNL d   1      -0.780  -5.327  -0.041  0.00  0.00     0.018 A 
ATOM     12  C   UNL d   1      -1.167  -4.467  -1.048  0.00  0.00     0.090 A 
ATOM     13  N   UNL d   1      -1.062  -3.123  -0.963  0.00  0.00    -0.350 N 
ATOM     14  HN  UNL d   1      -1.382  -2.525  -1.724  1.00  0.00     0.166 HD
BRANCH   9  15
ATOM     15  C   UNL d   1       0.329  -2.801   2.551  0.00  0.00     0.421 C 
ATOM     16  F   UNL d   1       0.074  -1.479   2.757  0.00  0.00    -0.166 F 
ATOM     17  F   UNL d   1      -0.276  -3.426   3.608  0.00  0.00    -0.166 F 
ATOM     18  F   UNL d   1       1.664  -2.974   2.755  0.00  0.00    -0.166 F 
ENDBRANCH   9  15
ENDBRANCH   1   8
BRANCH   6  19
ATOM     19  C   UNL d   1       1.998   1.475   0.012  0.00  0.00     0.018 A 
ATOM     20  C   UNL d   1       3.327   1.031   0.057  0.00  0.00     0.032 A 
ATOM     21  C   UNL d   1       4.388   1.949   0.035  0.00  0.00     0.048 A 
ATOM     22  C   UNL d   1       4.093   3.324  -0.024  0.00  0.00     0.016 A 
ATOM     23  C   UNL d   1       2.768   3.764  -0.066  0.00  0.00     0.002 A 
ATOM     24  C   UNL d   1       1.726   2.841  -0.050  0.00  0.00     0.016 A 
BRANCH  21  25
ATOM     25  C   UNL d   1       5.824   1.486   0.062  0.00  0.00     0.417 C 
ATOM     26  F   UNL d   1       5.958   0.132   0.093  0.00  0.00    -0.166 F 
ATOM     27  F   UNL d   1       6.525   1.907  -1.027  0.00  0.00    -0.166 F 
ATOM     28  F   UNL d   1       6.499   1.955   1.147  0.00  0.00    -0.166 F 
ENDBRANCH  21  25
ENDBRANCH   6  19
TORSDOF 4
