REMARK  3 active torsions:
REMARK  status: ('A' for Active; 'I' for Inactive)
REMARK    1  A    between atoms: C_2  and  C_1 
REMARK       I    between atoms: N_6  and  C_2 
REMARK       I    between atoms: C_3  and  N_6 
REMARK    2  A    between atoms: C_10  and  C_3 
REMARK    3  A    between atoms: O_15  and  C_13 
ROOT
ATOM      1  C   UNL d   1       0.005  -4.345  -0.666  0.00  0.00     0.268 C 
ATOM      2  C   UNL d   1       2.059  -3.048  -0.049  0.00  0.00     0.261 C 
ATOM      3  N   UNL d   1       0.712  -3.188  -0.355  0.00  0.00    -0.288 N 
ATOM      4  O   UNL d   1       0.533  -5.444  -0.796  0.00  0.00    -0.267 OA
ATOM      5  O   UNL d   1       2.879  -3.951   0.047  0.00  0.00    -0.267 OA
ATOM      6  H   UNL d   1       0.139  -2.368  -0.243  0.00  0.00     0.172 HD
ENDROOT
BRANCH   2   7
ATOM      7  C   UNL d   1       2.479  -1.651   0.279  0.00  0.00     0.065 A 
ATOM      8  C   UNL d   1       3.551  -1.430   1.155  0.00  0.00     0.081 A 
ATOM      9  C   UNL d   1       3.868  -0.138   1.573  0.00  0.00     0.037 A 
ATOM     10  C   UNL d   1       3.129   0.950   1.106  0.00  0.00     0.003 A 
ATOM     11  C   UNL d   1       2.101   0.750   0.189  0.00  0.00     0.001 A 
ATOM     12  C   UNL d   1       1.787  -0.542  -0.238  0.00  0.00     0.020 A 
BRANCH   8  13
ATOM     13  O   UNL d   1       4.332  -2.437   1.657  0.00  0.00    -0.360 OA
ATOM     14  H   UNL d   1       4.109  -3.269   1.181  0.00  0.00     0.217 HD
ENDBRANCH   8  13
ENDBRANCH   2   7
BRANCH   1  15
ATOM     15  C   UNL d   1      -1.427  -4.138  -0.841  0.00  0.00     0.114 A 
ATOM     16  C   UNL d   1      -2.443  -5.014  -1.207  0.00  0.00     0.046 A 
ATOM     17  N   UNL d   1      -3.716  -4.444  -1.247  0.00  0.00    -0.298 N 
ATOM     18  C   UNL d   1      -2.357  -6.453  -1.566  0.00  0.00     0.071 C 
ATOM     19  N   UNL d   1      -3.699  -3.160  -0.947  0.00  0.00    -0.269 N 
ATOM     20  HN  UNL d   1      -4.563  -4.961  -1.482  1.00  0.00     0.187 HD
ATOM     21  S   UNL d   1      -2.173  -2.603  -0.607  0.00  0.00     0.009 SA
ATOM     22  HN  UNL d   1      -4.533  -2.574  -0.926  1.00  0.00     0.195 HD
ENDBRANCH   1  15
TORSDOF 3
