REMARK  3 active torsions:
REMARK  status: ('A' for Active; 'I' for Inactive)
REMARK    1  A    between atoms: C_3  and  C_1 
REMARK    2  A    between atoms: N_15  and  N_2 
REMARK    3  A    between atoms: S_16  and  C_6 
ROOT
ATOM      1  C   UNL d   1      -0.090  -1.343  -0.021  0.00  0.00     0.160 A 
ATOM      2  N   UNL d   1       1.147  -0.726   0.021  0.00  0.00    -0.238 N 
ATOM      3  N   UNL d   1      -1.017  -0.419  -0.207  0.00  0.00    -0.281 N 
ATOM      4  HN  UNL d   1      -2.018  -0.591  -0.303  1.00  0.00     0.188 HD
ATOM      5  C   UNL d   1       0.883   0.618  -0.093  0.00  0.00     0.175 A 
ATOM      6  N   UNL d   1      -0.404   0.813  -0.248  0.00  0.00    -0.277 N 
ATOM      7  HN  UNL d   1      -0.867   1.713  -0.376  1.00  0.00     0.189 HD
ENDROOT
BRANCH   1   8
ATOM      8  C   UNL d   1      -0.371  -2.740   0.070  0.00  0.00     0.093 A 
ATOM      9  C   UNL d   1      -1.383  -3.481  -0.530  0.00  0.00     0.044 A 
ATOM     10  N   UNL d   1      -1.367  -4.840  -0.222  0.00  0.00    -0.298 N 
ATOM     11  C   UNL d   1      -2.450  -3.016  -1.455  0.00  0.00     0.071 C 
ATOM     12  N   UNL d   1      -0.394  -5.149   0.614  0.00  0.00    -0.269 N 
ATOM     13  HN  UNL d   1      -2.030  -5.517  -0.599  1.00  0.00     0.187 HD
ATOM     14  S   UNL d   1       0.513  -3.827   1.066  0.00  0.00     0.007 SA
ATOM     15  HN  UNL d   1      -0.215  -6.097   0.947  1.00  0.00     0.195 HD
ENDBRANCH   1   8
BRANCH   2  16
ATOM     16  N   UNL d   1       2.456  -1.341   0.084  0.00  0.00    -0.239 NA
ATOM     17  H   UNL d   1       2.414  -2.332  -0.156  0.00  0.00     0.143 HD
ATOM     18  H   UNL d   1       3.075  -0.935  -0.618  0.00  0.00     0.143 HD
ENDBRANCH   2  16
BRANCH   5  19
ATOM     19  S   UNL d   1       2.107   1.838  -0.074  0.00  0.00    -0.104 SA
ATOM     20  H   UNL d   1       3.112   1.092   0.406  0.00  0.00     0.110 HD
ENDBRANCH   5  19
TORSDOF 3
