REMARK  3 active torsions:
REMARK  status: ('A' for Active; 'I' for Inactive)
REMARK    1  A    between atoms: C_10  and  C_5 
REMARK    2  A    between atoms: C_9  and  C_13 
REMARK    3  A    between atoms: O_20  and  C_9 
ROOT
ATOM      1  C   UNL d   1      -0.312   0.366  -0.579  0.00  0.00     0.688 A 
ATOM      2  N   UNL d   1      -1.570   0.598  -0.896  0.00  0.00    -0.189 N 
ATOM      3  HN  UNL d   1      -1.909   1.152  -1.682  1.00  0.00     0.184 HD
ATOM      4  N   UNL d   1      -0.246  -0.433   0.559  0.00  0.00    -0.166 N 
ATOM      5  C   UNL d   1      -2.337  -0.054   0.046  0.00  0.00     0.076 A 
ATOM      6  C   UNL d   1      -1.528  -0.698   0.958  0.00  0.00     0.145 A 
ATOM      7  N   UNL d   1       0.830   0.789  -1.198  0.00  0.00    -0.201 N 
ATOM      8  HN  UNL d   1       0.806   1.377  -2.032  1.00  0.00     0.183 HD
ATOM      9  C   UNL d   1       0.955  -0.843   1.118  0.00  0.00     0.116 A 
ATOM     10  C   UNL d   1       2.104  -0.458   0.547  0.00  0.00     0.036 A 
ATOM     11  C   UNL d   1       1.947   0.399  -0.664  0.00  0.00     0.107 A 
ENDROOT
BRANCH   5  12
ATOM     12  C   UNL d   1      -3.793  -0.047   0.038  0.00  0.00    -0.007 A 
ATOM     13  C   UNL d   1      -4.483   0.614  -0.990  0.00  0.00     0.015 A 
ATOM     14  C   UNL d   1      -5.885   0.630  -1.026  0.00  0.00     0.018 A 
ATOM     15  C   UNL d   1      -6.620  -0.018  -0.027  0.00  0.00     0.039 A 
ATOM     16  C   UNL d   1      -5.939  -0.677   1.003  0.00  0.00     0.018 A 
ATOM     17  C   UNL d   1      -4.540  -0.690   1.034  0.00  0.00     0.015 A 
BRANCH  15  18
ATOM     18  C   UNL d   1      -8.107  -0.045  -0.001  0.00  0.00     0.292 C 
ATOM     19  O   UNL d   1      -8.751  -0.615   0.867  0.00  0.00    -0.259 OA
BRANCH  18  20
ATOM     20  O   UNL d   1      -8.627   0.636  -1.052  0.00  0.00    -0.323 OA
ATOM     21  C   UNL d   1     -10.055   0.650  -1.074  0.00  0.00     0.213 C 
ENDBRANCH  18  20
ENDBRANCH  15  18
ENDBRANCH   5  12
TORSDOF 3
