REMARK  4 active torsions:
REMARK  status: ('A' for Active; 'I' for Inactive)
REMARK    1  A    between atoms: C_5  and  C_1 
REMARK    2  A    between atoms: C_6  and  C_2 
REMARK       I    between atoms: N_7  and  C_5 
REMARK    3  A    between atoms: C_10  and  C_16 
REMARK    4  A    between atoms: C_18  and  C_10 
ROOT
ATOM      1  C   UNL d   1       0.235  -2.646   0.143  0.00  0.00     0.258 C 
ATOM      2  N   UNL d   1      -0.398  -3.906   0.014  0.00  0.00    -0.348 N 
ATOM      3  O   UNL d   1       0.025  -1.722  -0.642  0.00  0.00    -0.267 OA
ATOM      4  C   UNL d   1      -1.474  -4.043  -0.966  0.00  0.00     0.127 C 
ATOM      5  C   UNL d   1      -0.356  -4.923   1.060  0.00  0.00     0.127 C 
ATOM      6  C   UNL d   1      -1.699  -6.525  -0.382  0.00  0.00     0.064 C 
ATOM      7  C   UNL d   1      -0.517  -6.351   0.565  0.00  0.00     0.032 C 
ATOM      8  C   UNL d   1      -1.626  -5.477  -1.493  0.00  0.00     0.032 C 
ENDROOT
BRANCH   1   9
ATOM      9  C   UNL d   1       1.233  -2.498   1.196  0.00  0.00     0.092 C 
ATOM     10  C   UNL d   1       2.627  -2.150   1.098  0.00  0.00     0.086 C 
ATOM     11  N   UNL d   1       3.207  -2.305   2.301  0.00  0.00    -0.259 N 
ATOM     12  O   UNL d   1       2.211  -2.528   3.204  0.00  0.00    -0.241 OA
ATOM     13  HN  UNL d   1       4.207  -2.263   2.500  1.00  0.00     0.195 HD
ATOM     14  C   UNL d   1       1.022  -2.604   2.565  0.00  0.00     0.090 C 
ATOM     15  C   UNL d   1      -0.136  -2.821   3.457  0.00  0.00     0.080 C 
BRANCH  10  16
ATOM     16  C   UNL d   1       3.482  -1.717  -0.025  0.00  0.00     0.037 A 
ATOM     17  C   UNL d   1       4.389  -0.639   0.159  0.00  0.00     0.048 A 
ATOM     18 CL   UNL d   1       4.417   0.367   1.579  0.00  0.00    -0.083 Cl
ATOM     19  C   UNL d   1       5.330  -0.292  -0.822  0.00  0.00     0.025 A 
ATOM     20  C   UNL d   1       5.358  -0.964  -2.034  0.00  0.00     0.003 A 
ATOM     21  C   UNL d   1       4.448  -1.991  -2.260  0.00  0.00     0.025 A 
ATOM     22  C   UNL d   1       3.537  -2.386  -1.262  0.00  0.00     0.048 A 
ATOM     23 CL   UNL d   1       2.600  -3.792  -1.639  0.00  0.00    -0.083 Cl
ENDBRANCH  10  16
ENDBRANCH   1   9
BRANCH   6  24
ATOM     24  C   UNL d   1      -3.039  -6.478   0.360  0.00  0.00     0.163 C 
ATOM     25  O   UNL d   1      -3.208  -5.753   1.338  0.00  0.00    -0.292 OA
BRANCH  24  26
ATOM     26  C   UNL d   1      -4.185  -7.319  -0.106  0.00  0.00     0.010 A 
ATOM     27  C   UNL d   1      -4.126  -8.122  -1.250  0.00  0.00     0.015 A 
ATOM     28  C   UNL d   1      -5.226  -8.899  -1.623  0.00  0.00     0.001 A 
ATOM     29  C   UNL d   1      -6.394  -8.874  -0.863  0.00  0.00     0.000 A 
ATOM     30  C   UNL d   1      -6.467  -8.074   0.274  0.00  0.00     0.001 A 
ATOM     31  C   UNL d   1      -5.367  -7.301   0.653  0.00  0.00     0.015 A 
ENDBRANCH  24  26
ENDBRANCH   6  24
TORSDOF 4
