REMARK  10 active torsions:
REMARK  status: ('A' for Active; 'I' for Inactive)
REMARK    1  A    between atoms: O_5  and  C_1 
REMARK    2  A    between atoms: O_6  and  C_2 
REMARK    3  A    between atoms: C_12  and  C_3 
REMARK    4  A    between atoms: C_11  and  C_4 
REMARK    5  A    between atoms: C_7  and  O_5 
REMARK    6  A    between atoms: C_8  and  O_6 
REMARK    7  A    between atoms: C_9  and  O_15 
REMARK    8  A    between atoms: C_10  and  O_16 
REMARK    9  A    between atoms: O_16  and  C_11 
REMARK   10  A    between atoms: O_15  and  C_12 
ROOT
ATOM      1  C   UNL d   1       1.542  -0.354   0.094  0.00  0.00     0.122 A 
ATOM      2  C   UNL d   1       0.643  -1.435   0.141  0.00  0.00     0.122 A 
ATOM      3  C   UNL d   1       1.067   0.959  -0.048  0.00  0.00     0.003 A 
ATOM      4  C   UNL d   1      -0.741  -1.223   0.042  0.00  0.00     0.003 A 
ATOM      5  C   UNL d   1      -0.320   1.168  -0.109  0.00  0.00     0.013 A 
ATOM      6  C   UNL d   1      -1.209   0.092  -0.081  0.00  0.00     0.013 A 
ENDROOT
BRANCH   3   7
ATOM      7  C   UNL d   1       1.991   2.145  -0.158  0.00  0.00     0.220 C 
BRANCH   7   8
ATOM      8  O   UNL d   1       2.870   2.231   0.971  0.00  0.00    -0.317 OA
BRANCH   8   9
ATOM      9  C   UNL d   1       2.387   2.921   2.037  0.00  0.00     0.255 C 
ATOM     10  O   UNL d   1       1.284   3.445   2.113  0.00  0.00    -0.266 OA
ATOM     11  C   UNL d   1       3.407   2.959   3.136  0.00  0.00     0.126 C 
ENDBRANCH   8   9
ENDBRANCH   7   8
ENDBRANCH   3   7
BRANCH   1  12
ATOM     12  O   UNL d   1       2.936  -0.549   0.014  0.00  0.00    -0.276 OA
BRANCH  12  13
ATOM     13  C   UNL d   1       3.585  -1.253   1.025  0.00  0.00     0.260 C 
ATOM     14  O   UNL d   1       3.141  -1.524   2.129  0.00  0.00    -0.265 OA
ATOM     15  C   UNL d   1       4.926  -1.698   0.511  0.00  0.00     0.126 C 
ENDBRANCH  12  13
ENDBRANCH   1  12
BRANCH   2  16
ATOM     16  O   UNL d   1       1.058  -2.744   0.462  0.00  0.00    -0.276 OA
BRANCH  16  17
ATOM     17  C   UNL d   1       1.985  -3.393  -0.340  0.00  0.00     0.260 C 
ATOM     18  O   UNL d   1       2.342  -3.064  -1.459  0.00  0.00    -0.265 OA
ATOM     19  C   UNL d   1       2.541  -4.565   0.424  0.00  0.00     0.126 C 
ENDBRANCH  16  17
ENDBRANCH   2  16
BRANCH   4  20
ATOM     20  C   UNL d   1      -1.720  -2.368   0.029  0.00  0.00     0.220 C 
BRANCH  20  21
ATOM     21  O   UNL d   1      -1.516  -3.191  -1.130  0.00  0.00    -0.317 OA
BRANCH  21  22
ATOM     22  C   UNL d   1      -2.201  -2.823  -2.245  0.00  0.00     0.255 C 
ATOM     23  O   UNL d   1      -2.960  -1.866  -2.333  0.00  0.00    -0.266 OA
ATOM     24  C   UNL d   1      -1.901  -3.755  -3.381  0.00  0.00     0.126 C 
ENDBRANCH  21  22
ENDBRANCH  20  21
ENDBRANCH   4  20
TORSDOF 10
