REMARK  4 active torsions:
REMARK  status: ('A' for Active; 'I' for Inactive)
REMARK    1  A    between atoms: C_2  and  C_1 
REMARK       I    between atoms: N_3  and  C_1 
REMARK    2  A    between atoms: C_5  and  N_3 
REMARK    3  A    between atoms: O_6  and  C_4 
REMARK    4  A    between atoms: C_11  and  O_6 
ROOT
ATOM      1  C   UNL d   1      -1.915  -2.116   0.898  0.00  0.00     0.175 A 
ATOM      2  C   UNL d   1      -1.248  -1.134   0.159  0.00  0.00     0.087 A 
ATOM      3  N   UNL d   1      -3.270  -2.228   0.963  0.00  0.00    -0.345 N 
ATOM      4  HN  UNL d   1      -3.721  -2.935   1.544  1.00  0.00     0.167 HD
ATOM      5  C   UNL d   1      -2.035  -0.277  -0.613  0.00  0.00     0.035 A 
ATOM      6  C   UNL d   1      -3.987  -1.360   0.222  0.00  0.00     0.090 A 
ATOM      7  C   UNL d   1      -3.423  -0.389  -0.585  0.00  0.00     0.019 A 
ENDROOT
BRANCH   2   8
ATOM      8  N   UNL d   1       0.168  -1.055   0.182  0.00  0.00    -0.319 N 
ATOM      9  C   UNL d   1       0.898   0.070  -0.140  0.00  0.00     0.258 C 
ATOM     10  O   UNL d   1       0.395   1.179  -0.316  0.00  0.00    -0.267 OA
ATOM     11  H   UNL d   1       0.655  -1.860   0.567  0.00  0.00     0.169 HD
BRANCH   9  12
ATOM     12  C   UNL d   1       2.384  -0.031  -0.242  0.00  0.00     0.054 A 
ATOM     13  C   UNL d   1       3.119  -1.196  -0.501  0.00  0.00     0.049 A 
ATOM     14 CL   UNL d   1       2.427  -2.776  -0.608  0.00  0.00    -0.083 Cl
ATOM     15  C   UNL d   1       4.504  -1.113  -0.720  0.00  0.00     0.025 A 
ATOM     16  C   UNL d   1       5.165   0.115  -0.672  0.00  0.00     0.002 A 
ATOM     17  C   UNL d   1       4.453   1.271  -0.384  0.00  0.00     0.001 A 
ATOM     18  C   UNL d   1       3.077   1.197  -0.170  0.00  0.00     0.019 A 
ENDBRANCH   9  12
ENDBRANCH   2   8
BRANCH   1  19
ATOM     19  O   UNL d   1      -1.119  -2.952   1.680  0.00  0.00    -0.292 OA
BRANCH  19  20
ATOM     20  C   UNL d   1      -1.674  -4.104   2.182  0.00  0.00     0.078 A 
ATOM     21  C   UNL d   1      -2.382  -5.013   1.391  0.00  0.00     0.039 A 
ATOM     22  C   UNL d   1      -2.863  -6.197   1.952  0.00  0.00     0.026 A 
ATOM     23  C   UNL d   1      -2.611  -6.480   3.294  0.00  0.00     0.034 A 
ATOM     24  C   UNL d   1      -1.882  -5.588   4.080  0.00  0.00     0.026 A 
ATOM     25 CL   UNL d   1      -3.194  -7.946   3.982  0.00  0.00    -0.084 Cl
ATOM     26  C   UNL d   1      -1.408  -4.400   3.521  0.00  0.00     0.039 A 
ENDBRANCH  19  20
ENDBRANCH   1  19
TORSDOF 4
