REMARK  6 active torsions:
REMARK  status: ('A' for Active; 'I' for Inactive)
REMARK    1  A    between atoms: C_2  and  C_1 
REMARK       I    between atoms: N_4  and  C_2 
REMARK    2  A    between atoms: C_3  and  N_5 
REMARK    3  A    between atoms: N_6  and  C_3 
REMARK    4  A    between atoms: N_5  and  N_4 
REMARK    5  A    between atoms: C_10  and  N_6 
REMARK    6  A    between atoms: O_12  and  C_8 
ROOT
ATOM      1  C   UNL d   1       2.871  -0.135   0.024  0.00  0.00     0.272 C 
ATOM      2  N   UNL d   1       3.482   0.914   0.693  0.00  0.00    -0.264 N 
ATOM      3  O   UNL d   1       2.317   0.077  -1.054  0.00  0.00    -0.266 OA
ATOM      4  H   UNL d   1       3.966   0.852   1.588  0.00  0.00     0.190 HD
ENDROOT
BRANCH   2   5
ATOM      5  N   UNL d   1       3.305   2.208   0.146  0.00  0.00    -0.273 N 
ATOM      6  H   UNL d   1       2.632   2.214  -0.623  0.00  0.00     0.189 HD
BRANCH   5   7
ATOM      7  C   UNL d   1       3.361   3.325   0.934  0.00  0.00     0.191 C 
ATOM      8  S   UNL d   1       3.910   3.334   2.520  0.00  0.00    -0.039 SA
BRANCH   7   9
ATOM      9  N   UNL d   1       2.919   4.507   0.407  0.00  0.00    -0.332 N 
ATOM     10  H   UNL d   1       2.780   5.217   1.120  0.00  0.00     0.168 HD
BRANCH   9  11
ATOM     11  C   UNL d   1       2.794   4.969  -0.922  0.00  0.00     0.034 A 
ATOM     12  C   UNL d   1       3.288   4.301  -2.044  0.00  0.00     0.029 A 
ATOM     13  C   UNL d   1       3.217   4.893  -3.311  0.00  0.00     0.002 A 
ATOM     14  C   UNL d   1       2.663   6.160  -3.469  0.00  0.00     0.000 A 
ATOM     15  C   UNL d   1       2.160   6.833  -2.361  0.00  0.00     0.002 A 
ATOM     16  C   UNL d   1       2.223   6.239  -1.096  0.00  0.00     0.029 A 
ENDBRANCH   9  11
ENDBRANCH   7   9
ENDBRANCH   5   7
ENDBRANCH   2   5
BRANCH   1  17
ATOM     17  C   UNL d   1       2.956  -1.512   0.613  0.00  0.00     0.067 A 
ATOM     18  C   UNL d   1       2.005  -2.536   0.416  0.00  0.00     0.084 A 
ATOM     19  C   UNL d   1       2.299  -3.827   0.906  0.00  0.00     0.038 A 
ATOM     20  C   UNL d   1       3.475  -4.114   1.591  0.00  0.00     0.003 A 
ATOM     21  C   UNL d   1       4.390  -3.101   1.817  0.00  0.00     0.001 A 
ATOM     22  C   UNL d   1       4.133  -1.815   1.331  0.00  0.00     0.020 A 
BRANCH  18  23
ATOM     23  O   UNL d   1       0.779  -2.568  -0.183  0.00  0.00    -0.355 OA
ATOM     24  C   UNL d   1       0.117  -1.413  -0.655  0.00  0.00     0.210 C 
ENDBRANCH  18  23
ENDBRANCH   1  17
TORSDOF 6
