REMARK  4 active torsions:
REMARK  status: ('A' for Active; 'I' for Inactive)
REMARK    1  A    between atoms: O_5  and  C_1 
REMARK       I    between atoms: C_3  and  N_15 
REMARK       I    between atoms: N_16  and  C_3 
REMARK    2  A    between atoms: C_10  and  O_5 
REMARK    3  A    between atoms: N_15  and  C_20 
REMARK    4  A    between atoms: C_24  and  N_16 
ROOT
ATOM      1  N   UNL d   1       3.697   2.543  -0.143  0.00  0.00    -0.344 N 
ATOM      2  HN  UNL d   1       3.564   1.678  -0.668  1.00  0.00     0.167 HD
ATOM      3  C   UNL d   1       2.738   3.037   0.670  0.00  0.00     0.149 A 
ATOM      4  C   UNL d   1       5.072   4.484   0.412  0.00  0.00     0.051 A 
ATOM      5  C   UNL d   1       4.847   3.262  -0.224  0.00  0.00     0.119 A 
ATOM      6  C   UNL d   1       2.871   4.222   1.374  0.00  0.00     0.059 A 
ATOM      7  C   UNL d   1       4.053   4.945   1.245  0.00  0.00     0.035 A 
ENDROOT
BRANCH   3   8
ATOM      8  O   UNL d   1       1.472   2.479   0.688  0.00  0.00    -0.276 OA
BRANCH   8   9
ATOM      9  C   UNL d   1       1.370   1.100   0.586  0.00  0.00     0.163 A 
ATOM     10  C   UNL d   1       0.227   0.603  -0.049  0.00  0.00     0.042 A 
ATOM     11  C   UNL d   1       0.089  -0.788   0.007  0.00  0.00     0.049 A 
ATOM     12  C   UNL d   1      -0.759   1.390  -0.697  0.00  0.00     0.020 A 
ATOM     13  C   UNL d   1      -1.036  -1.367  -0.566  0.00  0.00     0.054 A 
ATOM     14  N   UNL d   1       0.993  -1.575   0.605  0.00  0.00    -0.351 N 
ATOM     15  C   UNL d   1      -2.012  -0.592  -1.193  0.00  0.00     0.036 A 
ATOM     16  C   UNL d   1      -1.878   0.788  -1.268  0.00  0.00     0.025 A 
ATOM     17 CL   UNL d   1      -3.399  -1.351  -1.873  0.00  0.00    -0.084 Cl
ATOM     18  C   UNL d   1       2.041  -0.971   1.184  0.00  0.00     0.182 A 
ATOM     19  HN  UNL d   1       0.888  -2.589   0.619  1.00  0.00     0.166 HD
ATOM     20  N   UNL d   1       2.265   0.341   1.242  0.00  0.00    -0.332 N 
ATOM     21  HN  UNL d   1       3.057   0.740   1.747  1.00  0.00     0.168 HD
ENDBRANCH   8   9
ENDBRANCH   3   8
BRANCH   4  22
ATOM     22  N   UNL d   1       6.258   5.209   0.129  0.00  0.00    -0.307 N 
ATOM     23  C   UNL d   1       6.534   6.505   0.546  0.00  0.00     0.325 C 
ATOM     24  N   UNL d   1       7.623   7.042  -0.122  0.00  0.00    -0.309 N 
ATOM     25  O   UNL d   1       5.860   7.114   1.368  0.00  0.00    -0.247 OA
ATOM     26  H   UNL d   1       8.139   6.436  -0.740  0.00  0.00     0.170 HD
ATOM     27  H   UNL d   1       6.907   4.780  -0.513  0.00  0.00     0.170 HD
BRANCH  24  28
ATOM     28  C   UNL d   1       8.026   8.402  -0.106  0.00  0.00     0.036 A 
ATOM     29  C   UNL d   1       7.410   9.389   0.670  0.00  0.00     0.029 A 
ATOM     30  C   UNL d   1       7.798  10.729   0.572  0.00  0.00     0.002 A 
ATOM     31  C   UNL d   1       8.817  11.098  -0.298  0.00  0.00     0.000 A 
ATOM     32  C   UNL d   1       9.462  10.123  -1.054  0.00  0.00     0.002 A 
ATOM     33  C   UNL d   1       9.073   8.782  -0.956  0.00  0.00     0.029 A 
ENDBRANCH  24  28
ENDBRANCH   4  22
TORSDOF 4
