REMARK  1 active torsions:
REMARK  status: ('A' for Active; 'I' for Inactive)
REMARK    1  A    between atoms: C_3  and  N_1 
ROOT
ATOM      1  C   UNL d   1       2.108  -1.506  -0.045  0.00  0.00     0.084 A 
ATOM      2  C   UNL d   1       2.468  -2.311  -1.148  0.00  0.00     0.063 A 
ATOM      3  C   UNL d   1       2.988  -1.519   1.065  0.00  0.00     0.063 A 
ATOM      4 CL   UNL d   1       1.733  -2.155  -2.715  0.00  0.00    -0.082 Cl
ATOM      5 CL   UNL d   1       2.703  -0.630   2.527  0.00  0.00    -0.082 Cl
ATOM      6  C   UNL d   1       4.418  -3.173   0.011  0.00  0.00     0.003 A 
ATOM      7  C   UNL d   1       3.585  -3.163  -1.101  0.00  0.00     0.026 A 
ATOM      8  C   UNL d   1       4.133  -2.332   1.079  0.00  0.00     0.026 A 
ENDROOT
BRANCH   1   9
ATOM      9  N   UNL d   1       0.939  -0.683  -0.066  0.00  0.00    -0.294 N 
ATOM     10  C   UNL d   1      -0.397  -1.100  -0.398  0.00  0.00     0.182 A 
ATOM     11  N   UNL d   1      -1.177   0.068  -0.258  0.00  0.00    -0.341 N 
ATOM     12  S   UNL d   1      -1.072  -2.579  -0.727  0.00  0.00    -0.040 SA
ATOM     13  C   UNL d   1      -0.400   1.090   0.205  0.00  0.00     0.108 A 
ATOM     14  H   UNL d   1      -2.177   0.096  -0.405  0.00  0.00     0.167 HD
ATOM     15  C   UNL d   1       0.861   0.650   0.323  0.00  0.00     0.117 A 
ENDBRANCH   1   9
TORSDOF 1
