REMARK  2 active torsions:
REMARK  status: ('A' for Active; 'I' for Inactive)
REMARK       I    between atoms: C_2  and  N_1 
REMARK    1  A    between atoms: C_3  and  N_1 
REMARK    2  A    between atoms: C_4  and  C_2 
ROOT
ATOM      1  C   UNL d   1       2.594   0.010   0.599  0.00  0.00     0.046 A 
ATOM      2  C   UNL d   1       3.302   1.111   1.140  0.00  0.00    -0.035 A 
ATOM      3  C   UNL d   1       3.281  -1.214   0.403  0.00  0.00    -0.035 A 
ATOM      4  C   UNL d   1       5.301  -0.275   1.374  0.00  0.00     0.001 A 
ATOM      5  C   UNL d   1       4.618  -1.349   0.825  0.00  0.00     0.009 A 
ATOM      6  C   UNL d   1       4.657   0.948   1.503  0.00  0.00     0.009 A 
ATOM      7  C   UNL d   1       2.669  -2.401  -0.294  0.00  0.00     0.050 C 
ATOM      8  C   UNL d   1       2.746   2.492   1.374  0.00  0.00     0.050 C 
ENDROOT
BRANCH   1   9
ATOM      9  N   UNL d   1       1.194   0.028   0.321  0.00  0.00    -0.326 N 
ATOM     10  C   UNL d   1       0.490   1.077  -0.220  0.00  0.00     0.229 C 
ATOM     11  O   UNL d   1       1.038   2.038  -0.765  0.00  0.00    -0.272 OA
ATOM     12  H   UNL d   1       0.736  -0.870   0.288  0.00  0.00     0.169 HD
BRANCH  10  13
ATOM     13  C   UNL d   1      -1.048   0.941  -0.249  0.00  0.00     0.030 C 
ATOM     14  C   UNL d   1      -1.617   0.353   1.051  0.00  0.00     0.025 C 
ATOM     15  C   UNL d   1      -1.664   2.344  -0.443  0.00  0.00     0.025 C 
ATOM     16  C   UNL d   1      -1.434   0.043  -1.431  0.00  0.00     0.025 C 
ENDBRANCH  10  13
ENDBRANCH   1   9
TORSDOF 2
