REMARK  5 active torsions:
REMARK  status: ('A' for Active; 'I' for Inactive)
REMARK    1  A    between atoms: S_13  and  C_6 
REMARK    2  A    between atoms: C_11  and  C_20 
REMARK       I    between atoms: N_18  and  C_11 
REMARK    3  A    between atoms: C_20  and  S_13 
REMARK    4  A    between atoms: N_15  and  N_18 
REMARK    5  A    between atoms: C_23  and  C_21 
ROOT
ATOM      1  C   UNL d   1       1.687  -0.843  -0.080  0.00  0.00     0.089 A 
ATOM      2  C   UNL d   1       1.013   0.370   0.017  0.00  0.00     0.039 A 
ATOM      3  C   UNL d   1      -0.733  -1.190  -0.136  0.00  0.00    -0.008 C 
ATOM      4  C   UNL d   1      -0.415   0.157  -0.128  0.00  0.00    -0.029 C 
ATOM      5  S   UNL d   1       0.643  -2.185  -0.193  0.00  0.00    -0.075 SA
ATOM      6  C   UNL d   1       1.842   1.487   0.232  0.00  0.00     0.084 A 
ATOM      7  N   UNL d   1       3.018  -1.025  -0.058  0.00  0.00    -0.346 N 
ATOM      8  HN  UNL d   1       3.466  -1.937  -0.153  1.00  0.00     0.167 HD
ATOM      9  N   UNL d   1       3.184   1.350   0.270  0.00  0.00    -0.346 N 
ATOM     10  HN  UNL d   1       3.793   2.154   0.422  1.00  0.00     0.167 HD
ATOM     11  C   UNL d   1      -1.488   1.212  -0.187  0.00  0.00     0.041 C 
ATOM     12  C   UNL d   1       3.689   0.117   0.100  0.00  0.00     0.182 A 
ATOM     13  C   UNL d   1      -2.123  -1.756  -0.127  0.00  0.00     0.051 C 
ATOM     14  C   UNL d   1      -2.878   0.628  -0.481  0.00  0.00     0.009 C 
ATOM     15  C   UNL d   1      -3.149  -0.678   0.293  0.00  0.00    -0.014 C 
ATOM     16  C   UNL d   1      -3.146  -0.444   1.810  0.00  0.00     0.010 C 
ENDROOT
BRANCH   6  17
ATOM     17  S   UNL d   1       1.101   3.053   0.590  0.00  0.00    -0.102 SA
BRANCH  17  18
ATOM     18  C   UNL d   1       2.534   4.160   0.747  0.00  0.00     0.185 C 
BRANCH  18  19
ATOM     19  C   UNL d   1       2.013   5.574   0.990  0.00  0.00     0.245 C 
ATOM     20  N   UNL d   1       2.437   6.133   2.193  0.00  0.00    -0.270 N 
ATOM     21  H   UNL d   1       3.045   5.628   2.826  0.00  0.00     0.190 HD
ATOM     22  O   UNL d   1       1.284   6.147   0.181  0.00  0.00    -0.271 OA
BRANCH  20  23
ATOM     23  N   UNL d   1       1.991   7.378   2.540  0.00  0.00    -0.308 N 
ATOM     24  C   UNL d   1       2.454   7.873   3.642  0.00  0.00     0.118 C 
ATOM     25  HN  UNL d   1       1.327   7.890   1.960  1.00  0.00     0.186 HD
BRANCH  24  26
ATOM     26  C   UNL d   1       2.038   9.209   4.123  0.00  0.00    -0.019 A 
ATOM     27  C   UNL d   1       1.054   9.942   3.447  0.00  0.00     0.014 A 
ATOM     28  C   UNL d   1       0.680  11.204   3.914  0.00  0.00     0.024 A 
ATOM     29  C   UNL d   1       1.288  11.732   5.053  0.00  0.00     0.034 A 
ATOM     30  C   UNL d   1       2.268  11.004   5.731  0.00  0.00     0.024 A 
ATOM     31 CL   UNL d   1       0.834  13.290   5.624  0.00  0.00    -0.084 Cl
ATOM     32  C   UNL d   1       2.643   9.738   5.269  0.00  0.00     0.014 A 
ENDBRANCH  24  26
ENDBRANCH  20  23
ENDBRANCH  18  19
ENDBRANCH  17  18
ENDBRANCH   6  17
TORSDOF 5
