REMARK  5 active torsions:
REMARK  status: ('A' for Active; 'I' for Inactive)
REMARK    1  A    between atoms: C_11  and  C_3 
REMARK    2  A    between atoms: C_15  and  N_6 
REMARK    3  A    between atoms: C_14  and  C_11 
REMARK    4  A    between atoms: C_18  and  C_12 
REMARK    5  A    between atoms: C_25  and  C_18 
ROOT
ATOM      1  N   UNL d   1      -0.270   0.530   0.001  0.00  0.00    -0.062 N 
ATOM      2  C   UNL d   1       0.008  -0.838   0.082  0.00  0.00     0.730 A 
ATOM      3  C   UNL d   1      -1.649   0.695  -0.104  0.00  0.00     0.212 A 
ATOM      4  N   UNL d   1       1.169  -1.381   0.215  0.00  0.00    -0.151 N 
ATOM      5  HN  UNL d   1       1.317  -2.390   0.258  1.00  0.00     0.188 HD
ATOM      6  N   UNL d   1      -1.262  -1.406  -0.049  0.00  0.00    -0.083 N 
ATOM      7  N   UNL d   1      -2.293  -0.463  -0.156  0.00  0.00    -0.259 N 
ATOM      8  HN  UNL d   1      -3.295  -0.628  -0.251  1.00  0.00     0.190 HD
ATOM      9  N   UNL d   1       0.704   1.501  -0.065  0.00  0.00    -0.276 N 
ATOM     10  HN  UNL d   1       0.496   2.490  -0.201  1.00  0.00     0.188 HD
ATOM     11  C   UNL d   1       1.920   1.037   0.061  0.00  0.00     0.099 C 
ATOM     12  C   UNL d   1       2.188  -0.461   0.292  0.00  0.00     0.284 C 
ATOM     13  O   UNL d   1       3.346  -0.796   0.516  0.00  0.00    -0.265 OA
ENDROOT
BRANCH  11  14
ATOM     14  C   UNL d   1       3.125   1.939  -0.040  0.00  0.00     0.103 C 
BRANCH  14  15
ATOM     15  C   UNL d   1       3.601   2.449   1.298  0.00  0.00    -0.052 A 
ATOM     16  C   UNL d   1       4.563   1.740   2.036  0.00  0.00     0.009 A 
ATOM     17  C   UNL d   1       4.996   2.213   3.277  0.00  0.00     0.024 A 
ATOM     18  C   UNL d   1       4.475   3.400   3.784  0.00  0.00     0.034 A 
ATOM     19  C   UNL d   1       3.522   4.115   3.064  0.00  0.00     0.024 A 
ATOM     20 CL   UNL d   1       5.010   3.985   5.311  0.00  0.00    -0.084 Cl
ATOM     21  C   UNL d   1       3.082   3.638   1.826  0.00  0.00     0.009 A 
ENDBRANCH  14  15
ENDBRANCH  11  14
BRANCH   3  22
ATOM     22  C   UNL d   1      -2.389   2.009  -0.065  0.00  0.00     0.236 C 
ATOM     23  O   UNL d   1      -1.902   2.910   0.610  0.00  0.00    -0.283 OA
BRANCH  22  24
ATOM     24  C   UNL d   1      -3.669   2.062  -0.754  0.00  0.00     0.059 A 
ATOM     25  S   UNL d   1      -4.864   3.156  -0.183  0.00  0.00    -0.098 SA
ATOM     26  C   UNL d   1      -6.011   2.618  -1.330  0.00  0.00     0.050 A 
ATOM     27  C   UNL d   1      -5.490   1.657  -2.166  0.00  0.00     0.009 A 
ATOM     28  C   UNL d   1      -4.138   1.337  -1.836  0.00  0.00     0.023 A 
ENDBRANCH  22  24
ENDBRANCH   3  22
BRANCH   6  29
ATOM     29  C   UNL d   1      -1.610  -2.758   0.161  0.00  0.00     0.076 A 
ATOM     30  C   UNL d   1      -2.711  -3.323  -0.503  0.00  0.00     0.056 A 
ATOM     31  C   UNL d   1      -3.054  -4.661  -0.301  0.00  0.00     0.036 A 
ATOM     32 CL   UNL d   1      -4.376  -5.343  -1.166  0.00  0.00    -0.084 Cl
ATOM     33  C   UNL d   1      -2.331  -5.452   0.588  0.00  0.00     0.024 A 
ATOM     34  C   UNL d   1      -1.246  -4.904   1.266  0.00  0.00     0.004 A 
ATOM     35  C   UNL d   1      -0.884  -3.574   1.044  0.00  0.00     0.032 A 
ENDBRANCH   6  29
TORSDOF 5
