REMARK  5 active torsions:
REMARK  status: ('A' for Active; 'I' for Inactive)
REMARK    1  A    between atoms: C_9  and  N_1 
REMARK    2  A    between atoms: C_4  and  C_10 
REMARK    3  A    between atoms: C_23  and  C_8 
REMARK    4  A    between atoms: O_26  and  C_23 
REMARK    5  A    between atoms: C_24  and  O_26 
ROOT
ATOM      1  N   UNL d   1      -2.249  -4.953   2.780  0.00  0.00    -0.277 N 
ATOM      2  HN  UNL d   1      -2.194  -4.330   3.585  1.00  0.00     0.189 HD
ATOM      3  C   UNL d   1      -1.799  -4.709   1.565  0.00  0.00     0.174 A 
ATOM      4  O   UNL d   1      -2.024  -5.753   0.702  0.00  0.00    -0.275 OA
ATOM      5  N   UNL d   1      -2.806  -6.212   2.751  0.00  0.00    -0.279 N 
ATOM      6  HN  UNL d   1      -3.241  -6.705   3.531  1.00  0.00     0.189 HD
ATOM      7  C   UNL d   1      -2.666  -6.653   1.518  0.00  0.00     0.165 A 
ENDROOT
BRANCH   7   8
ATOM      8  C   UNL d   1      -3.002  -7.987   0.961  0.00  0.00     0.261 C 
BRANCH   8   9
ATOM      9  O   UNL d   1      -4.331  -7.928   0.437  0.00  0.00    -0.343 OA
BRANCH   9  10
ATOM     10  C   UNL d   1      -4.862  -9.111  -0.014  0.00  0.00     0.072 A 
ATOM     11  C   UNL d   1      -6.171  -9.018  -0.505  0.00  0.00     0.076 A 
ATOM     12  C   UNL d   1      -6.774 -10.166  -0.978  0.00  0.00     0.107 A 
ATOM     13  O   UNL d   1      -8.031 -10.257  -1.490  0.00  0.00    -0.323 OA
ATOM     14  C   UNL d   1      -6.127 -11.377  -0.972  0.00  0.00     0.105 A 
ATOM     15  C   UNL d   1      -8.095 -11.663  -1.813  0.00  0.00     0.352 A 
ATOM     16  O   UNL d   1      -6.890 -12.381  -1.477  0.00  0.00    -0.323 OA
ATOM     17  C   UNL d   1      -4.842 -11.506  -0.497  0.00  0.00     0.042 A 
ATOM     18  C   UNL d   1      -4.203 -10.357  -0.014  0.00  0.00     0.039 A 
ENDBRANCH   9  10
ENDBRANCH   8   9
ENDBRANCH   7   8
BRANCH   3  19
ATOM     19  C   UNL d   1      -1.111  -3.528   1.053  0.00  0.00     0.017 A 
ATOM     20  C   UNL d   1      -0.705  -3.417  -0.284  0.00  0.00     0.018 A 
ATOM     21  C   UNL d   1      -0.061  -2.264  -0.739  0.00  0.00     0.037 A 
ATOM     22  C   UNL d   1       0.184  -1.209   0.154  0.00  0.00     0.108 A 
ATOM     23  C   UNL d   1      -0.206  -1.276   1.498  0.00  0.00    -0.028 A 
ATOM     24  C   UNL d   1      -0.848  -2.454   1.928  0.00  0.00     0.025 A 
ATOM     25  C   UNL d   1       0.013  -0.185   2.508  0.00  0.00     0.050 C 
BRANCH  22  26
ATOM     26  N   UNL d   1       0.859  -0.035  -0.380  0.00  0.00    -0.115 N 
ATOM     27  O   UNL d   1       1.954   0.263   0.116  0.00  0.00    -0.532 OA
ATOM     28  O   UNL d   1       0.300   0.559  -1.310  0.00  0.00    -0.532 OA
ENDBRANCH  22  26
ENDBRANCH   3  19
TORSDOF 5
