REMARK  5 active torsions:
REMARK  status: ('A' for Active; 'I' for Inactive)
REMARK    1  A    between atoms: C_14  and  N_7 
REMARK    2  A    between atoms: N_11  and  C_10 
REMARK    3  A    between atoms: N_13  and  N_11 
REMARK       I    between atoms: C_12  and  N_13 
REMARK    4  A    between atoms: C_20  and  C_12 
REMARK    5  A    between atoms: C_21  and  C_14 
ROOT
ATOM      1  C   UNL d   1      -0.248  -0.848  -0.104  0.00  0.00     0.160 A 
ATOM      2  C   UNL d   1      -0.540   0.479  -0.065  0.00  0.00     0.165 A 
ATOM      3  N   UNL d   1      -1.362  -1.616  -0.181  0.00  0.00    -0.172 N 
ATOM      4  HN  UNL d   1      -1.409  -2.632  -0.254  1.00  0.00     0.186 HD
ATOM      5  N   UNL d   1       1.040  -1.318  -0.051  0.00  0.00    -0.287 N 
ATOM      6  N   UNL d   1       1.773   0.954  -0.011  0.00  0.00    -0.269 N 
ATOM      7  N   UNL d   1      -1.919   0.541  -0.087  0.00  0.00    -0.168 N 
ATOM      8  C   UNL d   1       2.100  -0.413  -0.004  0.00  0.00     0.332 A 
ATOM      9  C   UNL d   1       0.473   1.483  -0.002  0.00  0.00     0.282 A 
ATOM     10  C   UNL d   1      -2.372  -0.769  -0.143  0.00  0.00     0.701 A 
ATOM     11  O   UNL d   1       3.268  -0.807   0.045  0.00  0.00    -0.246 OA
ATOM     12  O   UNL d   1       0.231   2.684   0.066  0.00  0.00    -0.265 OA
ATOM     13  C   UNL d   1       1.334  -2.736  -0.026  0.00  0.00     0.163 C 
ATOM     14  C   UNL d   1       2.864   1.912   0.009  0.00  0.00     0.164 C 
ENDROOT
BRANCH  10  15
ATOM     15  N   UNL d   1      -3.673  -1.132  -0.168  0.00  0.00    -0.129 N 
ATOM     16  H   UNL d   1      -4.465  -0.485  -0.195  0.00  0.00     0.205 HD
BRANCH  15  17
ATOM     17  N   UNL d   1      -4.008  -2.437  -0.593  0.00  0.00    -0.255 N 
ATOM     18  C   UNL d   1      -5.199  -2.592  -1.281  0.00  0.00     0.239 C 
ATOM     19  O   UNL d   1      -6.029  -1.689  -1.348  0.00  0.00    -0.271 OA
ATOM     20  H   UNL d   1      -3.201  -3.035  -0.769  0.00  0.00     0.190 HD
BRANCH  18  21
ATOM     21  C   UNL d   1      -5.355  -3.944  -1.992  0.00  0.00     0.071 C 
ATOM     22  C   UNL d   1      -5.211  -5.126  -1.034  0.00  0.00     0.019 C 
ATOM     23  C   UNL d   1      -6.703  -4.034  -2.711  0.00  0.00     0.019 C 
ENDBRANCH  18  21
ENDBRANCH  15  17
ENDBRANCH  10  15
BRANCH   7  24
ATOM     24  C   UNL d   1      -2.727   1.751   0.000  0.00  0.00     0.186 C 
BRANCH  24  25
ATOM     25  C   UNL d   1      -2.968   2.386  -1.352  0.00  0.00    -0.039 A 
ATOM     26  C   UNL d   1      -3.724   1.730  -2.337  0.00  0.00     0.010 A 
ATOM     27  C   UNL d   1      -3.925   2.314  -3.591  0.00  0.00     0.024 A 
ATOM     28  C   UNL d   1      -3.386   3.566  -3.868  0.00  0.00     0.034 A 
ATOM     29  C   UNL d   1      -2.663   4.249  -2.894  0.00  0.00     0.024 A 
ATOM     30 CL   UNL d   1      -3.609   4.267  -5.423  0.00  0.00    -0.084 Cl
ATOM     31  C   UNL d   1      -2.455   3.662  -1.641  0.00  0.00     0.010 A 
ENDBRANCH  24  25
ENDBRANCH   7  24
TORSDOF 5
