REMARK  7 active torsions:
REMARK  status: ('A' for Active; 'I' for Inactive)
REMARK    1  A    between atoms: N_8  and  C_3 
REMARK       I    between atoms: C_10  and  N_8 
REMARK    2  A    between atoms: C_15  and  C_10 
REMARK    3  A    between atoms: N_11  and  C_15 
REMARK    4  A    between atoms: C_18  and  N_11 
REMARK    5  A    between atoms: C_19  and  N_11 
REMARK    6  A    between atoms: C_21  and  C_18 
REMARK    7  A    between atoms: C_20  and  C_19 
ROOT
ATOM      1  N   UNL d   1       0.191  -2.830  -0.427  0.00  0.00    -0.305 N 
ATOM      2  C   UNL d   1       1.484  -3.229  -0.207  0.00  0.00     0.252 C 
ATOM      3  O   UNL d   1       1.875  -4.396  -0.123  0.00  0.00    -0.271 OA
ATOM      4  H   UNL d   1      -0.002  -1.843  -0.569  0.00  0.00     0.171 HD
ENDROOT
BRANCH   2   5
ATOM      5  C   UNL d   1       2.549  -2.136  -0.188  0.00  0.00     0.375 C 
BRANCH   5   6
ATOM      6  N   UNL d   1       2.197  -0.861   0.475  0.00  0.00     0.105 N 
BRANCH   6   7
ATOM      7  C   UNL d   1       1.786  -1.047   1.885  0.00  0.00     0.311 C 
BRANCH   7   8
ATOM      8  C   UNL d   1       1.434   0.244   2.614  0.00  0.00    -0.030 A 
ATOM      9  C   UNL d   1       0.836   1.331   1.954  0.00  0.00     0.009 A 
ATOM     10  C   UNL d   1       0.675   2.557   2.601  0.00  0.00     0.001 A 
ATOM     11  C   UNL d   1       1.048   2.694   3.935  0.00  0.00     0.000 A 
ATOM     12  C   UNL d   1       1.552   1.598   4.631  0.00  0.00     0.001 A 
ATOM     13  C   UNL d   1       1.737   0.377   3.978  0.00  0.00     0.009 A 
ENDBRANCH   7   8
ENDBRANCH   6   7
BRANCH   6  14
ATOM     14  C   UNL d   1       3.353   0.075   0.334  0.00  0.00     0.311 C 
BRANCH  14  15
ATOM     15  C   UNL d   1       4.701  -0.337   0.907  0.00  0.00    -0.030 A 
ATOM     16  C   UNL d   1       5.640  -1.008   0.108  0.00  0.00     0.009 A 
ATOM     17  C   UNL d   1       6.905  -1.331   0.604  0.00  0.00     0.001 A 
ATOM     18  C   UNL d   1       7.252  -0.985   1.907  0.00  0.00     0.000 A 
ATOM     19  C   UNL d   1       6.331  -0.327   2.718  0.00  0.00     0.001 A 
ATOM     20  C   UNL d   1       5.066  -0.002   2.221  0.00  0.00     0.009 A 
ENDBRANCH  14  15
ENDBRANCH   6  14
ENDBRANCH   5   6
ENDBRANCH   2   5
BRANCH   1  21
ATOM     21  C   UNL d   1      -0.882  -3.688  -0.579  0.00  0.00     0.168 C 
ATOM     22  S   UNL d   1      -0.758  -5.362  -0.271  0.00  0.00    -0.032 SA
ATOM     23  C   UNL d   1      -2.361  -5.551  -0.839  0.00  0.00     0.109 C 
ATOM     24  N   UNL d   1      -2.945  -4.399  -1.121  0.00  0.00    -0.291 N 
ATOM     25  C   UNL d   1      -3.003  -6.836  -1.013  0.00  0.00     0.040 A 
ATOM     26  N   UNL d   1      -2.087  -3.314  -0.954  0.00  0.00    -0.279 N 
ATOM     27  HN  UNL d   1      -3.914  -4.314  -1.427  1.00  0.00     0.187 HD
ATOM     28  HN  UNL d   1      -2.360  -2.343  -1.105  1.00  0.00     0.189 HD
ATOM     29  S   UNL d   1      -2.209  -8.333  -0.694  0.00  0.00    -0.099 SA
ATOM     30  C   UNL d   1      -4.290  -7.066  -1.472  0.00  0.00     0.022 A 
ATOM     31  C   UNL d   1      -3.568  -9.253  -1.158  0.00  0.00     0.050 A 
ATOM     32  C   UNL d   1      -4.615  -8.455  -1.555  0.00  0.00     0.008 A 
ENDBRANCH   1  21
TORSDOF 7
