REMARK  6 active torsions:
REMARK  status: ('A' for Active; 'I' for Inactive)
REMARK    1  A    between atoms: N_7  and  C_1 
REMARK    2  A    between atoms: C_6  and  C_5 
REMARK    3  A    between atoms: C_9  and  C_6 
REMARK    4  A    between atoms: C_14  and  N_7 
REMARK       I    between atoms: N_12  and  C_9 
REMARK    5  A    between atoms: N_10  and  C_11 
REMARK    6  A    between atoms: C_20  and  N_12 
ROOT
ATOM      1  C   UNL d   1      -2.864  -3.180   2.391  0.00  0.00     0.128 C 
ENDROOT
BRANCH   1   2
ATOM      2  C   UNL d   1      -4.306  -3.649   2.414  0.00  0.00     0.156 C 
ATOM      3  S   UNL d   1      -4.710  -5.170   1.467  0.00  0.00    -0.079 SA
ATOM      4  C   UNL d   1      -5.789  -5.728   2.724  0.00  0.00     0.148 C 
ATOM      5  N   UNL d   1      -5.467  -5.120   3.894  0.00  0.00    -0.306 N 
ATOM      6  C   UNL d   1      -4.697  -4.002   3.838  0.00  0.00     0.238 C 
ATOM      7  H   UNL d   1      -5.870  -5.400   4.774  0.00  0.00     0.171 HD
ATOM      8  O   UNL d   1      -4.432  -3.337   4.834  0.00  0.00    -0.272 OA
BRANCH   4   9
ATOM      9  N   UNL d   1      -6.740  -6.575   2.519  0.00  0.00    -0.337 N 
ATOM     10  HN  UNL d   1      -6.830  -7.027   1.610  1.00  0.00     0.168 HD
BRANCH   9  11
ATOM     11  C   UNL d   1      -7.658  -6.879   3.549  0.00  0.00     0.035 A 
ATOM     12  C   UNL d   1      -7.979  -8.211   3.813  0.00  0.00     0.053 A 
ATOM     13  C   UNL d   1      -8.872  -8.527   4.842  0.00  0.00     0.036 A 
ATOM     14 CL   UNL d   1      -9.281 -10.171   5.147  0.00  0.00    -0.084 Cl
ATOM     15  C   UNL d   1      -9.443  -7.525   5.625  0.00  0.00     0.024 A 
ATOM     16  C   UNL d   1      -9.165  -6.193   5.341  0.00  0.00     0.004 A 
ATOM     17  C   UNL d   1      -8.311  -5.875   4.285  0.00  0.00     0.029 A 
ENDBRANCH   9  11
ENDBRANCH   4   9
ENDBRANCH   1   2
BRANCH   1  18
ATOM     18  C   UNL d   1      -2.424  -2.489   1.120  0.00  0.00     0.223 C 
ATOM     19  N   UNL d   1      -2.193  -3.352   0.068  0.00  0.00    -0.327 N 
ATOM     20  H   UNL d   1      -2.630  -4.268   0.105  0.00  0.00     0.169 HD
ATOM     21  O   UNL d   1      -2.259  -1.273   1.105  0.00  0.00    -0.273 OA
BRANCH  19  22
ATOM     22  C   UNL d   1      -1.402  -3.085  -1.069  0.00  0.00     0.034 A 
ATOM     23  C   UNL d   1      -0.562  -1.981  -1.179  0.00  0.00     0.032 A 
ATOM     24  C   UNL d   1       0.275  -1.828  -2.296  0.00  0.00     0.031 A 
ATOM     25  C   UNL d   1       0.308  -2.758  -3.344  0.00  0.00     0.030 A 
ATOM     26  C   UNL d   1      -0.567  -3.847  -3.224  0.00  0.00     0.031 A 
ATOM     27  C   UNL d   1      -1.402  -4.017  -2.106  0.00  0.00     0.032 A 
BRANCH  25  28
ATOM     28  N   UNL d   1       1.139  -2.590  -4.430  0.00  0.00    -0.377 N 
ATOM     29  C   UNL d   1       0.884  -3.187  -5.750  0.00  0.00     0.149 C 
ATOM     30  C   UNL d   1       1.073  -2.106  -6.832  0.00  0.00     0.187 C 
ATOM     31  O   UNL d   1       2.370  -1.489  -6.759  0.00  0.00    -0.388 OA
ATOM     32  C   UNL d   1       2.564  -0.884  -5.467  0.00  0.00     0.187 C 
ATOM     33  C   UNL d   1       2.451  -1.925  -4.343  0.00  0.00     0.149 C 
ENDBRANCH  25  28
ENDBRANCH  19  22
ENDBRANCH   1  18
TORSDOF 6
