REMARK  1 active torsions:
REMARK  status: ('A' for Active; 'I' for Inactive)
REMARK    1  A    between atoms: N_15  and  C_9 
ROOT
ATOM      1  C   UNL d   1       0.760  -0.277   0.035  0.00  0.00     0.055 A 
ATOM      2  C   UNL d   1       1.453   0.919   0.070  0.00  0.00    -0.001 A 
ATOM      3  C   UNL d   1      -0.716  -0.362   0.027  0.00  0.00     0.010 A 
ATOM      4  S   UNL d   1      -0.922   2.426   0.401  0.00  0.00    -0.120 SA
ATOM      5  N   UNL d   1       1.409  -1.469  -0.020  0.00  0.00    -0.332 N 
ATOM      6  HN  UNL d   1       0.889  -2.346  -0.034  1.00  0.00     0.168 HD
ATOM      7  C   UNL d   1      -1.533   0.777   0.122  0.00  0.00     0.013 A 
ATOM      8  C   UNL d   1       0.847   2.286   0.026  0.00  0.00     0.085 C 
ATOM      9  C   UNL d   1       2.743  -1.466  -0.054  0.00  0.00     0.155 A 
ATOM     10  N   UNL d   1       3.494  -0.373   0.031  0.00  0.00    -0.342 N 
ATOM     11  HN  UNL d   1       4.513  -0.417   0.051  1.00  0.00     0.167 HD
ATOM     12  C   UNL d   1       2.832   0.792   0.089  0.00  0.00     0.101 A 
ATOM     13  C   UNL d   1      -1.365  -1.619  -0.058  0.00  0.00     0.039 A 
ATOM     14  C   UNL d   1      -2.936   0.656   0.080  0.00  0.00     0.021 A 
ATOM     15  C   UNL d   1      -2.756  -1.728  -0.071  0.00  0.00     0.035 A 
ATOM     16  C   UNL d   1      -3.547  -0.592  -0.019  0.00  0.00     0.025 A 
ATOM     17 CL   UNL d   1      -3.496  -3.280  -0.139  0.00  0.00    -0.084 Cl
ATOM     18  C   UNL d   1       1.114   2.974  -1.317  0.00  0.00     0.027 C 
ENDROOT
BRANCH   9  19
ATOM     19  N   UNL d   1       3.397  -2.672  -0.165  0.00  0.00    -0.274 NA
ATOM     20  H   UNL d   1       2.826  -3.420   0.201  0.00  0.00     0.127 HD
ATOM     21  H   UNL d   1       4.340  -2.584   0.186  0.00  0.00     0.127 HD
ENDBRANCH   9  19
TORSDOF 1
