REMARK  2 active torsions:
REMARK  status: ('A' for Active; 'I' for Inactive)
REMARK    1  A    between atoms: C_8  and  N_1 
REMARK    2  A    between atoms: O_14  and  C_11 
ROOT
ATOM      1  C   UNL d   1      -0.771   2.460  -0.004  0.00  0.00     0.057 A 
ATOM      2  C   UNL d   1      -0.290   3.351  -0.977  0.00  0.00     0.034 A 
ATOM      3  C   UNL d   1      -1.665   2.922   0.973  0.00  0.00     0.034 A 
ATOM      4  C   UNL d   1      -1.580   5.132   0.008  0.00  0.00     0.065 A 
ATOM      5  C   UNL d   1      -2.067   4.263   0.979  0.00  0.00     0.039 A 
ATOM      6  C   UNL d   1      -0.699   4.686  -0.969  0.00  0.00     0.039 A 
ENDROOT
BRANCH   1   7
ATOM      7  N   UNL d   1      -0.337   1.109  -0.023  0.00  0.00    -0.251 N 
ATOM      8  N   UNL d   1       0.573   0.656  -0.923  0.00  0.00    -0.288 N 
ATOM      9  C   UNL d   1       0.710  -0.621  -0.570  0.00  0.00     0.199 A 
ATOM     10  HN  UNL d   1       1.033   1.165  -1.678  1.00  0.00     0.188 HD
ATOM     11  N   UNL d   1      -0.056  -1.026   0.479  0.00  0.00    -0.346 N 
ATOM     12  C   UNL d   1      -0.703   0.071   0.800  0.00  0.00     0.208 A 
ATOM     13  HN  UNL d   1      -0.113  -1.950   0.908  1.00  0.00     0.167 HD
ENDBRANCH   1   7
BRANCH   4  14
ATOM     14  O   UNL d   1      -1.944   6.445  -0.018  0.00  0.00    -0.361 OA
ATOM     15  H   UNL d   1      -2.544   6.620   0.725  0.00  0.00     0.217 HD
ENDBRANCH   4  14
TORSDOF 2
