REMARK  7 active torsions:
REMARK  status: ('A' for Active; 'I' for Inactive)
REMARK    1  A    between atoms: C_4  and  C_1 
REMARK    2  A    between atoms: N_2  and  C_15 
REMARK    3  A    between atoms: N_11  and  C_3 
REMARK    4  A    between atoms: C_17  and  N_11 
REMARK    5  A    between atoms: C_13  and  O_27 
REMARK    6  A    between atoms: C_19  and  C_13 
REMARK    7  A    between atoms: O_27  and  N_20 
ROOT
ATOM      1  C   UNL d   1       1.105  -3.546   0.016  0.00  0.00     0.207 C 
ATOM      2  N   UNL d   1       0.848  -4.812   0.049  0.00  0.00    -0.253 N 
ATOM      3  HN  UNL d   1      -0.086  -5.217   0.116  1.00  0.00     0.195 HD
ENDROOT
BRANCH   1   4
ATOM      4  N   UNL d   1       0.147  -2.578   0.063  0.00  0.00    -0.331 N 
ATOM      5  H   UNL d   1      -0.804  -2.927   0.119  0.00  0.00     0.168 HD
BRANCH   4   6
ATOM      6  C   UNL d   1       0.341  -1.241   0.022  0.00  0.00     0.150 A 
ATOM      7  S   UNL d   1      -0.998  -0.155   0.043  0.00  0.00    -0.051 SA
ATOM      8  C   UNL d   1       0.066   1.195  -0.068  0.00  0.00     0.041 A 
ATOM      9  C   UNL d   1       1.362   0.716  -0.089  0.00  0.00     0.110 A 
ATOM     10  N   UNL d   1       1.514  -0.657  -0.041  0.00  0.00    -0.345 N 
ATOM     11  HN  UNL d   1       2.409  -1.145  -0.052  1.00  0.00     0.167 HD
BRANCH   8  12
ATOM     12  C   UNL d   1      -0.393   2.567  -0.140  0.00  0.00     0.024 A 
ATOM     13  S   UNL d   1       0.724   3.879  -0.239  0.00  0.00    -0.081 SA
ATOM     14  C   UNL d   1      -0.515   5.023  -0.343  0.00  0.00     0.052 A 
ATOM     15 BR   UNL d   1      -0.201   6.860  -0.527  0.00  0.00    -0.043 Br
ATOM     16  C   UNL d   1      -1.766   4.470  -0.283  0.00  0.00     0.028 A 
ATOM     17  C   UNL d   1      -1.695   3.047  -0.158  0.00  0.00     0.022 A 
ENDBRANCH   8  12
ENDBRANCH   4   6
ENDBRANCH   1   4
BRANCH   2  18
ATOM     18  O   UNL d   1       2.049  -5.556  -0.022  0.00  0.00    -0.194 OA
BRANCH  18  19
ATOM     19  C   UNL d   1       1.752  -6.891   0.025  0.00  0.00     0.315 C 
ATOM     20  O   UNL d   1       0.641  -7.398   0.125  0.00  0.00    -0.257 OA
BRANCH  19  21
ATOM     21  C   UNL d   1       2.981  -7.735  -0.069  0.00  0.00     0.041 A 
ATOM     22  C   UNL d   1       2.806  -9.131  -0.066  0.00  0.00     0.020 A 
ATOM     23  C   UNL d   1       3.899  -9.999  -0.157  0.00  0.00     0.037 A 
ATOM     24  C   UNL d   1       5.189  -9.469  -0.252  0.00  0.00     0.102 A 
ATOM     25  C   UNL d   1       5.386  -8.079  -0.252  0.00  0.00     0.037 A 
ATOM     26  C   UNL d   1       4.282  -7.214  -0.159  0.00  0.00     0.020 A 
BRANCH  24  27
ATOM     27  N   UNL d   1       6.341 -10.375  -0.356  0.00  0.00    -0.116 N 
ATOM     28  O   UNL d   1       6.118 -11.595  -0.340  0.00  0.00    -0.532 OA
ATOM     29  O   UNL d   1       7.467  -9.867  -0.457  0.00  0.00    -0.532 OA
ENDBRANCH  24  27
ENDBRANCH  19  21
ENDBRANCH  18  19
ENDBRANCH   2  18
TORSDOF 7
