REMARK  0 active torsions:
REMARK  status: ('A' for Active; 'I' for Inactive)
ROOT
ATOM      1  C   UNL d   1       0.038   0.736   0.006  0.00  0.00     0.033 A 
ATOM      2  N   UNL d   1       1.218  -1.364  -0.011  0.00  0.00    -0.368 N 
ATOM      3  HN  UNL d   1       1.216  -2.383  -0.035  1.00  0.00     0.165 HD
ATOM      4  C   UNL d   1      -1.246   1.474  -0.053  0.00  0.00     0.161 C 
ATOM      5  C   UNL d   1       0.059  -0.657  -0.016  0.00  0.00     0.023 A 
ATOM      6  C   UNL d   1       1.248   1.431   0.060  0.00  0.00     0.025 A 
ATOM      7  O   UNL d   1      -1.264   2.696   0.038  0.00  0.00    -0.292 OA
ATOM      8  C   UNL d   1       2.377  -0.665   0.025  0.00  0.00     0.095 A 
ATOM      9  C   UNL d   1       2.451   0.723   0.063  0.00  0.00    -0.046 A 
ATOM     10  C   UNL d   1      -2.499   0.670  -0.311  0.00  0.00     0.084 C 
ATOM     11  C   UNL d   1      -2.424  -0.683   0.377  0.00  0.00     0.014 C 
ATOM     12  C   UNL d   1      -1.207  -1.464  -0.102  0.00  0.00     0.058 C 
ATOM     13  C   UNL d   1       3.762   1.440   0.092  0.00  0.00     0.049 C 
ENDROOT
TORSDOF 0
