REMARK  4 active torsions:
REMARK  status: ('A' for Active; 'I' for Inactive)
REMARK    1  A    between atoms: C_7  and  C_1 
REMARK    2  A    between atoms: N_9  and  C_2 
REMARK    3  A    between atoms: C_8  and  N_3 
REMARK       I    between atoms: N_11  and  C_7 
REMARK    4  A    between atoms: C_12  and  C_8 
ROOT
ATOM      1  C   UNL d   1      -0.697  -0.703  -0.157  0.00  0.00     0.159 A 
ATOM      2  C   UNL d   1       0.279  -0.019  -0.863  0.00  0.00     0.148 A 
ATOM      3  N   UNL d   1       1.065   0.531   0.124  0.00  0.00    -0.254 N 
ATOM      4  N   UNL d   1       0.631   0.169   1.352  0.00  0.00    -0.018 NA
ATOM      5  N   UNL d   1      -0.445  -0.586   1.193  0.00  0.00    -0.276 N 
ATOM      6  HN  UNL d   1      -0.994  -1.009   1.941  1.00  0.00     0.184 HD
ENDROOT
BRANCH   3   7
ATOM      7  C   UNL d   1       2.063   1.578  -0.001  0.00  0.00     0.187 C 
BRANCH   7   8
ATOM      8  C   UNL d   1       3.477   1.052  -0.079  0.00  0.00    -0.038 A 
ATOM      9  C   UNL d   1       4.256   1.276  -1.228  0.00  0.00     0.012 A 
ATOM     10  C   UNL d   1       5.588   0.861  -1.272  0.00  0.00     0.043 A 
ATOM     11  C   UNL d   1       6.147   0.223  -0.171  0.00  0.00     0.116 A 
ATOM     12  C   UNL d   1       5.395  -0.016   0.972  0.00  0.00     0.043 A 
ATOM     13  F   UNL d   1       7.430  -0.157  -0.210  0.00  0.00    -0.206 F 
ATOM     14  C   UNL d   1       4.062   0.398   1.020  0.00  0.00     0.012 A 
ENDBRANCH   7   8
ENDBRANCH   3   7
BRANCH   2  15
ATOM     15  N   UNL d   1       0.478   0.177  -2.191  0.00  0.00    -0.382 N 
ATOM     16  H   UNL d   1      -0.111  -0.367  -2.831  0.00  0.00     0.157 HD
ATOM     17  H   UNL d   1       1.417   0.294  -2.564  0.00  0.00     0.157 HD
ENDBRANCH   2  15
BRANCH   1  18
ATOM     18  C   UNL d   1      -1.836  -1.433  -0.688  0.00  0.00     0.270 C 
ATOM     19  O   UNL d   1      -2.049  -1.606  -1.885  0.00  0.00    -0.266 OA
ATOM     20  N   UNL d   1      -2.693  -1.919   0.260  0.00  0.00    -0.365 N 
ATOM     21  H   UNL d   1      -2.528  -1.746   1.244  0.00  0.00     0.159 HD
ATOM     22  H   UNL d   1      -3.530  -2.399  -0.038  0.00  0.00     0.159 HD
ENDBRANCH   1  18
TORSDOF 4
