REMARK  2 active torsions:
REMARK  status: ('A' for Active; 'I' for Inactive)
REMARK    1  A    between atoms: C_3  and  N_1 
REMARK    2  A    between atoms: C_6  and  C_3 
ROOT
ATOM      1  N   UNL d   1       4.558  -2.246   0.195  0.00  0.00    -0.195 NA
ATOM      2  C   UNL d   1       3.147  -0.009   0.452  0.00  0.00     0.361 C 
ATOM      3  C   UNL d   1       3.948  -1.262   0.314  0.00  0.00     0.100 C 
ENDROOT
BRANCH   2   4
ATOM      4  N   UNL d   1       1.808  -0.055  -0.236  0.00  0.00     0.112 N 
ATOM      5  C   UNL d   1       1.949  -0.171  -1.705  0.00  0.00     0.284 C 
ATOM      6  C   UNL d   1       0.620  -0.141  -2.473  0.00  0.00     0.104 C 
ATOM      7  S   UNL d   1      -0.438  -1.550  -2.041  0.00  0.00    -0.166 SA
ATOM      8  C   UNL d   1      -0.442  -1.272  -0.248  0.00  0.00     0.104 C 
ATOM      9  C   UNL d   1       0.978  -1.149   0.325  0.00  0.00     0.284 C 
ENDBRANCH   2   4
BRANCH   2  10
ATOM     10  C   UNL d   1       3.939   1.264   0.107  0.00  0.00    -0.011 A 
ATOM     11  C   UNL d   1       3.395   2.523   0.423  0.00  0.00     0.010 A 
ATOM     12  C   UNL d   1       4.085   3.701   0.124  0.00  0.00     0.001 A 
ATOM     13  C   UNL d   1       5.333   3.644  -0.491  0.00  0.00     0.000 A 
ATOM     14  C   UNL d   1       5.894   2.411  -0.804  0.00  0.00     0.001 A 
ATOM     15  C   UNL d   1       5.205   1.231  -0.510  0.00  0.00     0.010 A 
ENDBRANCH   2  10
TORSDOF 2
