REMARK  4 active torsions:
REMARK  status: ('A' for Active; 'I' for Inactive)
REMARK    1  A    between atoms: C_5  and  C_1 
REMARK    2  A    between atoms: C_2  and  C_4 
REMARK       I    between atoms: N_6  and  C_2 
REMARK    3  A    between atoms: C_4  and  C_5 
REMARK    4  A    between atoms: C_11  and  N_6 
ROOT
ATOM      1  C   UNL d   1       0.481   5.077  -0.030  0.00  0.00     0.245 C 
ATOM      2  N   UNL d   1      -0.846   5.443   0.081  0.00  0.00    -0.324 N 
ATOM      3  O   UNL d   1       1.430   5.836  -0.194  0.00  0.00    -0.268 OA
ATOM      4  H   UNL d   1      -1.508   4.738   0.372  0.00  0.00     0.169 HD
ENDROOT
BRANCH   1   5
ATOM      5  C   UNL d   1       0.698   3.606   0.062  0.00  0.00     0.075 C 
BRANCH   5   6
ATOM      6  C   UNL d   1       1.962   3.154   0.013  0.00  0.00     0.024 C 
BRANCH   6   7
ATOM      7  C   UNL d   1       2.304   1.770  -0.001  0.00  0.00     0.004 A 
ATOM      8  S   UNL d   1       3.982   1.349   0.046  0.00  0.00    -0.102 SA
ATOM      9  C   UNL d   1       3.652  -0.321  -0.037  0.00  0.00     0.050 A 
ATOM     10  C   UNL d   1       2.302  -0.576  -0.096  0.00  0.00     0.008 A 
ATOM     11  C   UNL d   1       1.530   0.624  -0.073  0.00  0.00     0.019 A 
ENDBRANCH   6   7
ENDBRANCH   5   6
ENDBRANCH   1   5
BRANCH   2  12
ATOM     12  C   UNL d   1      -1.376   6.729  -0.182  0.00  0.00     0.035 A 
ATOM     13  C   UNL d   1      -0.634   7.761  -0.771  0.00  0.00     0.032 A 
ATOM     14  C   UNL d   1      -1.229   8.990  -1.072  0.00  0.00     0.044 A 
ATOM     15  C   UNL d   1      -2.568   9.191  -0.777  0.00  0.00     0.116 A 
ATOM     16  C   UNL d   1      -3.321   8.189  -0.177  0.00  0.00     0.044 A 
ATOM     17  F   UNL d   1      -3.144  10.362  -1.079  0.00  0.00    -0.206 F 
ATOM     18  C   UNL d   1      -2.727   6.956   0.115  0.00  0.00     0.032 A 
ENDBRANCH   2  12
TORSDOF 4
