REMARK  3 active torsions:
REMARK  status: ('A' for Active; 'I' for Inactive)
REMARK    1  A    between atoms: C_8  and  C_3 
REMARK    2  A    between atoms: C_10  and  C_4 
REMARK    3  A    between atoms: C_11  and  C_8 
ROOT
ATOM      1  N   UNL d   1      -1.298  -0.338  -0.043  0.00  0.00    -0.336 N 
ATOM      2  HN  UNL d   1      -2.288  -0.560  -0.154  1.00  0.00     0.168 HD
ATOM      3  C   UNL d   1      -0.852   0.971   0.003  0.00  0.00     0.104 C 
ATOM      4  C   UNL d   1      -0.401  -1.275   0.060  0.00  0.00     0.131 C 
ATOM      5  C   UNL d   1       0.632   1.278   0.055  0.00  0.00     0.286 C 
ATOM      6  N   UNL d   1       1.451   0.184  -0.104  0.00  0.00    -0.263 N 
ATOM      7  N   UNL d   1       0.964  -1.083   0.211  0.00  0.00    -0.282 N 
ATOM      8  O   UNL d   1       1.136   2.385   0.220  0.00  0.00    -0.264 OA
ATOM      9  H   UNL d   1       2.426   0.367   0.107  0.00  0.00     0.190 HD
ATOM     10  H   UNL d   1       1.548  -1.841  -0.139  0.00  0.00     0.188 HD
ENDROOT
BRANCH   3  11
ATOM     11  C   UNL d   1      -1.772   1.957  -0.032  0.00  0.00     0.046 C 
BRANCH  11  12
ATOM     12  C   UNL d   1      -1.520   3.400  -0.081  0.00  0.00    -0.034 A 
ATOM     13  C   UNL d   1      -1.393   4.035  -1.320  0.00  0.00     0.012 A 
ATOM     14  C   UNL d   1      -1.062   5.390  -1.387  0.00  0.00     0.007 A 
ATOM     15  C   UNL d   1      -0.862   6.130  -0.215  0.00  0.00    -0.062 A 
ATOM     16  C   UNL d   1      -1.029   5.501   1.024  0.00  0.00     0.007 A 
ATOM     17  C   UNL d   1      -0.425   7.562  -0.306  0.00  0.00     0.048 C 
ATOM     18  C   UNL d   1      -1.359   4.143   1.092  0.00  0.00     0.012 A 
ENDBRANCH  11  12
ENDBRANCH   3  11
BRANCH   4  19
ATOM     19  C   UNL d   1      -0.880  -2.697   0.017  0.00  0.00     0.009 A 
ATOM     20  C   UNL d   1      -2.024  -3.029  -0.715  0.00  0.00     0.015 A 
ATOM     21  C   UNL d   1      -2.452  -4.357  -0.773  0.00  0.00     0.001 A 
ATOM     22  C   UNL d   1      -1.744  -5.351  -0.096  0.00  0.00     0.000 A 
ATOM     23  C   UNL d   1      -0.609  -5.022   0.644  0.00  0.00     0.001 A 
ATOM     24  C   UNL d   1      -0.176  -3.697   0.704  0.00  0.00     0.015 A 
ENDBRANCH   4  19
TORSDOF 3
