REMARK  7 active torsions:
REMARK  status: ('A' for Active; 'I' for Inactive)
REMARK    1  A    between atoms: C_3  and  C_1 
REMARK    2  A    between atoms: N_5  and  C_2 
REMARK    3  A    between atoms: O_15  and  C_3 
REMARK    4  A    between atoms: C_4  and  S_11 
REMARK       I    between atoms: C_6  and  N_5 
REMARK    5  A    between atoms: C_14  and  C_6 
REMARK    6  A    between atoms: S_11  and  C_14 
REMARK    7  A    between atoms: C_21  and  O_15 
ROOT
ATOM      1  N   UNL d   1       1.136  -2.773  -0.017  0.00  0.00    -0.326 N 
ATOM      2  C   UNL d   1       1.980  -3.227  -1.016  0.00  0.00     0.231 C 
ATOM      3  O   UNL d   1       2.511  -2.496  -1.852  0.00  0.00    -0.272 OA
ATOM      4  H   UNL d   1       0.505  -3.483   0.343  0.00  0.00     0.169 HD
ENDROOT
BRANCH   1   5
ATOM      5  C   UNL d   1       0.676  -1.440   0.041  0.00  0.00     0.051 A 
ATOM      6  C   UNL d   1       1.485  -0.289   0.036  0.00  0.00     0.066 A 
ATOM      7  C   UNL d   1       0.874   0.979   0.027  0.00  0.00     0.020 A 
ATOM      8  C   UNL d   1      -0.515   1.108   0.031  0.00  0.00     0.001 A 
ATOM      9  C   UNL d   1      -1.311  -0.030   0.065  0.00  0.00     0.002 A 
ATOM     10  C   UNL d   1      -0.721  -1.294   0.087  0.00  0.00     0.030 A 
BRANCH   6  11
ATOM     11  C   UNL d   1       2.964  -0.265   0.157  0.00  0.00     0.295 C 
ATOM     12  O   UNL d   1       3.652   0.625  -0.313  0.00  0.00    -0.259 OA
BRANCH  11  13
ATOM     13  O   UNL d   1       3.391  -1.230   1.015  0.00  0.00    -0.318 OA
BRANCH  13  14
ATOM     14  C   UNL d   1       4.785  -1.160   1.359  0.00  0.00     0.174 C 
ATOM     15  C   UNL d   1       5.645  -1.722   0.241  0.00  0.00     0.034 C 
ENDBRANCH  13  14
ENDBRANCH  11  13
ENDBRANCH   6  11
ENDBRANCH   1   5
BRANCH   2  16
ATOM     16  C   UNL d   1       2.254  -4.725  -1.018  0.00  0.00     0.185 C 
BRANCH  16  17
ATOM     17  S   UNL d   1       1.059  -5.726  -0.082  0.00  0.00    -0.085 SA
BRANCH  17  18
ATOM     18  C   UNL d   1      -0.377  -5.598  -1.120  0.00  0.00     0.144 A 
ATOM     19  N   UNL d   1      -0.296  -6.006  -2.394  0.00  0.00    -0.347 N 
ATOM     20  C   UNL d   1      -1.462  -6.060  -3.073  0.00  0.00     0.091 A 
ATOM     21  HN  UNL d   1       0.593  -6.262  -2.825  1.00  0.00     0.167 HD
ATOM     22  C   UNL d   1      -2.680  -5.727  -2.525  0.00  0.00     0.034 A 
ATOM     23  C   UNL d   1      -2.641  -5.294  -1.223  0.00  0.00     0.091 A 
ATOM     24  N   UNL d   1      -1.505  -5.207  -0.503  0.00  0.00    -0.347 N 
ATOM     25  HN  UNL d   1      -1.501  -4.862   0.457  1.00  0.00     0.167 HD
ENDBRANCH  17  18
ENDBRANCH  16  17
ENDBRANCH   2  16
TORSDOF 7
