REMARK  6 active torsions:
REMARK  status: ('A' for Active; 'I' for Inactive)
REMARK       I    between atoms: N_3  and  C_1 
REMARK    1  A    between atoms: C_8  and  C_1 
REMARK    2  A    between atoms: O_5  and  C_2 
REMARK    3  A    between atoms: C_4  and  N_3 
REMARK    4  A    between atoms: C_12  and  O_5 
REMARK    5  A    between atoms: O_22  and  C_13 
REMARK    6  A    between atoms: O_21  and  C_14 
ROOT
ATOM      1  C   UNL d   1       0.547   0.357   3.525  0.00  0.00     0.175 A 
ATOM      2  C   UNL d   1       1.113   0.793   2.318  0.00  0.00     0.087 A 
ATOM      3  N   UNL d   1       1.205   0.442   4.714  0.00  0.00    -0.345 N 
ATOM      4  HN  UNL d   1       0.795   0.074   5.572  1.00  0.00     0.167 HD
ATOM      5  C   UNL d   1       2.390   1.355   2.359  0.00  0.00     0.035 A 
ATOM      6  C   UNL d   1       2.417   1.029   4.717  0.00  0.00     0.090 A 
ATOM      7  C   UNL d   1       3.043   1.503   3.579  0.00  0.00     0.019 A 
ENDROOT
BRANCH   2   8
ATOM      8  N   UNL d   1       0.493   0.683   1.053  0.00  0.00    -0.319 N 
ATOM      9  C   UNL d   1      -0.684   1.365   0.781  0.00  0.00     0.256 C 
ATOM     10  O   UNL d   1      -1.313   2.056   1.573  0.00  0.00    -0.267 OA
ATOM     11  H   UNL d   1       1.117   0.617   0.259  0.00  0.00     0.169 HD
BRANCH   9  12
ATOM     12  C   UNL d   1      -1.080   1.322  -0.651  0.00  0.00     0.032 A 
ATOM     13  C   UNL d   1      -1.026   0.128  -1.374  0.00  0.00     0.020 A 
ATOM     14  C   UNL d   1      -1.387   0.104  -2.730  0.00  0.00     0.038 A 
ATOM     15  C   UNL d   1      -1.796   1.279  -3.366  0.00  0.00     0.068 A 
ATOM     16  C   UNL d   1      -1.863   2.471  -2.635  0.00  0.00     0.038 A 
ATOM     17  C   UNL d   1      -1.510   2.497  -1.279  0.00  0.00     0.020 A 
BRANCH  15  18
ATOM     18  O   UNL d   1      -2.184   1.387  -4.673  0.00  0.00    -0.356 OA
ATOM     19  C   UNL d   1      -1.860   0.296  -5.527  0.00  0.00     0.210 C 
ENDBRANCH  15  18
ENDBRANCH   9  12
ENDBRANCH   2   8
BRANCH   1  20
ATOM     20  O   UNL d   1      -0.668  -0.329   3.478  0.00  0.00    -0.292 OA
BRANCH  20  21
ATOM     21  C   UNL d   1      -1.313  -0.554   4.676  0.00  0.00     0.078 A 
ATOM     22  C   UNL d   1      -1.601   0.482   5.567  0.00  0.00     0.040 A 
ATOM     23  C   UNL d   1      -2.244   0.213   6.780  0.00  0.00     0.039 A 
ATOM     24  C   UNL d   1      -2.632  -1.089   7.095  0.00  0.00     0.068 A 
ATOM     25  C   UNL d   1      -2.392  -2.114   6.172  0.00  0.00     0.039 A 
ATOM     26  C   UNL d   1      -1.737  -1.850   4.964  0.00  0.00     0.040 A 
BRANCH  24  27
ATOM     27  O   UNL d   1      -3.251  -1.481   8.251  0.00  0.00    -0.356 OA
ATOM     28  C   UNL d   1      -3.358  -0.499   9.276  0.00  0.00     0.210 C 
ENDBRANCH  24  27
ENDBRANCH  20  21
ENDBRANCH   1  20
TORSDOF 6
