REMARK  4 active torsions:
REMARK  status: ('A' for Active; 'I' for Inactive)
REMARK    1  A    between atoms: C_2  and  C_1 
REMARK    2  A    between atoms: C_15  and  N_3 
REMARK    3  A    between atoms: N_19  and  C_4 
REMARK    4  A    between atoms: C_20  and  C_15 
ROOT
ATOM      1  C   UNL d   1       2.473   0.078   0.374  0.00  0.00     0.079 C 
ATOM      2  C   UNL d   1       1.735   1.037   1.062  0.00  0.00     0.060 C 
ATOM      3  S   UNL d   1       1.443  -1.155  -0.195  0.00  0.00    -0.065 SA
ATOM      4  C   UNL d   1       0.301   0.890   0.902  0.00  0.00     0.031 A 
ATOM      5  C   UNL d   1       0.052  -0.250   0.139  0.00  0.00     0.088 A 
ATOM      6  N   UNL d   1      -1.127  -0.691  -0.331  0.00  0.00    -0.354 N 
ATOM      7  HN  UNL d   1      -1.216  -1.552  -0.871  1.00  0.00     0.166 HD
ATOM      8  C   UNL d   1      -0.850   1.637   1.290  0.00  0.00    -0.045 A 
ATOM      9  C   UNL d   1      -2.094   1.205   0.782  0.00  0.00     0.032 A 
ATOM     10  C   UNL d   1      -2.176   0.087  -0.036  0.00  0.00     0.006 A 
ATOM     11  C   UNL d   1      -0.882   2.869   2.155  0.00  0.00     0.049 C 
ATOM     12  C   UNL d   1      -3.489  -0.289  -0.660  0.00  0.00     0.068 C 
ENDROOT
BRANCH   1  13
ATOM     13  C   UNL d   1       3.912   0.011   0.210  0.00  0.00     0.144 A 
ATOM     14  N   UNL d   1       4.585  -0.532  -0.859  0.00  0.00    -0.302 N 
ATOM     15  C   UNL d   1       5.917  -0.306  -0.598  0.00  0.00     0.194 A 
ATOM     16  S   UNL d   1       7.269  -0.665  -1.485  0.00  0.00    -0.039 SA
ATOM     17  N   UNL d   1       5.965   0.340   0.624  0.00  0.00    -0.274 N 
ATOM     18  N   UNL d   1       4.707   0.541   1.105  0.00  0.00    -0.282 N 
ATOM     19  H   UNL d   1       6.795   0.679   1.095  0.00  0.00     0.189 HD
ATOM     20  HN  UNL d   1       4.443   1.005   1.974  1.00  0.00     0.188 HD
BRANCH  14  21
ATOM     21  C   UNL d   1       4.064  -1.111  -2.097  0.00  0.00     0.171 C 
BRANCH  21  22
ATOM     22  C   UNL d   1       3.960  -2.625  -2.106  0.00  0.00    -0.040 A 
ATOM     23  C   UNL d   1       4.237  -3.426  -0.987  0.00  0.00     0.009 A 
ATOM     24  C   UNL d   1       4.139  -4.818  -1.062  0.00  0.00     0.001 A 
ATOM     25  C   UNL d   1       3.762  -5.430  -2.254  0.00  0.00     0.000 A 
ATOM     26  C   UNL d   1       3.470  -4.651  -3.370  0.00  0.00     0.001 A 
ATOM     27  C   UNL d   1       3.564  -3.260  -3.296  0.00  0.00     0.009 A 
ENDBRANCH  21  22
ENDBRANCH  14  21
ENDBRANCH   1  13
BRANCH   2  28
ATOM     28  N   UNL d   1       2.340   2.049   1.735  0.00  0.00    -0.397 N 
ATOM     29  H   UNL d   1       3.348   1.972   1.908  0.00  0.00     0.156 HD
ATOM     30  H   UNL d   1       1.880   2.514   2.507  0.00  0.00     0.156 HD
ENDBRANCH   2  28
TORSDOF 4
