REMARK  5 active torsions:
REMARK  status: ('A' for Active; 'I' for Inactive)
REMARK    1  A    between atoms: C_8  and  C_2 
REMARK    2  A    between atoms: S_12  and  C_7 
REMARK    3  A    between atoms: C_18  and  S_12 
REMARK    4  A    between atoms: C_13  and  C_18 
REMARK    5  A    between atoms: C_15  and  C_13 
ROOT
ATOM      1  C   UNL d   1       0.464  -0.430  -0.061  0.00  0.00     0.140 A 
ATOM      2  C   UNL d   1      -0.382  -1.475   0.030  0.00  0.00     0.077 A 
ATOM      3  N   UNL d   1      -1.516   0.929   0.046  0.00  0.00    -0.302 N 
ATOM      4  C   UNL d   1      -0.157   0.909  -0.051  0.00  0.00     0.270 A 
ATOM      5  N   UNL d   1      -1.758  -1.393   0.146  0.00  0.00    -0.334 N 
ATOM      6  HN  UNL d   1      -2.344  -2.224   0.225  1.00  0.00     0.168 HD
ATOM      7  C   UNL d   1      -2.256  -0.204   0.147  0.00  0.00     0.148 A 
ATOM      8  C   UNL d   1       1.877  -0.532  -0.137  0.00  0.00     0.107 C 
ATOM      9  N   UNL d   1       3.033  -0.642  -0.186  0.00  0.00    -0.191 NA
ATOM     10  O   UNL d   1       0.493   1.945  -0.111  0.00  0.00    -0.266 OA
ATOM     11  H   UNL d   1      -1.980   1.825   0.064  0.00  0.00     0.171 HD
ENDROOT
BRANCH   2  12
ATOM     12  C   UNL d   1       0.132  -2.807   0.069  0.00  0.00     0.033 A 
ATOM     13  S   UNL d   1       0.425  -3.681  -1.386  0.00  0.00    -0.100 SA
ATOM     14  C   UNL d   1       1.077  -5.015  -0.538  0.00  0.00     0.050 A 
ATOM     15  C   UNL d   1       1.043  -4.828   0.824  0.00  0.00     0.008 A 
ATOM     16  C   UNL d   1       0.487  -3.563   1.174  0.00  0.00     0.021 A 
ENDBRANCH   2  12
BRANCH   7  17
ATOM     17  S   UNL d   1      -3.939   0.168   0.287  0.00  0.00    -0.086 SA
BRANCH  17  18
ATOM     18  C   UNL d   1      -4.685  -1.476   0.470  0.00  0.00     0.166 C 
BRANCH  18  19
ATOM     19  C   UNL d   1      -6.193  -1.378   0.689  0.00  0.00     0.169 C 
ATOM     20  O   UNL d   1      -6.807  -0.314   0.760  0.00  0.00    -0.291 OA
BRANCH  19  21
ATOM     21  C   UNL d   1      -6.973  -2.647   0.853  0.00  0.00     0.011 A 
ATOM     22  C   UNL d   1      -6.379  -3.911   0.754  0.00  0.00     0.016 A 
ATOM     23  C   UNL d   1      -7.144  -5.066   0.956  0.00  0.00     0.020 A 
ATOM     24  C   UNL d   1      -8.502  -4.962   1.256  0.00  0.00     0.011 A 
ATOM     25  C   UNL d   1      -9.110  -3.712   1.338  0.00  0.00     0.020 A 
ATOM     26 BR   UNL d   1      -9.517  -6.525   1.565  0.00  0.00    -0.051 Br
ATOM     27  C   UNL d   1      -8.347  -2.558   1.135  0.00  0.00     0.016 A 
ENDBRANCH  19  21
ENDBRANCH  18  19
ENDBRANCH  17  18
ENDBRANCH   7  17
TORSDOF 5
