REMARK  3 active torsions:
REMARK  status: ('A' for Active; 'I' for Inactive)
REMARK    1  A    between atoms: C_9  and  C_1 
REMARK    2  A    between atoms: N_23  and  C_2 
REMARK    3  A    between atoms: C_8  and  N_12 
REMARK       I    between atoms: N_12  and  C_9 
ROOT
ATOM      1  C   UNL d   1       3.962   0.030   0.098  0.00  0.00     0.266 C 
ATOM      2  N   UNL d   1       4.591  -1.197   0.052  0.00  0.00    -0.301 N 
ATOM      3  O   UNL d   1       4.574   1.103   0.092  0.00  0.00    -0.267 OA
ATOM      4  H   UNL d   1       4.049  -2.047   0.016  0.00  0.00     0.171 HD
ENDROOT
BRANCH   1   5
ATOM      5  C   UNL d   1       2.497   0.008   0.140  0.00  0.00     0.102 A 
ATOM      6  C   UNL d   1       1.645   1.101   0.033  0.00  0.00     0.062 A 
ATOM      7  C   UNL d   1       0.241   0.760   0.096  0.00  0.00     0.032 A 
ATOM      8  C   UNL d   1      -0.983   1.489   0.016  0.00  0.00    -0.045 A 
ATOM      9  C   UNL d   1       0.122  -0.624   0.237  0.00  0.00     0.088 A 
ATOM     10  C   UNL d   1      -2.175   0.738   0.007  0.00  0.00     0.032 A 
ATOM     11  C   UNL d   1      -1.150   2.983  -0.074  0.00  0.00     0.049 C 
ATOM     12  C   UNL d   1      -2.143  -0.645   0.113  0.00  0.00     0.006 A 
ATOM     13  N   UNL d   1      -1.012  -1.353   0.266  0.00  0.00    -0.354 N 
ATOM     14  C   UNL d   1      -3.430  -1.418   0.051  0.00  0.00     0.068 C 
ATOM     15  HN  UNL d   1      -1.011  -2.365   0.393  1.00  0.00     0.166 HD
ATOM     16  S   UNL d   1       1.616  -1.433   0.370  0.00  0.00    -0.064 SA
BRANCH   6  17
ATOM     17  N   UNL d   1       2.140   2.346  -0.160  0.00  0.00    -0.397 N 
ATOM     18  H   UNL d   1       3.155   2.497  -0.115  0.00  0.00     0.156 HD
ATOM     19  H   UNL d   1       1.621   3.200  -0.020  0.00  0.00     0.156 HD
ENDBRANCH   6  17
ENDBRANCH   1   5
BRANCH   2  20
ATOM     20  C   UNL d   1       5.958  -1.296   0.104  0.00  0.00     0.168 A 
ATOM     21  S   UNL d   1       6.580  -2.883   0.069  0.00  0.00    -0.032 SA
ATOM     22  C   UNL d   1       8.149  -2.195   0.284  0.00  0.00     0.109 A 
ATOM     23  C   UNL d   1       9.371  -2.945   0.456  0.00  0.00     0.040 A 
ATOM     24  N   UNL d   1       8.139  -0.876   0.313  0.00  0.00    -0.291 N 
ATOM     25  S   UNL d   1       9.451  -4.660   0.400  0.00  0.00    -0.099 SA
ATOM     26  C   UNL d   1      10.625  -2.409   0.708  0.00  0.00     0.022 A 
ATOM     27  C   UNL d   1      11.127  -4.674   0.732  0.00  0.00     0.050 A 
ATOM     28  C   UNL d   1      11.635  -3.403   0.872  0.00  0.00     0.008 A 
ATOM     29  N   UNL d   1       6.864  -0.355   0.206  0.00  0.00    -0.279 N 
ATOM     30  HN  UNL d   1       8.979  -0.304   0.405  1.00  0.00     0.187 HD
ATOM     31  HN  UNL d   1       6.653   0.642   0.206  1.00  0.00     0.189 HD
ENDBRANCH   2  20
TORSDOF 3
