REMARK  3 active torsions:
REMARK  status: ('A' for Active; 'I' for Inactive)
REMARK    1  A    between atoms: C_8  and  C_3 
REMARK    2  A    between atoms: C_12  and  C_4 
REMARK    3  A    between atoms: C_9  and  C_8 
ROOT
ATOM      1  N   UNL d   1       0.529   1.252   0.079  0.00  0.00    -0.336 N 
ATOM      2  HN  UNL d   1       0.910   2.193   0.177  1.00  0.00     0.168 HD
ATOM      3  C   UNL d   1      -0.829   1.033   0.037  0.00  0.00     0.106 C 
ATOM      4  C   UNL d   1       1.308   0.217  -0.010  0.00  0.00     0.131 C 
ATOM      5  C   UNL d   1      -1.393  -0.364   0.088  0.00  0.00     0.286 C 
ATOM      6  N   UNL d   1      -0.447  -1.364   0.140  0.00  0.00    -0.263 N 
ATOM      7  N   UNL d   1       0.894  -1.098  -0.169  0.00  0.00    -0.282 N 
ATOM      8  O   UNL d   1      -2.592  -0.627   0.091  0.00  0.00    -0.264 OA
ATOM      9  H   UNL d   1      -0.784  -2.312   0.009  0.00  0.00     0.190 HD
ATOM     10  H   UNL d   1       1.541  -1.796   0.195  0.00  0.00     0.188 HD
ENDROOT
BRANCH   3  11
ATOM     11  C   UNL d   1      -1.728   2.035  -0.001  0.00  0.00     0.072 C 
BRANCH  11  12
ATOM     12  C   UNL d   1      -1.372   3.413  -0.063  0.00  0.00     0.077 A 
ATOM     13  O   UNL d   1      -2.182   4.401   0.458  0.00  0.00    -0.323 OA
ATOM     14  C   UNL d   1      -1.581   5.600   0.261  0.00  0.00     0.142 A 
ATOM     15  C   UNL d   1      -0.398   5.440  -0.411  0.00  0.00     0.027 A 
ATOM     16  C   UNL d   1      -0.268   4.050  -0.626  0.00  0.00     0.039 A 
ENDBRANCH  11  12
ENDBRANCH   3  11
BRANCH   4  17
ATOM     17  C   UNL d   1       2.781   0.493   0.069  0.00  0.00     0.009 A 
ATOM     18  C   UNL d   1       3.231   1.605   0.795  0.00  0.00     0.015 A 
ATOM     19  C   UNL d   1       4.596   1.882   0.882  0.00  0.00     0.001 A 
ATOM     20  C   UNL d   1       5.514   1.054   0.239  0.00  0.00     0.000 A 
ATOM     21  C   UNL d   1       5.071  -0.048  -0.494  0.00  0.00     0.001 A 
ATOM     22  C   UNL d   1       3.706  -0.331  -0.582  0.00  0.00     0.015 A 
ENDBRANCH   4  17
TORSDOF 3
