REMARK  3 active torsions:
REMARK  status: ('A' for Active; 'I' for Inactive)
REMARK    1  A    between atoms: C_7  and  N_1 
REMARK    2  A    between atoms: C_8  and  C_7 
REMARK       I    between atoms: N_10  and  C_8 
REMARK    3  A    between atoms: N_11  and  N_10 
ROOT
ATOM      1  N   UNL d   1       0.090  -1.482   0.470  0.00  0.00    -0.336 N 
ATOM      2  S   UNL d   1       0.014   1.639   0.192  0.00  0.00    -0.086 SA
ATOM      3  C   UNL d   1       1.317  -0.837   0.122  0.00  0.00     0.052 A 
ATOM      4  C   UNL d   1      -1.182  -0.889   0.212  0.00  0.00     0.052 A 
ATOM      5  C   UNL d   1      -1.339   0.496   0.010  0.00  0.00     0.032 A 
ATOM      6  C   UNL d   1       1.401   0.555  -0.077  0.00  0.00     0.032 A 
ATOM      7  C   UNL d   1       2.470  -1.609  -0.109  0.00  0.00     0.031 A 
ATOM      8  C   UNL d   1      -2.313  -1.716   0.075  0.00  0.00     0.031 A 
ATOM      9  C   UNL d   1       2.610   1.141  -0.481  0.00  0.00     0.021 A 
ATOM     10  C   UNL d   1      -2.596   1.023  -0.318  0.00  0.00     0.021 A 
ATOM     11  C   UNL d   1       3.664  -1.021  -0.534  0.00  0.00     0.002 A 
ATOM     12  C   UNL d   1      -3.558  -1.184  -0.268  0.00  0.00     0.002 A 
ATOM     13  C   UNL d   1       3.735   0.354  -0.718  0.00  0.00     0.002 A 
ATOM     14  C   UNL d   1      -3.699   0.185  -0.467  0.00  0.00     0.002 A 
ENDROOT
BRANCH   1  15
ATOM     15  C   UNL d   1       0.150  -2.079   1.841  0.00  0.00     0.233 C 
BRANCH  15  16
ATOM     16  C   UNL d   1       0.506  -3.567   1.817  0.00  0.00     0.249 C 
ATOM     17  O   UNL d   1       0.882  -4.176   2.819  0.00  0.00    -0.270 OA
ATOM     18  N   UNL d   1       0.333  -4.189   0.586  0.00  0.00    -0.293 N 
ATOM     19  H   UNL d   1       0.098  -3.605  -0.223  0.00  0.00     0.183 HD
BRANCH  18  20
ATOM     20  N   UNL d   1       0.685  -5.542   0.417  0.00  0.00    -0.247 NA
ATOM     21  H   UNL d   1       0.633  -5.981   1.347  0.00  0.00     0.143 HD
ATOM     22  H   UNL d   1       1.682  -5.585   0.189  0.00  0.00     0.143 HD
ENDBRANCH  18  20
ENDBRANCH  15  16
ENDBRANCH   1  15
TORSDOF 3
