REMARK  2 active torsions:
REMARK  status: ('A' for Active; 'I' for Inactive)
REMARK    1  A    between atoms: C_2  and  C_1 
REMARK    2  A    between atoms: C_3  and  C_2 
REMARK       I    between atoms: N_8  and  C_3 
ROOT
ATOM      1  C   UNL d   1      -2.869  -1.565   0.047  0.00  0.00     0.048 A 
ATOM      2  C   UNL d   1      -1.718  -0.704   0.047  0.00  0.00     0.008 A 
ATOM      3  C   UNL d   1      -3.977  -0.734   0.050  0.00  0.00     0.105 A 
ATOM      4  N   UNL d   1      -3.551   0.567   0.035  0.00  0.00    -0.364 N 
ATOM      5  C   UNL d   1      -2.177   0.616   0.036  0.00  0.00     0.043 A 
ATOM      6  C   UNL d   1      -0.323  -0.925   0.043  0.00  0.00     0.033 A 
ATOM      7  C   UNL d   1      -1.319   1.722   0.018  0.00  0.00     0.031 A 
ATOM      8  C   UNL d   1       0.544   0.172   0.027  0.00  0.00     0.011 A 
ATOM      9  C   UNL d   1       0.058   1.476   0.015  0.00  0.00     0.021 A 
ATOM     10 BR   UNL d   1       2.413  -0.124   0.018  0.00  0.00    -0.051 Br
ATOM     11  H   UNL d   1      -4.154   1.378   0.013  0.00  0.00     0.165 HD
ENDROOT
BRANCH   1  12
ATOM     12  C   UNL d   1      -2.887  -3.029   0.033  0.00  0.00     0.251 C 
ATOM     13  O   UNL d   1      -1.859  -3.704   0.047  0.00  0.00    -0.281 OA
BRANCH  12  14
ATOM     14  C   UNL d   1      -4.224  -3.780  -0.011  0.00  0.00     0.294 C 
ATOM     15  N   UNL d   1      -4.538  -4.641   1.047  0.00  0.00    -0.354 N 
ATOM     16  C   UNL d   1      -5.763  -5.417   0.976  0.00  0.00     0.152 C 
ATOM     17  C   UNL d   1      -3.674  -4.900   2.188  0.00  0.00     0.152 C 
ATOM     18  O   UNL d   1      -4.961  -3.580  -0.972  0.00  0.00    -0.264 OA
ENDBRANCH  12  14
ENDBRANCH   1  12
TORSDOF 2
