REMARK  4 active torsions:
REMARK  status: ('A' for Active; 'I' for Inactive)
REMARK    1  A    between atoms: C_11  and  N_1 
REMARK    2  A    between atoms: C_4  and  C_2 
REMARK       I    between atoms: N_9  and  C_4 
REMARK    3  A    between atoms: C_13  and  N_9 
REMARK    4  A    between atoms: C_20  and  C_11 
ROOT
ATOM      1  C   UNL d   1      -1.797   0.790  -1.696  0.00  0.00     0.228 C 
ATOM      2  N   UNL d   1      -0.858   0.276  -2.575  0.00  0.00    -0.327 N 
ATOM      3  O   UNL d   1      -2.864   1.309  -2.017  0.00  0.00    -0.273 OA
ATOM      4  H   UNL d   1      -0.120  -0.296  -2.185  0.00  0.00     0.169 HD
ENDROOT
BRANCH   1   5
ATOM      5  C   UNL d   1      -1.429   0.688  -0.214  0.00  0.00     0.105 C 
ATOM      6  C   UNL d   1      -1.254  -0.745   0.252  0.00  0.00     0.140 C 
ATOM      7  N   UNL d   1       0.161  -0.971   0.084  0.00  0.00    -0.347 N 
ATOM      8  C   UNL d   1       0.888   0.208   0.080  0.00  0.00     0.221 C 
ATOM      9  C   UNL d   1      -0.089   1.360   0.093  0.00  0.00     0.118 C 
ATOM     10  O   UNL d   1       2.101   0.310   0.028  0.00  0.00    -0.273 OA
BRANCH   7  11
ATOM     11  C   UNL d   1       0.746  -2.295   0.010  0.00  0.00     0.164 C 
BRANCH  11  12
ATOM     12  C   UNL d   1       0.908  -3.006   1.330  0.00  0.00    -0.040 A 
ATOM     13  C   UNL d   1       0.154  -4.157   1.613  0.00  0.00     0.012 A 
ATOM     14  C   UNL d   1       0.411  -4.908   2.762  0.00  0.00     0.043 A 
ATOM     15  C   UNL d   1       1.412  -4.503   3.636  0.00  0.00     0.116 A 
ATOM     16  C   UNL d   1       2.147  -3.349   3.394  0.00  0.00     0.043 A 
ATOM     17  F   UNL d   1       1.683  -5.246   4.718  0.00  0.00    -0.206 F 
ATOM     18  C   UNL d   1       1.893  -2.597   2.245  0.00  0.00     0.012 A 
ENDBRANCH  11  12
ENDBRANCH   7  11
ENDBRANCH   1   5
BRANCH   2  19
ATOM     19  C   UNL d   1      -0.785   0.495  -3.967  0.00  0.00     0.035 A 
ATOM     20  C   UNL d   1      -1.617   1.371  -4.664  0.00  0.00     0.043 A 
ATOM     21  C   UNL d   1      -1.408   1.632  -6.034  0.00  0.00    -0.007 A 
ATOM     22  C   UNL d   1      -2.207   2.542  -6.735  0.00  0.00     0.015 A 
ATOM     23  C   UNL d   1      -0.363   0.999  -6.734  0.00  0.00     0.042 A 
ATOM     24  C   UNL d   1      -1.937   2.815  -8.071  0.00  0.00     0.025 A 
ATOM     25  C   UNL d   1      -0.872   2.164  -8.678  0.00  0.00     0.005 A 
ATOM     26  N   UNL d   1      -0.102   1.257  -8.029  0.00  0.00    -0.359 N 
ATOM     27  C   UNL d   1      -0.526   2.468 -10.106  0.00  0.00     0.068 C 
ATOM     28  HN  UNL d   1       0.659   0.780  -8.512  1.00  0.00     0.166 HD
ATOM     29  C   UNL d   1       0.428   0.099  -6.038  0.00  0.00     0.033 A 
ATOM     30  C   UNL d   1       0.235  -0.154  -4.671  0.00  0.00     0.032 A 
ENDBRANCH   2  19
TORSDOF 4
