REMARK  4 active torsions:
REMARK  status: ('A' for Active; 'I' for Inactive)
REMARK    1  A    between atoms: N_2  and  C_1 
REMARK    2  A    between atoms: N_4  and  C_1 
REMARK    3  A    between atoms: C_6  and  N_2 
REMARK    4  A    between atoms: N_5  and  N_4 
ROOT
ATOM      1  C   UNL d   1       1.068   1.960  -1.873  0.00  0.00     0.083 C 
ATOM      2  C   UNL d   1       2.094   0.892  -2.323  0.00  0.00     0.025 C 
ATOM      3  C   UNL d   1       1.624   3.002  -0.865  0.00  0.00     0.025 C 
ATOM      4  C   UNL d   1       2.274   2.499   0.435  0.00  0.00     0.002 C 
ATOM      5  C   UNL d   1       1.568  -0.503  -2.708  0.00  0.00     0.002 C 
ATOM      6  C   UNL d   1       1.193  -1.428  -1.539  0.00  0.00     0.000 C 
ATOM      7  C   UNL d   1       1.967   1.177   2.613  0.00  0.00     0.000 C 
ATOM      8  C   UNL d   1       2.370  -1.816  -0.635  0.00  0.00     0.000 C 
ATOM      9  C   UNL d   1       1.305   2.044   1.531  0.00  0.00     0.000 C 
ATOM     10  C   UNL d   1       2.508  -0.175   2.120  0.00  0.00     0.000 C 
ATOM     11  C   UNL d   1       1.933  -2.280   0.764  0.00  0.00     0.000 C 
ATOM     12  C   UNL d   1       1.415  -1.156   1.675  0.00  0.00     0.000 C 
ENDROOT
BRANCH   1  13
ATOM     13  N   UNL d   1      -0.210   1.414  -1.431  0.00  0.00    -0.362 N 
ATOM     14  H   UNL d   1      -0.226   0.940  -0.537  0.00  0.00     0.162 HD
BRANCH  13  15
ATOM     15  C   UNL d   1      -1.444   1.484  -1.996  0.00  0.00     0.182 C 
ATOM     16  S   UNL d   1      -2.739   0.895  -1.115  0.00  0.00    -0.040 SA
BRANCH  15  17
ATOM     17  N   UNL d   1      -1.534   2.061  -3.244  0.00  0.00    -0.300 N 
ATOM     18  H   UNL d   1      -0.696   2.151  -3.809  0.00  0.00     0.183 HD
BRANCH  17  19
ATOM     19  N   UNL d   1      -2.767   2.256  -3.898  0.00  0.00    -0.248 NA
ATOM     20  H   UNL d   1      -3.403   2.685  -3.216  0.00  0.00     0.143 HD
ATOM     21  H   UNL d   1      -3.177   1.333  -4.068  0.00  0.00     0.143 HD
ENDBRANCH  17  19
ENDBRANCH  15  17
ENDBRANCH  13  15
ENDBRANCH   1  13
TORSDOF 4
