REMARK  7 active torsions:
REMARK  status: ('A' for Active; 'I' for Inactive)
REMARK    1  A    between atoms: C_2  and  C_1 
REMARK    2  A    between atoms: N_3  and  C_1 
REMARK       I    between atoms: N_12  and  C_2 
REMARK       I    between atoms: C_4  and  N_3 
REMARK    3  A    between atoms: C_16  and  C_4 
REMARK    4  A    between atoms: C_18  and  C_5 
REMARK    5  A    between atoms: N_7  and  N_12 
REMARK    6  A    between atoms: C_21  and  C_20 
REMARK    7  A    between atoms: O_28  and  C_22 
ROOT
ATOM      1  C   UNL d   1       0.680  -0.116  -0.187  0.00  0.00     0.105 C 
ATOM      2  C   UNL d   1       2.030   0.020  -0.196  0.00  0.00     0.046 C 
ENDROOT
BRANCH   1   3
ATOM      3  C   UNL d   1      -0.073  -1.268   0.542  0.00  0.00     0.286 C 
ATOM      4  N   UNL d   1       0.754  -2.271   0.992  0.00  0.00    -0.265 N 
ATOM      5  H   UNL d   1       1.738  -2.146   0.803  0.00  0.00     0.190 HD
ATOM      6  O   UNL d   1      -1.288  -1.198   0.649  0.00  0.00    -0.264 OA
BRANCH   4   7
ATOM      7  N   UNL d   1       0.619  -3.439   1.625  0.00  0.00    -0.308 N 
ATOM      8  C   UNL d   1      -0.286  -4.212   2.131  0.00  0.00     0.118 C 
ATOM      9  HN  UNL d   1       1.538  -3.865   1.751  1.00  0.00     0.186 HD
BRANCH   8  10
ATOM     10  C   UNL d   1      -1.733  -4.362   2.354  0.00  0.00    -0.017 A 
ATOM     11  C   UNL d   1      -2.778  -3.718   1.699  0.00  0.00     0.052 A 
ATOM     12  C   UNL d   1      -4.074  -4.122   2.004  0.00  0.00     0.105 A 
ATOM     13  O   UNL d   1      -5.221  -3.627   1.454  0.00  0.00    -0.323 OA
ATOM     14  C   UNL d   1      -4.348  -5.129   2.905  0.00  0.00     0.105 A 
ATOM     15  C   UNL d   1      -6.221  -4.442   2.099  0.00  0.00     0.352 A 
ATOM     16  O   UNL d   1      -5.674  -5.390   3.034  0.00  0.00    -0.323 OA
ATOM     17  C   UNL d   1      -3.350  -5.792   3.570  0.00  0.00     0.040 A 
ATOM     18  C   UNL d   1      -2.041  -5.399   3.289  0.00  0.00     0.016 A 
ENDBRANCH   8  10
ENDBRANCH   4   7
ENDBRANCH   1   3
BRANCH   1  19
ATOM     19  N   UNL d   1      -0.140   0.823  -0.810  0.00  0.00    -0.318 N 
ATOM     20  C   UNL d   1      -0.073   1.007  -2.187  0.00  0.00     0.256 C 
ATOM     21  O   UNL d   1       0.543   0.280  -2.962  0.00  0.00    -0.267 OA
ATOM     22  H   UNL d   1      -1.097   0.839  -0.461  0.00  0.00     0.169 HD
BRANCH  20  23
ATOM     23  C   UNL d   1      -0.858   2.138  -2.740  0.00  0.00     0.032 A 
ATOM     24  C   UNL d   1      -0.813   3.404  -2.140  0.00  0.00     0.017 A 
ATOM     25  C   UNL d   1      -1.457   4.480  -2.754  0.00  0.00     0.001 A 
ATOM     26  C   UNL d   1      -2.149   4.297  -3.953  0.00  0.00     0.000 A 
ATOM     27  C   UNL d   1      -2.195   3.034  -4.548  0.00  0.00     0.001 A 
ATOM     28  C   UNL d   1      -1.540   1.960  -3.949  0.00  0.00     0.017 A 
ENDBRANCH  20  23
ENDBRANCH   1  19
BRANCH   2  29
ATOM     29  C   UNL d   1       2.793   1.205  -0.630  0.00  0.00    -0.034 A 
ATOM     30  C   UNL d   1       3.096   2.188   0.322  0.00  0.00     0.014 A 
ATOM     31  C   UNL d   1       3.862   3.306  -0.024  0.00  0.00     0.037 A 
ATOM     32  C   UNL d   1       4.324   3.457  -1.330  0.00  0.00     0.068 A 
ATOM     33  C   UNL d   1       4.060   2.461  -2.271  0.00  0.00     0.037 A 
ATOM     34  C   UNL d   1       3.298   1.339  -1.926  0.00  0.00     0.014 A 
BRANCH  32  35
ATOM     35  O   UNL d   1       5.074   4.513  -1.776  0.00  0.00    -0.356 OA
ATOM     36  C   UNL d   1       4.819   5.753  -1.123  0.00  0.00     0.210 C 
ENDBRANCH  32  35
ENDBRANCH   2  29
TORSDOF 7
