REMARK  2 active torsions:
REMARK  status: ('A' for Active; 'I' for Inactive)
REMARK    1  A    between atoms: C_15  and  C_12 
REMARK    2  A    between atoms: O_22  and  C_17 
ROOT
ATOM      1  N   UNL d   1      -0.808   1.018  -0.003  0.00  0.00    -0.196 N 
ATOM      2  C   UNL d   1       0.059  -0.049   0.008  0.00  0.00     0.177 A 
ATOM      3  N   UNL d   1       1.343   0.008   0.025  0.00  0.00    -0.300 N 
ATOM      4  HN  UNL d   1       1.933  -0.824   0.028  1.00  0.00     0.171 HD
ATOM      5  N   UNL d   1      -0.378   2.324   0.013  0.00  0.00    -0.288 N 
ATOM      6  HN  UNL d   1      -1.028   3.110   0.012  1.00  0.00     0.187 HD
ATOM      7  C   UNL d   1      -2.166   0.734  -0.019  0.00  0.00     0.285 A 
ATOM      8  C   UNL d   1      -2.350  -0.749  -0.027  0.00  0.00     0.079 A 
ATOM      9  S   UNL d   1      -0.822  -1.554  -0.006  0.00  0.00    -0.046 SA
ATOM     10  C   UNL d   1       1.855   1.285   0.037  0.00  0.00     0.271 A 
ATOM     11  C   UNL d   1       0.911   2.492   0.028  0.00  0.00     0.090 A 
ATOM     12  C   UNL d   1      -3.571  -1.301  -0.035  0.00  0.00     0.036 C 
ATOM     13  O   UNL d   1      -3.097   1.528  -0.025  0.00  0.00    -0.265 OA
ATOM     14  O   UNL d   1       3.056   1.514   0.052  0.00  0.00    -0.266 OA
ATOM     15  C   UNL d   1       1.491   3.875   0.044  0.00  0.00     0.076 C 
ENDROOT
BRANCH  12  16
ATOM     16  C   UNL d   1      -3.842  -2.740  -0.014  0.00  0.00    -0.035 A 
ATOM     17  C   UNL d   1      -3.980  -3.406   1.207  0.00  0.00     0.014 A 
ATOM     18  C   UNL d   1      -4.183  -4.789   1.240  0.00  0.00     0.037 A 
ATOM     19  C   UNL d   1      -4.254  -5.515   0.051  0.00  0.00     0.068 A 
ATOM     20  C   UNL d   1      -4.168  -4.842  -1.169  0.00  0.00     0.037 A 
ATOM     21  C   UNL d   1      -3.954  -3.461  -1.206  0.00  0.00     0.014 A 
BRANCH  19  22
ATOM     22  O   UNL d   1      -4.452  -6.866  -0.032  0.00  0.00    -0.356 OA
ATOM     23  C   UNL d   1      -3.911  -7.631   1.041  0.00  0.00     0.210 C 
ENDBRANCH  19  22
ENDBRANCH  12  16
TORSDOF 2
