REMARK  6 active torsions:
REMARK  status: ('A' for Active; 'I' for Inactive)
REMARK    1  A    between atoms: N_7  and  C_1 
REMARK    2  A    between atoms: C_9  and  C_2 
REMARK    3  A    between atoms: C_10  and  N_3 
REMARK    4  A    between atoms: N_6  and  C_11 
REMARK    5  A    between atoms: O_23  and  C_9 
REMARK    6  A    between atoms: C_24  and  O_23 
ROOT
ATOM      1  C   UNL d   1       1.017  -0.810   0.041  0.00  0.00     0.151 C 
ATOM      2  C   UNL d   1      -0.300  -1.251   0.010  0.00  0.00     0.102 C 
ATOM      3  N   UNL d   1       0.975   0.573   0.139  0.00  0.00    -0.239 N 
ATOM      4  N   UNL d   1      -0.298   1.014   0.322  0.00  0.00    -0.302 N 
ATOM      5  HN  UNL d   1      -0.604   1.962   0.541  1.00  0.00     0.186 HD
ATOM      6  C   UNL d   1      -1.054  -0.069   0.151  0.00  0.00     0.129 C 
ENDROOT
BRANCH   3   7
ATOM      7  C   UNL d   1       2.015   1.536  -0.023  0.00  0.00     0.058 A 
ATOM      8  C   UNL d   1       3.071   1.311  -0.917  0.00  0.00     0.034 A 
ATOM      9  C   UNL d   1       4.147   2.200  -0.964  0.00  0.00     0.038 A 
ATOM     10  C   UNL d   1       4.154   3.320  -0.123  0.00  0.00     0.103 A 
ATOM     11  C   UNL d   1       3.067   3.585   0.722  0.00  0.00     0.038 A 
ATOM     12  C   UNL d   1       1.986   2.700   0.756  0.00  0.00     0.034 A 
BRANCH  10  13
ATOM     13  N   UNL d   1       5.321   4.213  -0.115  0.00  0.00    -0.116 N 
ATOM     14  O   UNL d   1       5.305   5.176   0.664  0.00  0.00    -0.532 OA
ATOM     15  O   UNL d   1       6.260   3.939  -0.876  0.00  0.00    -0.532 OA
ENDBRANCH  10  13
ENDBRANCH   3   7
BRANCH   1  16
ATOM     16  N   UNL d   1       2.184  -1.580   0.034  0.00  0.00    -0.317 N 
ATOM     17  C   UNL d   1       2.376  -2.783  -0.619  0.00  0.00     0.098 A 
ATOM     18  C   UNL d   1       3.667  -3.224  -0.409  0.00  0.00     0.019 A 
ATOM     19  C   UNL d   1       4.301  -2.270   0.408  0.00  0.00     0.019 A 
ATOM     20  C   UNL d   1       3.372  -1.293   0.683  0.00  0.00     0.098 A 
ENDBRANCH   1  16
BRANCH   2  21
ATOM     21  C   UNL d   1      -0.797  -2.607  -0.039  0.00  0.00     0.298 C 
ATOM     22  O   UNL d   1      -0.235  -3.554   0.493  0.00  0.00    -0.259 OA
BRANCH  21  23
ATOM     23  O   UNL d   1      -1.912  -2.710  -0.815  0.00  0.00    -0.318 OA
BRANCH  23  24
ATOM     24  C   UNL d   1      -2.201  -4.040  -1.272  0.00  0.00     0.174 C 
ATOM     25  C   UNL d   1      -1.511  -4.242  -2.610  0.00  0.00     0.034 C 
ENDBRANCH  23  24
ENDBRANCH  21  23
ENDBRANCH   2  21
TORSDOF 6
