REMARK  4 active torsions:
REMARK  status: ('A' for Active; 'I' for Inactive)
REMARK    1  A    between atoms: N_2  and  S_1 
REMARK    2  A    between atoms: C_4  and  S_1 
REMARK    3  A    between atoms: C_3  and  N_2 
REMARK    4  A    between atoms: C_12  and  N_2 
ROOT
ATOM      1  N   UNL d   1       0.468  -0.862   1.522  0.00  0.00    -0.271 N 
ENDROOT
BRANCH   1   2
ATOM      2  S   UNL d   1       0.948  -0.064   0.105  0.00  0.00     0.265 S 
ATOM      3  O   UNL d   1       2.288  -0.517  -0.217  0.00  0.00    -0.200 OA
ATOM      4  O   UNL d   1       0.657   1.353   0.208  0.00  0.00    -0.200 OA
BRANCH   2   5
ATOM      5  C   UNL d   1      -0.127  -0.703  -1.181  0.00  0.00     0.080 A 
ATOM      6  C   UNL d   1      -1.470  -0.314  -1.237  0.00  0.00     0.028 A 
ATOM      7  C   UNL d   1      -2.271  -0.741  -2.300  0.00  0.00     0.044 A 
ATOM      8  C   UNL d   1      -1.720  -1.517  -3.314  0.00  0.00     0.116 A 
ATOM      9  C   UNL d   1      -0.380  -1.889  -3.282  0.00  0.00     0.044 A 
ATOM     10  F   UNL d   1      -2.484  -1.894  -4.348  0.00  0.00    -0.206 F 
ATOM     11  C   UNL d   1       0.422  -1.485  -2.211  0.00  0.00     0.028 A 
ENDBRANCH   2   5
ENDBRANCH   1   2
BRANCH   1  12
ATOM     12  C   UNL d   1      -0.378  -0.168   2.460  0.00  0.00     0.056 A 
ATOM     13  C   UNL d   1       0.183   0.570   3.539  0.00  0.00     0.002 A 
ATOM     14  C   UNL d   1      -0.694   1.225   4.439  0.00  0.00    -0.024 A 
ATOM     15  C   UNL d   1       1.572   0.670   3.791  0.00  0.00     0.014 A 
ATOM     16  C   UNL d   1      -0.181   1.910   5.554  0.00  0.00     0.012 A 
ATOM     17  C   UNL d   1      -2.080   1.171   4.226  0.00  0.00     0.012 A 
ATOM     18  C   UNL d   1       1.190   1.943   5.806  0.00  0.00     0.001 A 
ATOM     19  C   UNL d   1       2.066   1.332   4.920  0.00  0.00     0.001 A 
ATOM     20  C   UNL d   1      -2.612   0.420   3.180  0.00  0.00     0.003 A 
ATOM     21  C   UNL d   1      -1.767  -0.267   2.317  0.00  0.00     0.031 A 
ENDBRANCH   1  12
BRANCH   1  22
ATOM     22  C   UNL d   1       0.624  -2.323   1.640  0.00  0.00     0.137 C 
ATOM     23  C   UNL d   1       1.975  -2.681   2.235  0.00  0.00     0.028 C 
ENDBRANCH   1  22
TORSDOF 4
