REMARK  6 active torsions:
REMARK  status: ('A' for Active; 'I' for Inactive)
REMARK    1  A    between atoms: C_8  and  N_1 
REMARK    2  A    between atoms: S_10  and  C_2 
REMARK    3  A    between atoms: C_9  and  C_7 
REMARK    4  A    between atoms: C_16  and  C_9 
REMARK    5  A    between atoms: C_14  and  C_16 
REMARK    6  A    between atoms: O_24  and  C_15 
ROOT
ATOM      1  N   UNL d   1      -0.247   0.729  -0.275  0.00  0.00    -0.279 N 
ATOM      2  C   UNL d   1       0.969   0.058  -0.372  0.00  0.00     0.164 A 
ATOM      3  N   UNL d   1       0.788  -1.238  -0.288  0.00  0.00    -0.278 N 
ATOM      4  HN  UNL d   1       1.515  -1.950  -0.356  1.00  0.00     0.189 HD
ATOM      5  N   UNL d   1      -0.537  -1.465  -0.095  0.00  0.00    -0.286 N 
ATOM      6  HN  UNL d   1      -0.972  -2.381   0.021  1.00  0.00     0.188 HD
ATOM      7  C   UNL d   1      -1.170  -0.307  -0.083  0.00  0.00     0.105 A 
ENDROOT
BRANCH   7   8
ATOM      8  C   UNL d   1      -2.663  -0.183  -0.006  0.00  0.00     0.083 C 
BRANCH   8   9
ATOM      9  C   UNL d   1      -3.360  -1.553  -0.061  0.00  0.00     0.046 C 
BRANCH   9  10
ATOM     10  C   UNL d   1      -4.877  -1.561  -0.010  0.00  0.00    -0.058 A 
ATOM     11  C   UNL d   1      -5.664  -0.403   0.025  0.00  0.00     0.010 A 
ATOM     12  C   UNL d   1      -7.060  -0.493   0.055  0.00  0.00     0.037 A 
ATOM     13  C   UNL d   1      -7.674  -1.740   0.050  0.00  0.00     0.065 A 
ATOM     14  C   UNL d   1      -6.917  -2.901   0.021  0.00  0.00     0.037 A 
ATOM     15  C   UNL d   1      -5.524  -2.811  -0.007  0.00  0.00     0.010 A 
BRANCH  13  16
ATOM     16  O   UNL d   1      -9.036  -1.778   0.072  0.00  0.00    -0.361 OA
ATOM     17  H   UNL d   1      -9.320  -2.706   0.031  0.00  0.00     0.217 HD
ENDBRANCH  13  16
ENDBRANCH   9  10
ENDBRANCH   8   9
ENDBRANCH   7   8
BRANCH   1  18
ATOM     18  C   UNL d   1      -0.501   2.136  -0.356  0.00  0.00     0.043 A 
ATOM     19  C   UNL d   1       0.272   2.957  -1.193  0.00  0.00     0.032 A 
ATOM     20  C   UNL d   1       0.067   4.341  -1.226  0.00  0.00     0.026 A 
ATOM     21  C   UNL d   1      -0.935   4.914  -0.451  0.00  0.00     0.034 A 
ATOM     22  C   UNL d   1      -1.733   4.111   0.358  0.00  0.00     0.026 A 
ATOM     23 CL   UNL d   1      -1.185   6.614  -0.486  0.00  0.00    -0.084 Cl
ATOM     24  C   UNL d   1      -1.513   2.729   0.412  0.00  0.00     0.032 A 
ENDBRANCH   1  18
BRANCH   2  25
ATOM     25  S   UNL d   1       2.561   0.753  -0.392  0.00  0.00    -0.105 SA
ATOM     26  H   UNL d   1       2.289   1.947   0.151  0.00  0.00     0.110 HD
ENDBRANCH   2  25
TORSDOF 6
