REMARK  5 active torsions:
REMARK  status: ('A' for Active; 'I' for Inactive)
REMARK    1  A    between atoms: N_5  and  C_1 
REMARK       I    between atoms: C_8  and  N_5 
REMARK    2  A    between atoms: C_9  and  C_8 
REMARK    3  A    between atoms: C_13  and  C_9 
REMARK    4  A    between atoms: C_12  and  O_19 
REMARK    5  A    between atoms: O_19  and  C_13 
ROOT
ATOM      1  N   UNL d   1      -3.748  -3.062   0.020  0.00  0.00    -0.312 N 
ATOM      2  C   UNL d   1      -2.443  -2.727  -0.055  0.00  0.00     0.225 C 
ATOM      3  O   UNL d   1      -2.217  -1.540  -0.330  0.00  0.00    -0.273 OA
ATOM      4  H   UNL d   1      -4.353  -2.274  -0.156  0.00  0.00     0.170 HD
ENDROOT
BRANCH   2   5
ATOM      5  C   UNL d   1      -1.310  -3.711   0.180  0.00  0.00     0.130 C 
BRANCH   5   6
ATOM      6  C   UNL d   1      -0.007  -2.938  -0.049  0.00  0.00     0.185 C 
BRANCH   6   7
ATOM      7  O   UNL d   1       1.174  -3.697   0.222  0.00  0.00    -0.351 OA
BRANCH   7   8
ATOM      8  C   UNL d   1       2.331  -2.947   0.157  0.00  0.00     0.069 A 
ATOM      9  C   UNL d   1       3.450  -3.495   0.792  0.00  0.00     0.040 A 
ATOM     10  C   UNL d   1       4.662  -2.794   0.817  0.00  0.00     0.045 A 
ATOM     11  C   UNL d   1       4.754  -1.556   0.196  0.00  0.00     0.116 A 
ATOM     12  C   UNL d   1       3.662  -1.007  -0.461  0.00  0.00     0.045 A 
ATOM     13  F   UNL d   1       5.909  -0.878   0.231  0.00  0.00    -0.206 F 
ATOM     14  C   UNL d   1       2.453  -1.706  -0.485  0.00  0.00     0.040 A 
ENDBRANCH   7   8
ENDBRANCH   6   7
ENDBRANCH   5   6
ENDBRANCH   2   5
BRANCH   1  15
ATOM     15  C   UNL d   1      -4.372  -4.257   0.269  0.00  0.00     0.130 A 
ATOM     16  N   UNL d   1      -3.798  -5.436   0.512  0.00  0.00    -0.245 N 
ATOM     17  O   UNL d   1      -4.842  -6.335   0.698  0.00  0.00    -0.241 OA
ATOM     18  HN  UNL d   1      -2.799  -5.637   0.554  1.00  0.00     0.196 HD
ATOM     19  C   UNL d   1      -6.028  -5.683   0.562  0.00  0.00     0.076 A 
ATOM     20  C   UNL d   1      -5.783  -4.365   0.290  0.00  0.00     0.084 A 
ATOM     21  C   UNL d   1      -7.262  -6.473   0.730  0.00  0.00     0.079 C 
ENDBRANCH   1  15
TORSDOF 5
