REMARK  9 active torsions:
REMARK  status: ('A' for Active; 'I' for Inactive)
REMARK    1  A    between atoms: C_8  and  C_2 
REMARK    2  A    between atoms: S_16  and  C_5 
REMARK       I    between atoms: N_9  and  C_17 
REMARK       I    between atoms: C_10  and  N_9 
REMARK       I    between atoms: N_18  and  C_10 
REMARK    3  A    between atoms: O_23  and  C_11 
REMARK    4  A    between atoms: O_24  and  C_12 
REMARK    5  A    between atoms: O_25  and  C_13 
REMARK    6  A    between atoms: C_21  and  S_16 
REMARK    7  A    between atoms: C_17  and  C_21 
REMARK    8  A    between atoms: C_26  and  N_18 
REMARK    9  A    between atoms: C_27  and  C_26 
ROOT
ATOM      1  N   UNL d   1       0.323   0.232  -0.805  0.00  0.00    -0.315 N 
ATOM      2  C   UNL d   1      -0.579   1.280  -0.884  0.00  0.00     0.134 C 
ATOM      3  N   UNL d   1      -1.657   0.796  -1.491  0.00  0.00    -0.283 N 
ATOM      4  HN  UNL d   1      -2.590   1.205  -1.468  1.00  0.00     0.188 HD
ATOM      5  C   UNL d   1      -0.045  -0.590  -1.843  0.00  0.00     0.163 C 
ATOM      6  N   UNL d   1      -1.295  -0.352  -2.156  0.00  0.00    -0.278 N 
ATOM      7  HN  UNL d   1      -1.885  -0.910  -2.774  1.00  0.00     0.189 HD
ATOM      8  C   UNL d   1       0.986  -0.197   0.404  0.00  0.00     0.160 C 
ENDROOT
BRANCH   5   9
ATOM      9  S   UNL d   1       1.074  -1.514  -2.777  0.00  0.00    -0.083 SA
BRANCH   9  10
ATOM     10  C   UNL d   1      -0.005  -2.305  -4.006  0.00  0.00     0.185 C 
BRANCH  10  11
ATOM     11  C   UNL d   1      -0.261  -1.481  -5.266  0.00  0.00     0.235 C 
ATOM     12  N   UNL d   1      -1.351  -0.629  -5.195  0.00  0.00    -0.279 N 
ATOM     13  C   UNL d   1      -1.816   0.234  -6.157  0.00  0.00     0.323 C 
ATOM     14  H   UNL d   1      -1.568  -0.294  -4.255  0.00  0.00     0.173 HD
ATOM     15  N   UNL d   1      -1.750  -0.194  -7.459  0.00  0.00    -0.339 N 
ATOM     16  O   UNL d   1      -2.276   1.332  -5.822  0.00  0.00    -0.247 OA
ATOM     17  H   UNL d   1      -1.035  -0.900  -7.607  0.00  0.00     0.164 HD
ATOM     18  O   UNL d   1       0.389  -1.655  -6.301  0.00  0.00    -0.272 OA
BRANCH  15  19
ATOM     19  C   UNL d   1      -1.976   0.718  -8.570  0.00  0.00     0.162 C 
BRANCH  19  20
ATOM     20  C   UNL d   1      -3.410   0.931  -9.018  0.00  0.00    -0.040 A 
ATOM     21  C   UNL d   1      -4.188   1.951  -8.450  0.00  0.00     0.009 A 
ATOM     22  C   UNL d   1      -5.439   2.289  -8.982  0.00  0.00     0.001 A 
ATOM     23  C   UNL d   1      -5.939   1.600 -10.084  0.00  0.00     0.000 A 
ATOM     24  C   UNL d   1      -5.199   0.557 -10.637  0.00  0.00     0.001 A 
ATOM     25  C   UNL d   1      -3.948   0.220 -10.103  0.00  0.00     0.009 A 
ENDBRANCH  19  20
ENDBRANCH  15  19
ENDBRANCH  10  11
ENDBRANCH   9  10
ENDBRANCH   5   9
BRANCH   2  26
ATOM     26  C   UNL d   1      -0.216   2.706  -0.860  0.00  0.00     0.015 A 
ATOM     27  C   UNL d   1      -0.708   3.486  -1.913  0.00  0.00     0.055 A 
ATOM     28  C   UNL d   1      -0.262   4.793  -2.146  0.00  0.00     0.105 A 
ATOM     29  C   UNL d   1       0.707   5.360  -1.296  0.00  0.00     0.135 A 
ATOM     30  C   UNL d   1       1.151   4.613  -0.183  0.00  0.00     0.105 A 
ATOM     31  C   UNL d   1       0.688   3.296   0.023  0.00  0.00     0.055 A 
BRANCH  28  32
ATOM     32  O   UNL d   1      -0.663   5.478  -3.265  0.00  0.00    -0.353 OA
ATOM     33  C   UNL d   1      -2.004   5.244  -3.692  0.00  0.00     0.210 C 
ENDBRANCH  28  32
BRANCH  29  34
ATOM     34  O   UNL d   1       1.323   6.565  -1.518  0.00  0.00    -0.351 OA
ATOM     35  C   UNL d   1       0.637   7.564  -2.259  0.00  0.00     0.210 C 
ENDBRANCH  29  34
BRANCH  30  36
ATOM     36  O   UNL d   1       2.060   4.993   0.778  0.00  0.00    -0.353 OA
ATOM     37  C   UNL d   1       2.430   6.365   0.864  0.00  0.00     0.210 C 
ENDBRANCH  30  36
ENDBRANCH   2  26
TORSDOF 9
