REMARK  3 active torsions:
REMARK  status: ('A' for Active; 'I' for Inactive)
REMARK    1  A    between atoms: N_8  and  N_1 
REMARK    2  A    between atoms: C_9  and  N_2 
REMARK       I    between atoms: C_7  and  N_8 
REMARK       I    between atoms: N_10  and  C_7 
REMARK    3  A    between atoms: C_16  and  N_10 
ROOT
ATOM      1  N   UNL d   1       0.462   1.381   0.408  0.00  0.00    -0.247 N 
ATOM      2  N   UNL d   1      -1.143  -0.821   0.599  0.00  0.00    -0.308 N 
ATOM      3  C   UNL d   1      -1.744   0.344   0.076  0.00  0.00     0.244 C 
ATOM      4  C   UNL d   1       1.103   0.189   0.709  0.00  0.00     0.257 C 
ATOM      5  C   UNL d   1      -0.743   1.399  -0.415  0.00  0.00     0.255 C 
ATOM      6  C   UNL d   1       0.289  -1.029   0.322  0.00  0.00     0.236 C 
ATOM      7  O   UNL d   1       2.255   0.134   1.139  0.00  0.00    -0.270 OA
ATOM      8  O   UNL d   1      -2.953   0.530  -0.056  0.00  0.00    -0.271 OA
ENDROOT
BRANCH   1   9
ATOM      9  N   UNL d   1       1.281   2.547   0.380  0.00  0.00    -0.246 N 
ATOM     10  C   UNL d   1       1.703   3.073  -0.844  0.00  0.00     0.339 C 
ATOM     11  N   UNL d   1       2.619   4.091  -0.651  0.00  0.00    -0.308 N 
ATOM     12  O   UNL d   1       1.242   2.717  -1.922  0.00  0.00    -0.245 OA
ATOM     13  H   UNL d   1       3.108   4.101   0.232  0.00  0.00     0.170 HD
ATOM     14  H   UNL d   1       1.979   2.538   1.119  0.00  0.00     0.192 HD
BRANCH  11  15
ATOM     15  C   UNL d   1       2.906   5.152  -1.534  0.00  0.00     0.036 A 
ATOM     16  C   UNL d   1       2.208   5.379  -2.720  0.00  0.00     0.030 A 
ATOM     17  C   UNL d   1       2.413   6.556  -3.449  0.00  0.00     0.009 A 
ATOM     18  C   UNL d   1       3.323   7.520  -3.005  0.00  0.00    -0.062 A 
ATOM     19  C   UNL d   1       4.081   7.256  -1.861  0.00  0.00     0.009 A 
ATOM     20  C   UNL d   1       3.461   8.817  -3.744  0.00  0.00     0.048 C 
ATOM     21  C   UNL d   1       3.872   6.081  -1.131  0.00  0.00     0.030 A 
ENDBRANCH  11  15
ENDBRANCH   1   9
BRANCH   2  22
ATOM     22  C   UNL d   1      -1.897  -1.944   1.068  0.00  0.00     0.037 A 
ATOM     23  C   UNL d   1      -3.175  -2.251   0.577  0.00  0.00     0.031 A 
ATOM     24  C   UNL d   1      -3.872  -3.378   1.032  0.00  0.00     0.026 A 
ATOM     25  C   UNL d   1      -3.307  -4.205   1.994  0.00  0.00     0.034 A 
ATOM     26  C   UNL d   1      -2.051  -3.910   2.515  0.00  0.00     0.026 A 
ATOM     27 CL   UNL d   1      -4.157  -5.592   2.550  0.00  0.00    -0.084 Cl
ATOM     28  C   UNL d   1      -1.355  -2.790   2.050  0.00  0.00     0.031 A 
ENDBRANCH   2  22
TORSDOF 3
