REMARK  5 active torsions:
REMARK  status: ('A' for Active; 'I' for Inactive)
REMARK    1  A    between atoms: O_4  and  C_1 
REMARK    2  A    between atoms: C_9  and  C_1 
REMARK    3  A    between atoms: C_3  and  O_4 
REMARK    4  A    between atoms: O_5  and  C_9 
REMARK    5  A    between atoms: C_7  and  O_5 
ROOT
ATOM      1  C   UNL d   1       0.815   0.202   0.509  0.00  0.00     0.293 C 
ATOM      2  O   UNL d   1       1.591   0.234   1.459  0.00  0.00    -0.262 OA
ENDROOT
BRANCH   1   3
ATOM      3  O   UNL d   1       0.158  -0.935   0.063  0.00  0.00    -0.276 OA
BRANCH   3   4
ATOM      4  C   UNL d   1      -0.420  -1.770   1.045  0.00  0.00     0.096 A 
ATOM      5  C   UNL d   1      -0.506  -3.153   0.812  0.00  0.00     0.051 A 
ATOM      6  C   UNL d   1      -1.324  -3.976   1.643  0.00  0.00    -0.007 A 
ATOM      7  I   UNL d   1       0.596  -3.959  -0.819  0.00  0.00    -0.041 I 
ATOM      8  C   UNL d   1      -1.538  -5.369   1.470  0.00  0.00     0.013 A 
ATOM      9  C   UNL d   1      -2.015  -3.356   2.719  0.00  0.00    -0.025 A 
ATOM     10  C   UNL d   1      -2.404  -6.095   2.293  0.00  0.00     0.001 A 
ATOM     11  C   UNL d   1      -3.074  -5.460   3.327  0.00  0.00     0.001 A 
ATOM     12  C   UNL d   1      -2.871  -4.101   3.544  0.00  0.00     0.012 A 
ATOM     13  C   UNL d   1      -1.869  -1.984   2.958  0.00  0.00     0.015 A 
ATOM     14  C   UNL d   1      -1.091  -1.191   2.122  0.00  0.00     0.039 A 
ENDBRANCH   3   4
ENDBRANCH   1   3
BRANCH   1  15
ATOM     15  C   UNL d   1       0.386   1.438  -0.289  0.00  0.00     0.224 C 
ATOM     16  C   UNL d   1      -0.975   1.272  -0.965  0.00  0.00     0.051 C 
BRANCH  15  17
ATOM     17  O   UNL d   1       1.320   1.784  -1.303  0.00  0.00    -0.335 OA
BRANCH  17  18
ATOM     18  C   UNL d   1       2.277   2.720  -1.023  0.00  0.00     0.091 A 
ATOM     19  C   UNL d   1       3.505   2.600  -1.696  0.00  0.00     0.069 A 
ATOM     20  C   UNL d   1       4.531   3.527  -1.491  0.00  0.00     0.050 A 
ATOM     21 CL   UNL d   1       3.795   1.304  -2.805  0.00  0.00    -0.081 Cl
ATOM     22  C   UNL d   1       4.324   4.591  -0.620  0.00  0.00     0.035 A 
ATOM     23  C   UNL d   1       3.104   4.745   0.028  0.00  0.00     0.026 A 
ATOM     24 CL   UNL d   1       5.579   5.740  -0.357  0.00  0.00    -0.084 Cl
ATOM     25  C   UNL d   1       2.076   3.820  -0.181  0.00  0.00     0.040 A 
ENDBRANCH  17  18
ENDBRANCH  15  17
ENDBRANCH   1  15
TORSDOF 5
