REMARK  4 active torsions:
REMARK  status: ('A' for Active; 'I' for Inactive)
REMARK    1  A    between atoms: C_12  and  C_5 
REMARK    2  A    between atoms: S_10  and  C_8 
REMARK    3  A    between atoms: N_11  and  C_9 
REMARK    4  A    between atoms: C_13  and  S_10 
ROOT
ATOM      1  N   UNL d   1       1.774  -0.041  -0.051  0.00  0.00    -0.326 N 
ATOM      2  HN  UNL d   1       2.793  -0.035  -0.093  1.00  0.00     0.169 HD
ATOM      3  N   UNL d   1      -0.275   1.108   0.059  0.00  0.00    -0.322 N 
ATOM      4  HN  UNL d   1      -0.799   1.983   0.088  1.00  0.00     0.169 HD
ATOM      5  C   UNL d   1       1.055   1.077   0.003  0.00  0.00     0.088 A 
ATOM      6  N   UNL d   1      -0.260  -1.246   0.002  0.00  0.00    -0.313 N 
ATOM      7  HN  UNL d   1      -0.763  -2.133  -0.016  1.00  0.00     0.170 HD
ATOM      8  C   UNL d   1       1.066  -1.169  -0.046  0.00  0.00     0.147 A 
ATOM      9  C   UNL d   1      -0.873  -0.075   0.075  0.00  0.00     0.158 A 
ENDROOT
BRANCH   5  10
ATOM     10  C   UNL d   1       1.799   2.396   0.047  0.00  0.00     0.045 C 
ATOM     11  C   UNL d   1       2.665   2.486   1.304  0.00  0.00     0.017 C 
ATOM     12  C   UNL d   1       2.645   2.593  -1.210  0.00  0.00     0.017 C 
ENDBRANCH   5  10
BRANCH   9  13
ATOM     13  N   UNL d   1      -2.247  -0.076   0.172  0.00  0.00    -0.274 NA
ATOM     14  H   UNL d   1      -2.654  -0.925  -0.189  0.00  0.00     0.127 HD
ATOM     15  H   UNL d   1      -2.637   0.805  -0.139  0.00  0.00     0.127 HD
ENDBRANCH   9  13
BRANCH   8  16
ATOM     16  S   UNL d   1       2.040  -2.658   0.014  0.00  0.00    -0.094 SA
BRANCH  16  17
ATOM     17  C   UNL d   1       0.978  -3.800  -0.918  0.00  0.00     0.078 C 
ATOM     18  C   UNL d   1       1.701  -5.133  -1.055  0.00  0.00     0.016 C 
ENDBRANCH  16  17
ENDBRANCH   8  16
TORSDOF 4
