REMARK  5 active torsions:
REMARK  status: ('A' for Active; 'I' for Inactive)
REMARK    1  A    between atoms: N_6  and  C_1 
REMARK    2  A    between atoms: C_8  and  N_7 
REMARK    3  A    between atoms: C_9  and  C_8 
REMARK    4  A    between atoms: C_12  and  C_9 
REMARK    5  A    between atoms: O_17  and  C_9 
ROOT
ATOM      1  N   UNL d   1      -0.118   2.555   0.863  0.00  0.00     0.105 N 
ATOM      2  N   UNL d   1      -2.358   2.238   2.882  0.00  0.00     0.094 N 
ATOM      3  C   UNL d   1       0.028   1.853   2.149  0.00  0.00     0.304 C 
ATOM      4  C   UNL d   1      -1.228   3.511   0.932  0.00  0.00     0.304 C 
ATOM      5  C   UNL d   1      -1.274   1.261   2.718  0.00  0.00     0.302 C 
ATOM      6  C   UNL d   1      -2.519   3.063   1.674  0.00  0.00     0.302 C 
ENDROOT
BRANCH   1   7
ATOM      7  C   UNL d   1      -0.053   1.722  -0.359  0.00  0.00     0.290 C 
ATOM      8  C   UNL d   1      -1.101   0.625  -0.512  0.00  0.00    -0.009 C 
ATOM      9  C   UNL d   1      -0.505  -0.649  -0.365  0.00  0.00    -0.017 C 
ATOM     10  C   UNL d   1      -2.459   0.740  -0.768  0.00  0.00     0.010 C 
ATOM     11  C   UNL d   1      -1.284  -1.790  -0.305  0.00  0.00     0.013 C 
ATOM     12  C   UNL d   1       0.934  -0.485  -0.315  0.00  0.00    -0.017 A 
ATOM     13  C   UNL d   1      -2.671  -1.662  -0.445  0.00  0.00     0.001 C 
ATOM     14  C   UNL d   1      -3.249  -0.408  -0.702  0.00  0.00     0.001 C 
ATOM     15  C   UNL d   1       1.239   0.894  -0.376  0.00  0.00    -0.009 A 
ATOM     16  C   UNL d   1       1.948  -1.425  -0.233  0.00  0.00     0.013 A 
ATOM     17  C   UNL d   1       2.550   1.346  -0.370  0.00  0.00     0.010 A 
ATOM     18  C   UNL d   1       3.570   0.397  -0.290  0.00  0.00     0.001 A 
ATOM     19  C   UNL d   1       3.272  -0.975  -0.218  0.00  0.00     0.001 A 
ENDBRANCH   1   7
BRANCH   2  20
ATOM     20  C   UNL d   1      -2.214   3.018   4.116  0.00  0.00     0.309 C 
BRANCH  20  21
ATOM     21  C   UNL d   1      -3.492   3.780   4.571  0.00  0.00     0.179 C 
BRANCH  21  22
ATOM     22  C   UNL d   1      -4.785   2.979   4.551  0.00  0.00    -0.028 A 
ATOM     23  C   UNL d   1      -4.846   1.635   4.951  0.00  0.00     0.010 A 
ATOM     24  C   UNL d   1      -6.050   0.927   4.899  0.00  0.00     0.001 A 
ATOM     25  C   UNL d   1      -7.212   1.555   4.459  0.00  0.00     0.000 A 
ATOM     26  C   UNL d   1      -7.174   2.894   4.080  0.00  0.00     0.001 A 
ATOM     27  C   UNL d   1      -5.973   3.603   4.132  0.00  0.00     0.010 A 
ENDBRANCH  21  22
BRANCH  21  28
ATOM     28  O   UNL d   1      -3.269   4.276   5.895  0.00  0.00    -0.389 OA
ATOM     29  H   UNL d   1      -3.714   3.665   6.506  0.00  0.00     0.210 HD
ENDBRANCH  21  28
ENDBRANCH  20  21
ENDBRANCH   2  20
TORSDOF 5
