REMARK  6 active torsions:
REMARK  status: ('A' for Active; 'I' for Inactive)
REMARK    1  A    between atoms: N_2  and  C_1 
REMARK    2  A    between atoms: N_4  and  C_1 
REMARK    3  A    between atoms: C_3  and  N_2 
REMARK    4  A    between atoms: C_8  and  C_3 
REMARK    5  A    between atoms: C_9  and  C_3 
REMARK    6  A    between atoms: C_6  and  N_4 
ROOT
ATOM      1  N   UNL d   1       0.298  -0.914  -0.929  0.00  0.00    -0.354 N 
ATOM      2  H   UNL d   1      -0.402  -1.287  -0.310  0.00  0.00     0.163 HD
ENDROOT
BRANCH   1   3
ATOM      3  C   UNL d   1       0.823   0.291  -0.554  0.00  0.00     0.173 C 
ATOM      4  S   UNL d   1       2.143   1.049  -1.244  0.00  0.00    -0.041 SA
BRANCH   3   5
ATOM      5  N   UNL d   1       0.273   0.878   0.551  0.00  0.00    -0.333 N 
ATOM      6  H   UNL d   1       0.898   1.544   0.993  0.00  0.00     0.168 HD
BRANCH   5   7
ATOM      7  C   UNL d   1      -0.974   0.693   1.173  0.00  0.00     0.037 A 
ATOM      8  C   UNL d   1      -2.136   0.389   0.466  0.00  0.00     0.071 A 
ATOM      9  C   UNL d   1      -3.350   0.325   1.145  0.00  0.00     0.118 A 
ATOM     10  F   UNL d   1      -4.476   0.087   0.459  0.00  0.00    -0.206 F 
ATOM     11  C   UNL d   1      -3.423   0.532   2.519  0.00  0.00     0.042 A 
ATOM     12  C   UNL d   1      -2.262   0.822   3.229  0.00  0.00     0.005 A 
ATOM     13  C   UNL d   1      -1.044   0.926   2.552  0.00  0.00     0.029 A 
ENDBRANCH   5   7
ENDBRANCH   3   5
ENDBRANCH   1   3
BRANCH   1  14
ATOM     14  C   UNL d   1       0.989  -1.952  -1.706  0.00  0.00     0.150 C 
BRANCH  14  15
ATOM     15  C   UNL d   1       1.681  -2.904  -0.724  0.00  0.00    -0.031 A 
ATOM     16  C   UNL d   1       0.950  -3.629   0.233  0.00  0.00     0.009 A 
ATOM     17  C   UNL d   1       1.596  -4.468   1.145  0.00  0.00     0.001 A 
ATOM     18  C   UNL d   1       2.982  -4.601   1.105  0.00  0.00     0.000 A 
ATOM     19  C   UNL d   1       3.724  -3.896   0.164  0.00  0.00     0.001 A 
ATOM     20  C   UNL d   1       3.077  -3.051  -0.745  0.00  0.00     0.009 A 
ENDBRANCH  14  15
BRANCH  14  21
ATOM     21  C   UNL d   1       0.048  -2.616  -2.713  0.00  0.00    -0.031 A 
ATOM     22  C   UNL d   1      -0.946  -1.849  -3.353  0.00  0.00     0.009 A 
ATOM     23  C   UNL d   1      -1.744  -2.394  -4.359  0.00  0.00     0.001 A 
ATOM     24  C   UNL d   1      -1.556  -3.713  -4.760  0.00  0.00     0.000 A 
ATOM     25  C   UNL d   1      -0.574  -4.489  -4.149  0.00  0.00     0.001 A 
ATOM     26  C   UNL d   1       0.226  -3.943  -3.141  0.00  0.00     0.009 A 
ENDBRANCH  14  21
ENDBRANCH   1  14
TORSDOF 6
