REMARK  3 active torsions:
REMARK  status: ('A' for Active; 'I' for Inactive)
REMARK    1  A    between atoms: C_6  and  N_2 
REMARK    2  A    between atoms: C_7  and  C_6 
REMARK       I    between atoms: N_11  and  C_7 
REMARK    3  A    between atoms: C_13  and  N_11 
ROOT
ATOM      1  S   UNL d   1      -0.309  -0.984  -0.276  0.00  0.00     0.269 S 
ATOM      2  N   UNL d   1       1.211  -0.997   0.444  0.00  0.00    -0.228 N 
ATOM      3  C   UNL d   1       1.473   0.177   1.194  0.00  0.00     0.269 C 
ATOM      4  C   UNL d   1       0.247   0.989   1.283  0.00  0.00     0.056 A 
ATOM      5  C   UNL d   1      -0.804   0.464   0.545  0.00  0.00     0.095 A 
ATOM      6  O   UNL d   1      -0.170  -0.708  -1.681  0.00  0.00    -0.200 OA
ATOM      7  O   UNL d   1      -1.045  -2.107   0.261  0.00  0.00    -0.200 OA
ATOM      8  O   UNL d   1       2.545   0.480   1.680  0.00  0.00    -0.266 OA
ATOM      9  C   UNL d   1       0.087   2.157   2.011  0.00  0.00     0.018 A 
ATOM     10  C   UNL d   1      -2.055   1.052   0.511  0.00  0.00     0.026 A 
ATOM     11  C   UNL d   1      -1.167   2.775   1.992  0.00  0.00     0.001 A 
ATOM     12  C   UNL d   1      -2.231   2.224   1.252  0.00  0.00     0.002 A 
ENDROOT
BRANCH   2  13
ATOM     13  C   UNL d   1       2.266  -1.832  -0.134  0.00  0.00     0.248 C 
BRANCH  13  14
ATOM     14  C   UNL d   1       2.097  -3.332  -0.263  0.00  0.00     0.241 C 
ATOM     15  N   UNL d   1       1.093  -3.913   0.488  0.00  0.00    -0.326 N 
ATOM     16  H   UNL d   1       0.313  -3.321   0.769  0.00  0.00     0.169 HD
ATOM     17  O   UNL d   1       2.892  -3.958  -0.967  0.00  0.00    -0.271 OA
BRANCH  15  18
ATOM     18  C   UNL d   1       0.928  -5.296   0.726  0.00  0.00     0.034 A 
ATOM     19  C   UNL d   1       1.952  -6.231   0.544  0.00  0.00     0.031 A 
ATOM     20  C   UNL d   1       1.743  -7.583   0.836  0.00  0.00     0.026 A 
ATOM     21  C   UNL d   1       0.505  -8.007   1.306  0.00  0.00     0.034 A 
ATOM     22  C   UNL d   1      -0.525  -7.088   1.494  0.00  0.00     0.026 A 
ATOM     23 CL   UNL d   1       0.249  -9.670   1.666  0.00  0.00    -0.084 Cl
ATOM     24  C   UNL d   1      -0.310  -5.734   1.213  0.00  0.00     0.031 A 
ENDBRANCH  15  18
ENDBRANCH  13  14
ENDBRANCH   2  13
TORSDOF 3
