REMARK  6 active torsions:
REMARK  status: ('A' for Active; 'I' for Inactive)
REMARK    1  A    between atoms: C_11  and  C_5 
REMARK    2  A    between atoms: N_7  and  C_11 
REMARK    3  A    between atoms: C_12  and  N_7 
REMARK    4  A    between atoms: C_8  and  C_9 
REMARK    5  A    between atoms: C_9  and  C_12 
REMARK    6  A    between atoms: O_10  and  C_9 
ROOT
ATOM      1  N   UNL d   1       3.478  -0.232  -2.227  0.00  0.00     0.088 N 
ATOM      2  H   UNL d   1       3.433  -1.180  -1.848  0.00  0.00     0.316 HD
ENDROOT
BRANCH   1   3
ATOM      3  C   UNL d   1       2.308   0.518  -1.753  0.00  0.00     0.304 C 
BRANCH   3   4
ATOM      4  C   UNL d   1       2.263   0.711  -0.219  0.00  0.00     0.181 C 
ATOM      5  O   UNL d   1       1.069   1.445   0.129  0.00  0.00    -0.339 OA
ATOM      6  C   UNL d   1      -0.033   0.630   0.209  0.00  0.00     0.102 A 
ATOM      7  C   UNL d   1       0.047  -0.766   0.261  0.00  0.00     0.102 A 
ATOM      8  C   UNL d   1      -1.276   1.258   0.208  0.00  0.00     0.039 A 
ATOM      9  C   UNL d   1      -1.115  -1.533   0.263  0.00  0.00     0.039 A 
ATOM     10  O   UNL d   1       1.237  -1.450   0.276  0.00  0.00    -0.346 OA
ATOM     11  C   UNL d   1      -2.361  -0.904   0.246  0.00  0.00     0.003 A 
ATOM     12  C   UNL d   1      -2.441   0.490   0.226  0.00  0.00     0.003 A 
ATOM     13  C   UNL d   1       2.324  -0.577   0.598  0.00  0.00     0.210 C 
ENDBRANCH   3   4
ENDBRANCH   1   3
BRANCH   1  14
ATOM     14  C   UNL d   1       3.487  -0.352  -3.696  0.00  0.00     0.306 C 
BRANCH  14  15
ATOM     15  C   UNL d   1       3.614   0.961  -4.517  0.00  0.00     0.179 C 
BRANCH  15  16
ATOM     16  C   UNL d   1       4.783   1.858  -4.160  0.00  0.00    -0.028 A 
ATOM     17  C   UNL d   1       6.040   1.343  -3.809  0.00  0.00     0.010 A 
ATOM     18  C   UNL d   1       7.099   2.198  -3.495  0.00  0.00     0.001 A 
ATOM     19  C   UNL d   1       6.921   3.578  -3.540  0.00  0.00     0.000 A 
ATOM     20  C   UNL d   1       5.684   4.107  -3.905  0.00  0.00     0.001 A 
ATOM     21  C   UNL d   1       4.625   3.253  -4.218  0.00  0.00     0.010 A 
ENDBRANCH  15  16
BRANCH  15  22
ATOM     22  O   UNL d   1       3.694   0.606  -5.903  0.00  0.00    -0.389 OA
ATOM     23  H   UNL d   1       4.541   0.945  -6.242  0.00  0.00     0.210 HD
ENDBRANCH  15  22
ENDBRANCH  14  15
ENDBRANCH   1  14
TORSDOF 6
