REMARK  7 active torsions:
REMARK  status: ('A' for Active; 'I' for Inactive)
REMARK       I    between atoms: N_2  and  C_1 
REMARK       I    between atoms: N_4  and  C_1 
REMARK    1  A    between atoms: C_6  and  C_3 
REMARK    2  A    between atoms: C_10  and  N_4 
REMARK    3  A    between atoms: C_7  and  C_6 
REMARK       I    between atoms: N_9  and  C_7 
REMARK    4  A    between atoms: C_8  and  N_9 
REMARK    5  A    between atoms: C_30  and  C_23 
REMARK    6  A    between atoms: C_31  and  C_30 
REMARK    7  A    between atoms: C_32  and  C_31 
ROOT
ATOM      1  C   UNL d   1       1.103   0.132  -0.070  0.00  0.00     0.323 C 
ATOM      2  N   UNL d   1       0.445  -0.595   0.919  0.00  0.00    -0.318 N 
ATOM      3  C   UNL d   1       1.030  -0.825   2.286  0.00  0.00     0.189 C 
ATOM      4  N   UNL d   1       0.369   0.330  -1.223  0.00  0.00    -0.308 N 
ATOM      5  C   UNL d   1       1.445  -2.309   2.431  0.00  0.00     0.241 C 
ATOM      6  N   UNL d   1       0.525  -3.236   1.980  0.00  0.00    -0.358 N 
ATOM      7  O   UNL d   1       2.228   0.606   0.101  0.00  0.00    -0.247 OA
ATOM      8  O   UNL d   1       2.421  -2.708   3.052  0.00  0.00    -0.271 OA
ATOM      9  C   UNL d   1      -0.665  -1.522   0.613  0.00  0.00     0.148 C 
ATOM     10  C   UNL d   1      -0.226  -2.983   0.772  0.00  0.00     0.142 C 
ATOM     11  H   UNL d   1      -0.621   0.435  -1.067  0.00  0.00     0.170 HD
ATOM     12  H   UNL d   1       0.833  -4.185   2.154  0.00  0.00     0.162 HD
ENDROOT
BRANCH   3  13
ATOM     13  C   UNL d   1       2.147   0.099   2.838  0.00  0.00     0.138 C 
BRANCH  13  14
ATOM     14  C   UNL d   1       2.377  -0.203   4.327  0.00  0.00     0.224 C 
ATOM     15  N   UNL d   1       3.699  -0.255   4.745  0.00  0.00    -0.326 N 
ATOM     16  H   UNL d   1       4.412   0.065   4.097  0.00  0.00     0.169 HD
ATOM     17  O   UNL d   1       1.401  -0.355   5.074  0.00  0.00    -0.273 OA
BRANCH  15  18
ATOM     18  C   UNL d   1       4.197  -0.819   5.964  0.00  0.00     0.058 A 
ATOM     19  C   UNL d   1       3.376  -1.518   6.866  0.00  0.00     0.055 A 
ATOM     20  C   UNL d   1       3.926  -2.161   7.983  0.00  0.00     0.036 A 
ATOM     21 CL   UNL d   1       2.886  -2.956   9.105  0.00  0.00    -0.084 Cl
ATOM     22  C   UNL d   1       5.299  -2.160   8.212  0.00  0.00     0.026 A 
ATOM     23  C   UNL d   1       6.125  -1.433   7.357  0.00  0.00     0.028 A 
ATOM     24  C   UNL d   1       5.573  -0.744   6.263  0.00  0.00     0.060 A 
ATOM     25 CL   UNL d   1       6.633   0.260   5.334  0.00  0.00    -0.082 Cl
ENDBRANCH  15  18
ENDBRANCH  13  14
ENDBRANCH   3  13
BRANCH   4  26
ATOM     26  C   UNL d   1       0.859   0.977  -2.386  0.00  0.00     0.042 A 
ATOM     27  C   UNL d   1       0.104   1.979  -3.020  0.00  0.00    -0.035 A 
ATOM     28  C   UNL d   1       0.503   2.446  -4.290  0.00  0.00     0.016 A 
ATOM     29  C   UNL d   1      -1.078   2.663  -2.389  0.00  0.00     0.050 C 
ATOM     30  C   UNL d   1       1.644   1.941  -4.928  0.00  0.00    -0.058 A 
ATOM     31  C   UNL d   1       2.425   1.002  -4.251  0.00  0.00     0.009 A 
ATOM     32  C   UNL d   1       2.043   0.527  -2.986  0.00  0.00     0.031 A 
BRANCH  30  33
ATOM     33  C   UNL d   1       2.000   2.420  -6.317  0.00  0.00     0.038 C 
BRANCH  33  34
ATOM     34  C   UNL d   1       2.033   1.315  -7.380  0.00  0.00     0.004 C 
BRANCH  34  35
ATOM     35  C   UNL d   1       0.691   0.599  -7.563  0.00  0.00    -0.004 C 
ATOM     36  C   UNL d   1       0.789  -0.475  -8.636  0.00  0.00     0.005 C 
ENDBRANCH  34  35
ENDBRANCH  33  34
ENDBRANCH  30  33
ENDBRANCH   4  26
TORSDOF 7
