REMARK  5 active torsions:
REMARK  status: ('A' for Active; 'I' for Inactive)
REMARK    1  A    between atoms: S_2  and  C_1 
REMARK    2  A    between atoms: N_14  and  S_2 
REMARK    3  A    between atoms: C_11  and  C_5 
REMARK    4  A    between atoms: C_10  and  C_19 
REMARK    5  A    between atoms: C_19  and  N_14 
ROOT
ATOM      1  N   UNL d   1      -2.773  -2.698  -1.453  0.00  0.00    -0.209 NA
ATOM      2  H   UNL d   1      -3.520  -3.384  -1.385  0.00  0.00     0.140 HD
ENDROOT
BRANCH   1   3
ATOM      3  S   UNL d   1      -2.779  -1.763  -0.049  0.00  0.00     0.258 S 
ATOM      4  O   UNL d   1      -2.833  -2.695   1.059  0.00  0.00    -0.204 OA
ATOM      5  O   UNL d   1      -3.773  -0.725  -0.208  0.00  0.00    -0.204 OA
BRANCH   3   6
ATOM      6  C   UNL d   1      -1.254  -0.936   0.117  0.00  0.00     0.160 A 
ATOM      7  N   UNL d   1      -0.764  -0.042  -0.825  0.00  0.00    -0.341 N 
ATOM      8  C   UNL d   1       0.400   0.347  -0.356  0.00  0.00     0.183 A 
ATOM      9  HN  UNL d   1      -1.212   0.249  -1.694  1.00  0.00     0.167 HD
ATOM     10  N   UNL d   1       0.690  -0.260   0.832  0.00  0.00    -0.354 N 
ATOM     11  C   UNL d   1      -0.351  -1.079   1.154  0.00  0.00     0.134 A 
ATOM     12  C   UNL d   1       1.897  -0.067   1.595  0.00  0.00     0.156 C 
ENDBRANCH   3   6
ENDBRANCH   1   3
BRANCH   1  13
ATOM     13  C   UNL d   1      -2.783  -1.925  -2.707  0.00  0.00     0.162 C 
BRANCH  13  14
ATOM     14  C   UNL d   1      -2.754  -2.877  -3.871  0.00  0.00     0.030 A 
ATOM     15  N   UNL d   1      -1.717  -2.790  -4.795  0.00  0.00    -0.351 N 
ATOM     16  C   UNL d   1      -1.871  -3.675  -5.763  0.00  0.00     0.091 A 
ATOM     17  HN  UNL d   1      -0.941  -2.131  -4.733  1.00  0.00     0.166 HD
ATOM     18  S   UNL d   1      -3.270  -4.667  -5.605  0.00  0.00    -0.081 SA
ATOM     19  C   UNL d   1      -3.693  -3.847  -4.166  0.00  0.00     0.078 A 
BRANCH  16  20
ATOM     20  C   UNL d   1      -0.928  -3.771  -6.856  0.00  0.00     0.038 A 
ATOM     21  S   UNL d   1      -1.105  -4.859  -8.177  0.00  0.00    -0.099 SA
ATOM     22  C   UNL d   1       0.337  -4.322  -8.918  0.00  0.00     0.050 A 
ATOM     23  C   UNL d   1       0.954  -3.334  -8.188  0.00  0.00     0.008 A 
ATOM     24  C   UNL d   1       0.225  -3.017  -7.004  0.00  0.00     0.022 A 
ENDBRANCH  16  20
ENDBRANCH  13  14
ENDBRANCH   1  13
TORSDOF 5
