REMARK  4 active torsions:
REMARK  status: ('A' for Active; 'I' for Inactive)
REMARK    1  A    between atoms: C_4  and  S_1 
REMARK    2  A    between atoms: N_8  and  S_1 
REMARK       I    between atoms: C_2  and  N_3 
REMARK    3  A    between atoms: C_7  and  C_2 
REMARK    4  A    between atoms: N_3  and  C_14 
ROOT
ATOM      1  C   UNL d   1      -0.274  -0.970   1.205  0.00  0.00     0.074 A 
ATOM      2  C   UNL d   1      -0.485  -0.403   2.461  0.00  0.00     0.027 A 
ATOM      3  C   UNL d   1      -0.056  -2.342   1.076  0.00  0.00     0.027 A 
ATOM      4  C   UNL d   1      -0.297  -2.607   3.479  0.00  0.00     0.035 A 
ATOM      5  C   UNL d   1      -0.488  -1.222   3.595  0.00  0.00     0.031 A 
ATOM      6  C   UNL d   1      -0.065  -3.155   2.215  0.00  0.00     0.031 A 
ENDROOT
BRANCH   4   7
ATOM      7  N   UNL d   1      -0.360  -3.366   4.667  0.00  0.00    -0.323 N 
ATOM      8  C   UNL d   1      -0.278  -4.743   4.787  0.00  0.00     0.256 C 
ATOM      9  O   UNL d   1      -0.116  -5.553   3.882  0.00  0.00    -0.267 OA
ATOM     10  H   UNL d   1      -0.449  -2.834   5.521  0.00  0.00     0.169 HD
BRANCH   8  11
ATOM     11  C   UNL d   1      -0.347  -5.254   6.185  0.00  0.00     0.032 A 
ATOM     12  C   UNL d   1      -1.165  -4.663   7.156  0.00  0.00     0.017 A 
ATOM     13  C   UNL d   1      -1.125  -5.127   8.474  0.00  0.00     0.007 A 
ATOM     14  C   UNL d   1      -0.282  -6.189   8.830  0.00  0.00    -0.062 A 
ATOM     15  C   UNL d   1       0.493  -6.808   7.842  0.00  0.00     0.007 A 
ATOM     16  C   UNL d   1      -0.178  -6.617  10.264  0.00  0.00     0.048 C 
ATOM     17  C   UNL d   1       0.454  -6.349   6.525  0.00  0.00     0.017 A 
ENDBRANCH   8  11
ENDBRANCH   4   7
BRANCH   1  18
ATOM     18  S   UNL d   1      -0.332   0.041  -0.244  0.00  0.00     0.239 S 
ATOM     19  O   UNL d   1      -0.455   1.427   0.142  0.00  0.00    -0.206 OA
ATOM     20  O   UNL d   1      -1.210  -0.580  -1.207  0.00  0.00    -0.206 OA
BRANCH  18  21
ATOM     21  N   UNL d   1       1.223  -0.113  -0.860  0.00  0.00    -0.225 NA
ATOM     22  H   UNL d   1       1.697   0.789  -0.823  0.00  0.00     0.136 HD
ATOM     23  H   UNL d   1       1.181  -0.516  -1.797  0.00  0.00     0.136 HD
ENDBRANCH  18  21
ENDBRANCH   1  18
TORSDOF 4
