REMARK  2 active torsions:
REMARK  status: ('A' for Active; 'I' for Inactive)
REMARK    1  A    between atoms: C_3  and  N_1 
REMARK    2  A    between atoms: N_2  and  C_6 
ROOT
ATOM      1  C   UNL d   1       0.086   1.017   0.564  0.00  0.00     0.103 A 
ATOM      2  C   UNL d   1      -1.426   3.083   1.750  0.00  0.00     0.030 A 
ATOM      3  C   UNL d   1       0.339   2.345   0.218  0.00  0.00     0.038 A 
ATOM      4  C   UNL d   1      -0.923   0.706   1.480  0.00  0.00     0.038 A 
ATOM      5  C   UNL d   1      -0.421   3.359   0.806  0.00  0.00     0.032 A 
ATOM      6  C   UNL d   1      -1.665   1.740   2.069  0.00  0.00     0.032 A 
ENDROOT
BRANCH   2   7
ATOM      7  N   UNL d   1      -2.075   4.134   2.367  0.00  0.00    -0.378 N 
ATOM      8  C   UNL d   1      -2.623   4.019   3.725  0.00  0.00     0.153 C 
ATOM      9  C   UNL d   1      -2.571   5.412   4.401  0.00  0.00     0.291 C 
ATOM     10  N   UNL d   1      -3.276   6.461   3.626  0.00  0.00     0.087 N 
ATOM     11  C   UNL d   1      -2.742   6.501   2.243  0.00  0.00     0.291 C 
ATOM     12  C   UNL d   1      -3.114   7.765   4.268  0.00  0.00     0.310 C 
ATOM     13  C   UNL d   1      -2.783   5.125   1.538  0.00  0.00     0.153 C 
ENDBRANCH   2   7
BRANCH   1  14
ATOM     14  N   UNL d   1       0.898  -0.052  -0.026  0.00  0.00    -0.116 N 
ATOM     15  O   UNL d   1       1.800   0.271  -0.811  0.00  0.00    -0.532 OA
ATOM     16  O   UNL d   1       0.637  -1.222   0.299  0.00  0.00    -0.532 OA
ENDBRANCH   1  14
TORSDOF 2
