REMARK  5 active torsions:
REMARK  status: ('A' for Active; 'I' for Inactive)
REMARK    1  A    between atoms: C_2  and  S_1 
REMARK    2  A    between atoms: N_7  and  S_1 
REMARK    3  A    between atoms: C_8  and  C_3 
REMARK    4  A    between atoms: C_12  and  N_7 
REMARK    5  A    between atoms: O_13  and  C_8 
ROOT
ATOM      1  S   UNL d   1       0.975  -0.116   0.072  0.00  0.00     0.283 S 
ATOM      2  O   UNL d   1       2.317   0.431   0.091  0.00  0.00    -0.198 OA
ATOM      3  O   UNL d   1      -0.075   0.427   0.904  0.00  0.00    -0.198 OA
ENDROOT
BRANCH   1   4
ATOM      4  C   UNL d   1       1.211  -1.794   0.665  0.00  0.00     0.191 A 
ATOM      5  C   UNL d   1       1.692  -2.282   1.872  0.00  0.00     0.071 A 
ATOM      6  C   UNL d   1       1.555  -3.702   1.859  0.00  0.00     0.072 A 
ATOM      7  C   UNL d   1       1.040  -4.006   0.615  0.00  0.00     0.067 A 
ATOM      8  O   UNL d   1       0.878  -2.875  -0.113  0.00  0.00    -0.301 OA
ATOM      9  C   UNL d   1       0.609  -5.260  -0.042  0.00  0.00     0.078 C 
BRANCH   6  10
ATOM     10  C   UNL d   1       1.843  -4.659   2.908  0.00  0.00     0.295 C 
ATOM     11  O   UNL d   1       1.671  -5.867   2.791  0.00  0.00    -0.259 OA
BRANCH  10  12
ATOM     12  O   UNL d   1       2.303  -4.051   4.038  0.00  0.00    -0.322 OA
ATOM     13  C   UNL d   1       2.540  -4.949   5.119  0.00  0.00     0.213 C 
ENDBRANCH  10  12
ENDBRANCH   6  10
ENDBRANCH   1   4
BRANCH   1  14
ATOM     14  N   UNL d   1       0.418  -0.229  -1.562  0.00  0.00    -0.305 N 
ATOM     15  C   UNL d   1       1.240   0.570  -2.501  0.00  0.00     0.163 C 
BRANCH  14  16
ATOM     16  C   UNL d   1      -1.080  -0.175  -1.762  0.00  0.00     0.095 C 
ATOM     17  C   UNL d   1      -1.797  -1.407  -1.174  0.00  0.00     0.026 C 
ATOM     18  C   UNL d   1      -1.595  -2.688  -1.988  0.00  0.00     0.002 C 
ATOM     19  C   UNL d   1      -1.899  -2.523  -3.469  0.00  0.00     0.000 C 
ATOM     20  C   UNL d   1      -1.194  -1.307  -4.051  0.00  0.00     0.002 C 
ATOM     21  C   UNL d   1      -1.498  -0.049  -3.240  0.00  0.00     0.026 C 
ENDBRANCH  14  16
ENDBRANCH   1  14
TORSDOF 5
