REMARK  3 active torsions:
REMARK  status: ('A' for Active; 'I' for Inactive)
REMARK    1  A    between atoms: C_4  and  C_1 
REMARK    2  A    between atoms: C_6  and  N_2 
REMARK    3  A    between atoms: O_17  and  C_5 
ROOT
ATOM      1  N   UNL d   1      -4.081  -2.500   0.063  0.00  0.00    -0.365 N 
ATOM      2  HN  UNL d   1      -4.600  -1.642  -0.124  1.00  0.00     0.165 HD
ATOM      3  C   UNL d   1      -2.810  -2.452   0.315  0.00  0.00     0.102 C 
ENDROOT
BRANCH   1   4
ATOM      4  C   UNL d   1      -4.739  -3.745   0.049  0.00  0.00     0.032 A 
ATOM      5  C   UNL d   1      -4.432  -4.794   0.923  0.00  0.00     0.036 A 
ATOM      6  C   UNL d   1      -5.142  -6.002   0.886  0.00  0.00    -0.059 A 
ATOM      7  C   UNL d   1      -4.785  -7.130   1.810  0.00  0.00     0.048 C 
ATOM      8  C   UNL d   1      -6.202  -6.143  -0.019  0.00  0.00     0.013 A 
ATOM      9  C   UNL d   1      -6.546  -5.098  -0.883  0.00  0.00    -0.059 A 
ATOM     10  C   UNL d   1      -5.805  -3.908  -0.843  0.00  0.00     0.036 A 
ATOM     11  C   UNL d   1      -7.711  -5.253  -1.815  0.00  0.00     0.048 C 
ENDBRANCH   1   4
BRANCH   3  12
ATOM     12  C   UNL d   1      -2.092  -1.161   0.356  0.00  0.00     0.014 A 
ATOM     13  C   UNL d   1      -2.717   0.045   0.015  0.00  0.00     0.077 A 
ATOM     14  C   UNL d   1      -2.007   1.242   0.054  0.00  0.00     0.039 A 
ATOM     15  C   UNL d   1      -0.666   1.242   0.443  0.00  0.00     0.022 A 
ATOM     16  C   UNL d   1      -0.046   0.041   0.789  0.00  0.00     0.011 A 
ATOM     17  C   UNL d   1      -0.749  -1.164   0.747  0.00  0.00     0.034 A 
ATOM     18 BR   UNL d   1       1.768   0.045   1.322  0.00  0.00    -0.051 Br
BRANCH  13  19
ATOM     19  O   UNL d   1      -4.028   0.120  -0.370  0.00  0.00    -0.360 OA
ATOM     20  H   UNL d   1      -4.400  -0.791  -0.307  0.00  0.00     0.217 HD
ENDBRANCH  13  19
ENDBRANCH   3  12
TORSDOF 3
