REMARK  4 active torsions:
REMARK  status: ('A' for Active; 'I' for Inactive)
REMARK    1  A    between atoms: C_2  and  C_1 
REMARK       I    between atoms: N_5  and  C_1 
REMARK    2  A    between atoms: C_3  and  C_4 
REMARK    3  A    between atoms: O_10  and  C_3 
REMARK    4  A    between atoms: C_8  and  N_5 
ROOT
ATOM      1  C   UNL d   1       0.961   0.112  -0.169  0.00  0.00     0.245 C 
ATOM      2  N   UNL d   1       0.192  -0.531   0.777  0.00  0.00    -0.324 N 
ATOM      3  O   UNL d   1       0.567   0.715  -1.160  0.00  0.00    -0.268 OA
ATOM      4  H   UNL d   1       0.656  -0.876   1.608  0.00  0.00     0.169 HD
ENDROOT
BRANCH   2   5
ATOM      5  C   UNL d   1      -1.202  -0.754   0.713  0.00  0.00     0.035 A 
ATOM      6  C   UNL d   1      -1.975  -0.489  -0.421  0.00  0.00     0.031 A 
ATOM      7  C   UNL d   1      -3.345  -0.767  -0.431  0.00  0.00     0.021 A 
ATOM      8  C   UNL d   1      -3.951  -1.305   0.699  0.00  0.00     0.011 A 
ATOM      9  C   UNL d   1      -3.197  -1.572   1.839  0.00  0.00     0.021 A 
ATOM     10 BR   UNL d   1      -5.802  -1.684   0.681  0.00  0.00    -0.051 Br
ATOM     11  C   UNL d   1      -1.824  -1.302   1.842  0.00  0.00     0.031 A 
ENDBRANCH   2   5
BRANCH   1  12
ATOM     12  C   UNL d   1       2.415   0.024   0.120  0.00  0.00     0.081 C 
ATOM     13  C   UNL d   1       3.268   0.613  -0.732  0.00  0.00     0.086 C 
BRANCH  13  14
ATOM     14  C   UNL d   1       4.714   0.494  -0.498  0.00  0.00     0.165 C 
ATOM     15  O   UNL d   1       5.207  -0.096   0.446  0.00  0.00    -0.647 OA
BRANCH  14  16
ATOM     16  O   UNL d   1       5.436   1.108  -1.453  0.00  0.00    -0.773 OA
ATOM     17  H   UNL d   1       4.924   1.541  -2.161  0.00  0.00     0.167 HD
ENDBRANCH  14  16
ENDBRANCH  13  14
ENDBRANCH   1  12
TORSDOF 4
