REMARK  1 active torsions:
REMARK  status: ('A' for Active; 'I' for Inactive)
REMARK    1  A    between atoms: C_6  and  N_1 
ROOT
ATOM      1  N   UNL d   1      -2.263   0.164  -0.092  0.00  0.00    -0.236 N 
ATOM      2  C   UNL d   1      -1.621   1.195   0.547  0.00  0.00     0.238 A 
ATOM      3  C   UNL d   1      -1.485  -0.945  -0.286  0.00  0.00     0.238 A 
ATOM      4  C   UNL d   1      -0.225   0.739   0.898  0.00  0.00     0.100 A 
ATOM      5  C   UNL d   1      -0.109  -0.654   0.236  0.00  0.00     0.100 A 
ATOM      6  C   UNL d   1       0.875   1.554   0.190  0.00  0.00     0.022 C 
ATOM      7  C   UNL d   1       0.955  -0.422  -0.863  0.00  0.00     0.022 C 
ATOM      8  C   UNL d   1       2.214   0.920   0.516  0.00  0.00    -0.025 C 
ATOM      9  C   UNL d   1       2.270  -0.255  -0.133  0.00  0.00    -0.025 C 
ATOM     10  C   UNL d   1       0.752   1.048  -1.253  0.00  0.00     0.018 C 
ATOM     11  O   UNL d   1      -1.772  -1.989  -0.858  0.00  0.00    -0.272 OA
ATOM     12  O   UNL d   1      -2.051   2.310   0.803  0.00  0.00    -0.272 OA
ENDROOT
BRANCH   1  13
ATOM     13  C   UNL d   1      -3.643   0.160  -0.331  0.00  0.00     0.123 A 
ATOM     14  N   UNL d   1      -4.378  -0.687   0.432  0.00  0.00    -0.351 N 
ATOM     15  C   UNL d   1      -5.716  -0.688   0.262  0.00  0.00     0.089 A 
ATOM     16  HN  UNL d   1      -3.933  -1.303   1.112  1.00  0.00     0.166 HD
ATOM     17  C   UNL d   1      -6.374   0.112  -0.651  0.00  0.00     0.018 A 
ATOM     18  C   UNL d   1      -5.610   0.958  -1.444  0.00  0.00     0.012 A 
ATOM     19  C   UNL d   1      -4.216   0.996  -1.298  0.00  0.00    -0.017 A 
ATOM     20  C   UNL d   1      -3.434   1.875  -2.228  0.00  0.00     0.052 C 
ENDBRANCH   1  13
TORSDOF 1
