REMARK  3 active torsions:
REMARK  status: ('A' for Active; 'I' for Inactive)
REMARK    1  A    between atoms: C_2  and  S_1 
REMARK    2  A    between atoms: N_3  and  S_1 
REMARK    3  A    between atoms: C_16  and  C_6 
ROOT
ATOM      1  N   UNL d   1       0.399  -1.269   0.921  0.00  0.00    -0.203 NA
ATOM      2  C   UNL d   1      -0.911  -3.796   1.461  0.00  0.00    -0.049 C 
ATOM      3  C   UNL d   1      -1.632  -2.679   1.263  0.00  0.00    -0.004 C 
ATOM      4  C   UNL d   1      -1.083  -1.326   0.946  0.00  0.00     0.135 C 
ATOM      5  C   UNL d   1       1.071  -2.545   0.545  0.00  0.00     0.112 C 
ATOM      6  C   UNL d   1       0.591  -3.713   1.413  0.00  0.00     0.054 C 
ENDROOT
BRANCH   1   7
ATOM      7  S   UNL d   1       1.001   0.074   0.034  0.00  0.00     0.244 S 
ATOM      8  O   UNL d   1       2.443   0.116   0.149  0.00  0.00    -0.206 OA
ATOM      9  O   UNL d   1       0.369   0.046  -1.268  0.00  0.00    -0.206 OA
BRANCH   7  10
ATOM     10  C   UNL d   1       0.354   1.470   0.943  0.00  0.00     0.085 A 
ATOM     11  C   UNL d   1       0.623   1.665   2.316  0.00  0.00    -0.017 A 
ATOM     12  C   UNL d   1       0.009   2.769   2.949  0.00  0.00     0.044 A 
ATOM     13  C   UNL d   1       1.498   0.747   3.131  0.00  0.00     0.052 C 
ATOM     14 CL   UNL d   1       0.222   3.082   4.638  0.00  0.00    -0.084 Cl
ATOM     15  C   UNL d   1      -0.810   3.651   2.242  0.00  0.00     0.066 A 
ATOM     16  C   UNL d   1      -1.033   3.442   0.892  0.00  0.00     0.119 A 
ATOM     17  C   UNL d   1      -0.466   2.363   0.234  0.00  0.00     0.067 A 
ATOM     18  F   UNL d   1      -1.818   4.289   0.215  0.00  0.00    -0.206 F 
ENDBRANCH   7  10
ENDBRANCH   1   7
BRANCH   2  19
ATOM     19  C   UNL d   1      -1.568  -5.091   1.754  0.00  0.00    -0.030 A 
ATOM     20  C   UNL d   1      -2.808  -5.421   1.177  0.00  0.00     0.012 A 
ATOM     21  C   UNL d   1      -3.447  -6.628   1.470  0.00  0.00     0.001 A 
ATOM     22  C   UNL d   1      -2.846  -7.540   2.331  0.00  0.00     0.000 A 
ATOM     23  C   UNL d   1      -1.605  -7.247   2.890  0.00  0.00     0.001 A 
ATOM     24  C   UNL d   1      -0.970  -6.034   2.602  0.00  0.00     0.012 A 
ENDBRANCH   2  19
TORSDOF 3
