REMARK  7 active torsions:
REMARK  status: ('A' for Active; 'I' for Inactive)
REMARK    1  A    between atoms: N_12  and  S_1 
REMARK    2  A    between atoms: C_28  and  S_1 
REMARK    3  A    between atoms: C_2  and  C_5 
REMARK    4  A    between atoms: C_6  and  N_3 
REMARK    5  A    between atoms: N_4  and  C_7 
REMARK    6  A    between atoms: C_20  and  N_12 
REMARK    7  A    between atoms: C_30  and  C_28 
ROOT
ATOM      1  N   UNL d   1       2.712  -2.973   8.767  0.00  0.00    -0.364 N 
ATOM      2  N   UNL d   1       1.846  -1.687   6.423  0.00  0.00    -0.364 N 
ATOM      3  C   UNL d   1       0.943  -2.651   7.072  0.00  0.00     0.144 C 
ATOM      4  C   UNL d   1       2.715  -0.963   7.372  0.00  0.00     0.144 C 
ATOM      5  C   UNL d   1       3.597  -1.989   8.122  0.00  0.00     0.144 C 
ATOM      6  C   UNL d   1       1.812  -3.682   7.840  0.00  0.00     0.144 C 
ENDROOT
BRANCH   2   7
ATOM      7  C   UNL d   1       1.446  -1.070   5.259  0.00  0.00     0.103 A 
ATOM      8  C   UNL d   1       2.411  -0.477   4.438  0.00  0.00     0.050 A 
ATOM      9  C   UNL d   1       2.060   0.051   3.203  0.00  0.00     0.029 A 
ATOM     10  C   UNL d   1       0.738  -0.015   2.804  0.00  0.00     0.038 A 
ATOM     11  C   UNL d   1      -0.178  -0.584   3.675  0.00  0.00     0.114 A 
ATOM     12  N   UNL d   1       0.153  -1.137   4.869  0.00  0.00    -0.351 N 
ATOM     13  HN  UNL d   1      -0.551  -1.589   5.453  1.00  0.00     0.166 HD
BRANCH  10  14
ATOM     14  N   UNL d   1       0.332   0.567   1.563  0.00  0.00    -0.184 NA
ATOM     15  H   UNL d   1       1.001   0.376   0.811  0.00  0.00     0.146 HD
BRANCH  14  16
ATOM     16  S   UNL d   1       0.117   2.256   1.614  0.00  0.00     0.213 S 
ATOM     17  O   UNL d   1       1.129   2.793   0.730  0.00  0.00    -0.211 OA
ATOM     18  O   UNL d   1      -0.021   2.698   2.983  0.00  0.00    -0.211 OA
BRANCH  16  19
ATOM     19  C   UNL d   1      -1.472   2.385   0.812  0.00  0.00     0.157 C 
BRANCH  19  20
ATOM     20  C   UNL d   1      -1.913   3.838   0.707  0.00  0.00     0.012 C 
ATOM     21  C   UNL d   1      -3.260   3.956   0.017  0.00  0.00     0.006 C 
ENDBRANCH  19  20
ENDBRANCH  16  19
ENDBRANCH  14  16
ENDBRANCH  10  14
ENDBRANCH   2   7
BRANCH   1  22
ATOM     22  C   UNL d   1       3.091  -3.515   9.973  0.00  0.00     0.103 A 
ATOM     23  N   UNL d   1       4.364  -3.355  10.398  0.00  0.00    -0.352 N 
ATOM     24  C   UNL d   1       4.695  -3.781  11.641  0.00  0.00     0.106 A 
ATOM     25  HN  UNL d   1       5.063  -2.921   9.794  1.00  0.00     0.166 HD
ATOM     26  C   UNL d   1       3.803  -4.360  12.525  0.00  0.00     0.063 A 
ATOM     27  C   UNL d   1       2.493  -4.529  12.083  0.00  0.00     0.021 A 
ATOM     28  C   UNL d   1       2.142  -4.109  10.799  0.00  0.00     0.049 A 
BRANCH  26  29
ATOM     29  C   UNL d   1       4.214  -4.755  13.904  0.00  0.00     0.418 C 
ATOM     30  F   UNL d   1       5.541  -4.568  14.158  0.00  0.00    -0.166 F 
ATOM     31  F   UNL d   1       3.550  -4.053  14.866  0.00  0.00    -0.166 F 
ATOM     32  F   UNL d   1       3.967  -6.067  14.167  0.00  0.00    -0.166 F 
ENDBRANCH  26  29
ENDBRANCH   1  22
TORSDOF 7
