REMARK  6 active torsions:
REMARK  status: ('A' for Active; 'I' for Inactive)
REMARK    1  A    between atoms: N_5  and  S_1 
REMARK    2  A    between atoms: C_7  and  S_1 
REMARK    3  A    between atoms: C_8  and  N_2 
REMARK    4  A    between atoms: C_3  and  C_4 
REMARK       I    between atoms: C_4  and  N_6 
REMARK    5  A    between atoms: N_6  and  N_5 
REMARK    6  A    between atoms: O_26  and  C_20 
ROOT
ATOM      1  C   UNL d   1       0.486  -1.690   3.554  0.00  0.00     0.283 C 
ATOM      2  N   UNL d   1       0.803  -1.395   2.230  0.00  0.00    -0.272 N 
ATOM      3  O   UNL d   1       0.948  -2.727   4.031  0.00  0.00    -0.265 OA
ATOM      4  H   UNL d   1       1.654  -1.859   1.908  0.00  0.00     0.185 HD
ENDROOT
BRANCH   2   5
ATOM      5  N   UNL d   1       0.470  -0.107   1.587  0.00  0.00    -0.123 NA
ATOM      6  H   UNL d   1      -0.246  -0.202   0.860  0.00  0.00     0.166 HD
BRANCH   5   7
ATOM      7  S   UNL d   1       1.812   0.774   0.973  0.00  0.00     0.258 S 
ATOM      8  O   UNL d   1       2.486  -0.121   0.055  0.00  0.00    -0.204 OA
ATOM      9  O   UNL d   1       2.494   1.396   2.081  0.00  0.00    -0.204 OA
BRANCH   7  10
ATOM     10  C   UNL d   1       1.001   2.045   0.040  0.00  0.00     0.076 A 
ATOM     11  C   UNL d   1       0.076   2.879   0.679  0.00  0.00     0.027 A 
ATOM     12  C   UNL d   1      -0.595   3.861  -0.058  0.00  0.00     0.038 A 
ATOM     13  C   UNL d   1      -0.336   4.010  -1.421  0.00  0.00     0.068 A 
ATOM     14  C   UNL d   1       0.617   3.196  -2.039  0.00  0.00     0.038 A 
ATOM     15  C   UNL d   1       1.282   2.203  -1.317  0.00  0.00     0.027 A 
BRANCH  13  16
ATOM     16  O   UNL d   1      -0.918   4.943  -2.236  0.00  0.00    -0.356 OA
ATOM     17  C   UNL d   1      -2.233   5.349  -1.874  0.00  0.00     0.210 C 
ENDBRANCH  13  16
ENDBRANCH   7  10
ENDBRANCH   5   7
ENDBRANCH   2   5
BRANCH   1  18
ATOM     18  C   UNL d   1      -0.354  -0.770   4.304  0.00  0.00     0.108 A 
ATOM     19  N   UNL d   1      -1.284  -1.100   5.298  0.00  0.00    -0.318 N 
ATOM     20  C   UNL d   1      -1.782   0.088   5.819  0.00  0.00     0.098 A 
ATOM     21  C   UNL d   1      -1.167   1.156   5.226  0.00  0.00     0.020 A 
ATOM     22  C   UNL d   1      -0.248   0.621   4.314  0.00  0.00     0.037 A 
BRANCH  19  23
ATOM     23  C   UNL d   1      -1.762  -2.377   5.728  0.00  0.00     0.039 A 
ATOM     24  C   UNL d   1      -2.230  -2.521   7.049  0.00  0.00     0.033 A 
ATOM     25  C   UNL d   1      -2.796  -3.722   7.477  0.00  0.00     0.044 A 
ATOM     26  C   UNL d   1      -2.897  -4.782   6.587  0.00  0.00     0.116 A 
ATOM     27  C   UNL d   1      -2.420  -4.667   5.285  0.00  0.00     0.044 A 
ATOM     28  F   UNL d   1      -3.470  -5.924   6.986  0.00  0.00    -0.206 F 
ATOM     29  C   UNL d   1      -1.847  -3.466   4.852  0.00  0.00     0.033 A 
ENDBRANCH  19  23
ENDBRANCH   1  18
TORSDOF 6
