REMARK  5 active torsions:
REMARK  status: ('A' for Active; 'I' for Inactive)
REMARK    1  A    between atoms: C_13  and  C_5 
REMARK    2  A    between atoms: C_11  and  N_18 
REMARK    3  A    between atoms: N_19  and  C_11 
REMARK    4  A    between atoms: N_15  and  C_13 
REMARK    5  A    between atoms: N_18  and  N_15 
ROOT
ATOM      1  C   UNL d   1       1.127  -0.944   0.059  0.00  0.00     0.137 A 
ATOM      2  N   UNL d   1       0.784   0.410   0.041  0.00  0.00    -0.260 N 
ATOM      3  C   UNL d   1       2.419  -1.313   0.028  0.00  0.00     0.096 A 
ATOM      4  C   UNL d   1       1.685   1.453   0.008  0.00  0.00     0.266 A 
ATOM      5  C   UNL d   1       3.135   1.029  -0.039  0.00  0.00     0.057 A 
ATOM      6  C   UNL d   1       3.472  -0.286   0.011  0.00  0.00    -0.020 A 
ATOM      7  N   UNL d   1      -0.013  -1.721   0.099  0.00  0.00    -0.339 N 
ATOM      8  C   UNL d   1      -0.633   0.484   0.021  0.00  0.00     0.071 A 
ATOM      9  C   UNL d   1      -1.103  -0.852   0.008  0.00  0.00     0.061 A 
ATOM     10  C   UNL d   1       2.735  -2.705   0.011  0.00  0.00     0.104 C 
ATOM     11  N   UNL d   1       2.981  -3.839  -0.009  0.00  0.00    -0.191 NA
ATOM     12  O   UNL d   1       1.400   2.650   0.007  0.00  0.00    -0.267 OA
ATOM     13  C   UNL d   1       4.884  -0.835   0.073  0.00  0.00     0.051 C 
ATOM     14  C   UNL d   1      -1.500   1.553   0.003  0.00  0.00     0.032 A 
ATOM     15  C   UNL d   1      -2.447  -1.146   0.015  0.00  0.00     0.032 A 
ATOM     16  C   UNL d   1      -2.872   1.262  -0.008  0.00  0.00     0.002 A 
ATOM     17  C   UNL d   1      -3.339  -0.070  -0.001  0.00  0.00     0.002 A 
ATOM     18  H   UNL d   1      -0.039  -2.703  -0.129  0.00  0.00     0.167 HD
ENDROOT
BRANCH   5  19
ATOM     19  C   UNL d   1       4.167   2.108  -0.105  0.00  0.00     0.124 C 
BRANCH  19  20
ATOM     20  N   UNL d   1       5.293   1.947  -0.722  0.00  0.00    -0.309 N 
ATOM     21  HN  UNL d   1       5.505   1.087  -1.227  1.00  0.00     0.186 HD
BRANCH  20  22
ATOM     22  N   UNL d   1       6.183   2.977  -0.668  0.00  0.00    -0.277 N 
ATOM     23  H   UNL d   1       5.953   3.851  -0.206  0.00  0.00     0.189 HD
BRANCH  22  24
ATOM     24  C   UNL d   1       7.444   2.812  -1.184  0.00  0.00     0.184 C 
ATOM     25  S   UNL d   1       8.600   3.996  -1.131  0.00  0.00    -0.040 SA
BRANCH  24  26
ATOM     26  N   UNL d   1       7.686   1.593  -1.729  0.00  0.00    -0.375 N 
ATOM     27  H   UNL d   1       6.904   0.952  -1.773  0.00  0.00     0.158 HD
ATOM     28  H   UNL d   1       8.563   1.371  -2.175  0.00  0.00     0.158 HD
ENDBRANCH  24  26
ENDBRANCH  22  24
ENDBRANCH  20  22
ENDBRANCH  19  20
ENDBRANCH   5  19
TORSDOF 5
