REMARK  2 active torsions:
REMARK  status: ('A' for Active; 'I' for Inactive)
REMARK    1  A    between atoms: C_2  and  C_1 
REMARK    2  A    between atoms: O_12  and  C_2 
ROOT
ATOM      1  C   UNL d   1      -1.492   0.265   0.113  0.00  0.00    -0.009 C 
ATOM      2  C   UNL d   1      -0.683   1.018   1.216  0.00  0.00     0.017 C 
ATOM      3  C   UNL d   1      -0.922   0.735  -1.264  0.00  0.00     0.017 C 
ATOM      4  C   UNL d   1      -1.182  -1.254   0.252  0.00  0.00     0.017 C 
ATOM      5  C   UNL d   1       0.826   0.737   1.103  0.00  0.00    -0.013 C 
ATOM      6  C   UNL d   1       0.586   0.453  -1.380  0.00  0.00    -0.013 C 
ATOM      7  C   UNL d   1       0.328  -1.532   0.139  0.00  0.00    -0.013 C 
ATOM      8  C   UNL d   1       1.329   1.206  -0.269  0.00  0.00     0.009 C 
ATOM      9  C   UNL d   1       1.070  -0.773   1.248  0.00  0.00     0.009 C 
ATOM     10  C   UNL d   1       0.832  -1.055  -1.231  0.00  0.00     0.009 C 
ENDROOT
BRANCH   1  11
ATOM     11  C   UNL d   1      -3.038   0.572   0.236  0.00  0.00     0.058 C 
ATOM     12  C   UNL d   1      -3.891  -0.113  -0.846  0.00  0.00     0.046 C 
ATOM     13  C   UNL d   1      -3.631   0.198   1.605  0.00  0.00     0.046 C 
BRANCH  11  14
ATOM     14  O   UNL d   1      -3.248   1.987   0.108  0.00  0.00    -0.390 OA
ATOM     15  H   UNL d   1      -3.093   2.237  -0.818  0.00  0.00     0.210 HD
ENDBRANCH  11  14
ENDBRANCH   1  11
TORSDOF 2
