REMARK  1 active torsions:
REMARK  status: ('A' for Active; 'I' for Inactive)
REMARK    1  A    between atoms: C_8  and  C_1 
ROOT
ATOM      1  C   UNL d   1       2.427  -0.547  -0.007  0.00  0.00     0.088 A 
ATOM      2  C   UNL d   1       2.474   0.792   0.005  0.00  0.00     0.062 A 
ATOM      3  C   UNL d   1       1.214   1.571   0.058  0.00  0.00     0.047 A 
ATOM      4  O   UNL d   1       1.276  -1.302   0.032  0.00  0.00    -0.309 OA
ATOM      5  C   UNL d   1      -0.036   0.761   0.024  0.00  0.00     0.019 A 
ATOM      6  C   UNL d   1       0.073  -0.635   0.021  0.00  0.00     0.088 A 
ATOM      7  S   UNL d   1       1.266   3.256   0.146  0.00  0.00    -0.079 SA
ATOM      8  C   UNL d   1      -1.315   1.341  -0.016  0.00  0.00     0.016 A 
ATOM      9  C   UNL d   1      -1.072  -1.436  -0.002  0.00  0.00     0.038 A 
ATOM     10  C   UNL d   1      -2.457   0.539  -0.048  0.00  0.00     0.001 A 
ATOM     11  C   UNL d   1      -2.337  -0.849  -0.037  0.00  0.00     0.003 A 
ENDROOT
BRANCH   1  12
ATOM     12  C   UNL d   1       3.681  -1.302  -0.077  0.00  0.00    -0.002 A 
ATOM     13  C   UNL d   1       4.363  -1.657   1.093  0.00  0.00     0.014 A 
ATOM     14  C   UNL d   1       5.622  -2.256   1.018  0.00  0.00     0.001 A 
ATOM     15  C   UNL d   1       6.205  -2.505  -0.225  0.00  0.00     0.000 A 
ATOM     16  C   UNL d   1       5.522  -2.173  -1.394  0.00  0.00     0.001 A 
ATOM     17  C   UNL d   1       4.263  -1.575  -1.322  0.00  0.00     0.014 A 
ENDBRANCH   1  12
TORSDOF 1
