REMARK  7 active torsions:
REMARK  status: ('A' for Active; 'I' for Inactive)
REMARK    1  A    between atoms: C_14  and  C_2 
REMARK    2  A    between atoms: C_5  and  O_11 
REMARK    3  A    between atoms: C_6  and  C_5 
REMARK    4  A    between atoms: O_11  and  N_9 
REMARK    5  A    between atoms: C_13  and  C_21 
REMARK    6  A    between atoms: N_22  and  C_13 
REMARK    7  A    between atoms: C_21  and  C_23 
ROOT
ATOM      1  N   UNL d   1       4.581  -5.733  -0.677  0.00  0.00    -0.245 N 
ATOM      2  HN  UNL d   1       4.527  -6.712  -0.397  1.00  0.00     0.196 HD
ATOM      3  C   UNL d   1       5.600  -5.206  -1.284  0.00  0.00     0.100 C 
ENDROOT
BRANCH   3   4
ATOM      4  C   UNL d   1       6.787  -6.120  -1.576  0.00  0.00     0.116 C 
BRANCH   4   5
ATOM      5  C   UNL d   1       6.710  -6.838  -2.905  0.00  0.00    -0.051 A 
ATOM      6  C   UNL d   1       7.725  -6.681  -3.859  0.00  0.00     0.008 A 
ATOM      7  C   UNL d   1       7.718  -7.430  -5.043  0.00  0.00     0.014 A 
ATOM      8  C   UNL d   1       6.697  -8.356  -5.301  0.00  0.00    -0.008 A 
ATOM      9  C   UNL d   1       5.667  -8.487  -4.360  0.00  0.00     0.014 A 
ATOM     10  C   UNL d   1       5.676  -7.742  -3.175  0.00  0.00     0.008 A 
BRANCH   8  11
ATOM     11  C   UNL d   1       6.691  -9.186  -6.501  0.00  0.00     0.063 A 
ATOM     12  N   UNL d   1       5.506  -9.719  -7.004  0.00  0.00    -0.292 N 
ATOM     13  N   UNL d   1       5.710 -10.459  -8.082  0.00  0.00    -0.061 NA
ATOM     14  HN  UNL d   1       4.588  -9.558  -6.590  1.00  0.00     0.183 HD
ATOM     15  S   UNL d   1       7.322 -10.550  -8.511  0.00  0.00    -0.010 SA
ATOM     16  C   UNL d   1       7.825  -9.549  -7.210  0.00  0.00     0.096 A 
ENDBRANCH   8  11
ENDBRANCH   4   5
ENDBRANCH   3   4
BRANCH   3  17
ATOM     17  N   UNL d   1       5.690  -3.889  -1.669  0.00  0.00    -0.387 N 
ATOM     18  H   UNL d   1       4.801  -3.401  -1.681  0.00  0.00     0.157 HD
ATOM     19  H   UNL d   1       6.280  -3.686  -2.468  0.00  0.00     0.157 HD
ENDBRANCH   3  17
BRANCH   1  20
ATOM     20  O   UNL d   1       3.557  -4.785  -0.451  0.00  0.00    -0.193 OA
BRANCH  20  21
ATOM     21  C   UNL d   1       2.544  -5.358   0.288  0.00  0.00     0.322 C 
ATOM     22  O   UNL d   1       2.537  -6.512   0.712  0.00  0.00    -0.257 OA
BRANCH  21  23
ATOM     23  C   UNL d   1       1.451  -4.420   0.513  0.00  0.00     0.082 A 
ATOM     24  S   UNL d   1       1.454  -2.813  -0.082  0.00  0.00    -0.096 SA
ATOM     25  C   UNL d   1      -0.089  -2.486   0.581  0.00  0.00     0.050 A 
ATOM     26  C   UNL d   1      -0.603  -3.573   1.253  0.00  0.00     0.009 A 
ATOM     27  C   UNL d   1       0.285  -4.684   1.215  0.00  0.00     0.026 A 
ENDBRANCH  21  23
ENDBRANCH  20  21
ENDBRANCH   1  20
TORSDOF 7
