REMARK  5 active torsions:
REMARK  status: ('A' for Active; 'I' for Inactive)
REMARK    1  A    between atoms: C_2  and  C_1 
REMARK    2  A    between atoms: N_10  and  C_2 
REMARK    3  A    between atoms: O_13  and  N_5 
REMARK    4  A    between atoms: S_11  and  C_7 
REMARK    5  A    between atoms: C_14  and  S_11 
ROOT
ATOM      1  C   UNL d   1       2.846   2.629   0.072  0.00  0.00     0.019 A 
ATOM      2  N   UNL d   1       4.826   4.037   0.052  0.00  0.00    -0.360 N 
ATOM      3  HN  UNL d   1       5.244   4.967   0.045  1.00  0.00     0.166 HD
ATOM      4  C   UNL d   1       5.591   2.924   0.053  0.00  0.00     0.069 A 
ATOM      5  C   UNL d   1       3.479   3.866   0.060  0.00  0.00     0.103 A 
ATOM      6  C   UNL d   1       3.658   1.495   0.072  0.00  0.00     0.019 A 
ATOM      7  C   UNL d   1       5.048   1.644   0.051  0.00  0.00     0.038 A 
ENDROOT
BRANCH   1   8
ATOM      8  C   UNL d   1       1.356   2.552   0.100  0.00  0.00     0.109 C 
ATOM      9  N   UNL d   1       0.678   3.666   0.103  0.00  0.00    -0.257 N 
ATOM     10  HN  UNL d   1       1.097   4.595   0.103  1.00  0.00     0.195 HD
BRANCH   9  11
ATOM     11  O   UNL d   1      -0.705   3.419   0.107  0.00  0.00    -0.289 OA
ATOM     12  H   UNL d   1      -1.072   4.320   0.170  0.00  0.00     0.244 HD
ENDBRANCH   9  11
BRANCH   8  13
ATOM     13  N   UNL d   1       0.727   1.328   0.123  0.00  0.00    -0.286 NA
ATOM     14  H   UNL d   1       1.103   0.618  -0.492  0.00  0.00     0.125 HD
ATOM     15  H   UNL d   1      -0.272   1.463  -0.026  0.00  0.00     0.125 HD
ENDBRANCH   8  13
ENDBRANCH   1   8
BRANCH   4  16
ATOM     16  S   UNL d   1       7.362   3.121   0.027  0.00  0.00    -0.113 SA
BRANCH  16  17
ATOM     17  C   UNL d   1       7.508   4.744   0.843  0.00  0.00     0.076 C 
ATOM     18  C   UNL d   1       8.967   5.154   0.930  0.00  0.00     0.016 C 
ENDBRANCH  16  17
ENDBRANCH   4  16
TORSDOF 5
