REMARK  4 active torsions:
REMARK  status: ('A' for Active; 'I' for Inactive)
REMARK    1  A    between atoms: S_13  and  C_3 
REMARK       I    between atoms: C_10  and  N_11 
REMARK       I    between atoms: N_15  and  C_10 
REMARK       I    between atoms: N_11  and  C_14 
REMARK    2  A    between atoms: C_18  and  S_13 
REMARK    3  A    between atoms: C_14  and  C_18 
REMARK    4  A    between atoms: C_19  and  N_15 
ROOT
ATOM      1  S   UNL d   1       0.572  -3.113   1.322  0.00  0.00    -0.083 SA
ENDROOT
BRANCH   1   2
ATOM      2  C   UNL d   1       0.949  -1.883   2.481  0.00  0.00     0.168 A 
ATOM      3  N   UNL d   1       0.175  -0.794   2.765  0.00  0.00    -0.268 N 
ATOM      4  C   UNL d   1       0.786  -0.203   3.833  0.00  0.00     0.173 A 
ATOM      5  C   UNL d   1      -0.995  -0.177   2.329  0.00  0.00     0.061 A 
ATOM      6  N   UNL d   1       1.885  -0.822   4.164  0.00  0.00    -0.277 N 
ATOM      7  S   UNL d   1      -0.064   1.169   4.449  0.00  0.00    -0.050 SA
ATOM      8  N   UNL d   1       1.992  -1.897   3.292  0.00  0.00    -0.277 N 
ATOM      9  HN  UNL d   1       2.532  -0.569   4.911  1.00  0.00     0.189 HD
ATOM     10  HN  UNL d   1       2.749  -2.581   3.278  1.00  0.00     0.189 HD
ATOM     11  C   UNL d   1      -1.290   0.918   3.163  0.00  0.00     0.035 A 
ATOM     12  C   UNL d   1      -2.429   1.676   2.948  0.00  0.00     0.021 A 
ATOM     13  C   UNL d   1      -3.256   1.337   1.873  0.00  0.00     0.002 A 
ATOM     14  C   UNL d   1      -2.937   0.257   1.031  0.00  0.00     0.002 A 
ATOM     15  C   UNL d   1      -1.796  -0.519   1.254  0.00  0.00     0.031 A 
ENDBRANCH   1   2
BRANCH   1  16
ATOM     16  C   UNL d   1       1.805  -4.366   1.798  0.00  0.00     0.185 C 
BRANCH  16  17
ATOM     17  C   UNL d   1       1.602  -5.710   1.121  0.00  0.00     0.235 C 
ATOM     18  N   UNL d   1       1.005  -5.688  -0.124  0.00  0.00    -0.278 N 
ATOM     19  C   UNL d   1       0.936  -6.689  -1.073  0.00  0.00     0.327 C 
ATOM     20  H   UNL d   1       0.634  -4.809  -0.461  0.00  0.00     0.173 HD
ATOM     21  N   UNL d   1       1.495  -7.883  -0.701  0.00  0.00    -0.309 N 
ATOM     22  O   UNL d   1       0.422  -6.417  -2.154  0.00  0.00    -0.247 OA
ATOM     23  H   UNL d   1       1.786  -7.938   0.273  0.00  0.00     0.170 HD
ATOM     24  O   UNL d   1       2.006  -6.752   1.641  0.00  0.00    -0.272 OA
BRANCH  21  25
ATOM     25  C   UNL d   1       1.726  -9.024  -1.491  0.00  0.00     0.036 A 
ATOM     26  C   UNL d   1       1.447  -9.098  -2.856  0.00  0.00     0.029 A 
ATOM     27  C   UNL d   1       1.749 -10.257  -3.579  0.00  0.00     0.002 A 
ATOM     28  C   UNL d   1       2.328 -11.352  -2.943  0.00  0.00     0.000 A 
ATOM     29  C   UNL d   1       2.604 -11.291  -1.579  0.00  0.00     0.002 A 
ATOM     30  C   UNL d   1       2.305 -10.133  -0.858  0.00  0.00     0.029 A 
ENDBRANCH  21  25
ENDBRANCH  16  17
ENDBRANCH   1  16
TORSDOF 4
