REMARK  2 active torsions:
REMARK  status: ('A' for Active; 'I' for Inactive)
REMARK    1  A    between atoms: O_14  and  C_6 
REMARK    2  A    between atoms: C_18  and  O_14 
ROOT
ATOM      1  C   UNL d   1       1.205   0.949   0.013  0.00  0.00     0.086 A 
ATOM      2  C   UNL d   1      -1.250   0.826  -0.001  0.00  0.00     0.088 A 
ATOM      3  C   UNL d   1      -0.699  -0.451   0.003  0.00  0.00     0.032 A 
ATOM      4  S   UNL d   1      -0.090   2.067  -0.002  0.00  0.00    -0.065 SA
ATOM      5  C   UNL d   1       0.743  -0.363   0.018  0.00  0.00     0.068 A 
ATOM      6  C   UNL d   1       2.578   1.175   0.011  0.00  0.00     0.168 A 
ATOM      7  N   UNL d   1      -2.559   1.147  -0.008  0.00  0.00    -0.354 N 
ATOM      8  HN  UNL d   1      -2.888   2.113  -0.011  1.00  0.00     0.166 HD
ATOM      9  C   UNL d   1      -1.612  -1.541  -0.002  0.00  0.00    -0.045 A 
ATOM     10  N   UNL d   1       3.421   0.122   0.075  0.00  0.00    -0.332 N 
ATOM     11  HN  UNL d   1       4.431   0.259   0.128  1.00  0.00     0.168 HD
ATOM     12  N   UNL d   1       1.598  -1.421   0.030  0.00  0.00    -0.350 N 
ATOM     13  HN  UNL d   1       1.272  -2.388   0.011  1.00  0.00     0.166 HD
ATOM     14  C   UNL d   1       2.891  -1.103   0.069  0.00  0.00     0.183 A 
ATOM     15  C   UNL d   1      -2.983  -1.228  -0.008  0.00  0.00     0.032 A 
ATOM     16  C   UNL d   1      -3.400   0.098  -0.009  0.00  0.00     0.006 A 
ATOM     17  C   UNL d   1      -1.226  -2.996  -0.004  0.00  0.00     0.049 C 
ATOM     18  C   UNL d   1      -4.870   0.408  -0.010  0.00  0.00     0.068 C 
ENDROOT
BRANCH   6  19
ATOM     19  O   UNL d   1       3.078   2.469   0.012  0.00  0.00    -0.292 OA
BRANCH  19  20
ATOM     20  C   UNL d   1       4.273   2.720  -0.623  0.00  0.00     0.078 A 
ATOM     21  C   UNL d   1       4.752   2.011  -1.729  0.00  0.00     0.039 A 
ATOM     22  C   UNL d   1       5.967   2.366  -2.321  0.00  0.00     0.026 A 
ATOM     23  C   UNL d   1       6.685   3.454  -1.829  0.00  0.00     0.034 A 
ATOM     24  C   UNL d   1       6.197   4.191  -0.752  0.00  0.00     0.026 A 
ATOM     25 CL   UNL d   1       8.176   3.894  -2.565  0.00  0.00    -0.084 Cl
ATOM     26  C   UNL d   1       4.990   3.824  -0.150  0.00  0.00     0.039 A 
ENDBRANCH  19  20
ENDBRANCH   6  19
TORSDOF 2
