REMARK  1 active torsions:
REMARK  status: ('A' for Active; 'I' for Inactive)
REMARK    1  A    between atoms: N_17  and  N_6 
ROOT
ATOM      1  C   UNL d   1       1.242   0.920  -0.023  0.00  0.00     0.104 A 
ATOM      2  C   UNL d   1       0.778  -0.371  -0.030  0.00  0.00     0.070 A 
ATOM      3  C   UNL d   1       2.639   1.249   0.014  0.00  0.00     0.283 A 
ATOM      4  N   UNL d   1       1.645  -1.469  -0.031  0.00  0.00    -0.343 N 
ATOM      5  HN  UNL d   1       1.303  -2.429  -0.082  1.00  0.00     0.167 HD
ATOM      6  N   UNL d   1       3.450   0.100   0.080  0.00  0.00    -0.232 N 
ATOM      7  S   UNL d   1      -0.013   2.053  -0.039  0.00  0.00    -0.064 SA
ATOM      8  C   UNL d   1      -0.650  -0.472  -0.032  0.00  0.00     0.032 A 
ATOM      9  C   UNL d   1      -1.195   0.815  -0.033  0.00  0.00     0.088 A 
ATOM     10  C   UNL d   1       2.917  -1.190   0.036  0.00  0.00     0.098 A 
ATOM     11  N   UNL d   1      -2.502   1.145  -0.029  0.00  0.00    -0.354 N 
ATOM     12  HN  UNL d   1      -2.826   2.112  -0.034  1.00  0.00     0.166 HD
ATOM     13  C   UNL d   1      -1.569  -1.554  -0.019  0.00  0.00    -0.045 A 
ATOM     14  O   UNL d   1       3.111   2.391  -0.010  0.00  0.00    -0.265 OA
ATOM     15  C   UNL d   1      -2.938  -1.230  -0.013  0.00  0.00     0.032 A 
ATOM     16  C   UNL d   1      -3.348   0.098  -0.017  0.00  0.00     0.006 A 
ATOM     17  C   UNL d   1       3.859  -2.375   0.049  0.00  0.00     0.091 C 
ATOM     18  C   UNL d   1      -1.199  -3.013  -0.012  0.00  0.00     0.049 C 
ATOM     19  C   UNL d   1      -4.817   0.410  -0.010  0.00  0.00     0.068 C 
ENDROOT
BRANCH   6  20
ATOM     20  N   UNL d   1       4.861   0.306   0.241  0.00  0.00    -0.238 NA
ATOM     21  H   UNL d   1       5.006   1.325   0.171  0.00  0.00     0.143 HD
ATOM     22  H   UNL d   1       5.335  -0.077  -0.575  0.00  0.00     0.143 HD
ENDBRANCH   6  20
TORSDOF 1
