REMARK  8 active torsions:
REMARK  status: ('A' for Active; 'I' for Inactive)
REMARK    1  A    between atoms: O_4  and  S_1 
REMARK    2  A    between atoms: C_5  and  S_1 
REMARK    3  A    between atoms: S_2  and  O_7 
REMARK    4  A    between atoms: C_6  and  S_2 
REMARK    5  A    between atoms: N_3  and  C_9 
REMARK    6  A    between atoms: C_8  and  O_4 
REMARK    7  A    between atoms: O_7  and  C_23 
REMARK    8  A    between atoms: C_23  and  C_15 
ROOT
ATOM      1  C   UNL d   1       0.947   2.346  -0.720  0.00  0.00     0.081 C 
ATOM      2  C   UNL d   1       1.573   4.856  -0.162  0.00  0.00    -0.017 C 
ATOM      3  C   UNL d   1       2.344   2.460  -0.067  0.00  0.00     0.040 C 
ATOM      4  C   UNL d   1       0.995   3.203  -2.014  0.00  0.00     0.040 C 
ATOM      5  C   UNL d   1      -0.118   3.003   0.177  0.00  0.00     0.040 C 
ATOM      6  C   UNL d   1       0.271   4.431   0.554  0.00  0.00     0.014 C 
ATOM      7  C   UNL d   1       2.698   3.902   0.282  0.00  0.00     0.014 C 
ATOM      8  C   UNL d   1       1.372   4.666  -1.683  0.00  0.00     0.014 C 
ENDROOT
BRANCH   1   9
ATOM      9  O   UNL d   1       0.592   0.985  -1.029  0.00  0.00    -0.261 OA
BRANCH   9  10
ATOM     10  S   UNL d   1       0.522  -0.115   0.191  0.00  0.00     0.298 S 
ATOM     11  O   UNL d   1      -0.583   0.230   1.071  0.00  0.00    -0.193 OA
ATOM     12  O   UNL d   1       1.856  -0.320   0.706  0.00  0.00    -0.193 OA
BRANCH  10  13
ATOM     13  C   UNL d   1       0.080  -1.679  -0.525  0.00  0.00     0.086 A 
ATOM     14  C   UNL d   1       0.962  -2.226  -1.458  0.00  0.00     0.028 A 
ATOM     15  C   UNL d   1       0.754  -3.520  -1.925  0.00  0.00     0.037 A 
ATOM     16  C   UNL d   1      -0.334  -4.265  -1.445  0.00  0.00     0.102 A 
ATOM     17  C   UNL d   1      -1.216  -3.722  -0.498  0.00  0.00     0.037 A 
ATOM     18  C   UNL d   1      -1.007  -2.419  -0.032  0.00  0.00     0.028 A 
BRANCH  16  19
ATOM     19  N   UNL d   1      -0.530  -5.634  -1.942  0.00  0.00    -0.116 N 
ATOM     20  O   UNL d   1       0.282  -6.065  -2.772  0.00  0.00    -0.532 OA
ATOM     21  O   UNL d   1      -1.498  -6.271  -1.505  0.00  0.00    -0.532 OA
ENDBRANCH  16  19
ENDBRANCH  10  13
ENDBRANCH   9  10
ENDBRANCH   1   9
BRANCH   2  22
ATOM     22  C   UNL d   1       1.950   6.306   0.189  0.00  0.00     0.200 C 
BRANCH  22  23
ATOM     23  O   UNL d   1       2.140   6.413   1.595  0.00  0.00    -0.271 OA
BRANCH  23  24
ATOM     24  S   UNL d   1       2.553   7.862   2.209  0.00  0.00     0.298 S 
ATOM     25  O   UNL d   1       3.873   8.189   1.715  0.00  0.00    -0.193 OA
ATOM     26  O   UNL d   1       1.431   8.763   2.024  0.00  0.00    -0.193 OA
BRANCH  24  27
ATOM     27  C   UNL d   1       2.698   7.581   3.960  0.00  0.00     0.086 A 
ATOM     28  C   UNL d   1       3.593   8.360   4.699  0.00  0.00     0.026 A 
ATOM     29  C   UNL d   1       3.736   8.131   6.068  0.00  0.00     0.008 A 
ATOM     30  C   UNL d   1       2.996   7.123   6.702  0.00  0.00    -0.062 A 
ATOM     31  C   UNL d   1       2.105   6.347   5.948  0.00  0.00     0.008 A 
ATOM     32  C   UNL d   1       3.170   6.889   8.175  0.00  0.00     0.048 C 
ATOM     33  C   UNL d   1       1.954   6.571   4.576  0.00  0.00     0.026 A 
ENDBRANCH  24  27
ENDBRANCH  23  24
ENDBRANCH  22  23
ENDBRANCH   2  22
TORSDOF 8
