REMARK  4 active torsions:
REMARK  status: ('A' for Active; 'I' for Inactive)
REMARK    1  A    between atoms: C_7  and  C_1 
REMARK    2  A    between atoms: N_9  and  C_2 
REMARK    3  A    between atoms: C_8  and  N_3 
REMARK       I    between atoms: N_11  and  C_7 
REMARK    4  A    between atoms: C_12  and  C_8 
ROOT
ATOM      1  C   UNL d   1      -0.731  -0.702  -0.074  0.00  0.00     0.159 A 
ATOM      2  C   UNL d   1       0.260  -0.072  -0.812  0.00  0.00     0.148 A 
ATOM      3  N   UNL d   1       1.097   0.448   0.153  0.00  0.00    -0.254 N 
ATOM      4  N   UNL d   1       0.673   0.122   1.394  0.00  0.00    -0.018 NA
ATOM      5  N   UNL d   1      -0.443  -0.580   1.267  0.00  0.00    -0.276 N 
ATOM      6  HN  UNL d   1      -0.996  -0.964   2.033  1.00  0.00     0.184 HD
ENDROOT
BRANCH   3   7
ATOM      7  C   UNL d   1       2.098   1.487  -0.010  0.00  0.00     0.187 C 
BRANCH   7   8
ATOM      8  C   UNL d   1       3.517   0.977  -0.093  0.00  0.00    -0.039 A 
ATOM      9  C   UNL d   1       4.289   1.228  -1.240  0.00  0.00     0.010 A 
ATOM     10  C   UNL d   1       5.651   0.917  -1.262  0.00  0.00     0.024 A 
ATOM     11  C   UNL d   1       6.251   0.348  -0.141  0.00  0.00     0.034 A 
ATOM     12  C   UNL d   1       5.492   0.054   0.989  0.00  0.00     0.024 A 
ATOM     13 CL   UNL d   1       7.944   0.041  -0.142  0.00  0.00    -0.084 Cl
ATOM     14  C   UNL d   1       4.129   0.364   1.012  0.00  0.00     0.010 A 
ENDBRANCH   7   8
ENDBRANCH   3   7
BRANCH   2  15
ATOM     15  N   UNL d   1       0.436   0.115  -2.143  0.00  0.00    -0.382 N 
ATOM     16  H   UNL d   1      -0.205  -0.378  -2.771  0.00  0.00     0.157 HD
ATOM     17  H   UNL d   1       1.372   0.170  -2.541  0.00  0.00     0.157 HD
ENDBRANCH   2  15
BRANCH   1  18
ATOM     18  C   UNL d   1      -1.914  -1.382  -0.571  0.00  0.00     0.270 C 
ATOM     19  O   UNL d   1      -2.154  -1.576  -1.759  0.00  0.00    -0.266 OA
ATOM     20  N   UNL d   1      -2.785  -1.796   0.400  0.00  0.00    -0.365 N 
ATOM     21  H   UNL d   1      -2.606  -1.593   1.376  0.00  0.00     0.159 HD
ATOM     22  H   UNL d   1      -3.649  -2.240   0.124  0.00  0.00     0.159 HD
ENDBRANCH   1  18
TORSDOF 4
