REMARK  7 active torsions:
REMARK  status: ('A' for Active; 'I' for Inactive)
REMARK    1  A    between atoms: C_3  and  S_1 
REMARK    2  A    between atoms: N_8  and  S_1 
REMARK       I    between atoms: C_2  and  N_7 
REMARK    3  A    between atoms: C_13  and  C_2 
REMARK    4  A    between atoms: O_21  and  C_6 
REMARK    5  A    between atoms: N_7  and  C_17 
REMARK    6  A    between atoms: O_22  and  C_9 
REMARK    7  A    between atoms: C_12  and  C_13 
ROOT
ATOM      1  C   UNL d   1      -1.889   5.868   1.714  0.00  0.00     0.226 C 
ATOM      2  N   UNL d   1      -1.088   5.680   2.831  0.00  0.00    -0.327 N 
ATOM      3  O   UNL d   1      -2.085   5.040   0.823  0.00  0.00    -0.273 OA
ATOM      4  H   UNL d   1      -1.161   6.373   3.566  0.00  0.00     0.169 HD
ENDROOT
BRANCH   2   5
ATOM      5  C   UNL d   1      -0.332   4.522   3.127  0.00  0.00     0.034 A 
ATOM      6  C   UNL d   1      -0.065   3.520   2.188  0.00  0.00     0.031 A 
ATOM      7  C   UNL d   1       0.628   2.362   2.550  0.00  0.00     0.027 A 
ATOM      8  C   UNL d   1       1.062   2.205   3.865  0.00  0.00     0.074 A 
ATOM      9  C   UNL d   1       0.850   3.215   4.806  0.00  0.00     0.027 A 
ATOM     10  C   UNL d   1       0.162   4.376   4.431  0.00  0.00     0.031 A 
BRANCH   8  11
ATOM     11  S   UNL d   1       1.858   0.700   4.338  0.00  0.00     0.239 S 
ATOM     12  O   UNL d   1       2.015   0.674   5.776  0.00  0.00    -0.206 OA
ATOM     13  O   UNL d   1       2.951   0.446   3.430  0.00  0.00    -0.206 OA
BRANCH  11  14
ATOM     14  N   UNL d   1       0.680  -0.451   4.000  0.00  0.00    -0.225 NA
ATOM     15  H   UNL d   1       0.313  -0.844   4.867  0.00  0.00     0.136 HD
ATOM     16  H   UNL d   1       1.053  -1.149   3.356  0.00  0.00     0.136 HD
ENDBRANCH  11  14
ENDBRANCH   8  11
ENDBRANCH   2   5
BRANCH   1  17
ATOM     17  C   UNL d   1      -2.595   7.212   1.671  0.00  0.00     0.141 C 
BRANCH  17  18
ATOM     18  C   UNL d   1      -3.914   7.265   2.412  0.00  0.00    -0.047 A 
ATOM     19  C   UNL d   1      -4.396   8.507   2.867  0.00  0.00     0.047 A 
ATOM     20  C   UNL d   1      -5.604   8.618   3.578  0.00  0.00     0.102 A 
ATOM     21  C   UNL d   1      -6.359   7.457   3.811  0.00  0.00     0.101 A 
ATOM     22  C   UNL d   1      -5.900   6.227   3.325  0.00  0.00     0.040 A 
ATOM     23  C   UNL d   1      -4.702   6.130   2.618  0.00  0.00     0.010 A 
BRANCH  20  24
ATOM     24  O   UNL d   1      -6.070   9.799   4.091  0.00  0.00    -0.353 OA
ATOM     25  C   UNL d   1      -5.329  10.985   3.838  0.00  0.00     0.210 C 
ENDBRANCH  20  24
BRANCH  21  26
ATOM     26  O   UNL d   1      -7.522   7.339   4.528  0.00  0.00    -0.353 OA
ATOM     27  C   UNL d   1      -8.389   8.463   4.564  0.00  0.00     0.210 C 
ENDBRANCH  21  26
ENDBRANCH  17  18
ENDBRANCH   1  17
TORSDOF 7
