REMARK  4 active torsions:
REMARK  status: ('A' for Active; 'I' for Inactive)
REMARK    1  A    between atoms: C_8  and  N_1 
REMARK    2  A    between atoms: C_9  and  C_4 
REMARK    3  A    between atoms: O_15  and  C_7 
REMARK    4  A    between atoms: O_18  and  C_9 
ROOT
ATOM      1  N   UNL d   1      -0.662   1.128  -0.001  0.00  0.00    -0.218 N 
ATOM      2  N   UNL d   1      -1.361  -0.056   0.115  0.00  0.00    -0.282 N 
ATOM      3  HN  UNL d   1      -2.376  -0.067   0.219  1.00  0.00     0.188 HD
ATOM      4  C   UNL d   1      -0.667  -1.159   0.085  0.00  0.00     0.155 A 
ATOM      5  C   UNL d   1       0.728   1.222  -0.061  0.00  0.00     0.269 A 
ATOM      6  C   UNL d   1       1.458  -0.064  -0.069  0.00  0.00     0.115 A 
ATOM      7  C   UNL d   1       0.815  -1.231  -0.002  0.00  0.00     0.105 A 
ATOM      8  O   UNL d   1       1.385   2.259  -0.056  0.00  0.00    -0.266 OA
ENDROOT
BRANCH   1   9
ATOM      9  C   UNL d   1      -1.488   2.283  -0.052  0.00  0.00     0.082 A 
ATOM     10  C   UNL d   1      -1.428   3.213  -1.106  0.00  0.00     0.064 A 
ATOM     11  C   UNL d   1      -2.266   4.333  -1.109  0.00  0.00     0.050 A 
ATOM     12 CL   UNL d   1      -0.465   2.953  -2.522  0.00  0.00    -0.082 Cl
ATOM     13  C   UNL d   1      -3.159   4.533  -0.059  0.00  0.00     0.035 A 
ATOM     14  C   UNL d   1      -3.236   3.618   0.988  0.00  0.00     0.026 A 
ATOM     15 CL   UNL d   1      -4.194   5.907  -0.069  0.00  0.00    -0.084 Cl
ATOM     16  C   UNL d   1      -2.415   2.487   0.983  0.00  0.00     0.035 A 
ENDBRANCH   1   9
BRANCH   4  17
ATOM     17  C   UNL d   1      -1.492  -2.459   0.122  0.00  0.00     0.198 C 
ATOM     18  O   UNL d   1      -1.038  -3.584   0.151  0.00  0.00    -0.645 OA
BRANCH  17  19
ATOM     19  O   UNL d   1      -2.812  -2.174   0.108  0.00  0.00    -0.772 OA
ATOM     20  H   UNL d   1      -2.934  -1.197   0.076  0.00  0.00     0.167 HD
ENDBRANCH  17  19
ENDBRANCH   4  17
BRANCH   7  21
ATOM     21  O   UNL d   1       1.466  -2.441   0.006  0.00  0.00    -0.358 OA
ATOM     22  H   UNL d   1       2.429  -2.307  -0.040  0.00  0.00     0.217 HD
ENDBRANCH   7  21
TORSDOF 4
