REMARK  3 active torsions:
REMARK  status: ('A' for Active; 'I' for Inactive)
REMARK    1  A    between atoms: C_6  and  C_1 
REMARK    2  A    between atoms: C_8  and  N_3 
REMARK    3  A    between atoms: C_7  and  C_6 
ROOT
ATOM      1  C   UNL d   1      -0.292  -1.186   0.032  0.00  0.00     0.044 A 
ATOM      2  C   UNL d   1       1.014  -0.697   0.021  0.00  0.00     0.027 A 
ATOM      3  N   UNL d   1       0.965   0.709  -0.025  0.00  0.00    -0.319 N 
ATOM      4  C   UNL d   1      -1.142  -0.057   0.089  0.00  0.00     0.042 A 
ATOM      5  C   UNL d   1      -0.375   1.087   0.016  0.00  0.00     0.014 A 
ATOM      6  C   UNL d   1       2.291  -1.465   0.173  0.00  0.00     0.070 C 
ATOM      7  C   UNL d   1      -0.896   2.479  -0.104  0.00  0.00     0.068 C 
ENDROOT
BRANCH   3   8
ATOM      8  C   UNL d   1       2.085   1.602  -0.102  0.00  0.00     0.039 A 
ATOM      9  C   UNL d   1       3.190   1.294  -0.907  0.00  0.00     0.031 A 
ATOM     10  C   UNL d   1       4.270   2.183  -0.996  0.00  0.00     0.026 A 
ATOM     11  C   UNL d   1       4.245   3.382  -0.290  0.00  0.00     0.034 A 
ATOM     12  C   UNL d   1       3.154   3.699   0.514  0.00  0.00     0.026 A 
ATOM     13 CL   UNL d   1       5.564   4.479  -0.413  0.00  0.00    -0.084 Cl
ATOM     14  C   UNL d   1       2.080   2.808   0.615  0.00  0.00     0.031 A 
ENDBRANCH   3   8
BRANCH   1  15
ATOM     15  C   UNL d   1      -0.787  -2.571   0.053  0.00  0.00     0.267 C 
ATOM     16  O   UNL d   1      -1.847  -2.818   0.644  0.00  0.00    -0.282 OA
BRANCH  15  17
ATOM     17  C   UNL d   1      -0.027  -3.676  -0.676  0.00  0.00     0.456 C 
ATOM     18  F   UNL d   1       0.916  -3.229  -1.554  0.00  0.00    -0.163 F 
ATOM     19  F   UNL d   1       0.622  -4.514   0.183  0.00  0.00    -0.163 F 
ATOM     20  F   UNL d   1      -0.860  -4.468  -1.415  0.00  0.00    -0.163 F 
ENDBRANCH  15  17
ENDBRANCH   1  15
TORSDOF 3
