REMARK  8 active torsions:
REMARK  status: ('A' for Active; 'I' for Inactive)
REMARK    1  A    between atoms: N_7  and  C_1 
REMARK    2  A    between atoms: C_8  and  C_2 
REMARK    3  A    between atoms: C_12  and  N_3 
REMARK       I    between atoms: C_10  and  N_7 
REMARK    4  A    between atoms: O_21  and  C_8 
REMARK    5  A    between atoms: C_16  and  N_9 
REMARK    6  A    between atoms: C_13  and  C_10 
REMARK    7  A    between atoms: N_11  and  C_13 
REMARK    8  A    between atoms: C_26  and  O_21 
ROOT
ATOM      1  C   UNL d   1       3.065  -0.833   1.099  0.00  0.00     0.147 A 
ATOM      2  C   UNL d   1       4.221  -1.238   1.755  0.00  0.00     0.102 A 
ATOM      3  N   UNL d   1       3.248   0.524   0.779  0.00  0.00    -0.239 N 
ATOM      4  N   UNL d   1       4.428   0.985   1.274  0.00  0.00    -0.302 N 
ATOM      5  HN  UNL d   1       4.787   1.938   1.231  1.00  0.00     0.186 HD
ATOM      6  C   UNL d   1       5.011  -0.072   1.823  0.00  0.00     0.129 A 
ENDROOT
BRANCH   1   7
ATOM      7  N   UNL d   1       1.947  -1.642   0.839  0.00  0.00    -0.309 N 
ATOM      8  C   UNL d   1       2.013  -2.650  -0.187  0.00  0.00     0.251 C 
ATOM      9  O   UNL d   1       3.071  -2.794  -0.789  0.00  0.00    -0.271 OA
ATOM     10  H   UNL d   1       1.079  -1.499   1.342  0.00  0.00     0.170 HD
BRANCH   8  11
ATOM     11  C   UNL d   1       0.736  -3.419  -0.571  0.00  0.00     0.375 C 
BRANCH  11  12
ATOM     12  N   UNL d   1      -0.463  -3.232   0.297  0.00  0.00     0.100 N 
ATOM     13  C   UNL d   1      -1.258  -2.004   0.027  0.00  0.00     0.292 C 
ATOM     14  C   UNL d   1      -1.927  -1.896  -1.364  0.00  0.00     0.153 C 
ATOM     15  N   UNL d   1      -2.789  -3.059  -1.615  0.00  0.00    -0.378 N 
ATOM     16  C   UNL d   1      -2.193  -4.367  -1.295  0.00  0.00     0.153 C 
ATOM     17  C   UNL d   1      -1.420  -4.372   0.058  0.00  0.00     0.292 C 
BRANCH  15  18
ATOM     18  C   UNL d   1      -4.155  -2.823  -1.453  0.00  0.00     0.030 A 
ATOM     19  C   UNL d   1      -4.940  -3.447  -0.477  0.00  0.00     0.029 A 
ATOM     20  C   UNL d   1      -6.299  -3.137  -0.329  0.00  0.00     0.002 A 
ATOM     21  C   UNL d   1      -6.908  -2.209  -1.170  0.00  0.00     0.000 A 
ATOM     22  C   UNL d   1      -6.157  -1.595  -2.165  0.00  0.00     0.002 A 
ATOM     23  C   UNL d   1      -4.799  -1.901  -2.300  0.00  0.00     0.029 A 
ENDBRANCH  15  18
ENDBRANCH  11  12
ENDBRANCH   8  11
ENDBRANCH   1   7
BRANCH   2  24
ATOM     24  C   UNL d   1       4.554  -2.522   2.332  0.00  0.00     0.298 C 
ATOM     25  O   UNL d   1       3.776  -3.473   2.350  0.00  0.00    -0.259 OA
BRANCH  24  26
ATOM     26  O   UNL d   1       5.787  -2.514   2.913  0.00  0.00    -0.318 OA
BRANCH  26  27
ATOM     27  C   UNL d   1       6.136  -3.628   3.751  0.00  0.00     0.174 C 
ATOM     28  C   UNL d   1       6.854  -4.705   2.963  0.00  0.00     0.034 C 
ENDBRANCH  26  27
ENDBRANCH  24  26
ENDBRANCH   2  24
BRANCH   3  29
ATOM     29  C   UNL d   1       2.427   1.426   0.034  0.00  0.00     0.058 A 
ATOM     30  C   UNL d   1       1.220   1.035  -0.549  0.00  0.00     0.031 A 
ATOM     31  C   UNL d   1       0.440   1.953  -1.260  0.00  0.00     0.002 A 
ATOM     32  C   UNL d   1       0.874   3.265  -1.424  0.00  0.00     0.000 A 
ATOM     33  C   UNL d   1       2.087   3.664  -0.874  0.00  0.00     0.002 A 
ATOM     34  C   UNL d   1       2.856   2.754  -0.144  0.00  0.00     0.031 A 
ENDBRANCH   3  29
TORSDOF 8
