REMARK  4 active torsions:
REMARK  status: ('A' for Active; 'I' for Inactive)
REMARK    1  A    between atoms: C_6  and  C_1 
REMARK    2  A    between atoms: N_2  and  C_8 
REMARK    3  A    between atoms: C_12  and  C_6 
REMARK    4  A    between atoms: C_21  and  C_13 
ROOT
ATOM      1  C   UNL d   1      -3.808  -0.036  -0.137  0.00  0.00     0.215 C 
ATOM      2  O   UNL d   1      -2.672  -0.071   0.333  0.00  0.00    -0.284 OA
ENDROOT
BRANCH   1   3
ATOM      3  C   UNL d   1      -4.379   1.154  -0.735  0.00  0.00     0.127 A 
ATOM      4  O   UNL d   1      -5.738   1.309  -0.749  0.00  0.00    -0.306 OA
ATOM      5  C   UNL d   1      -6.013   2.466  -1.400  0.00  0.00     0.086 A 
ATOM      6  C   UNL d   1      -7.292   2.959  -1.645  0.00  0.00     0.040 A 
ATOM      7  C   UNL d   1      -4.836   3.087  -1.800  0.00  0.00     0.003 A 
ATOM      8  C   UNL d   1      -7.372   4.157  -2.361  0.00  0.00     0.039 A 
ATOM      9  C   UNL d   1      -6.205   4.809  -2.795  0.00  0.00     0.103 A 
ATOM     10  C   UNL d   1      -4.922   4.292  -2.520  0.00  0.00     0.050 A 
ATOM     11  C   UNL d   1      -3.785   2.251  -1.333  0.00  0.00     0.055 A 
BRANCH   9  12
ATOM     12  N   UNL d   1      -6.324   6.058  -3.561  0.00  0.00    -0.116 N 
ATOM     13  O   UNL d   1      -5.278   6.600  -3.946  0.00  0.00    -0.532 OA
ATOM     14  O   UNL d   1      -7.463   6.494  -3.780  0.00  0.00    -0.532 OA
ENDBRANCH   9  12
ENDBRANCH   1   3
BRANCH   1  15
ATOM     15  C   UNL d   1      -4.618  -1.290  -0.126  0.00  0.00     0.017 A 
ATOM     16  C   UNL d   1      -4.441  -2.220   0.900  0.00  0.00     0.016 A 
ATOM     17  C   UNL d   1      -5.175  -3.415   0.903  0.00  0.00     0.013 A 
ATOM     18  C   UNL d   1      -6.102  -3.716  -0.115  0.00  0.00    -0.026 A 
ATOM     19  C   UNL d   1      -6.260  -2.764  -1.136  0.00  0.00     0.013 A 
ATOM     20  C   UNL d   1      -5.520  -1.579  -1.155  0.00  0.00     0.016 A 
BRANCH  18  21
ATOM     21  C   UNL d   1      -6.868  -4.986  -0.130  0.00  0.00    -0.026 A 
ATOM     22  C   UNL d   1      -7.205  -5.620  -1.342  0.00  0.00     0.012 A 
ATOM     23  C   UNL d   1      -7.931  -6.815  -1.369  0.00  0.00     0.001 A 
ATOM     24  C   UNL d   1      -8.327  -7.414  -0.179  0.00  0.00     0.000 A 
ATOM     25  C   UNL d   1      -8.005  -6.814   1.034  0.00  0.00     0.001 A 
ATOM     26  C   UNL d   1      -7.290  -5.611   1.056  0.00  0.00     0.012 A 
ENDBRANCH  18  21
ENDBRANCH   1  15
TORSDOF 4
