REMARK  4 active torsions:
REMARK  status: ('A' for Active; 'I' for Inactive)
REMARK    1  A    between atoms: N_2  and  S_1 
REMARK    2  A    between atoms: C_11  and  S_1 
REMARK       I    between atoms: C_4  and  N_2 
REMARK       I    between atoms: N_9  and  C_4 
REMARK    3  A    between atoms: C_5  and  N_9 
REMARK    4  A    between atoms: C_14  and  C_6 
ROOT
ATOM      1  N   UNL d   1       0.284   0.650  -1.346  0.00  0.00    -0.232 N 
ATOM      2  C   UNL d   1       0.467   1.924  -1.859  0.00  0.00     0.335 C 
ATOM      3  N   UNL d   1       1.287   2.793  -1.201  0.00  0.00    -0.292 N 
ATOM      4  O   UNL d   1      -0.079   2.312  -2.885  0.00  0.00    -0.246 OA
ATOM      5  H   UNL d   1       0.782   0.366  -0.504  0.00  0.00     0.183 HD
ATOM      6  H   UNL d   1       1.307   3.711  -1.620  0.00  0.00     0.172 HD
ENDROOT
BRANCH   1   7
ATOM      7  S   UNL d   1      -0.762  -0.475  -1.970  0.00  0.00     0.266 S 
ATOM      8  O   UNL d   1      -2.027   0.149  -2.283  0.00  0.00    -0.200 OA
ATOM      9  O   UNL d   1      -0.707  -1.617  -1.077  0.00  0.00    -0.200 OA
BRANCH   7  10
ATOM     10  C   UNL d   1       0.040  -0.956  -3.481  0.00  0.00     0.080 A 
ATOM     11  C   UNL d   1       1.069  -1.899  -3.433  0.00  0.00     0.026 A 
ATOM     12  C   UNL d   1       1.710  -2.281  -4.611  0.00  0.00     0.008 A 
ATOM     13  C   UNL d   1       1.324  -1.732  -5.841  0.00  0.00    -0.062 A 
ATOM     14  C   UNL d   1       0.266  -0.813  -5.881  0.00  0.00     0.008 A 
ATOM     15  C   UNL d   1       2.043  -2.138  -7.094  0.00  0.00     0.048 C 
ATOM     16  C   UNL d   1      -0.380  -0.425  -4.704  0.00  0.00     0.026 A 
ENDBRANCH   7  10
ENDBRANCH   1   7
BRANCH   3  17
ATOM     17  C   UNL d   1       2.129   2.562  -0.138  0.00  0.00     0.132 A 
ATOM     18  C   UNL d   1       2.953   3.565   0.419  0.00  0.00     0.086 A 
ATOM     19  C   UNL d   1       3.726   2.919   1.354  0.00  0.00     0.087 A 
ATOM     20  O   UNL d   1       3.322   1.616   1.415  0.00  0.00    -0.240 OA
ATOM     21  N   UNL d   1       2.320   1.393   0.479  0.00  0.00    -0.245 N 
ATOM     22  HN  UNL d   1       1.831   0.516   0.300  1.00  0.00     0.196 HD
BRANCH  19  23
ATOM     23  C   UNL d   1       4.863   3.349   2.248  0.00  0.00     0.000 C 
ATOM     24  C   UNL d   1       4.339   3.643   3.662  0.00  0.00     0.021 C 
ATOM     25  C   UNL d   1       5.944   2.256   2.321  0.00  0.00     0.021 C 
ATOM     26  C   UNL d   1       5.519   4.629   1.688  0.00  0.00     0.021 C 
ENDBRANCH  19  23
ENDBRANCH   3  17
TORSDOF 4
