REMARK  4 active torsions:
REMARK  status: ('A' for Active; 'I' for Inactive)
REMARK       I    between atoms: N_2  and  C_1 
REMARK    1  A    between atoms: C_3  and  C_1 
REMARK       I    between atoms: C_4  and  N_2 
REMARK       I    between atoms: N_7  and  C_4 
REMARK       I    between atoms: C_5  and  N_6 
REMARK    2  A    between atoms: C_8  and  C_5 
REMARK    3  A    between atoms: N_6  and  N_7 
REMARK    4  A    between atoms: O_17  and  C_14 
ROOT
ATOM      1  C   UNL d   1       0.629   3.935   2.515  0.00  0.00     0.261 C 
ATOM      2  N   UNL d   1       0.404   2.887   1.634  0.00  0.00    -0.274 N 
ATOM      3  C   UNL d   1       1.252   1.918   1.174  0.00  0.00     0.341 C 
ATOM      4  N   UNL d   1       2.564   1.989   1.542  0.00  0.00    -0.248 N 
ATOM      5  O   UNL d   1       1.714   4.199   3.011  0.00  0.00    -0.267 OA
ATOM      6  O   UNL d   1       0.817   1.029   0.440  0.00  0.00    -0.245 OA
ATOM      7  H   UNL d   1      -0.537   2.735   1.305  0.00  0.00     0.173 HD
ATOM      8  H   UNL d   1       2.896   2.647   2.250  0.00  0.00     0.192 HD
ENDROOT
BRANCH   4   9
ATOM      9  N   UNL d   1       3.417   0.950   1.136  0.00  0.00    -0.262 N 
ATOM     10  C   UNL d   1       4.771   1.204   1.042  0.00  0.00     0.270 C 
ATOM     11  O   UNL d   1       5.297   2.261   1.378  0.00  0.00    -0.266 OA
ATOM     12  H   UNL d   1       2.981   0.231   0.561  0.00  0.00     0.190 HD
BRANCH  10  13
ATOM     13  C   UNL d   1       5.600   0.102   0.483  0.00  0.00     0.036 A 
ATOM     14  C   UNL d   1       6.733   0.439  -0.272  0.00  0.00     0.053 A 
ATOM     15  C   UNL d   1       7.571  -0.561  -0.767  0.00  0.00     0.069 A 
ATOM     16  C   UNL d   1       7.278  -1.900  -0.488  0.00  0.00     0.037 A 
ATOM     17  C   UNL d   1       6.155  -2.242   0.268  0.00  0.00     0.004 A 
ATOM     18  C   UNL d   1       5.311  -1.242   0.752  0.00  0.00     0.017 A 
BRANCH  15  19
ATOM     19  O   UNL d   1       8.698  -0.365  -1.517  0.00  0.00    -0.356 OA
ATOM     20  C   UNL d   1       9.023   0.982  -1.840  0.00  0.00     0.210 C 
ENDBRANCH  15  19
ENDBRANCH  10  13
ENDBRANCH   4   9
BRANCH   1  21
ATOM     21  C   UNL d   1      -0.557   4.815   2.761  0.00  0.00     0.054 A 
ATOM     22  C   UNL d   1      -1.871   4.340   2.894  0.00  0.00     0.049 A 
ATOM     23 CL   UNL d   1      -2.268   2.658   2.960  0.00  0.00    -0.083 Cl
ATOM     24  C   UNL d   1      -2.937   5.239   3.006  0.00  0.00     0.025 A 
ATOM     25  C   UNL d   1      -2.702   6.613   3.010  0.00  0.00     0.002 A 
ATOM     26  C   UNL d   1      -1.397   7.093   2.926  0.00  0.00     0.001 A 
ATOM     27  C   UNL d   1      -0.327   6.200   2.806  0.00  0.00     0.019 A 
ENDBRANCH   1  21
TORSDOF 4
