REMARK  3 active torsions:
REMARK  status: ('A' for Active; 'I' for Inactive)
REMARK    1  A    between atoms: C_6  and  C_1 
REMARK    2  A    between atoms: C_8  and  N_3 
REMARK    3  A    between atoms: C_9  and  C_4 
REMARK       I    between atoms: N_7  and  C_6 
ROOT
ATOM      1  C   UNL d   1      -0.293   1.110  -0.005  0.00  0.00     0.057 C 
ATOM      2  C   UNL d   1       1.016   0.634   0.088  0.00  0.00     0.029 C 
ATOM      3  N   UNL d   1       1.000  -0.768   0.080  0.00  0.00    -0.314 N 
ATOM      4  C   UNL d   1      -0.342  -1.187   0.075  0.00  0.00     0.051 C 
ATOM      5  C   UNL d   1      -1.117  -0.040   0.086  0.00  0.00     0.050 C 
ATOM      6  C   UNL d   1       2.273   1.434   0.263  0.00  0.00     0.070 C 
ENDROOT
BRANCH   1   7
ATOM      7  C   UNL d   1      -0.700   2.525  -0.045  0.00  0.00     0.256 C 
ATOM      8  N   UNL d   1      -1.830   2.897  -0.785  0.00  0.00    -0.344 N 
ATOM      9  C   UNL d   1      -2.712   2.007  -1.551  0.00  0.00     0.152 C 
ATOM     10  C   UNL d   1      -2.368   4.246  -0.582  0.00  0.00     0.152 C 
ATOM     11  C   UNL d   1      -3.333   2.699  -2.773  0.00  0.00     0.187 C 
ATOM     12  O   UNL d   1      -3.915   3.963  -2.438  0.00  0.00    -0.388 OA
ATOM     13  C   UNL d   1      -2.918   4.832  -1.881  0.00  0.00     0.187 C 
ATOM     14  O   UNL d   1      -0.051   3.372   0.562  0.00  0.00    -0.267 OA
ENDBRANCH   1   7
BRANCH   3  15
ATOM     15  C   UNL d   1       2.156  -1.617   0.066  0.00  0.00     0.039 A 
ATOM     16  C   UNL d   1       2.188  -2.792   0.830  0.00  0.00     0.030 A 
ATOM     17  C   UNL d   1       3.225  -3.714   0.662  0.00  0.00     0.002 A 
ATOM     18  C   UNL d   1       4.263  -3.443  -0.224  0.00  0.00     0.000 A 
ATOM     19  C   UNL d   1       4.277  -2.242  -0.932  0.00  0.00     0.002 A 
ATOM     20  C   UNL d   1       3.225  -1.333  -0.794  0.00  0.00     0.030 A 
ENDBRANCH   3  15
BRANCH   4  21
ATOM     21  C   UNL d   1      -0.852  -2.576   0.055  0.00  0.00    -0.009 A 
ATOM     22  C   UNL d   1      -0.265  -3.585  -0.720  0.00  0.00     0.014 A 
ATOM     23  C   UNL d   1      -0.667  -4.918  -0.588  0.00  0.00     0.001 A 
ATOM     24  C   UNL d   1      -1.726  -5.247   0.253  0.00  0.00     0.000 A 
ATOM     25  C   UNL d   1      -2.397  -4.242   0.943  0.00  0.00     0.001 A 
ATOM     26  C   UNL d   1      -1.958  -2.917   0.850  0.00  0.00     0.014 A 
ENDBRANCH   4  21
TORSDOF 3
