REMARK  4 active torsions:
REMARK  status: ('A' for Active; 'I' for Inactive)
REMARK    1  A    between atoms: N_2  and  C_1 
REMARK    2  A    between atoms: N_3  and  C_1 
REMARK    3  A    between atoms: C_5  and  N_2 
REMARK    4  A    between atoms: N_7  and  N_3 
ROOT
ATOM      1  N   UNL d   1       0.480   0.016   1.171  0.00  0.00    -0.332 N 
ATOM      2  H   UNL d   1      -0.523  -0.115   1.114  0.00  0.00     0.168 HD
ENDROOT
BRANCH   1   3
ATOM      3  C   UNL d   1       1.091  -0.069  -0.060  0.00  0.00     0.186 C 
ATOM      4  S   UNL d   1       2.641  -0.597  -0.407  0.00  0.00    -0.040 SA
BRANCH   3   5
ATOM      5  N   UNL d   1       0.284   0.286  -1.124  0.00  0.00    -0.296 N 
ATOM      6  H   UNL d   1       0.746   0.266  -2.031  0.00  0.00     0.183 HD
BRANCH   5   7
ATOM      7  N   UNL d   1      -0.828   1.150  -0.948  0.00  0.00    -0.238 NA
ATOM      8  C   UNL d   1      -0.377   2.550  -1.026  0.00  0.00     0.135 C 
ATOM      9  C   UNL d   1      -1.830   0.897  -1.990  0.00  0.00     0.135 C 
ENDBRANCH   5   7
ENDBRANCH   3   5
ENDBRANCH   1   3
BRANCH   1  10
ATOM     10  C   UNL d   1       1.075   0.043   2.446  0.00  0.00     0.035 A 
ATOM     11  C   UNL d   1       2.259   0.743   2.686  0.00  0.00     0.053 A 
ATOM     12  C   UNL d   1       2.795   0.791   3.974  0.00  0.00     0.036 A 
ATOM     13 CL   UNL d   1       4.228   1.695   4.269  0.00  0.00    -0.084 Cl
ATOM     14  C   UNL d   1       2.164   0.129   5.024  0.00  0.00     0.024 A 
ATOM     15  C   UNL d   1       0.974  -0.558   4.795  0.00  0.00     0.004 A 
ATOM     16  C   UNL d   1       0.415  -0.579   3.510  0.00  0.00     0.029 A 
ENDBRANCH   1  10
TORSDOF 4
