REMARK  3 active torsions:
REMARK  status: ('A' for Active; 'I' for Inactive)
REMARK    1  A    between atoms: O_4  and  C_1 
REMARK    2  A    between atoms: C_5  and  C_1 
REMARK    3  A    between atoms: C_3  and  O_4 
ROOT
ATOM      1  C   UNL d   1      -1.871   0.165   1.099  0.00  0.00     0.051 A 
ATOM      2  C   UNL d   1      -1.145   1.140   0.390  0.00  0.00     0.097 A 
ATOM      3  C   UNL d   1      -3.302   0.129   1.038  0.00  0.00    -0.007 A 
ATOM      4  C   UNL d   1      -1.818   2.153  -0.288  0.00  0.00     0.039 A 
ATOM      5  C   UNL d   1      -3.954   1.148   0.295  0.00  0.00    -0.025 A 
ATOM      6  C   UNL d   1      -3.208   2.151  -0.339  0.00  0.00     0.015 A 
ATOM      7  I   UNL d   1      -0.785  -1.217   2.297  0.00  0.00    -0.041 I 
ATOM      8  C   UNL d   1      -4.140  -0.849   1.646  0.00  0.00     0.013 A 
ATOM      9  C   UNL d   1      -5.356   1.167   0.181  0.00  0.00     0.012 A 
ATOM     10  C   UNL d   1      -5.535  -0.820   1.512  0.00  0.00     0.001 A 
ATOM     11  C   UNL d   1      -6.141   0.189   0.781  0.00  0.00     0.001 A 
ENDROOT
BRANCH   2  12
ATOM     12  O   UNL d   1       0.270   1.131   0.406  0.00  0.00    -0.274 OA
BRANCH  12  13
ATOM     13  C   UNL d   1       0.922   1.288  -0.810  0.00  0.00     0.298 C 
ATOM     14  O   UNL d   1       0.406   1.426  -1.910  0.00  0.00    -0.259 OA
BRANCH  13  15
ATOM     15  C   UNL d   1       2.400   1.319  -0.635  0.00  0.00     0.041 A 
ATOM     16  C   UNL d   1       3.169   1.812  -1.702  0.00  0.00     0.043 A 
ATOM     17  C   UNL d   1       4.564   1.859  -1.613  0.00  0.00     0.056 A 
ATOM     18 CL   UNL d   1       5.435   2.488  -2.966  0.00  0.00    -0.083 Cl
ATOM     19  C   UNL d   1       5.201   1.405  -0.458  0.00  0.00     0.055 A 
ATOM     20  C   UNL d   1       4.440   0.903   0.605  0.00  0.00     0.026 A 
ATOM     21 CL   UNL d   1       6.920   1.429  -0.273  0.00  0.00    -0.083 Cl
ATOM     22  C   UNL d   1       3.042   0.860   0.520  0.00  0.00     0.019 A 
ENDBRANCH  13  15
ENDBRANCH  12  13
ENDBRANCH   2  12
TORSDOF 3
