REMARK  5 active torsions:
REMARK  status: ('A' for Active; 'I' for Inactive)
REMARK    1  A    between atoms: S_2  and  C_1 
REMARK    2  A    between atoms: S_3  and  C_1 
REMARK    3  A    between atoms: C_4  and  C_1 
REMARK    4  A    between atoms: C_5  and  S_2 
REMARK    5  A    between atoms: C_6  and  S_3 
ROOT
ATOM      1  C   UNL d   1       0.987   0.018   0.210  0.00  0.00     0.151 C 
ENDROOT
BRANCH   1   2
ATOM      2  S   UNL d   1       0.389  -0.646   1.825  0.00  0.00    -0.109 SA
BRANCH   2   3
ATOM      3  C   UNL d   1      -1.370  -0.782   1.595  0.00  0.00     0.002 A 
ATOM      4  C   UNL d   1      -1.949  -1.532   0.569  0.00  0.00     0.018 A 
ATOM      5  C   UNL d   1      -3.339  -1.657   0.486  0.00  0.00     0.001 A 
ATOM      6  C   UNL d   1      -4.157  -1.043   1.434  0.00  0.00     0.000 A 
ATOM      7  C   UNL d   1      -3.587  -0.308   2.470  0.00  0.00     0.001 A 
ATOM      8  C   UNL d   1      -2.200  -0.184   2.553  0.00  0.00     0.018 A 
ENDBRANCH   2   3
ENDBRANCH   1   2
BRANCH   1   9
ATOM      9  S   UNL d   1       0.249   1.667  -0.190  0.00  0.00    -0.109 SA
BRANCH   9  10
ATOM     10  C   UNL d   1       0.746   2.688   1.184  0.00  0.00     0.002 A 
ATOM     11  C   UNL d   1       2.079   3.042   1.407  0.00  0.00     0.018 A 
ATOM     12  C   UNL d   1       2.417   3.900   2.456  0.00  0.00     0.001 A 
ATOM     13  C   UNL d   1       1.423   4.427   3.278  0.00  0.00     0.000 A 
ATOM     14  C   UNL d   1       0.089   4.098   3.050  0.00  0.00     0.001 A 
ATOM     15  C   UNL d   1      -0.248   3.236   2.004  0.00  0.00     0.018 A 
ENDBRANCH   9  10
ENDBRANCH   1   9
BRANCH   1  16
ATOM     16  C   UNL d   1       2.511  -0.018   0.022  0.00  0.00    -0.034 A 
ATOM     17  C   UNL d   1       3.409  -0.407   1.032  0.00  0.00     0.009 A 
ATOM     18  C   UNL d   1       4.787  -0.468   0.800  0.00  0.00     0.001 A 
ATOM     19  C   UNL d   1       5.302  -0.130  -0.446  0.00  0.00     0.000 A 
ATOM     20  C   UNL d   1       4.439   0.270  -1.462  0.00  0.00     0.001 A 
ATOM     21  C   UNL d   1       3.060   0.318  -1.234  0.00  0.00     0.009 A 
ENDBRANCH   1  16
TORSDOF 5
