REMARK  1 active torsions:
REMARK  status: ('A' for Active; 'I' for Inactive)
REMARK    1  A    between atoms: O_12  and  N_8 
ROOT
ATOM      1  C   UNL d   1      -0.279   0.660  -0.019  0.00  0.00     0.013 A 
ATOM      2  C   UNL d   1      -0.301  -0.719   0.082  0.00  0.00     0.053 A 
ATOM      3  C   UNL d   1       0.967   1.428  -0.048  0.00  0.00     0.044 C 
ATOM      4  S   UNL d   1      -1.887  -1.350   0.121  0.00  0.00    -0.094 SA
ATOM      5  S   UNL d   1       1.106  -1.771   0.164  0.00  0.00    -0.121 SA
ATOM      6  C   UNL d   1      -1.613   1.187  -0.098  0.00  0.00     0.022 A 
ATOM      7  C   UNL d   1      -2.576   0.205  -0.028  0.00  0.00     0.052 A 
ATOM      8  N   UNL d   1       0.860   2.683  -0.373  0.00  0.00    -0.273 N 
ATOM      9  HN  UNL d   1      -0.023   3.136  -0.608  1.00  0.00     0.194 HD
ATOM     10  C   UNL d   1       2.262   0.730   0.330  0.00  0.00     0.070 C 
ATOM     11  C   UNL d   1       2.380  -0.600  -0.396  0.00  0.00     0.086 C 
ENDROOT
BRANCH   8  12
ATOM     12  O   UNL d   1       2.094   3.340  -0.365  0.00  0.00    -0.290 OA
ATOM     13  H   UNL d   1       1.857   4.240  -0.660  0.00  0.00     0.244 HD
ENDBRANCH   8  12
TORSDOF 1
