REMARK  4 active torsions:
REMARK  status: ('A' for Active; 'I' for Inactive)
REMARK    1  A    between atoms: C_8  and  N_1 
REMARK    2  A    between atoms: C_9  and  C_4 
REMARK    3  A    between atoms: C_10  and  C_6 
REMARK    4  A    between atoms: N_7  and  C_11 
ROOT
ATOM      1  N   UNL d   1       0.932  -0.718   0.029  0.00  0.00    -0.260 N 
ATOM      2  N   UNL d   1       0.912   0.617   0.308  0.00  0.00    -0.297 N 
ATOM      3  HN  UNL d   1       1.684   1.184   0.658  1.00  0.00     0.187 HD
ATOM      4  C   UNL d   1      -0.376  -1.218  -0.101  0.00  0.00     0.044 C 
ATOM      5  C   UNL d   1      -1.161  -0.079  -0.220  0.00  0.00     0.055 C 
ATOM      6  C   UNL d   1      -0.326   1.027   0.028  0.00  0.00     0.036 C 
ENDROOT
BRANCH   1   7
ATOM      7  C   UNL d   1       2.214  -1.326  -0.140  0.00  0.00     0.056 A 
ATOM      8  C   UNL d   1       3.332  -0.796   0.520  0.00  0.00     0.034 A 
ATOM      9  C   UNL d   1       4.602  -1.377   0.361  0.00  0.00     0.032 A 
ATOM     10  C   UNL d   1       4.780  -2.484  -0.482  0.00  0.00     0.038 A 
ATOM     11  C   UNL d   1       3.670  -2.976  -1.174  0.00  0.00     0.032 A 
ATOM     12  C   UNL d   1       2.410  -2.387  -1.015  0.00  0.00     0.034 A 
BRANCH  10  13
ATOM     13  N   UNL d   1       6.064  -3.092  -0.656  0.00  0.00    -0.333 N 
ATOM     14  C   UNL d   1       6.362  -4.167  -1.479  0.00  0.00     0.096 A 
ATOM     15  C   UNL d   1       7.706  -4.454  -1.398  0.00  0.00     0.019 A 
ATOM     16  C   UNL d   1       8.268  -3.541  -0.484  0.00  0.00     0.019 A 
ATOM     17  C   UNL d   1       7.246  -2.728  -0.039  0.00  0.00     0.096 A 
ENDBRANCH  10  13
ENDBRANCH   1   7
BRANCH   4  18
ATOM     18  C   UNL d   1      -0.880  -2.668  -0.030  0.00  0.00    -0.007 C 
ATOM     19  C   UNL d   1      -0.036  -3.572   0.888  0.00  0.00     0.021 C 
ATOM     20  C   UNL d   1      -2.303  -2.690   0.606  0.00  0.00     0.021 C 
ATOM     21  C   UNL d   1      -1.062  -3.274  -1.435  0.00  0.00     0.021 C 
ENDBRANCH   4  18
BRANCH   6  22
ATOM     22  C   UNL d   1      -0.714   2.498   0.047  0.00  0.00    -0.007 C 
ATOM     23  C   UNL d   1       0.508   3.425   0.231  0.00  0.00     0.021 C 
ATOM     24  C   UNL d   1      -1.392   2.877  -1.287  0.00  0.00     0.021 C 
ATOM     25  C   UNL d   1      -1.700   2.773   1.200  0.00  0.00     0.021 C 
ENDBRANCH   6  22
TORSDOF 4
