REMARK  6 active torsions:
REMARK  status: ('A' for Active; 'I' for Inactive)
REMARK    1  A    between atoms: N_2  and  C_1 
REMARK    2  A    between atoms: N_4  and  C_3 
REMARK    3  A    between atoms: C_11  and  C_6 
REMARK    4  A    between atoms: C_7  and  C_12 
REMARK    5  A    between atoms: O_20  and  C_7 
REMARK    6  A    between atoms: C_22  and  O_20 
ROOT
ATOM      1  C   UNL d   1      -0.431  -0.868  -0.718  0.00  0.00     0.125 A 
ATOM      2  C   UNL d   1       0.727  -1.360  -0.084  0.00  0.00     0.044 A 
ATOM      3  C   UNL d   1      -0.584   0.474  -1.101  0.00  0.00     0.053 A 
ATOM      4  C   UNL d   1       0.436   1.393  -0.836  0.00  0.00     0.012 A 
ATOM      5  C   UNL d   1       1.720  -0.403   0.192  0.00  0.00     0.027 A 
ATOM      6  C   UNL d   1       1.581   0.946  -0.173  0.00  0.00     0.017 A 
ENDROOT
BRANCH   2   7
ATOM      7  N   UNL d   1       0.900  -2.717   0.229  0.00  0.00    -0.281 NA
ATOM      8  C   UNL d   1       1.708  -3.038   1.418  0.00  0.00     0.096 C 
ATOM      9  C   UNL d   1       1.492  -4.505   1.802  0.00  0.00     0.029 C 
ATOM     10  C   UNL d   1       1.776  -5.459   0.631  0.00  0.00     0.088 C 
ATOM     11  C   UNL d   1       0.977  -5.019  -0.605  0.00  0.00     0.029 C 
ATOM     12  C   UNL d   1       1.225  -3.549  -0.947  0.00  0.00     0.096 C 
BRANCH  10  13
ATOM     13  C   UNL d   1       3.267  -5.540   0.323  0.00  0.00     0.263 C 
ATOM     14  O   UNL d   1       4.142  -4.954   0.945  0.00  0.00    -0.265 OA
BRANCH  13  15
ATOM     15  O   UNL d   1       3.483  -6.343  -0.756  0.00  0.00    -0.322 OA
BRANCH  15  16
ATOM     16  C   UNL d   1       4.803  -6.321  -1.318  0.00  0.00     0.174 C 
ATOM     17  C   UNL d   1       5.586  -7.550  -0.906  0.00  0.00     0.034 C 
ENDBRANCH  15  16
ENDBRANCH  13  15
ENDBRANCH  10  13
ENDBRANCH   2   7
BRANCH   1  18
ATOM     18  N   UNL d   1      -1.557  -1.748  -0.971  0.00  0.00    -0.114 N 
ATOM     19  O   UNL d   1      -2.200  -2.158   0.004  0.00  0.00    -0.532 OA
ATOM     20  O   UNL d   1      -1.824  -1.981  -2.161  0.00  0.00    -0.532 OA
ENDBRANCH   1  18
BRANCH   4  21
ATOM     21  C   UNL d   1       0.240   2.808  -1.283  0.00  0.00     0.155 C 
ATOM     22  O   UNL d   1      -0.827   3.119  -1.813  0.00  0.00    -0.293 OA
ATOM     23  C   UNL d   1       1.338   3.831  -1.139  0.00  0.00     0.096 C 
ENDBRANCH   4  21
TORSDOF 6
