REMARK  4 active torsions:
REMARK  status: ('A' for Active; 'I' for Inactive)
REMARK    1  A    between atoms: S_9  and  C_1 
REMARK    2  A    between atoms: C_7  and  C_4 
REMARK    3  A    between atoms: C_11  and  C_7 
REMARK    4  A    between atoms: C_8  and  S_9 
ROOT
ATOM      1  C   UNL d   1       4.310   3.606  -0.206  0.00  0.00     0.063 C 
ATOM      2  C   UNL d   1       3.472   2.566  -0.089  0.00  0.00     0.057 C 
ENDROOT
BRANCH   2   3
ATOM      3  S   UNL d   1       1.764   2.855  -0.012  0.00  0.00    -0.066 SA
BRANCH   3   4
ATOM      4  C   UNL d   1       1.051   1.225   0.058  0.00  0.00     0.148 A 
ATOM      5  N   UNL d   1      -0.294   1.189   0.117  0.00  0.00    -0.341 N 
ATOM      6  C   UNL d   1      -0.882  -0.023   0.181  0.00  0.00     0.008 A 
ATOM      7  HN  UNL d   1      -0.847   2.046   0.113  1.00  0.00     0.167 HD
ATOM      8  C   UNL d   1      -2.379  -0.057   0.248  0.00  0.00     0.068 C 
ATOM      9  C   UNL d   1      -0.153  -1.193   0.186  0.00  0.00     0.041 A 
ATOM     10  C   UNL d   1       1.213  -1.052   0.119  0.00  0.00     0.092 A 
ATOM     11  N   UNL d   1       1.839   0.138   0.052  0.00  0.00    -0.346 N 
ATOM     12  HN  UNL d   1       2.855   0.209  -0.000  1.00  0.00     0.167 HD
ENDBRANCH   3   4
ENDBRANCH   2   3
BRANCH   1  13
ATOM     13  C   UNL d   1       5.777   3.398  -0.304  0.00  0.00     0.182 C 
ATOM     14  O   UNL d   1       6.322   2.382   0.114  0.00  0.00    -0.288 OA
BRANCH  13  15
ATOM     15  C   UNL d   1       6.576   4.501  -0.906  0.00  0.00     0.014 A 
ATOM     16  C   UNL d   1       7.901   4.682  -0.491  0.00  0.00     0.015 A 
ATOM     17  C   UNL d   1       8.680   5.696  -1.054  0.00  0.00     0.001 A 
ATOM     18  C   UNL d   1       8.144   6.524  -2.040  0.00  0.00     0.000 A 
ATOM     19  C   UNL d   1       6.831   6.340  -2.468  0.00  0.00     0.001 A 
ATOM     20  C   UNL d   1       6.047   5.330  -1.907  0.00  0.00     0.015 A 
ENDBRANCH  13  15
ENDBRANCH   1  13
TORSDOF 4
