REMARK  3 active torsions:
REMARK  status: ('A' for Active; 'I' for Inactive)
REMARK    1  A    between atoms: O_4  and  C_1 
REMARK       I    between atoms: N_5  and  C_1 
REMARK    2  A    between atoms: C_3  and  O_4 
REMARK    3  A    between atoms: C_9  and  N_5 
ROOT
ATOM      1  C   UNL d   1       0.672  -0.190   0.354  0.00  0.00     0.365 C 
ATOM      2  N   UNL d   1       2.032  -0.139   0.554  0.00  0.00    -0.303 N 
ATOM      3  O   UNL d   1      -0.085   0.316   1.173  0.00  0.00    -0.238 OA
ATOM      4  H   UNL d   1       2.247   0.317   1.434  0.00  0.00     0.171 HD
ENDROOT
BRANCH   1   5
ATOM      5  O   UNL d   1       0.260  -0.858  -0.755  0.00  0.00    -0.296 OA
BRANCH   5   6
ATOM      6  C   UNL d   1      -1.163  -1.027  -0.885  0.00  0.00     0.166 C 
ATOM      7  C   UNL d   1      -1.638  -2.258  -0.075  0.00  0.00     0.305 C 
ATOM      8  N   UNL d   1      -2.488  -3.171  -0.885  0.00  0.00     0.090 N 
ATOM      9  C   UNL d   1      -1.654  -3.738  -1.968  0.00  0.00     0.273 C 
ATOM     10  C   UNL d   1      -3.589  -2.389  -1.494  0.00  0.00     0.273 C 
ATOM     11  C   UNL d   1      -1.008  -2.636  -2.823  0.00  0.00     0.037 C 
ATOM     12  C   UNL d   1      -1.526  -1.259  -2.369  0.00  0.00     0.020 C 
ATOM     13  C   UNL d   1      -3.061  -1.308  -2.455  0.00  0.00     0.037 C 
ENDBRANCH   5   6
ENDBRANCH   1   5
BRANCH   2  14
ATOM     14  C   UNL d   1       3.092  -0.781  -0.108  0.00  0.00     0.038 A 
ATOM     15  C   UNL d   1       2.974  -1.427  -1.340  0.00  0.00     0.053 A 
ATOM     16  C   UNL d   1       4.036  -2.180  -1.842  0.00  0.00     0.036 A 
ATOM     17 CL   UNL d   1       3.844  -3.027  -3.329  0.00  0.00    -0.084 Cl
ATOM     18  C   UNL d   1       5.237  -2.272  -1.145  0.00  0.00     0.024 A 
ATOM     19  C   UNL d   1       5.393  -1.565   0.044  0.00  0.00     0.004 A 
ATOM     20  C   UNL d   1       4.329  -0.815   0.553  0.00  0.00     0.029 A 
ENDBRANCH   2  14
TORSDOF 3
