REMARK  2 active torsions:
REMARK  status: ('A' for Active; 'I' for Inactive)
REMARK    1  A    between atoms: N_13  and  C_2 
REMARK    2  A    between atoms: C_10  and  C_5 
ROOT
ATOM      1  C   UNL d   1       2.487   0.724   0.138  0.00  0.00     0.094 A 
ATOM      2  C   UNL d   1       2.440  -0.664  -0.008  0.00  0.00     0.100 A 
ATOM      3  N   UNL d   1       1.286  -1.337  -0.093  0.00  0.00    -0.349 N 
ATOM      4  HN  UNL d   1       1.284  -2.353  -0.186  1.00  0.00     0.167 HD
ATOM      5  C   UNL d   1       1.288   1.482   0.132  0.00  0.00     0.008 A 
ATOM      6  C   UNL d   1       0.064   0.755   0.006  0.00  0.00    -0.023 A 
ATOM      7  C   UNL d   1       0.126  -0.647  -0.054  0.00  0.00     0.017 A 
ATOM      8  C   UNL d   1       3.776   1.327   0.327  0.00  0.00     0.103 C 
ATOM      9  N   UNL d   1       4.824   1.802   0.491  0.00  0.00    -0.191 NA
ATOM     10  C   UNL d   1      -1.292   1.435  -0.027  0.00  0.00     0.041 C 
ATOM     11  C   UNL d   1      -1.107  -1.514  -0.133  0.00  0.00     0.057 C 
ATOM     12  C   UNL d   1      -2.446   0.540  -0.480  0.00  0.00     0.005 C 
ATOM     13  C   UNL d   1      -2.387  -0.789   0.253  0.00  0.00     0.006 C 
ENDROOT
BRANCH   2  14
ATOM     14  N   UNL d   1       3.572  -1.459  -0.151  0.00  0.00    -0.287 NA
ATOM     15  H   UNL d   1       4.269  -1.323   0.575  0.00  0.00     0.125 HD
ATOM     16  H   UNL d   1       3.263  -2.428  -0.207  0.00  0.00     0.125 HD
ENDBRANCH   2  14
BRANCH   5  17
ATOM     17  C   UNL d   1       1.322   2.973   0.253  0.00  0.00    -0.008 A 
ATOM     18  C   UNL d   1       0.536   3.679   1.169  0.00  0.00     0.100 A 
ATOM     19  N   UNL d   1       0.525   5.026   1.331  0.00  0.00    -0.374 N 
ATOM     20  C   UNL d   1       1.385   5.736   0.574  0.00  0.00     0.087 A 
ATOM     21  HN  UNL d   1      -0.104   5.479   1.994  1.00  0.00     0.164 HD
ATOM     22  C   UNL d   1       2.237   5.156  -0.344  0.00  0.00     0.018 A 
ATOM     23  C   UNL d   1       2.183   3.773  -0.521  0.00  0.00     0.015 A 
ENDBRANCH   5  17
TORSDOF 2
