REMARK  8 active torsions:
REMARK  status: ('A' for Active; 'I' for Inactive)
REMARK    1  A    between atoms: C_15  and  C_2 
REMARK    2  A    between atoms: S_10  and  C_5 
REMARK    3  A    between atoms: C_8  and  N_11 
REMARK    4  A    between atoms: N_12  and  C_8 
REMARK    5  A    between atoms: C_9  and  C_19 
REMARK       I    between atoms: N_13  and  C_9 
REMARK    6  A    between atoms: C_19  and  S_10 
REMARK    7  A    between atoms: N_11  and  N_13 
REMARK    8  A    between atoms: C_21  and  N_12 
ROOT
ATOM      1  C   UNL d   1       2.161  -2.794  -0.127  0.00  0.00     0.186 C 
ENDROOT
BRANCH   1   2
ATOM      2  C   UNL d   1       2.492  -4.255  -0.404  0.00  0.00     0.245 C 
ATOM      3  N   UNL d   1       3.586  -4.731   0.297  0.00  0.00    -0.267 N 
ATOM      4  H   UNL d   1       4.027  -4.192   1.037  0.00  0.00     0.190 HD
ATOM      5  O   UNL d   1       1.839  -4.973  -1.162  0.00  0.00    -0.271 OA
BRANCH   3   6
ATOM      6  N   UNL d   1       3.772  -6.121   0.365  0.00  0.00    -0.274 N 
ATOM      7  H   UNL d   1       3.051  -6.682  -0.096  0.00  0.00     0.189 HD
BRANCH   6   8
ATOM      8  C   UNL d   1       5.016  -6.676   0.490  0.00  0.00     0.191 C 
ATOM      9  S   UNL d   1       6.459  -5.853   0.265  0.00  0.00    -0.039 SA
BRANCH   8  10
ATOM     10  N   UNL d   1       5.082  -7.995   0.849  0.00  0.00    -0.332 N 
ATOM     11  H   UNL d   1       6.013  -8.384   0.736  0.00  0.00     0.168 HD
BRANCH  10  12
ATOM     12  C   UNL d   1       4.224  -8.749   1.689  0.00  0.00     0.034 A 
ATOM     13  C   UNL d   1       3.050  -8.262   2.268  0.00  0.00     0.029 A 
ATOM     14  C   UNL d   1       2.333  -9.033   3.189  0.00  0.00     0.002 A 
ATOM     15  C   UNL d   1       2.786 -10.297   3.549  0.00  0.00     0.000 A 
ATOM     16  C   UNL d   1       3.947 -10.802   2.972  0.00  0.00     0.002 A 
ATOM     17  C   UNL d   1       4.658 -10.034   2.043  0.00  0.00     0.029 A 
ENDBRANCH  10  12
ENDBRANCH   8  10
ENDBRANCH   6   8
ENDBRANCH   3   6
ENDBRANCH   1   2
BRANCH   1  18
ATOM     18  S   UNL d   1       0.438  -2.686   0.446  0.00  0.00    -0.083 SA
BRANCH  18  19
ATOM     19  C   UNL d   1       0.210  -0.976   0.541  0.00  0.00     0.163 A 
ATOM     20  N   UNL d   1      -1.006  -0.391   0.788  0.00  0.00    -0.315 N 
ATOM     21  C   UNL d   1      -0.771   0.968   0.839  0.00  0.00     0.134 A 
ATOM     22  C   UNL d   1      -2.268  -1.081   0.902  0.00  0.00     0.160 C 
ATOM     23  N   UNL d   1       0.513   1.164   0.579  0.00  0.00    -0.283 N 
ATOM     24  N   UNL d   1       1.127  -0.055   0.410  0.00  0.00    -0.278 N 
ATOM     25  HN  UNL d   1       0.972   2.072   0.515  1.00  0.00     0.188 HD
ATOM     26  HN  UNL d   1       2.116  -0.211   0.217  1.00  0.00     0.189 HD
BRANCH  21  27
ATOM     27  C   UNL d   1      -1.746   2.035   1.075  0.00  0.00     0.012 A 
ATOM     28  C   UNL d   1      -2.775   1.930   2.017  0.00  0.00     0.032 A 
ATOM     29  C   UNL d   1      -3.668   2.981   2.148  0.00  0.00     0.088 A 
ATOM     30  N   UNL d   1      -3.595   4.123   1.437  0.00  0.00    -0.375 N 
ATOM     31  C   UNL d   1      -2.570   4.232   0.566  0.00  0.00     0.088 A 
ATOM     32  HN  UNL d   1      -4.281   4.870   1.552  1.00  0.00     0.164 HD
ATOM     33  C   UNL d   1      -1.634   3.232   0.356  0.00  0.00     0.032 A 
ENDBRANCH  21  27
ENDBRANCH  18  19
ENDBRANCH   1  18
TORSDOF 8
