REMARK  4 active torsions:
REMARK  status: ('A' for Active; 'I' for Inactive)
REMARK    1  A    between atoms: C_12  and  N_6 
REMARK    2  A    between atoms: N_11  and  C_8 
REMARK    3  A    between atoms: C_19  and  N_11 
REMARK    4  A    between atoms: C_17  and  C_12 
ROOT
ATOM      1  C   UNL d   1      -0.203  -0.823   0.008  0.00  0.00     0.160 A 
ATOM      2  C   UNL d   1      -0.526   0.495   0.009  0.00  0.00     0.165 A 
ATOM      3  N   UNL d   1      -1.292  -1.610   0.014  0.00  0.00    -0.174 N 
ATOM      4  HN  UNL d   1      -1.314  -2.630   0.021  1.00  0.00     0.186 HD
ATOM      5  N   UNL d   1       1.091  -1.278   0.001  0.00  0.00    -0.287 N 
ATOM      6  N   UNL d   1      -1.905   0.525   0.005  0.00  0.00    -0.170 N 
ATOM      7  N   UNL d   1       1.779   1.007  -0.005  0.00  0.00    -0.269 N 
ATOM      8  C   UNL d   1      -2.327  -0.795   0.007  0.00  0.00     0.683 A 
ATOM      9  C   UNL d   1       2.133  -0.356  -0.009  0.00  0.00     0.332 A 
ATOM     10  C   UNL d   1       0.469   1.516   0.016  0.00  0.00     0.282 A 
ATOM     11  O   UNL d   1       3.309  -0.730  -0.019  0.00  0.00    -0.246 OA
ATOM     12  O   UNL d   1       0.209   2.715   0.048  0.00  0.00    -0.265 OA
ATOM     13  C   UNL d   1       1.394  -2.696   0.000  0.00  0.00     0.163 C 
ATOM     14  C   UNL d   1       2.850   1.982  -0.006  0.00  0.00     0.164 C 
ENDROOT
BRANCH   6  15
ATOM     15  C   UNL d   1      -2.741   1.716   0.043  0.00  0.00     0.186 C 
BRANCH  15  16
ATOM     16  C   UNL d   1      -3.018   2.283  -1.333  0.00  0.00    -0.039 A 
ATOM     17  C   UNL d   1      -3.791   1.580  -2.270  0.00  0.00     0.010 A 
ATOM     18  C   UNL d   1      -4.052   2.113  -3.535  0.00  0.00     0.019 A 
ATOM     19  C   UNL d   1      -3.547   3.364  -3.874  0.00  0.00     0.011 A 
ATOM     20  C   UNL d   1      -2.791   4.088  -2.957  0.00  0.00     0.019 A 
ATOM     21 BR   UNL d   1      -3.889   4.077  -5.590  0.00  0.00    -0.051 Br
ATOM     22  C   UNL d   1      -2.527   3.549  -1.693  0.00  0.00     0.010 A 
ENDBRANCH  15  16
ENDBRANCH   6  15
BRANCH   8  23
ATOM     23  N   UNL d   1      -3.615  -1.208  -0.037  0.00  0.00    -0.221 N 
ATOM     24  H   UNL d   1      -4.387  -0.566  -0.162  0.00  0.00     0.178 HD
BRANCH  23  25
ATOM     25  C   UNL d   1      -3.818  -2.550  -0.596  0.00  0.00     0.099 C 
ATOM     26  C   UNL d   1      -4.948  -3.304   0.102  0.00  0.00     0.026 C 
ATOM     27  C   UNL d   1      -5.020  -4.729  -0.458  0.00  0.00     0.002 C 
ATOM     28  C   UNL d   1      -5.176  -4.749  -1.980  0.00  0.00     0.000 C 
ATOM     29  C   UNL d   1      -4.155  -3.867  -2.699  0.00  0.00     0.002 C 
ATOM     30  C   UNL d   1      -4.093  -2.465  -2.101  0.00  0.00     0.026 C 
ENDBRANCH  23  25
ENDBRANCH   8  23
TORSDOF 4
