REMARK  2 active torsions:
REMARK  status: ('A' for Active; 'I' for Inactive)
REMARK    1  A    between atoms: C_8  and  N_3 
REMARK    2  A    between atoms: C_9  and  C_7 
ROOT
ATOM      1  N   UNL d   1      -0.333  -1.183  -0.212  0.00  0.00    -0.264 N 
ATOM      2  HN  UNL d   1      -0.534  -2.136  -0.516  1.00  0.00     0.190 HD
ATOM      3  N   UNL d   1       0.861  -0.595   0.059  0.00  0.00    -0.179 N 
ATOM      4  N   UNL d   1       0.765   0.714   0.394  0.00  0.00     0.003 NA
ATOM      5  N   UNL d   1      -0.528   0.990   0.380  0.00  0.00    -0.266 N 
ATOM      6  HN  UNL d   1      -0.960   1.890   0.589  1.00  0.00     0.186 HD
ATOM      7  C   UNL d   1      -1.177  -0.167   0.031  0.00  0.00     0.144 A 
ENDROOT
BRANCH   3   8
ATOM      8  C   UNL d   1       2.092  -1.293   0.036  0.00  0.00     0.073 A 
ATOM      9  C   UNL d   1       2.134  -2.638  -0.353  0.00  0.00     0.033 A 
ATOM     10  C   UNL d   1       3.351  -3.326  -0.349  0.00  0.00     0.009 A 
ATOM     11  C   UNL d   1       4.531  -2.686   0.052  0.00  0.00    -0.062 A 
ATOM     12  C   UNL d   1       4.484  -1.339   0.429  0.00  0.00     0.009 A 
ATOM     13  C   UNL d   1       5.830  -3.438   0.051  0.00  0.00     0.048 C 
ATOM     14  C   UNL d   1       3.273  -0.642   0.421  0.00  0.00     0.033 A 
ENDBRANCH   3   8
BRANCH   7  15
ATOM     15  C   UNL d   1      -2.632  -0.264  -0.014  0.00  0.00     0.010 A 
ATOM     16  C   UNL d   1      -3.424   0.851   0.305  0.00  0.00     0.017 A 
ATOM     17  C   UNL d   1      -4.820   0.757   0.310  0.00  0.00     0.025 A 
ATOM     18  C   UNL d   1      -5.433  -0.452  -0.009  0.00  0.00     0.034 A 
ATOM     19  C   UNL d   1      -4.664  -1.565  -0.340  0.00  0.00     0.025 A 
ATOM     20 CL   UNL d   1      -7.148  -0.572   0.015  0.00  0.00    -0.084 Cl
ATOM     21  C   UNL d   1      -3.267  -1.471  -0.344  0.00  0.00     0.017 A 
ENDBRANCH   7  15
TORSDOF 2
