REMARK  5 active torsions:
REMARK  status: ('A' for Active; 'I' for Inactive)
REMARK    1  A    between atoms: N_2  and  C_1 
REMARK    2  A    between atoms: C_7  and  C_3 
REMARK    3  A    between atoms: N_6  and  C_4 
REMARK    4  A    between atoms: C_5  and  C_14 
REMARK    5  A    between atoms: O_18  and  C_7 
ROOT
ATOM      1  C   UNL d   1      -1.861   2.512  -0.562  0.00  0.00     0.120 C 
ATOM      2  C   UNL d   1      -1.032   2.660   0.499  0.00  0.00     0.040 C 
ATOM      3  C   UNL d   1      -1.864   3.416  -1.660  0.00  0.00     0.105 C 
ATOM      4  N   UNL d   1      -1.858   4.173  -2.543  0.00  0.00    -0.191 NA
ENDROOT
BRANCH   1   5
ATOM      5  C   UNL d   1      -2.787   1.346  -0.581  0.00  0.00     0.303 C 
ATOM      6  O   UNL d   1      -2.884   0.525   0.321  0.00  0.00    -0.258 OA
BRANCH   5   7
ATOM      7  O   UNL d   1      -3.493   1.324  -1.740  0.00  0.00    -0.322 OA
ATOM      8  C   UNL d   1      -4.413   0.238  -1.884  0.00  0.00     0.213 C 
ENDBRANCH   5   7
ENDBRANCH   1   5
BRANCH   2   9
ATOM      9  C   UNL d   1      -0.027   3.730   0.594  0.00  0.00    -0.032 A 
ATOM     10  C   UNL d   1       1.282   3.483   0.190  0.00  0.00     0.050 A 
ATOM     11  C   UNL d   1       2.212   4.543   0.130  0.00  0.00     0.130 A 
ATOM     12  C   UNL d   1       1.874   5.885   0.413  0.00  0.00     0.063 A 
ATOM     13  C   UNL d   1       0.564   6.074   0.895  0.00  0.00     0.033 A 
ATOM     14  C   UNL d   1      -0.366   5.020   0.999  0.00  0.00     0.014 A 
BRANCH  11  15
ATOM     15  N   UNL d   1       3.536   4.162  -0.321  0.00  0.00    -0.113 N 
ATOM     16  O   UNL d   1       4.426   4.085   0.541  0.00  0.00    -0.532 OA
ATOM     17  O   UNL d   1       3.656   3.808  -1.500  0.00  0.00    -0.532 OA
ENDBRANCH  11  15
BRANCH  12  18
ATOM     18  N   UNL d   1       2.692   6.975   0.131  0.00  0.00    -0.375 N 
ATOM     19  C   UNL d   1       2.092   8.285  -0.231  0.00  0.00     0.149 C 
ATOM     20  C   UNL d   1       3.111   9.084  -1.067  0.00  0.00     0.187 C 
ATOM     21  O   UNL d   1       4.356   9.256  -0.365  0.00  0.00    -0.388 OA
ATOM     22  C   UNL d   1       4.915   7.978  -0.005  0.00  0.00     0.187 C 
ATOM     23  C   UNL d   1       3.944   7.186   0.891  0.00  0.00     0.149 C 
ENDBRANCH  12  18
ENDBRANCH   2   9
TORSDOF 5
