REMARK  2 active torsions:
REMARK  status: ('A' for Active; 'I' for Inactive)
REMARK    1  A    between atoms: N_7  and  N_1 
REMARK    2  A    between atoms: C_13  and  C_12 
ROOT
ATOM      1  N   UNL d   1      -0.772   1.196  -0.041  0.00  0.00    -0.191 N 
ATOM      2  C   UNL d   1      -1.428   0.002  -0.348  0.00  0.00     0.292 C 
ATOM      3  C   UNL d   1       0.604   1.231   0.179  0.00  0.00     0.215 C 
ATOM      4  N   UNL d   1       0.690  -1.198   0.067  0.00  0.00    -0.297 N 
ATOM      5  HN  UNL d   1       1.242  -2.051   0.158  1.00  0.00     0.187 HD
ATOM      6  C   UNL d   1      -0.579  -1.241  -0.193  0.00  0.00     0.091 C 
ATOM      7  N   UNL d   1       1.254   0.023   0.213  0.00  0.00    -0.274 N 
ATOM      8  S   UNL d   1       1.543   2.605   0.435  0.00  0.00    -0.037 SA
ATOM      9  O   UNL d   1      -2.579  -0.138  -0.748  0.00  0.00    -0.264 OA
ATOM     10  C   UNL d   1      -1.237  -2.581  -0.376  0.00  0.00     0.076 C 
ATOM     11  H   UNL d   1       2.256   0.033   0.399  0.00  0.00     0.189 HD
ENDROOT
BRANCH   1  12
ATOM     12  N   UNL d   1      -1.417   2.432  -0.129  0.00  0.00    -0.299 N 
ATOM     13  C   UNL d   1      -2.682   2.517   0.129  0.00  0.00     0.119 C 
ATOM     14  HN  UNL d   1      -0.893   3.265  -0.396  1.00  0.00     0.186 HD
BRANCH  13  15
ATOM     15  C   UNL d   1      -3.400   3.808   0.042  0.00  0.00    -0.019 A 
ATOM     16  C   UNL d   1      -2.728   4.988  -0.296  0.00  0.00     0.014 A 
ATOM     17  C   UNL d   1      -3.425   6.199  -0.336  0.00  0.00     0.024 A 
ATOM     18  C   UNL d   1      -4.787   6.224  -0.038  0.00  0.00     0.034 A 
ATOM     19  C   UNL d   1      -5.461   5.048   0.292  0.00  0.00     0.024 A 
ATOM     20 CL   UNL d   1      -5.644   7.715  -0.075  0.00  0.00    -0.084 Cl
ATOM     21  C   UNL d   1      -4.767   3.836   0.332  0.00  0.00     0.014 A 
ENDBRANCH  13  15
ENDBRANCH   1  12
TORSDOF 2
