REMARK  4 active torsions:
REMARK  status: ('A' for Active; 'I' for Inactive)
REMARK    1  A    between atoms: C_9  and  C_1 
REMARK    2  A    between atoms: C_7  and  S_10 
REMARK    3  A    between atoms: N_8  and  C_7 
REMARK    4  A    between atoms: S_10  and  C_9 
ROOT
ATOM      1  C   UNL d   1      -1.170   1.145  -0.022  0.00  0.00    -0.035 C 
ATOM      2  C   UNL d   1       0.102   1.768   0.140  0.00  0.00    -0.048 C 
ATOM      3  C   UNL d   1      -1.227  -0.287  -0.049  0.00  0.00    -0.048 C 
ATOM      4  C   UNL d   1       1.290   1.000   0.004  0.00  0.00    -0.049 C 
ATOM      5  C   UNL d   1      -0.033  -1.061  -0.048  0.00  0.00    -0.049 C 
ATOM      6  C   UNL d   1       1.225  -0.414  -0.054  0.00  0.00    -0.049 C 
ATOM      7  C   UNL d   1      -0.073  -2.578  -0.013  0.00  0.00     0.049 C 
ATOM      8  C   UNL d   1       0.248   3.234   0.484  0.00  0.00     0.049 C 
ATOM      9  C   UNL d   1       2.519  -1.207  -0.058  0.00  0.00     0.049 C 
ATOM     10  C   UNL d   1      -2.549  -1.038  -0.028  0.00  0.00     0.049 C 
ATOM     11  C   UNL d   1       2.656   1.660  -0.029  0.00  0.00     0.049 C 
ENDROOT
BRANCH   1  12
ATOM     12  C   UNL d   1      -2.490   1.913  -0.106  0.00  0.00     0.122 C 
BRANCH  12  13
ATOM     13  S   UNL d   1      -2.566   3.568  -0.823  0.00  0.00    -0.090 SA
BRANCH  13  14
ATOM     14  C   UNL d   1      -2.080   3.416  -2.457  0.00  0.00     0.131 C 
ATOM     15  N   UNL d   1      -2.575   4.318  -3.273  0.00  0.00    -0.380 N 
ATOM     16  H   UNL d   1      -3.198   5.014  -2.880  0.00  0.00     0.158 HD
ATOM     17  H   UNL d   1      -2.351   4.362  -4.255  0.00  0.00     0.158 HD
BRANCH  14  18
ATOM     18  N   UNL d   1      -1.250   2.506  -2.891  0.00  0.00    -0.380 N 
ATOM     19  H   UNL d   1      -0.831   1.837  -2.255  0.00  0.00     0.158 HD
ATOM     20  H   UNL d   1      -0.957   2.455  -3.856  0.00  0.00     0.158 HD
ENDBRANCH  14  18
ENDBRANCH  13  14
ENDBRANCH  12  13
ENDBRANCH   1  12
TORSDOF 4
