REMARK  3 active torsions:
REMARK  status: ('A' for Active; 'I' for Inactive)
REMARK    1  A    between atoms: O_6  and  C_1 
REMARK    2  A    between atoms: C_9  and  C_3 
REMARK    3  A    between atoms: C_7  and  O_6 
ROOT
ATOM      1  C   UNL d   1      -1.206  -1.313   0.276  0.00  0.00     0.061 C 
ATOM      2  C   UNL d   1       0.124  -1.368   0.408  0.00  0.00     0.083 C 
ATOM      3  C   UNL d   1      -1.109   1.136  -0.430  0.00  0.00     0.032 C 
ATOM      4  C   UNL d   1       0.934  -0.130   0.396  0.00  0.00     0.152 C 
ATOM      5  C   UNL d   1      -1.976  -0.030   0.092  0.00  0.00     0.075 C 
ATOM      6  C   UNL d   1       0.232   1.205   0.312  0.00  0.00     0.092 C 
ATOM      7  O   UNL d   1       2.157  -0.221   0.495  0.00  0.00    -0.293 OA
ENDROOT
BRANCH   3   8
ATOM      8  C   UNL d   1      -0.955   1.141  -1.950  0.00  0.00    -0.053 A 
ATOM      9  C   UNL d   1      -1.379   2.263  -2.685  0.00  0.00     0.008 A 
ATOM     10  C   UNL d   1      -1.263   2.296  -4.078  0.00  0.00     0.007 A 
ATOM     11  C   UNL d   1      -0.718   1.212  -4.774  0.00  0.00    -0.062 A 
ATOM     12  C   UNL d   1      -0.287   0.100  -4.053  0.00  0.00     0.007 A 
ATOM     13  C   UNL d   1      -0.594   1.247  -6.267  0.00  0.00     0.048 C 
ATOM     14  C   UNL d   1      -0.405   0.067  -2.663  0.00  0.00     0.008 A 
ENDBRANCH   3   8
BRANCH   1  15
ATOM     15  O   UNL d   1      -1.912  -2.526   0.109  0.00  0.00    -0.283 OA
BRANCH  15  16
ATOM     16  C   UNL d   1      -2.953  -2.770   0.965  0.00  0.00     0.259 C 
ATOM     17  O   UNL d   1      -3.346  -2.037   1.860  0.00  0.00    -0.265 OA
ATOM     18  C   UNL d   1      -3.561  -4.106   0.647  0.00  0.00     0.126 C 
ENDBRANCH  15  16
ENDBRANCH   1  15
TORSDOF 3
