REMARK  10 active torsions:
REMARK  status: ('A' for Active; 'I' for Inactive)
REMARK    1  A    between atoms: C_2  and  C_1 
REMARK    2  A    between atoms: C_21  and  N_3 
REMARK    3  A    between atoms: S_13  and  C_4 
REMARK    4  A    between atoms: C_18  and  N_6 
REMARK    5  A    between atoms: C_14  and  S_13 
REMARK    6  A    between atoms: C_16  and  C_14 
REMARK    7  A    between atoms: C_17  and  C_14 
REMARK    8  A    between atoms: O_25  and  C_16 
REMARK    9  A    between atoms: C_23  and  C_21 
REMARK   10  A    between atoms: C_29  and  O_25 
ROOT
ATOM      1  C   UNL d   1      -0.892   2.564  -0.072  0.00  0.00     0.140 A 
ATOM      2  N   UNL d   1      -1.792   2.946   0.903  0.00  0.00    -0.307 N 
ATOM      3  C   UNL d   1      -1.899   4.306   0.784  0.00  0.00     0.164 A 
ATOM      4  N   UNL d   1      -0.589   3.628  -0.796  0.00  0.00    -0.282 N 
ATOM      5  HN  UNL d   1      -0.015   3.631  -1.639  1.00  0.00     0.188 HD
ATOM      6  N   UNL d   1      -1.173   4.724  -0.223  0.00  0.00    -0.278 N 
ATOM      7  HN  UNL d   1      -1.063   5.692  -0.525  1.00  0.00     0.189 HD
ENDROOT
BRANCH   1   8
ATOM      8  C   UNL d   1      -0.327   1.218  -0.362  0.00  0.00     0.072 C 
ATOM      9  C   UNL d   1       0.152   0.813  -1.593  0.00  0.00     0.136 C 
ATOM     10  N   UNL d   1       0.686  -0.469  -1.399  0.00  0.00    -0.240 N 
ATOM     11  N   UNL d   1       0.078   1.450  -2.797  0.00  0.00    -0.383 N 
ATOM     12  N   UNL d   1       0.352  -0.951  -0.165  0.00  0.00    -0.302 N 
ATOM     13  C   UNL d   1      -0.181   0.096   0.466  0.00  0.00     0.127 C 
ATOM     14  HN  UNL d   1       0.482  -1.897   0.192  1.00  0.00     0.186 HD
ATOM     15  H   UNL d   1      -0.451   2.324  -2.832  0.00  0.00     0.157 HD
ATOM     16  H   UNL d   1      -0.032   0.901  -3.648  0.00  0.00     0.157 HD
BRANCH  10  17
ATOM     17  C   UNL d   1       1.495  -1.252  -2.276  0.00  0.00     0.058 A 
ATOM     18  C   UNL d   1       2.186  -0.670  -3.345  0.00  0.00     0.031 A 
ATOM     19  C   UNL d   1       2.982  -1.457  -4.184  0.00  0.00     0.002 A 
ATOM     20  C   UNL d   1       3.097  -2.826  -3.954  0.00  0.00     0.000 A 
ATOM     21  C   UNL d   1       2.429  -3.411  -2.880  0.00  0.00     0.002 A 
ATOM     22  C   UNL d   1       1.637  -2.628  -2.036  0.00  0.00     0.031 A 
ENDBRANCH  10  17
ENDBRANCH   1   8
BRANCH   2  23
ATOM     23  C   UNL d   1      -2.544   2.072   1.786  0.00  0.00     0.159 C 
BRANCH  23  24
ATOM     24  C   UNL d   1      -3.508   1.130   1.111  0.00  0.00    -0.017 C 
ATOM     25  C   UNL d   1      -4.045   1.230  -0.114  0.00  0.00     0.008 C 
ENDBRANCH  23  24
ENDBRANCH   2  23
BRANCH   3  26
ATOM     26  S   UNL d   1      -2.863   5.315   1.802  0.00  0.00    -0.070 SA
BRANCH  26  27
ATOM     27  C   UNL d   1      -2.839   6.905   0.873  0.00  0.00     0.223 C 
BRANCH  27  28
ATOM     28  C   UNL d   1      -3.663   6.731  -0.384  0.00  0.00     0.280 C 
ATOM     29  O   UNL d   1      -4.883   6.625  -0.409  0.00  0.00    -0.263 OA
BRANCH  28  30
ATOM     30  O   UNL d   1      -2.861   6.691  -1.486  0.00  0.00    -0.321 OA
BRANCH  30  31
ATOM     31  C   UNL d   1      -3.480   6.235  -2.697  0.00  0.00     0.174 C 
ATOM     32  C   UNL d   1      -3.452   4.717  -2.743  0.00  0.00     0.034 C 
ENDBRANCH  30  31
ENDBRANCH  28  30
ENDBRANCH  27  28
BRANCH  27  33
ATOM     33  C   UNL d   1      -3.378   8.040   1.735  0.00  0.00     0.146 C 
ATOM     34  O   UNL d   1      -3.577   7.948   2.950  0.00  0.00    -0.297 OA
ATOM     35  C   UNL d   1      -3.594   9.375   1.061  0.00  0.00     0.092 C 
ENDBRANCH  27  33
ENDBRANCH  26  27
ENDBRANCH   3  26
TORSDOF 10
