REMARK  5 active torsions:
REMARK  status: ('A' for Active; 'I' for Inactive)
REMARK    1  A    between atoms: C_12  and  C_3 
REMARK    2  A    between atoms: C_18  and  C_6 
REMARK    3  A    between atoms: C_9  and  N_10 
REMARK       I    between atoms: N_10  and  C_11 
REMARK    4  A    between atoms: C_11  and  C_19 
REMARK    5  A    between atoms: C_19  and  C_18 
ROOT
ATOM      1  N   UNL d   1       0.762   0.251   1.331  0.00  0.00    -0.323 N 
ATOM      2  HN  UNL d   1       1.039   0.173   2.309  1.00  0.00     0.169 HD
ATOM      3  C   UNL d   1       0.238   1.343   0.664  0.00  0.00     0.137 A 
ATOM      4  N   UNL d   1       0.015   1.122  -0.640  0.00  0.00    -0.242 N 
ATOM      5  HN  UNL d   1      -0.343   1.777  -1.336  1.00  0.00     0.196 HD
ATOM      6  C   UNL d   1       0.812  -0.658   0.391  0.00  0.00     0.148 A 
ATOM      7  O   UNL d   1       0.388  -0.211  -0.824  0.00  0.00    -0.223 OA
ENDROOT
BRANCH   6   8
ATOM      8  C   UNL d   1       1.335  -2.040   0.476  0.00  0.00     0.096 C 
BRANCH   8   9
ATOM      9  C   UNL d   1       2.769  -2.140  -0.015  0.00  0.00     0.111 C 
BRANCH   9  10
ATOM     10  C   UNL d   1       3.883  -1.691   0.923  0.00  0.00     0.222 C 
ATOM     11  N   UNL d   1       3.700  -0.497   1.589  0.00  0.00    -0.326 N 
ATOM     12  H   UNL d   1       2.755  -0.198   1.826  0.00  0.00     0.169 HD
ATOM     13  O   UNL d   1       4.919  -2.355   0.973  0.00  0.00    -0.273 OA
BRANCH  11  14
ATOM     14  C   UNL d   1       4.738   0.295   2.158  0.00  0.00     0.058 A 
ATOM     15  C   UNL d   1       4.431   1.240   3.157  0.00  0.00     0.082 A 
ATOM     16  C   UNL d   1       5.427   2.101   3.645  0.00  0.00     0.058 A 
ATOM     17 CL   UNL d   1       2.838   1.269   3.837  0.00  0.00    -0.080 Cl
ATOM     18 CL   UNL d   1       5.112   3.297   4.856  0.00  0.00    -0.082 Cl
ATOM     19  C   UNL d   1       6.730   2.015   3.154  0.00  0.00     0.026 A 
ATOM     20  C   UNL d   1       7.045   1.069   2.183  0.00  0.00     0.004 A 
ATOM     21  C   UNL d   1       6.055   0.216   1.688  0.00  0.00     0.031 A 
ENDBRANCH  11  14
ENDBRANCH   9  10
ENDBRANCH   8   9
ENDBRANCH   6   8
BRANCH   3  22
ATOM     22  C   UNL d   1       0.004   2.613   1.342  0.00  0.00     0.010 A 
ATOM     23  C   UNL d   1      -0.084   2.652   2.741  0.00  0.00     0.017 A 
ATOM     24  C   UNL d   1      -0.227   3.866   3.419  0.00  0.00     0.025 A 
ATOM     25  C   UNL d   1      -0.312   5.050   2.696  0.00  0.00     0.034 A 
ATOM     26  C   UNL d   1      -0.263   5.030   1.302  0.00  0.00     0.025 A 
ATOM     27 CL   UNL d   1      -0.473   6.549   3.525  0.00  0.00    -0.084 Cl
ATOM     28  C   UNL d   1      -0.104   3.814   0.626  0.00  0.00     0.017 A 
ENDBRANCH   3  22
TORSDOF 5
