REMARK  4 active torsions:
REMARK  status: ('A' for Active; 'I' for Inactive)
REMARK    1  A    between atoms: C_9  and  C_1 
REMARK       I    between atoms: C_2  and  N_4 
REMARK    2  A    between atoms: C_5  and  C_2 
REMARK    3  A    between atoms: C_3  and  C_12 
REMARK       I    between atoms: N_6  and  C_3 
REMARK    4  A    between atoms: N_4  and  N_6 
ROOT
ATOM      1  C   UNL d   1      -0.364   3.748   4.181  0.00  0.00     0.270 C 
ATOM      2  N   UNL d   1      -0.264   5.126   4.157  0.00  0.00    -0.263 N 
ATOM      3  O   UNL d   1      -0.283   3.083   3.150  0.00  0.00    -0.266 OA
ATOM      4  H   UNL d   1      -0.238   5.737   4.967  0.00  0.00     0.190 HD
ENDROOT
BRANCH   2   5
ATOM      5  N   UNL d   1       0.028   5.741   2.925  0.00  0.00    -0.263 N 
ATOM      6  C   UNL d   1       0.367   7.081   2.934  0.00  0.00     0.270 C 
ATOM      7  O   UNL d   1       0.284   7.757   3.958  0.00  0.00    -0.266 OA
ATOM      8  H   UNL d   1       0.042   5.125   2.119  0.00  0.00     0.190 HD
BRANCH   6   9
ATOM      9  C   UNL d   1       0.869   7.690   1.662  0.00  0.00     0.036 A 
ATOM     10  C   UNL d   1       1.030   9.087   1.632  0.00  0.00     0.057 A 
ATOM     11  C   UNL d   1       1.602   9.656   0.511  0.00  0.00     0.106 A 
ATOM     12  O   UNL d   1       1.870  10.979   0.337  0.00  0.00    -0.323 OA
ATOM     13  C   UNL d   1       1.994   8.899  -0.565  0.00  0.00     0.105 A 
ATOM     14  C   UNL d   1       2.542  10.956  -0.939  0.00  0.00     0.352 A 
ATOM     15  O   UNL d   1       2.565   9.646  -1.547  0.00  0.00    -0.323 OA
ATOM     16  C   UNL d   1       1.824   7.532  -0.587  0.00  0.00     0.041 A 
ATOM     17  C   UNL d   1       1.259   6.921   0.543  0.00  0.00     0.020 A 
ENDBRANCH   6   9
ENDBRANCH   2   5
BRANCH   1  18
ATOM     18  C   UNL d   1      -0.568   3.070   5.503  0.00  0.00     0.033 A 
ATOM     19  C   UNL d   1      -0.631   3.749   6.725  0.00  0.00     0.018 A 
ATOM     20  C   UNL d   1      -0.825   3.042   7.920  0.00  0.00     0.017 A 
ATOM     21  C   UNL d   1      -0.966   1.644   7.920  0.00  0.00     0.048 A 
ATOM     22  C   UNL d   1      -0.899   0.966   6.697  0.00  0.00     0.017 A 
ATOM     23  C   UNL d   1      -0.702   1.672   5.504  0.00  0.00     0.018 A 
BRANCH  21  24
ATOM     24  C   UNL d   1      -1.177   0.901   9.220  0.00  0.00     0.417 C 
ATOM     25  F   UNL d   1      -1.422  -0.429   9.057  0.00  0.00    -0.166 F 
ATOM     26  F   UNL d   1      -2.229   1.389   9.934  0.00  0.00    -0.166 F 
ATOM     27  F   UNL d   1      -0.097   0.983  10.045  0.00  0.00    -0.166 F 
ENDBRANCH  21  24
ENDBRANCH   1  18
TORSDOF 4
