REMARK  8 active torsions:
REMARK  status: ('A' for Active; 'I' for Inactive)
REMARK    1  A    between atoms: C_17  and  C_1 
REMARK    2  A    between atoms: C_2  and  N_7 
REMARK    3  A    between atoms: N_6  and  C_2 
REMARK    4  A    between atoms: C_3  and  C_23 
REMARK       I    between atoms: N_8  and  C_3 
REMARK    5  A    between atoms: C_10  and  N_6 
REMARK    6  A    between atoms: N_7  and  N_8 
REMARK    7  A    between atoms: S_16  and  C_17 
REMARK    8  A    between atoms: C_23  and  S_16 
ROOT
ATOM      1  C   UNL d   1      -3.119   4.961   0.116  0.00  0.00     0.224 C 
ATOM      2  N   UNL d   1      -3.813   3.945   0.751  0.00  0.00    -0.171 NA
ATOM      3  O   UNL d   1      -3.703   6.022  -0.118  0.00  0.00    -0.277 OA
ATOM      4  H   UNL d   1      -4.762   4.247   0.964  0.00  0.00     0.156 HD
ENDROOT
BRANCH   2   5
ATOM      5  N   UNL d   1      -3.772   2.656   0.175  0.00  0.00    -0.291 N 
ATOM      6  H   UNL d   1      -4.660   2.330  -0.196  0.00  0.00     0.183 HD
BRANCH   5   7
ATOM      7  C   UNL d   1      -2.911   1.674   0.581  0.00  0.00     0.187 C 
ATOM      8  S   UNL d   1      -2.009   1.698   1.993  0.00  0.00    -0.040 SA
BRANCH   7   9
ATOM      9  N   UNL d   1      -2.774   0.583  -0.238  0.00  0.00    -0.332 N 
ATOM     10  H   UNL d   1      -2.131  -0.095   0.161  0.00  0.00     0.168 HD
BRANCH   9  11
ATOM     11  C   UNL d   1      -3.275   0.264  -1.521  0.00  0.00     0.035 A 
ATOM     12  C   UNL d   1      -4.016   1.117  -2.344  0.00  0.00     0.055 A 
ATOM     13  C   UNL d   1      -4.543   0.667  -3.563  0.00  0.00     0.058 A 
ATOM     14 CL   UNL d   1      -5.492   1.785  -4.481  0.00  0.00    -0.082 Cl
ATOM     15  C   UNL d   1      -4.298  -0.637  -3.994  0.00  0.00     0.055 A 
ATOM     16  C   UNL d   1      -3.495  -1.472  -3.220  0.00  0.00     0.028 A 
ATOM     17 CL   UNL d   1      -4.952  -1.269  -5.460  0.00  0.00    -0.083 Cl
ATOM     18  C   UNL d   1      -2.986  -1.022  -1.996  0.00  0.00     0.031 A 
ENDBRANCH   9  11
ENDBRANCH   7   9
ENDBRANCH   5   7
ENDBRANCH   2   5
BRANCH   1  19
ATOM     19  C   UNL d   1      -1.631   4.804  -0.144  0.00  0.00     0.172 C 
BRANCH  19  20
ATOM     20  S   UNL d   1      -1.163   3.711  -1.511  0.00  0.00    -0.155 SA
BRANCH  20  21
ATOM     21  C   UNL d   1      -1.912   4.545  -2.919  0.00  0.00     0.116 C 
BRANCH  21  22
ATOM     22  C   UNL d   1      -1.844   3.941  -4.321  0.00  0.00    -0.005 A 
ATOM     23  C   UNL d   1      -1.361   2.670  -4.709  0.00  0.00     0.042 A 
ATOM     24 CL   UNL d   1      -0.598   1.510  -3.680  0.00  0.00    -0.084 Cl
ATOM     25  C   UNL d   1      -1.459   2.230  -6.044  0.00  0.00     0.024 A 
ATOM     26  C   UNL d   1      -2.008   3.030  -7.034  0.00  0.00     0.003 A 
ATOM     27  C   UNL d   1      -2.460   4.295  -6.695  0.00  0.00     0.024 A 
ATOM     28  C   UNL d   1      -2.383   4.739  -5.368  0.00  0.00     0.042 A 
ATOM     29 CL   UNL d   1      -2.995   6.342  -5.084  0.00  0.00    -0.084 Cl
ENDBRANCH  21  22
ENDBRANCH  20  21
ENDBRANCH  19  20
ENDBRANCH   1  19
TORSDOF 8
