REMARK  3 active torsions:
REMARK  status: ('A' for Active; 'I' for Inactive)
REMARK    1  A    between atoms: C_6  and  C_1 
REMARK    2  A    between atoms: N_15  and  C_2 
REMARK    3  A    between atoms: C_10  and  C_6 
ROOT
ATOM      1  C   UNL d   1       2.482   0.056  -0.054  0.00  0.00     0.085 A 
ATOM      2  C   UNL d   1       1.620   1.144  -0.061  0.00  0.00     0.060 A 
ATOM      3  C   UNL d   1       0.219   0.777  -0.011  0.00  0.00     0.031 A 
ATOM      4  S   UNL d   1       1.616  -1.407   0.110  0.00  0.00    -0.065 SA
ATOM      5  C   UNL d   1       0.118  -0.614   0.033  0.00  0.00     0.088 A 
ATOM      6  N   UNL d   1      -1.002  -1.362   0.043  0.00  0.00    -0.354 N 
ATOM      7  HN  UNL d   1      -0.980  -2.382   0.067  1.00  0.00     0.166 HD
ATOM      8  C   UNL d   1      -1.018   1.487  -0.004  0.00  0.00    -0.045 A 
ATOM      9  C   UNL d   1      -2.201   0.719   0.007  0.00  0.00     0.032 A 
ATOM     10  C   UNL d   1      -2.149  -0.667   0.019  0.00  0.00     0.006 A 
ATOM     11  C   UNL d   1      -1.203   2.981  -0.004  0.00  0.00     0.049 C 
ATOM     12  C   UNL d   1      -3.423  -1.462   0.016  0.00  0.00     0.068 C 
ENDROOT
BRANCH   1  13
ATOM     13  C   UNL d   1       3.946   0.097  -0.062  0.00  0.00     0.208 C 
ATOM     14  O   UNL d   1       4.555   1.061   0.412  0.00  0.00    -0.285 OA
BRANCH  13  15
ATOM     15  C   UNL d   1       4.640  -1.022  -0.692  0.00  0.00     0.056 A 
ATOM     16  S   UNL d   1       6.193  -1.463  -0.099  0.00  0.00    -0.098 SA
ATOM     17  C   UNL d   1       6.337  -2.745  -1.217  0.00  0.00     0.050 A 
ATOM     18  C   UNL d   1       5.248  -2.826  -2.053  0.00  0.00     0.009 A 
ATOM     19  C   UNL d   1       4.281  -1.818  -1.769  0.00  0.00     0.023 A 
ENDBRANCH  13  15
ENDBRANCH   1  13
BRANCH   2  20
ATOM     20  N   UNL d   1       2.104   2.409  -0.139  0.00  0.00    -0.397 N 
ATOM     21  H   UNL d   1       3.101   2.575   0.032  0.00  0.00     0.156 HD
ATOM     22  H   UNL d   1       1.557   3.227   0.091  0.00  0.00     0.156 HD
ENDBRANCH   2  20
TORSDOF 3
