REMARK  4 active torsions:
REMARK  status: ('A' for Active; 'I' for Inactive)
REMARK    1  A    between atoms: C_2  and  S_1 
REMARK    2  A    between atoms: N_3  and  S_1 
REMARK    3  A    between atoms: C_14  and  N_3 
REMARK    4  A    between atoms: C_13  and  C_14 
ROOT
ATOM      1  N   UNL d   1       1.294   1.201   0.390  0.00  0.00    -0.313 N 
ATOM      2  H   UNL d   1       0.891   1.295  -0.542  0.00  0.00     0.172 HD
ENDROOT
BRANCH   1   3
ATOM      3  S   UNL d   1       2.118  -0.234   0.632  0.00  0.00     0.258 S 
ATOM      4  O   UNL d   1       1.730  -1.104  -0.453  0.00  0.00    -0.201 OA
ATOM      5  O   UNL d   1       3.505   0.097   0.882  0.00  0.00    -0.201 OA
BRANCH   3   6
ATOM      6  C   UNL d   1       1.411  -0.903   2.118  0.00  0.00     0.080 A 
ATOM      7  C   UNL d   1       0.035  -1.169   2.166  0.00  0.00     0.035 A 
ATOM      8  C   UNL d   1      -0.462  -1.792   3.301  0.00  0.00    -0.021 A 
ATOM      9  C   UNL d   1      -1.829  -2.281   3.584  0.00  0.00     0.068 C 
ATOM     10  C   UNL d   1       0.377  -2.145   4.347  0.00  0.00     0.075 A 
ATOM     11  C   UNL d   1      -1.660  -2.690   5.050  0.00  0.00     0.180 C 
ATOM     12  O   UNL d   1      -0.254  -2.804   5.368  0.00  0.00    -0.350 OA
ATOM     13  C   UNL d   1       1.734  -1.888   4.317  0.00  0.00     0.039 A 
ATOM     14  C   UNL d   1       2.258  -1.254   3.187  0.00  0.00     0.028 A 
ENDBRANCH   3   6
ENDBRANCH   1   3
BRANCH   1  15
ATOM     15  C   UNL d   1       1.695   2.404   1.134  0.00  0.00     0.166 C 
BRANCH  15  16
ATOM     16  C   UNL d   1       0.839   3.619   0.692  0.00  0.00     0.171 C 
ATOM     17  O   UNL d   1      -0.569   3.345   0.820  0.00  0.00    -0.339 OA
ATOM     18  C   UNL d   1      -0.911   3.287   2.147  0.00  0.00     0.102 A 
ATOM     19  C   UNL d   1      -1.955   2.431   2.484  0.00  0.00     0.039 A 
ATOM     20  C   UNL d   1      -0.179   3.949   3.140  0.00  0.00     0.102 A 
ATOM     21  C   UNL d   1      -2.213   2.166   3.827  0.00  0.00     0.003 A 
ATOM     22  C   UNL d   1      -1.459   2.792   4.823  0.00  0.00     0.003 A 
ATOM     23  C   UNL d   1      -0.459   3.704   4.480  0.00  0.00     0.039 A 
ATOM     24  O   UNL d   1       0.897   4.758   2.874  0.00  0.00    -0.346 OA
ATOM     25  C   UNL d   1       1.161   4.894   1.472  0.00  0.00     0.209 C 
ENDBRANCH  15  16
ENDBRANCH   1  15
TORSDOF 4
