REMARK  4 active torsions:
REMARK  status: ('A' for Active; 'I' for Inactive)
REMARK    1  A    between atoms: C_3  and  N_1 
REMARK    2  A    between atoms: N_2  and  C_5 
REMARK    3  A    between atoms: C_6  and  C_7 
REMARK    4  A    between atoms: N_15  and  C_10 
ROOT
ATOM      1  C   UNL d   1       0.289   1.087   0.567  0.00  0.00     0.115 A 
ATOM      2  C   UNL d   1       0.616   2.451   0.499  0.00  0.00     0.073 A 
ATOM      3  C   UNL d   1      -0.209   3.370   1.155  0.00  0.00     0.105 A 
ATOM      4  C   UNL d   1      -0.817   0.621   1.295  0.00  0.00    -0.002 A 
ATOM      5  C   UNL d   1      -1.338   2.935   1.864  0.00  0.00     0.037 A 
ATOM      6  C   UNL d   1      -1.630   1.568   1.938  0.00  0.00     0.016 A 
ENDROOT
BRANCH   4   7
ATOM      7  C   UNL d   1      -1.166  -0.795   1.451  0.00  0.00     0.030 C 
ATOM      8  C   UNL d   1      -0.751  -1.518   2.502  0.00  0.00     0.085 C 
BRANCH   8   9
ATOM      9  N   UNL d   1      -1.011  -2.842   2.817  0.00  0.00    -0.398 N 
ATOM     10  C   UNL d   1      -1.899  -3.720   2.055  0.00  0.00     0.148 C 
ATOM     11  C   UNL d   1      -0.423  -3.485   3.997  0.00  0.00     0.148 C 
ENDBRANCH   8   9
ENDBRANCH   4   7
BRANCH   1  12
ATOM     12  N   UNL d   1       1.124   0.163  -0.182  0.00  0.00    -0.115 N 
ATOM     13  O   UNL d   1       2.339   0.188   0.055  0.00  0.00    -0.532 OA
ATOM     14  O   UNL d   1       0.570  -0.525  -1.050  0.00  0.00    -0.532 OA
ENDBRANCH   1  12
BRANCH   3  15
ATOM     15  N   UNL d   1       0.103   4.804   1.096  0.00  0.00    -0.116 N 
ATOM     16  O   UNL d   1       1.124   5.143   0.482  0.00  0.00    -0.532 OA
ATOM     17  O   UNL d   1      -0.672   5.587   1.662  0.00  0.00    -0.532 OA
ENDBRANCH   3  15
TORSDOF 4
