REMARK  4 active torsions:
REMARK  status: ('A' for Active; 'I' for Inactive)
REMARK    1  A    between atoms: C_8  and  N_3 
REMARK    2  A    between atoms: C_10  and  C_8 
REMARK       I    between atoms: N_16  and  C_10 
REMARK    3  A    between atoms: N_14  and  N_16 
REMARK    4  A    between atoms: C_21  and  C_20 
ROOT
ATOM      1  N   UNL d   1      -0.742   1.044  -0.729  0.00  0.00    -0.248 N 
ATOM      2  C   UNL d   1      -1.153   0.175   0.221  0.00  0.00     0.117 A 
ATOM      3  N   UNL d   1      -2.947   1.044  -0.484  0.00  0.00    -0.232 N 
ATOM      4  C   UNL d   1      -1.886   1.686  -1.163  0.00  0.00     0.350 A 
ATOM      5  N   UNL d   1      -2.443   0.143   0.427  0.00  0.00    -0.281 N 
ATOM      6  HN  UNL d   1      -2.957  -0.420   1.105  1.00  0.00     0.188 HD
ATOM      7  C   UNL d   1       0.603   1.285  -1.098  0.00  0.00     0.062 A 
ATOM      8  S   UNL d   1       1.236  -1.153   0.138  0.00  0.00    -0.120 SA
ATOM      9  C   UNL d   1      -0.188  -0.583   1.078  0.00  0.00     0.158 C 
ATOM     10  C   UNL d   1       1.609   0.376  -0.711  0.00  0.00     0.028 A 
ATOM     11  O   UNL d   1      -2.003   2.636  -1.919  0.00  0.00    -0.244 OA
ATOM     12  C   UNL d   1       0.978   2.409  -1.849  0.00  0.00     0.031 A 
ATOM     13  C   UNL d   1       2.950   0.613  -1.046  0.00  0.00     0.021 A 
ATOM     14  C   UNL d   1       2.320   2.644  -2.171  0.00  0.00     0.002 A 
ATOM     15  C   UNL d   1       3.306   1.752  -1.763  0.00  0.00     0.002 A 
ENDROOT
BRANCH   3  16
ATOM     16  C   UNL d   1      -4.267   1.638  -0.365  0.00  0.00     0.258 C 
BRANCH  16  17
ATOM     17  C   UNL d   1      -5.462   0.704  -0.187  0.00  0.00     0.256 C 
ATOM     18  N   UNL d   1      -5.148  -0.563   0.276  0.00  0.00    -0.269 N 
ATOM     19  H   UNL d   1      -4.168  -0.782   0.453  0.00  0.00     0.190 HD
ATOM     20  O   UNL d   1      -6.610   1.127  -0.338  0.00  0.00    -0.270 OA
BRANCH  18  21
ATOM     21  N   UNL d   1      -6.147  -1.405   0.667  0.00  0.00    -0.308 N 
ATOM     22  C   UNL d   1      -5.778  -2.538   1.171  0.00  0.00     0.118 C 
ATOM     23  HN  UNL d   1      -7.131  -1.156   0.568  1.00  0.00     0.186 HD
BRANCH  22  24
ATOM     24  C   UNL d   1      -6.769  -3.504   1.691  0.00  0.00    -0.017 A 
ATOM     25  C   UNL d   1      -8.134  -3.243   1.600  0.00  0.00     0.030 A 
ATOM     26  C   UNL d   1      -9.006  -4.170   2.142  0.00  0.00     0.088 A 
ATOM     27  N   UNL d   1      -8.604  -5.308   2.752  0.00  0.00    -0.375 N 
ATOM     28  C   UNL d   1      -7.274  -5.532   2.820  0.00  0.00     0.088 A 
ATOM     29  HN  UNL d   1      -9.276  -5.969   3.143  1.00  0.00     0.164 HD
ATOM     30  C   UNL d   1      -6.321  -4.670   2.306  0.00  0.00     0.030 A 
ENDBRANCH  22  24
ENDBRANCH  18  21
ENDBRANCH  16  17
ENDBRANCH   3  16
TORSDOF 4
