REMARK  3 active torsions:
REMARK  status: ('A' for Active; 'I' for Inactive)
REMARK    1  A    between atoms: C_4  and  C_1 
REMARK    2  A    between atoms: C_2  and  C_3 
REMARK       I    between atoms: N_12  and  C_4 
REMARK    3  A    between atoms: O_13  and  C_5 
ROOT
ATOM      1  C   UNL d   1      -0.188  -1.320  -0.010  0.00  0.00     0.097 A 
ATOM      2  C   UNL d   1       1.217  -1.301   0.005  0.00  0.00     0.069 A 
ATOM      3  C   UNL d   1      -0.844  -0.076   0.014  0.00  0.00     0.156 A 
ATOM      4  N   UNL d   1      -0.221   1.119   0.088  0.00  0.00    -0.346 N 
ATOM      5  HN  UNL d   1      -0.749   1.991   0.122  1.00  0.00     0.167 HD
ATOM      6  C   UNL d   1       1.118   1.116   0.114  0.00  0.00     0.091 A 
ATOM      7  C   UNL d   1       1.864  -0.044   0.072  0.00  0.00     0.034 A 
ENDROOT
BRANCH   1   8
ATOM      8  C   UNL d   1      -1.072  -2.512  -0.070  0.00  0.00     0.254 C 
ATOM      9  O   UNL d   1      -2.169  -2.425  -0.614  0.00  0.00    -0.268 OA
ATOM     10  N   UNL d   1      -0.719  -3.674   0.544  0.00  0.00    -0.366 N 
ATOM     11  H   UNL d   1       0.210  -3.898   0.875  0.00  0.00     0.159 HD
ATOM     12  H   UNL d   1      -1.348  -4.459   0.419  0.00  0.00     0.159 HD
ENDBRANCH   1   8
BRANCH   2  13
ATOM     13  C   UNL d   1       2.143  -2.478  -0.107  0.00  0.00     0.418 C 
ATOM     14  F   UNL d   1       1.574  -3.708  -0.098  0.00  0.00    -0.166 F 
ATOM     15  F   UNL d   1       2.890  -2.431  -1.246  0.00  0.00    -0.166 F 
ATOM     16  F   UNL d   1       3.044  -2.502   0.918  0.00  0.00    -0.166 F 
ENDBRANCH   2  13
BRANCH   3  17
ATOM     17  O   UNL d   1      -2.205   0.057  -0.025  0.00  0.00    -0.345 OA
ATOM     18  H   UNL d   1      -2.586  -0.800  -0.307  0.00  0.00     0.219 HD
ENDBRANCH   3  17
TORSDOF 3
