REMARK  8 active torsions:
REMARK  status: ('A' for Active; 'I' for Inactive)
REMARK    1  A    between atoms: C_6  and  C_1 
REMARK    2  A    between atoms: C_16  and  C_3 
REMARK    3  A    between atoms: C_7  and  C_4 
REMARK    4  A    between atoms: O_13  and  C_7 
REMARK    5  A    between atoms: C_8  and  C_12 
REMARK    6  A    between atoms: N_9  and  O_13 
REMARK    7  A    between atoms: C_14  and  C_11 
REMARK    8  A    between atoms: N_24  and  C_11 
ROOT
ATOM      1  C   UNL d   1      -1.009  -0.518   0.117  0.00  0.00     0.322 C 
ATOM      2  O   UNL d   1      -0.890   0.708   0.168  0.00  0.00    -0.257 OA
ENDROOT
BRANCH   1   3
ATOM      3  C   UNL d   1       0.119  -1.436   0.042  0.00  0.00     0.083 A 
ATOM      4  S   UNL d   1      -0.048  -3.127   0.067  0.00  0.00    -0.079 SA
ATOM      5  C   UNL d   1       1.658  -3.405   0.034  0.00  0.00     0.100 A 
ATOM      6  C   UNL d   1       2.367  -2.204  -0.002  0.00  0.00    -0.002 A 
ATOM      7  C   UNL d   1       1.455  -1.086  -0.002  0.00  0.00     0.038 A 
BRANCH   5   8
ATOM      8  C   UNL d   1       2.127  -4.830   0.038  0.00  0.00     0.424 C 
ATOM      9  F   UNL d   1       1.121  -5.731  -0.135  0.00  0.00    -0.166 F 
ATOM     10  F   UNL d   1       3.027  -5.078  -0.948  0.00  0.00    -0.166 F 
ATOM     11  F   UNL d   1       2.721  -5.167   1.214  0.00  0.00    -0.166 F 
ENDBRANCH   5   8
BRANCH   6  12
ATOM     12  C   UNL d   1       3.836  -2.076  -0.062  0.00  0.00    -0.025 A 
ATOM     13  C   UNL d   1       4.405  -1.011  -0.784  0.00  0.00     0.012 A 
ATOM     14  C   UNL d   1       5.792  -0.831  -0.844  0.00  0.00     0.001 A 
ATOM     15  C   UNL d   1       6.640  -1.723  -0.197  0.00  0.00     0.000 A 
ATOM     16  C   UNL d   1       6.097  -2.778   0.529  0.00  0.00     0.001 A 
ATOM     17  C   UNL d   1       4.708  -2.938   0.614  0.00  0.00     0.012 A 
ENDBRANCH   6  12
ENDBRANCH   1   3
BRANCH   1  18
ATOM     18  O   UNL d   1      -2.217  -1.177   0.138  0.00  0.00    -0.193 OA
BRANCH  18  19
ATOM     19  N   UNL d   1      -3.031  -0.590   1.132  0.00  0.00    -0.246 N 
ATOM     20  C   UNL d   1      -4.268  -0.976   1.053  0.00  0.00     0.109 C 
ATOM     21  HN  UNL d   1      -2.685   0.063   1.835  1.00  0.00     0.196 HD
BRANCH  20  22
ATOM     22  C   UNL d   1      -5.162  -0.597   2.193  0.00  0.00     0.004 A 
ATOM     23  C   UNL d   1      -4.900   0.564   2.934  0.00  0.00     0.030 A 
ATOM     24  C   UNL d   1      -5.661   0.866   4.076  0.00  0.00     0.048 A 
ATOM     25  C   UNL d   1      -6.686  -0.013   4.458  0.00  0.00     0.016 A 
ATOM     26  C   UNL d   1      -6.951  -1.166   3.718  0.00  0.00     0.002 A 
ATOM     27  C   UNL d   1      -6.191  -1.458   2.585  0.00  0.00     0.015 A 
BRANCH  24  28
ATOM     28  C   UNL d   1      -5.374   2.095   4.905  0.00  0.00     0.417 C 
ATOM     29  F   UNL d   1      -4.357   2.861   4.423  0.00  0.00    -0.166 F 
ATOM     30  F   UNL d   1      -6.453   2.922   4.993  0.00  0.00    -0.166 F 
ATOM     31  F   UNL d   1      -5.036   1.787   6.188  0.00  0.00    -0.166 F 
ENDBRANCH  24  28
ENDBRANCH  20  22
BRANCH  20  32
ATOM     32  N   UNL d   1      -4.793  -1.711   0.016  0.00  0.00    -0.286 NA
ATOM     33  H   UNL d   1      -4.218  -1.674  -0.820  0.00  0.00     0.125 HD
ATOM     34  H   UNL d   1      -5.769  -1.536  -0.191  0.00  0.00     0.125 HD
ENDBRANCH  20  32
ENDBRANCH  18  19
ENDBRANCH   1  18
TORSDOF 8
