REMARK  7 active torsions:
REMARK  status: ('A' for Active; 'I' for Inactive)
REMARK    1  A    between atoms: N_2  and  C_1 
REMARK    2  A    between atoms: N_4  and  C_3 
REMARK    3  A    between atoms: C_5  and  C_9 
REMARK       I    between atoms: N_13  and  C_5 
REMARK    4  A    between atoms: C_10  and  C_16 
REMARK    5  A    between atoms: C_12  and  C_19 
REMARK    6  A    between atoms: C_23  and  N_13 
REMARK    7  A    between atoms: O_24  and  C_17 
ROOT
ATOM      1  C   UNL d   1       1.114  -0.185   0.254  0.00  0.00     0.130 A 
ATOM      2  C   UNL d   1       0.313  -1.340   0.126  0.00  0.00     0.063 A 
ATOM      3  C   UNL d   1       0.579   1.113   0.366  0.00  0.00     0.050 A 
ATOM      4  C   UNL d   1      -1.067  -1.075  -0.018  0.00  0.00     0.033 A 
ATOM      5  C   UNL d   1      -0.798   1.313   0.328  0.00  0.00    -0.034 A 
ATOM      6  C   UNL d   1      -1.616   0.214   0.092  0.00  0.00     0.014 A 
ENDROOT
BRANCH   2   7
ATOM      7  N   UNL d   1       0.736  -2.673   0.242  0.00  0.00    -0.379 N 
ATOM      8  C   UNL d   1       0.119  -3.694  -0.616  0.00  0.00     0.123 C 
ATOM      9  C   UNL d   1       0.516  -5.150  -0.366  0.00  0.00     0.029 C 
ATOM     10  C   UNL d   1       1.789  -5.421   0.436  0.00  0.00     0.024 C 
ATOM     11  C   UNL d   1       1.858  -4.425   1.592  0.00  0.00     0.029 C 
ATOM     12  C   UNL d   1       1.871  -2.987   1.111  0.00  0.00     0.123 C 
BRANCH  10  13
ATOM     13  C   UNL d   1       3.080  -5.548  -0.363  0.00  0.00    -0.021 A 
ATOM     14  C   UNL d   1       4.044  -6.552  -0.121  0.00  0.00     0.074 A 
ATOM     15  C   UNL d   1       5.170  -6.665  -0.954  0.00  0.00     0.037 A 
ATOM     16  C   UNL d   1       5.373  -5.791  -2.019  0.00  0.00     0.003 A 
ATOM     17  C   UNL d   1       4.445  -4.790  -2.262  0.00  0.00     0.001 A 
ATOM     18  C   UNL d   1       3.321  -4.668  -1.441  0.00  0.00     0.010 A 
BRANCH  14  19
ATOM     19  O   UNL d   1       3.945  -7.584   0.778  0.00  0.00    -0.355 OA
ATOM     20  C   UNL d   1       3.668  -7.253   2.132  0.00  0.00     0.210 C 
ENDBRANCH  14  19
ENDBRANCH  10  13
ENDBRANCH   2   7
BRANCH   1  21
ATOM     21  N   UNL d   1       2.564  -0.234   0.222  0.00  0.00    -0.113 N 
ATOM     22  O   UNL d   1       3.102  -0.668  -0.807  0.00  0.00    -0.532 OA
ATOM     23  O   UNL d   1       3.163   0.219   1.208  0.00  0.00    -0.532 OA
ENDBRANCH   1  21
BRANCH   5  24
ATOM     24  C   UNL d   1      -1.304   2.643   0.665  0.00  0.00     0.017 C 
ATOM     25  C   UNL d   1      -2.470   3.188   0.287  0.00  0.00     0.075 C 
BRANCH  25  26
ATOM     26  C   UNL d   1      -2.776   4.555   0.794  0.00  0.00     0.245 C 
ATOM     27  N   UNL d   1      -4.020   5.002   0.421  0.00  0.00    -0.324 N 
ATOM     28  H   UNL d   1      -4.594   4.385  -0.140  0.00  0.00     0.169 HD
ATOM     29  O   UNL d   1      -1.954   5.157   1.488  0.00  0.00    -0.268 OA
BRANCH  27  30
ATOM     30  C   UNL d   1      -4.618   6.224   0.798  0.00  0.00     0.035 A 
ATOM     31  C   UNL d   1      -3.981   7.192   1.581  0.00  0.00     0.029 A 
ATOM     32  C   UNL d   1      -4.655   8.355   1.963  0.00  0.00     0.002 A 
ATOM     33  C   UNL d   1      -5.968   8.564   1.559  0.00  0.00     0.000 A 
ATOM     34  C   UNL d   1      -6.606   7.619   0.758  0.00  0.00     0.002 A 
ATOM     35  C   UNL d   1      -5.931   6.456   0.376  0.00  0.00     0.029 A 
ENDBRANCH  27  30
ENDBRANCH  25  26
ENDBRANCH   5  24
TORSDOF 7
