REMARK  3 active torsions:
REMARK  status: ('A' for Active; 'I' for Inactive)
REMARK    1  A    between atoms: C_7  and  O_11 
REMARK    2  A    between atoms: C_12  and  N_8 
REMARK    3  A    between atoms: O_11  and  C_16 
ROOT
ATOM      1  N   UNL d   1       2.280  -0.719   0.361  0.00  0.00    -0.288 N 
ATOM      2  C   UNL d   1       2.388   0.589  -0.049  0.00  0.00     0.232 C 
ATOM      3  C   UNL d   1       1.128  -1.442   0.440  0.00  0.00     0.261 C 
ATOM      4  C   UNL d   1      -0.112  -0.704   0.204  0.00  0.00     0.066 A 
ATOM      5  O   UNL d   1       1.206   1.315  -0.161  0.00  0.00    -0.278 OA
ATOM      6  C   UNL d   1      -0.029   0.659  -0.042  0.00  0.00     0.095 A 
ATOM      7  N   UNL d   1       3.499   1.189  -0.335  0.00  0.00    -0.322 N 
ATOM      8  HN  UNL d   1       3.481   2.182  -0.567  1.00  0.00     0.169 HD
ATOM      9  O   UNL d   1       1.133  -2.646   0.676  0.00  0.00    -0.267 OA
ATOM     10  C   UNL d   1      -1.354  -1.342   0.234  0.00  0.00     0.020 A 
ATOM     11  C   UNL d   1      -1.185   1.417  -0.215  0.00  0.00     0.038 A 
ATOM     12  C   UNL d   1      -2.515  -0.592   0.045  0.00  0.00     0.001 A 
ATOM     13  C   UNL d   1      -2.431   0.787  -0.166  0.00  0.00     0.003 A 
ATOM     14  H   UNL d   1       3.121  -1.254   0.516  0.00  0.00     0.172 HD
ENDROOT
BRANCH   7  15
ATOM     15  C   UNL d   1       4.727   0.510  -0.333  0.00  0.00     0.035 A 
ATOM     16  C   UNL d   1       4.931  -0.657  -1.077  0.00  0.00     0.032 A 
ATOM     17  C   UNL d   1       6.151  -1.330  -1.022  0.00  0.00     0.039 A 
ATOM     18  C   UNL d   1       7.217  -0.806  -0.292  0.00  0.00     0.078 A 
ATOM     19  C   UNL d   1       7.044   0.384   0.415  0.00  0.00     0.039 A 
ATOM     20  C   UNL d   1       5.803   1.038   0.386  0.00  0.00     0.032 A 
BRANCH  18  21
ATOM     21  O   UNL d   1       8.350  -1.560  -0.340  0.00  0.00    -0.255 OA
BRANCH  21  22
ATOM     22  C   UNL d   1       9.595  -0.891  -0.233  0.00  0.00     0.530 C 
ATOM     23  F   UNL d   1       9.565   0.352  -0.756  0.00  0.00    -0.144 F 
ATOM     24  F   UNL d   1       9.979  -0.825   1.058  0.00  0.00    -0.144 F 
ATOM     25  F   UNL d   1      10.518  -1.606  -0.915  0.00  0.00    -0.144 F 
ENDBRANCH  21  22
ENDBRANCH  18  21
ENDBRANCH   7  15
TORSDOF 3
