REMARK  4 active torsions:
REMARK  status: ('A' for Active; 'I' for Inactive)
REMARK    1  A    between atoms: C_2  and  C_1 
REMARK    2  A    between atoms: C_7  and  C_2 
REMARK    3  A    between atoms: C_10  and  C_9 
REMARK       I    between atoms: N_13  and  C_10 
REMARK    4  A    between atoms: N_14  and  N_13 
ROOT
ATOM      1  C   UNL d   1      -3.797   1.203   0.240  0.00  0.00     0.031 A 
ATOM      2  C   UNL d   1      -5.064   1.516  -0.320  0.00  0.00     0.047 A 
ATOM      3  C   UNL d   1      -3.747   0.444   1.437  0.00  0.00     0.016 A 
ATOM      4  C   UNL d   1      -6.218   1.014   0.335  0.00  0.00     0.018 A 
ATOM      5  C   UNL d   1      -4.902  -0.062   2.034  0.00  0.00     0.001 A 
ATOM      6  C   UNL d   1      -6.141   0.225   1.485  0.00  0.00     0.001 A 
ENDROOT
BRANCH   1   7
ATOM      7  C   UNL d   1      -2.487   1.610  -0.345  0.00  0.00     0.194 C 
ATOM      8  O   UNL d   1      -2.430   2.677  -0.957  0.00  0.00    -0.287 OA
BRANCH   7   9
ATOM      9  C   UNL d   1      -1.199   0.848  -0.197  0.00  0.00     0.028 C 
ATOM     10  C   UNL d   1       0.002   1.593   0.006  0.00  0.00    -0.041 C 
ATOM     11  C   UNL d   1       1.253   0.927  -0.028  0.00  0.00    -0.049 C 
ATOM     12  C   UNL d   1      -0.008   3.096   0.206  0.00  0.00     0.050 C 
ATOM     13  C   UNL d   1       2.559   1.699  -0.038  0.00  0.00     0.049 C 
ATOM     14  C   UNL d   1       1.297  -0.488  -0.051  0.00  0.00    -0.049 C 
ATOM     15  C   UNL d   1       0.095  -1.233  -0.139  0.00  0.00    -0.049 C 
ATOM     16  C   UNL d   1       2.647  -1.174  -0.008  0.00  0.00     0.049 C 
ATOM     17  C   UNL d   1      -1.142  -0.564  -0.344  0.00  0.00    -0.041 C 
ATOM     18  C   UNL d   1       0.151  -2.742  -0.042  0.00  0.00     0.049 C 
ATOM     19  C   UNL d   1      -2.346  -1.389  -0.738  0.00  0.00     0.050 C 
ENDBRANCH   7   9
ENDBRANCH   1   7
BRANCH   2  20
ATOM     20  C   UNL d   1      -5.396   2.270  -1.592  0.00  0.00     0.266 C 
ATOM     21  O   UNL d   1      -6.522   2.158  -2.080  0.00  0.00    -0.266 OA
ATOM     22  N   UNL d   1      -4.459   3.097  -2.183  0.00  0.00    -0.290 N 
ATOM     23  H   UNL d   1      -3.548   3.253  -1.742  0.00  0.00     0.183 HD
BRANCH  22  24
ATOM     24  N   UNL d   1      -4.803   3.879  -3.308  0.00  0.00    -0.247 NA
ATOM     25  H   UNL d   1      -5.745   3.580  -3.595  0.00  0.00     0.143 HD
ATOM     26  H   UNL d   1      -4.187   3.612  -4.076  0.00  0.00     0.143 HD
ENDBRANCH  22  24
ENDBRANCH   2  20
TORSDOF 4
