REMARK  7 active torsions:
REMARK  status: ('A' for Active; 'I' for Inactive)
REMARK    1  A    between atoms: C_2  and  C_1 
REMARK    2  A    between atoms: S_3  and  C_1 
REMARK    3  A    between atoms: C_4  and  C_1 
REMARK    4  A    between atoms: C_6  and  S_3 
REMARK    5  A    between atoms: C_5  and  C_4 
REMARK    6  A    between atoms: C_11  and  C_5 
REMARK    7  A    between atoms: N_12  and  C_9 
ROOT
ATOM      1  C   UNL d   1       1.082   0.075   0.113  0.00  0.00     0.096 C 
ENDROOT
BRANCH   1   2
ATOM      2  C   UNL d   1       0.643  -1.021   1.091  0.00  0.00    -0.000 A 
ATOM      3  C   UNL d   1       0.061  -0.831   2.362  0.00  0.00     0.043 A 
ATOM      4 CL   UNL d   1      -0.190   0.710   3.102  0.00  0.00    -0.084 Cl
ATOM      5  C   UNL d   1      -0.273  -1.923   3.189  0.00  0.00     0.024 A 
ATOM      6  C   UNL d   1       0.045  -3.226   2.828  0.00  0.00     0.003 A 
ATOM      7  C   UNL d   1       0.687  -3.446   1.622  0.00  0.00     0.024 A 
ATOM      8  C   UNL d   1       0.960  -2.371   0.761  0.00  0.00     0.043 A 
ATOM      9 CL   UNL d   1       1.770  -2.811  -0.713  0.00  0.00    -0.084 Cl
ENDBRANCH   1   2
BRANCH   1  10
ATOM     10  S   UNL d   1       0.227   1.707   0.005  0.00  0.00    -0.117 SA
BRANCH  10  11
ATOM     11  C   UNL d   1      -1.543   1.488   0.054  0.00  0.00     0.027 A 
ATOM     12  C   UNL d   1      -2.314   0.524  -0.617  0.00  0.00     0.042 A 
ATOM     13  C   UNL d   1      -3.716   0.595  -0.502  0.00  0.00     0.030 A 
ATOM     14  C   UNL d   1      -4.348   1.579   0.261  0.00  0.00     0.002 A 
ATOM     15  C   UNL d   1      -3.587   2.537   0.911  0.00  0.00     0.002 A 
ATOM     16  C   UNL d   1      -2.200   2.489   0.804  0.00  0.00     0.021 A 
BRANCH  12  17
ATOM     17  N   UNL d   1      -1.799  -0.334  -1.595  0.00  0.00    -0.398 N 
ATOM     18  H   UNL d   1      -0.798  -0.447  -1.615  0.00  0.00     0.156 HD
ATOM     19  H   UNL d   1      -2.312  -1.200  -1.719  0.00  0.00     0.156 HD
ENDBRANCH  12  17
ENDBRANCH  10  11
ENDBRANCH   1  10
BRANCH   1  20
ATOM     20  C   UNL d   1       2.580   0.385   0.342  0.00  0.00     0.104 C 
BRANCH  20  21
ATOM     21  C   UNL d   1       3.160   1.211  -0.800  0.00  0.00     0.161 C 
ATOM     22  O   UNL d   1       3.135   0.831  -1.961  0.00  0.00    -0.292 OA
BRANCH  21  23
ATOM     23  C   UNL d   1       3.709   2.550  -0.467  0.00  0.00     0.010 A 
ATOM     24  C   UNL d   1       4.512   2.736   0.662  0.00  0.00     0.015 A 
ATOM     25  C   UNL d   1       4.957   4.015   0.991  0.00  0.00     0.001 A 
ATOM     26  C   UNL d   1       4.604   5.104   0.194  0.00  0.00     0.000 A 
ATOM     27  C   UNL d   1       3.817   4.916  -0.944  0.00  0.00     0.001 A 
ATOM     28  C   UNL d   1       3.374   3.637  -1.282  0.00  0.00     0.015 A 
ENDBRANCH  21  23
ENDBRANCH  20  21
ENDBRANCH   1  20
TORSDOF 7
