REMARK  5 active torsions:
REMARK  status: ('A' for Active; 'I' for Inactive)
REMARK    1  A    between atoms: N_10  and  C_3 
REMARK    2  A    between atoms: C_9  and  C_4 
REMARK       I    between atoms: C_7  and  N_8 
REMARK    3  A    between atoms: C_11  and  C_7 
REMARK    4  A    between atoms: N_8  and  N_10 
REMARK    5  A    between atoms: O_21  and  C_17 
ROOT
ATOM      1  N   UNL d   1       1.433  -0.655   0.108  0.00  0.00    -0.334 N 
ATOM      2  HN  UNL d   1       2.329  -1.141   0.147  1.00  0.00     0.168 HD
ATOM      3  C   UNL d   1       0.257  -1.246   0.071  0.00  0.00     0.163 A 
ATOM      4  C   UNL d   1       1.280   0.724   0.087  0.00  0.00     0.051 A 
ATOM      5  S   UNL d   1      -1.094  -0.181   0.036  0.00  0.00    -0.062 SA
ATOM      6  C   UNL d   1      -0.031   1.160   0.074  0.00  0.00     0.083 A 
ENDROOT
BRANCH   3   7
ATOM      7  N   UNL d   1       0.071  -2.586   0.068  0.00  0.00    -0.277 N 
ATOM      8  H   UNL d   1      -0.877  -2.956   0.167  0.00  0.00     0.189 HD
BRANCH   7   9
ATOM      9  N   UNL d   1       1.051  -3.444   0.585  0.00  0.00    -0.264 N 
ATOM     10  C   UNL d   1       0.620  -4.647   1.108  0.00  0.00     0.270 C 
ATOM     11  O   UNL d   1      -0.559  -4.994   1.068  0.00  0.00    -0.266 OA
ATOM     12  H   UNL d   1       1.942  -3.000   0.786  0.00  0.00     0.190 HD
BRANCH  10  13
ATOM     13  C   UNL d   1       1.650  -5.532   1.736  0.00  0.00     0.033 A 
ATOM     14  C   UNL d   1       3.023  -5.245   1.706  0.00  0.00     0.019 A 
ATOM     15  C   UNL d   1       3.943  -6.133   2.272  0.00  0.00     0.025 A 
ATOM     16  C   UNL d   1       3.500  -7.314   2.865  0.00  0.00     0.034 A 
ATOM     17  C   UNL d   1       2.139  -7.610   2.908  0.00  0.00     0.025 A 
ATOM     18 CL   UNL d   1       4.640  -8.414   3.532  0.00  0.00    -0.084 Cl
ATOM     19  C   UNL d   1       1.218  -6.721   2.348  0.00  0.00     0.019 A 
ENDBRANCH  10  13
ENDBRANCH   7   9
ENDBRANCH   3   7
BRANCH   4  20
ATOM     20  C   UNL d   1       2.429   1.619   0.011  0.00  0.00    -0.006 A 
ATOM     21  C   UNL d   1       3.561   1.222  -0.721  0.00  0.00     0.050 A 
ATOM     22  C   UNL d   1       4.653   2.081  -0.868  0.00  0.00     0.069 A 
ATOM     23  C   UNL d   1       4.620   3.338  -0.260  0.00  0.00     0.037 A 
ATOM     24  C   UNL d   1       3.513   3.737   0.487  0.00  0.00     0.004 A 
ATOM     25  C   UNL d   1       2.420   2.881   0.623  0.00  0.00     0.014 A 
BRANCH  22  26
ATOM     26  O   UNL d   1       5.793   1.823  -1.578  0.00  0.00    -0.356 OA
ATOM     27  C   UNL d   1       5.865   0.569  -2.245  0.00  0.00     0.210 C 
ENDBRANCH  22  26
ENDBRANCH   4  20
TORSDOF 5
