REMARK  4 active torsions:
REMARK  status: ('A' for Active; 'I' for Inactive)
REMARK    1  A    between atoms: C_8  and  N_1 
REMARK    2  A    between atoms: C_7  and  C_2 
REMARK    3  A    between atoms: N_11  and  C_9 
REMARK    4  A    between atoms: C_10  and  N_11 
ROOT
ATOM      1  N   UNL d   1       3.828   0.722   0.026  0.00  0.00    -0.225 N 
ATOM      2  C   UNL d   1       3.724  -0.667  -0.063  0.00  0.00     0.139 C 
ATOM      3  N   UNL d   1       5.779  -0.070  -0.352  0.00  0.00    -0.007 NA
ATOM      4  N   UNL d   1       5.103   1.064  -0.281  0.00  0.00     0.001 NA
ATOM      5  N   UNL d   1       4.946  -1.145  -0.221  0.00  0.00    -0.270 N 
ATOM      6  HN  UNL d   1       5.216  -2.128  -0.242  1.00  0.00     0.185 HD
ENDROOT
BRANCH   2   7
ATOM      7  C   UNL d   1       2.472  -1.328  -0.173  0.00  0.00     0.063 C 
ATOM      8  C   UNL d   1       2.276  -2.595   0.219  0.00  0.00     0.066 C 
BRANCH   8   9
ATOM      9  N   UNL d   1       3.130  -3.456   0.879  0.00  0.00    -0.269 NA
ATOM     10  H   UNL d   1       3.135  -4.380   0.449  0.00  0.00     0.133 HD
BRANCH   9  11
ATOM     11  C   UNL d   1       3.094  -3.639   2.294  0.00  0.00     0.018 A 
ATOM     12  C   UNL d   1       3.874  -4.649   2.901  0.00  0.00    -0.041 A 
ATOM     13  C   UNL d   1       4.710  -5.621   2.112  0.00  0.00     0.050 C 
ATOM     14  C   UNL d   1       3.846  -4.801   4.301  0.00  0.00     0.008 A 
ATOM     15  C   UNL d   1       3.098  -3.939   5.101  0.00  0.00     0.001 A 
ATOM     16  C   UNL d   1       2.369  -2.914   4.515  0.00  0.00     0.002 A 
ATOM     17  C   UNL d   1       2.377  -2.761   3.127  0.00  0.00     0.024 A 
ENDBRANCH   9  11
ENDBRANCH   8   9
ENDBRANCH   2   7
BRANCH   1  18
ATOM     18  C   UNL d   1       2.890   1.727   0.392  0.00  0.00     0.056 A 
ATOM     19  C   UNL d   1       1.784   1.435   1.202  0.00  0.00     0.032 A 
ATOM     20  C   UNL d   1       0.910   2.459   1.588  0.00  0.00     0.021 A 
ATOM     21  C   UNL d   1       1.132   3.767   1.158  0.00  0.00     0.011 A 
ATOM     22  C   UNL d   1       2.228   4.068   0.355  0.00  0.00     0.021 A 
ATOM     23 BR   UNL d   1      -0.050   5.143   1.689  0.00  0.00    -0.051 Br
ATOM     24  C   UNL d   1       3.115   3.053  -0.016  0.00  0.00     0.032 A 
ENDBRANCH   1  18
TORSDOF 4
