REMARK  6 active torsions:
REMARK  status: ('A' for Active; 'I' for Inactive)
REMARK       I    between atoms: N_3  and  C_1 
REMARK    1  A    between atoms: C_11  and  C_1 
REMARK    2  A    between atoms: C_2  and  N_3 
REMARK    3  A    between atoms: C_4  and  C_11 
REMARK    4  A    between atoms: C_13  and  C_4 
REMARK    5  A    between atoms: C_5  and  C_13 
REMARK    6  A    between atoms: O_17  and  C_5 
ROOT
ATOM      1  C   UNL d   1       0.955  -1.321   0.686  0.00  0.00     0.222 C 
ATOM      2  N   UNL d   1       2.340  -1.332   0.584  0.00  0.00    -0.327 N 
ATOM      3  O   UNL d   1       0.315  -1.601   1.694  0.00  0.00    -0.273 OA
ATOM      4  H   UNL d   1       2.738  -0.914  -0.248  0.00  0.00     0.169 HD
ENDROOT
BRANCH   1   5
ATOM      5  C   UNL d   1       0.278  -0.879  -0.610  0.00  0.00     0.113 C 
BRANCH   5   6
ATOM      6  C   UNL d   1      -1.287  -0.867  -0.628  0.00  0.00    -0.023 C 
ATOM      7  C   UNL d   1      -1.871  -2.294  -0.395  0.00  0.00     0.010 C 
ATOM      8  C   UNL d   1      -1.601  -3.276  -1.530  0.00  0.00     0.001 C 
ATOM      9  C   UNL d   1      -2.124  -2.737  -2.853  0.00  0.00     0.000 C 
ATOM     10  C   UNL d   1      -1.540  -1.367  -3.165  0.00  0.00     0.001 C 
ATOM     11  C   UNL d   1      -1.772  -0.371  -2.026  0.00  0.00     0.010 C 
BRANCH   6  12
ATOM     12  C   UNL d   1      -1.905   0.050   0.474  0.00  0.00     0.119 C 
BRANCH  12  13
ATOM     13  C   UNL d   1      -1.498   1.509   0.480  0.00  0.00     0.140 C 
ATOM     14  O   UNL d   1      -0.708   2.038  -0.284  0.00  0.00    -0.650 OA
BRANCH  13  15
ATOM     15  O   UNL d   1      -2.132   2.206   1.454  0.00  0.00    -0.776 OA
ATOM     16  H   UNL d   1      -2.719   1.657   2.009  0.00  0.00     0.167 HD
ENDBRANCH  13  15
ENDBRANCH  12  13
ENDBRANCH   6  12
ENDBRANCH   5   6
ENDBRANCH   1   5
BRANCH   2  17
ATOM     17  C   UNL d   1       3.248  -1.720   1.599  0.00  0.00     0.037 A 
ATOM     18  C   UNL d   1       2.864  -2.432   2.738  0.00  0.00     0.053 A 
ATOM     19  C   UNL d   1       3.803  -2.765   3.718  0.00  0.00     0.037 A 
ATOM     20 CL   UNL d   1       3.302  -3.639   5.114  0.00  0.00    -0.084 Cl
ATOM     21  C   UNL d   1       5.135  -2.399   3.579  0.00  0.00     0.048 A 
ATOM     22  C   UNL d   1       5.526  -1.705   2.438  0.00  0.00     0.037 A 
ATOM     23  C   UNL d   1       4.596  -1.376   1.445  0.00  0.00     0.053 A 
ATOM     24 CL   UNL d   1       7.172  -1.236   2.255  0.00  0.00    -0.084 Cl
ENDBRANCH   2  17
TORSDOF 6
