REMARK  4 active torsions:
REMARK  status: ('A' for Active; 'I' for Inactive)
REMARK    1  A    between atoms: C_7  and  C_10 
REMARK    2  A    between atoms: C_8  and  C_11 
REMARK    3  A    between atoms: N_13  and  C_9 
REMARK    4  A    between atoms: C_17  and  N_13 
ROOT
ATOM      1  C   UNL d   1       6.834   0.184  -0.633  0.00  0.00     0.050 A 
ATOM      2  C   UNL d   1       6.853   1.910   1.085  0.00  0.00     0.050 A 
ATOM      3  C   UNL d   1       7.533   0.985   0.281  0.00  0.00     0.032 A 
ATOM      4  C   UNL d   1       4.730   1.235   0.064  0.00  0.00     0.033 A 
ATOM      5  C   UNL d   1       5.460   2.037   0.950  0.00  0.00     0.045 A 
ATOM      6  C   UNL d   1       5.437   0.320  -0.729  0.00  0.00     0.045 A 
ENDROOT
BRANCH   4   7
ATOM      7  N   UNL d   1       3.345   1.369  -0.125  0.00  0.00    -0.365 N 
ATOM      8  H   UNL d   1       2.856   0.527  -0.445  0.00  0.00     0.165 HD
BRANCH   7   9
ATOM      9  C   UNL d   1       2.532   2.410   0.262  0.00  0.00     0.111 C 
ATOM     10  C   UNL d   1       1.188   2.459   0.313  0.00  0.00     0.115 A 
ATOM     11  C   UNL d   1       0.542   3.722   0.732  0.00  0.00     0.266 A 
ATOM     12  C   UNL d   1       0.357   1.286  -0.031  0.00  0.00     0.266 A 
ATOM     13  N   UNL d   1      -0.824   3.695   0.747  0.00  0.00    -0.275 N 
ATOM     14  O   UNL d   1       1.163   4.731   1.047  0.00  0.00    -0.267 OA
ATOM     15  C   UNL d   1      -1.619   2.630   0.452  0.00  0.00     0.329 A 
ATOM     16  H   UNL d   1      -1.292   4.547   1.020  0.00  0.00     0.173 HD
ATOM     17  N   UNL d   1      -0.991   1.476   0.094  0.00  0.00    -0.275 N 
ATOM     18  O   UNL d   1      -2.842   2.707   0.505  0.00  0.00    -0.246 OA
ATOM     19  H   UNL d   1      -1.587   0.691  -0.130  0.00  0.00     0.173 HD
ATOM     20  O   UNL d   1       0.824   0.213  -0.405  0.00  0.00    -0.267 OA
ENDBRANCH   7   9
ENDBRANCH   4   7
BRANCH   2  21
ATOM     21  C   UNL d   1       7.581   2.758   2.100  0.00  0.00     0.417 C 
ATOM     22  F   UNL d   1       8.918   2.505   2.160  0.00  0.00    -0.166 F 
ATOM     23  F   UNL d   1       7.462   4.090   1.849  0.00  0.00    -0.166 F 
ATOM     24  F   UNL d   1       7.110   2.570   3.364  0.00  0.00    -0.166 F 
ENDBRANCH   2  21
BRANCH   1  25
ATOM     25  C   UNL d   1       7.553  -0.815  -1.508  0.00  0.00     0.417 C 
ATOM     26  F   UNL d   1       8.901  -0.836  -1.312  0.00  0.00    -0.166 F 
ATOM     27  F   UNL d   1       7.126  -2.090  -1.298  0.00  0.00    -0.166 F 
ATOM     28  F   UNL d   1       7.373  -0.572  -2.835  0.00  0.00    -0.166 F 
ENDBRANCH   1  25
TORSDOF 4
