REMARK  4 active torsions:
REMARK  status: ('A' for Active; 'I' for Inactive)
REMARK    1  A    between atoms: C_7  and  N_1 
REMARK    2  A    between atoms: C_6  and  C_4 
REMARK    3  A    between atoms: C_12  and  C_6 
REMARK    4  A    between atoms: C_15  and  C_7 
ROOT
ATOM      1  N   UNL d   1       0.153  -1.068  -0.112  0.00  0.00    -0.294 N 
ATOM      2  C   UNL d   1       0.910   0.063  -0.321  0.00  0.00     0.149 A 
ATOM      3  C   UNL d   1      -1.197  -0.875   0.133  0.00  0.00     0.266 A 
ATOM      4  C   UNL d   1      -1.546   0.568   0.006  0.00  0.00     0.078 A 
ATOM      5  S   UNL d   1      -0.115   1.493  -0.244  0.00  0.00    -0.055 SA
ATOM      6  S   UNL d   1       2.554   0.180  -0.585  0.00  0.00    -0.052 SA
ATOM      7  O   UNL d   1      -1.982  -1.751   0.471  0.00  0.00    -0.266 OA
ENDROOT
BRANCH   1   8
ATOM      8  C   UNL d   1       0.673  -2.433  -0.072  0.00  0.00     0.172 C 
BRANCH   8   9
ATOM      9  C   UNL d   1       0.526  -3.142  -1.398  0.00  0.00    -0.037 A 
ATOM     10  C   UNL d   1       1.572  -3.167  -2.325  0.00  0.00     0.026 A 
ATOM     11  C   UNL d   1       1.376  -3.817  -3.534  0.00  0.00     0.088 A 
ATOM     12  N   UNL d   1       0.227  -4.435  -3.878  0.00  0.00    -0.375 N 
ATOM     13  C   UNL d   1      -0.773  -4.400  -2.974  0.00  0.00     0.088 A 
ATOM     14  HN  UNL d   1       0.120  -4.906  -4.777  1.00  0.00     0.164 HD
ATOM     15  C   UNL d   1      -0.673  -3.777  -1.740  0.00  0.00     0.026 A 
ENDBRANCH   8   9
ENDBRANCH   1   8
BRANCH   4  16
ATOM     16  C   UNL d   1      -2.771   1.108   0.037  0.00  0.00     0.054 C 
BRANCH  16  17
ATOM     17  C   UNL d   1      -3.995   0.323   0.128  0.00  0.00     0.033 A 
ATOM     18  N   UNL d   1      -4.552   0.005  -1.062  0.00  0.00    -0.366 N 
ATOM     19  C   UNL d   1      -5.647  -0.784  -1.028  0.00  0.00     0.088 A 
ATOM     20  HN  UNL d   1      -4.164   0.344  -1.943  1.00  0.00     0.165 HD
ATOM     21  C   UNL d   1      -6.227  -1.251   0.139  0.00  0.00     0.017 A 
ATOM     22  C   UNL d   1      -5.652  -0.884   1.351  0.00  0.00     0.004 A 
ATOM     23  C   UNL d   1      -4.516  -0.080   1.351  0.00  0.00     0.029 A 
ENDBRANCH  16  17
ENDBRANCH   4  16
TORSDOF 4
