REMARK  4 active torsions:
REMARK  status: ('A' for Active; 'I' for Inactive)
REMARK    1  A    between atoms: C_10  and  N_1 
REMARK    2  A    between atoms: C_2  and  C_11 
REMARK    3  A    between atoms: C_5  and  C_14 
REMARK       I    between atoms: N_9  and  C_5 
REMARK    4  A    between atoms: C_16  and  N_9 
ROOT
ATOM      1  C   UNL d   1      -3.757  -0.463   2.916  0.00  0.00     0.019 A 
ATOM      2  C   UNL d   1      -3.912   1.936   3.367  0.00  0.00     0.035 A 
ATOM      3  C   UNL d   1      -3.161   0.800   3.057  0.00  0.00     0.045 A 
ATOM      4  C   UNL d   1      -5.123  -0.591   3.188  0.00  0.00     0.016 A 
ATOM      5  C   UNL d   1      -5.874   0.522   3.571  0.00  0.00     0.003 A 
ATOM      6  C   UNL d   1      -5.272   1.781   3.655  0.00  0.00     0.029 A 
ENDROOT
BRANCH   2   7
ATOM      7  N   UNL d   1      -3.381   3.250   3.337  0.00  0.00    -0.323 N 
ATOM      8  C   UNL d   1      -2.147   3.607   2.813  0.00  0.00     0.256 C 
ATOM      9  O   UNL d   1      -1.304   2.825   2.378  0.00  0.00    -0.267 OA
ATOM     10  H   UNL d   1      -4.035   3.980   3.574  0.00  0.00     0.169 HD
BRANCH   8  11
ATOM     11  C   UNL d   1      -1.825   5.064   2.705  0.00  0.00     0.032 A 
ATOM     12  C   UNL d   1      -2.569   6.084   3.314  0.00  0.00     0.019 A 
ATOM     13  C   UNL d   1      -2.201   7.425   3.138  0.00  0.00     0.037 A 
ATOM     14  C   UNL d   1      -1.079   7.750   2.360  0.00  0.00     0.102 A 
ATOM     15  C   UNL d   1      -0.320   6.743   1.759  0.00  0.00     0.037 A 
ATOM     16  C   UNL d   1      -0.697   5.411   1.934  0.00  0.00     0.019 A 
BRANCH  14  17
ATOM     17  N   UNL d   1      -0.698   9.154   2.173  0.00  0.00    -0.116 N 
ATOM     18  O   UNL d   1       0.329   9.392   1.520  0.00  0.00    -0.532 OA
ATOM     19  O   UNL d   1      -1.422  10.018   2.683  0.00  0.00    -0.532 OA
ENDBRANCH  14  17
ENDBRANCH   8  11
ENDBRANCH   2   7
BRANCH   1  20
ATOM     20  C   UNL d   1      -2.986  -1.596   2.422  0.00  0.00     0.173 A 
ATOM     21  N   UNL d   1      -3.340  -2.850   2.216  0.00  0.00    -0.278 N 
ATOM     22  N   UNL d   1      -2.257  -3.473   1.625  0.00  0.00    -0.288 N 
ATOM     23  HN  UNL d   1      -4.237  -3.277   2.448  1.00  0.00     0.189 HD
ATOM     24  C   UNL d   1      -1.327  -2.554   1.516  0.00  0.00     0.251 A 
ATOM     25  HN  UNL d   1      -2.193  -4.448   1.332  1.00  0.00     0.188 HD
ATOM     26  O   UNL d   1      -1.702  -1.345   2.005  0.00  0.00    -0.286 OA
ENDBRANCH   1  20
TORSDOF 4
