REMARK  6 active torsions:
REMARK  status: ('A' for Active; 'I' for Inactive)
REMARK    1  A    between atoms: C_8  and  C_1 
REMARK    2  A    between atoms: N_9  and  C_2 
REMARK       I    between atoms: C_6  and  N_7 
REMARK    3  A    between atoms: O_12  and  C_6 
REMARK    4  A    between atoms: C_14  and  C_8 
REMARK       I    between atoms: C_13  and  N_9 
REMARK    5  A    between atoms: C_18  and  O_12 
REMARK    6  A    between atoms: O_25  and  C_22 
ROOT
ATOM      1  C   UNL d   1       1.148   1.841  -0.068  0.00  0.00     0.056 A 
ATOM      2  C   UNL d   1       2.216   0.968   0.075  0.00  0.00     0.091 A 
ATOM      3  C   UNL d   1      -0.098   1.093   0.008  0.00  0.00    -0.025 A 
ATOM      4  C   UNL d   1       0.105  -0.266   0.174  0.00  0.00     0.010 A 
ATOM      5  S   UNL d   1       1.749  -0.669   0.206  0.00  0.00    -0.074 SA
ATOM      6  C   UNL d   1      -2.932  -1.423  -1.148  0.00  0.00     0.363 C 
ATOM      7  N   UNL d   1      -2.214  -0.733  -0.190  0.00  0.00    -0.323 N 
ATOM      8  C   UNL d   1      -0.969  -1.305   0.318  0.00  0.00     0.174 C 
ATOM      9  C   UNL d   1      -1.499   1.648  -0.102  0.00  0.00     0.060 C 
ATOM     10  C   UNL d   1      -2.554   0.605   0.312  0.00  0.00     0.133 C 
ATOM     11  O   UNL d   1      -2.666  -2.556  -1.507  0.00  0.00    -0.238 OA
ENDROOT
BRANCH   1  12
ATOM     12  C   UNL d   1       1.193   3.294  -0.286  0.00  0.00     0.195 C 
ATOM     13  O   UNL d   1       0.298   3.853  -0.922  0.00  0.00    -0.287 OA
BRANCH  12  14
ATOM     14  C   UNL d   1       2.265   4.172   0.267  0.00  0.00     0.015 A 
ATOM     15  C   UNL d   1       2.962   3.888   1.446  0.00  0.00     0.018 A 
ATOM     16  C   UNL d   1       3.911   4.792   1.946  0.00  0.00     0.037 A 
ATOM     17  C   UNL d   1       4.133   6.010   1.301  0.00  0.00     0.068 A 
ATOM     18  C   UNL d   1       3.441   6.301   0.127  0.00  0.00     0.037 A 
ATOM     19  C   UNL d   1       2.508   5.394  -0.383  0.00  0.00     0.018 A 
BRANCH  17  20
ATOM     20  O   UNL d   1       5.010   6.972   1.720  0.00  0.00    -0.356 OA
ATOM     21  C   UNL d   1       5.193   7.050   3.131  0.00  0.00     0.210 C 
ENDBRANCH  17  20
ENDBRANCH  12  14
ENDBRANCH   1  12
BRANCH   2  22
ATOM     22  N   UNL d   1       3.578   1.187  -0.008  0.00  0.00    -0.321 N 
ATOM     23  C   UNL d   1       4.410   0.790   1.027  0.00  0.00     0.218 C 
ATOM     24  O   UNL d   1       4.040   0.401   2.132  0.00  0.00    -0.274 OA
ATOM     25  C   UNL d   1       5.870   0.971   0.714  0.00  0.00     0.117 C 
ATOM     26  H   UNL d   1       3.966   1.331  -0.933  0.00  0.00     0.169 HD
ENDBRANCH   2  22
BRANCH   6  27
ATOM     27  O   UNL d   1      -3.965  -0.691  -1.634  0.00  0.00    -0.294 OA
BRANCH  27  28
ATOM     28  C   UNL d   1      -4.922  -1.262  -2.578  0.00  0.00     0.061 C 
ATOM     29  C   UNL d   1      -5.660  -2.454  -1.958  0.00  0.00     0.046 C 
ATOM     30  C   UNL d   1      -5.924  -0.126  -2.845  0.00  0.00     0.046 C 
ATOM     31  C   UNL d   1      -4.263  -1.644  -3.907  0.00  0.00     0.046 C 
ENDBRANCH  27  28
ENDBRANCH   6  27
TORSDOF 6
