REMARK  1 active torsions:
REMARK  status: ('A' for Active; 'I' for Inactive)
REMARK    1  A    between atoms: C_5  and  N_1 
ROOT
ATOM      1  C   UNL d   1      -1.572  -1.300   2.429  0.00  0.00    -0.012 A 
ATOM      2  C   UNL d   1      -2.680  -2.212   2.504  0.00  0.00    -0.013 A 
ATOM      3  C   UNL d   1      -2.892  -1.724   4.888  0.00  0.00     0.056 A 
ATOM      4  C   UNL d   1       0.225  -0.145   1.205  0.00  0.00     0.103 A 
ATOM      5  C   UNL d   1      -0.859  -1.033   1.235  0.00  0.00     0.049 A 
ATOM      6  C   UNL d   1      -3.343  -2.423   3.746  0.00  0.00    -0.004 A 
ATOM      7  C   UNL d   1      -1.145  -0.619   3.596  0.00  0.00    -0.024 A 
ATOM      8  N   UNL d   1      -4.023  -2.032   7.209  0.00  0.00    -0.191 NA
ATOM      9  C   UNL d   1      -3.518  -1.894   6.173  0.00  0.00     0.100 C 
ATOM     10  C   UNL d   1      -1.810  -0.840   4.806  0.00  0.00     0.036 A 
ATOM     11  C   UNL d   1      -0.058   0.275   3.551  0.00  0.00     0.015 A 
ATOM     12  C   UNL d   1       0.630   0.514   2.362  0.00  0.00     0.037 A 
ATOM     13  C   UNL d   1      -3.156  -2.932   1.379  0.00  0.00     0.013 A 
ATOM     14  C   UNL d   1      -4.432  -3.328   3.792  0.00  0.00     0.014 A 
ATOM     15  C   UNL d   1      -4.229  -3.819   1.454  0.00  0.00     0.001 A 
ATOM     16  C   UNL d   1      -4.869  -4.016   2.662  0.00  0.00     0.001 A 
ENDROOT
BRANCH   4  17
ATOM     17  N   UNL d   1       0.936   0.081  -0.057  0.00  0.00    -0.116 N 
ATOM     18  O   UNL d   1       0.540  -0.529  -1.060  0.00  0.00    -0.532 OA
ATOM     19  O   UNL d   1       1.892   0.866  -0.046  0.00  0.00    -0.532 OA
ENDBRANCH   4  17
TORSDOF 1
