REMARK  5 active torsions:
REMARK  status: ('A' for Active; 'I' for Inactive)
REMARK    1  A    between atoms: N_2  and  C_1 
REMARK    2  A    between atoms: N_3  and  C_1 
REMARK    3  A    between atoms: C_12  and  N_3 
REMARK    4  A    between atoms: C_5  and  C_8 
REMARK    5  A    between atoms: O_13  and  C_9 
ROOT
ATOM      1  N   UNL d   1      -0.117   0.143   0.887  0.00  0.00    -0.358 N 
ATOM      2  C   UNL d   1      -1.026  -0.990   0.732  0.00  0.00     0.126 C 
ATOM      3  C   UNL d   1       0.454   0.267   2.220  0.00  0.00     0.126 C 
ATOM      4  C   UNL d   1      -1.749  -0.597   3.201  0.00  0.00     0.024 C 
ATOM      5  C   UNL d   1      -2.163  -0.939   1.753  0.00  0.00     0.029 C 
ATOM      6  C   UNL d   1      -0.632   0.465   3.264  0.00  0.00     0.029 C 
ENDROOT
BRANCH   1   7
ATOM      7  C   UNL d   1       0.731   0.465  -0.155  0.00  0.00     0.174 C 
ATOM      8  S   UNL d   1       1.844  -0.599  -0.826  0.00  0.00    -0.041 SA
BRANCH   7   9
ATOM      9  N   UNL d   1       0.724   1.754  -0.611  0.00  0.00    -0.333 N 
ATOM     10  H   UNL d   1       1.499   1.943  -1.236  0.00  0.00     0.168 HD
BRANCH   9  11
ATOM     11  C   UNL d   1      -0.269   2.759  -0.566  0.00  0.00     0.034 A 
ATOM     12  C   UNL d   1      -1.530   2.608   0.011  0.00  0.00     0.029 A 
ATOM     13  C   UNL d   1      -2.500   3.609  -0.105  0.00  0.00     0.002 A 
ATOM     14  C   UNL d   1      -2.216   4.780  -0.798  0.00  0.00     0.000 A 
ATOM     15  C   UNL d   1      -0.953   4.959  -1.356  0.00  0.00     0.002 A 
ATOM     16  C   UNL d   1       0.014   3.956  -1.235  0.00  0.00     0.029 A 
ENDBRANCH   9  11
ENDBRANCH   7   9
ENDBRANCH   1   7
BRANCH   4  17
ATOM     17  C   UNL d   1      -1.453  -1.795   4.093  0.00  0.00    -0.021 A 
ATOM     18  C   UNL d   1      -2.015  -1.929   5.381  0.00  0.00     0.074 A 
ATOM     19  C   UNL d   1      -1.777  -3.080   6.146  0.00  0.00     0.037 A 
ATOM     20  C   UNL d   1      -0.970  -4.106   5.659  0.00  0.00     0.003 A 
ATOM     21  C   UNL d   1      -0.395  -3.983   4.402  0.00  0.00     0.001 A 
ATOM     22  C   UNL d   1      -0.623  -2.837   3.638  0.00  0.00     0.010 A 
BRANCH  18  23
ATOM     23  O   UNL d   1      -2.937  -1.068   5.919  0.00  0.00    -0.355 OA
ATOM     24  C   UNL d   1      -2.454   0.246   6.189  0.00  0.00     0.210 C 
ENDBRANCH  18  23
ENDBRANCH   4  17
TORSDOF 5
