REMARK  4 active torsions:
REMARK  status: ('A' for Active; 'I' for Inactive)
REMARK    1  A    between atoms: C_16  and  C_5 
REMARK    2  A    between atoms: S_14  and  C_6 
REMARK       I    between atoms: N_7  and  C_13 
REMARK       I    between atoms: C_8  and  N_7 
REMARK       I    between atoms: N_19  and  C_8 
REMARK    3  A    between atoms: C_13  and  C_20 
REMARK    4  A    between atoms: C_20  and  S_14 
ROOT
ATOM      1  C   UNL d   1       0.370   0.839  -0.195  0.00  0.00     0.033 A 
ATOM      2  C   UNL d   1       0.053  -0.462   0.160  0.00  0.00     0.088 A 
ATOM      3  C   UNL d   1      -0.824   1.641  -0.257  0.00  0.00     0.036 A 
ATOM      4  S   UNL d   1      -1.616  -0.709   0.367  0.00  0.00    -0.071 SA
ATOM      5  C   UNL d   1      -1.983   0.928   0.007  0.00  0.00     0.018 A 
ATOM      6  C   UNL d   1       1.733   1.071  -0.421  0.00  0.00     0.084 A 
ATOM      7  N   UNL d   1       0.916  -1.480   0.322  0.00  0.00    -0.346 N 
ATOM      8  HN  UNL d   1       0.632  -2.423   0.585  1.00  0.00     0.167 HD
ATOM      9  N   UNL d   1       2.637   0.088  -0.257  0.00  0.00    -0.346 N 
ATOM     10  HN  UNL d   1       3.633   0.257  -0.399  1.00  0.00     0.167 HD
ATOM     11  C   UNL d   1       2.184  -1.123   0.102  0.00  0.00     0.182 A 
ENDROOT
BRANCH   6  12
ATOM     12  S   UNL d   1       2.311   2.584  -1.125  0.00  0.00    -0.102 SA
BRANCH  12  13
ATOM     13  C   UNL d   1       3.068   3.367   0.320  0.00  0.00     0.184 C 
BRANCH  13  14
ATOM     14  C   UNL d   1       4.333   2.735   0.873  0.00  0.00     0.235 C 
ATOM     15  N   UNL d   1       5.044   1.892   0.044  0.00  0.00    -0.279 N 
ATOM     16  C   UNL d   1       6.152   1.138   0.355  0.00  0.00     0.322 C 
ATOM     17  H   UNL d   1       4.586   1.571  -0.801  0.00  0.00     0.173 HD
ATOM     18  O   UNL d   1       6.539   0.264  -0.412  0.00  0.00    -0.247 OA
ATOM     19  N   UNL d   1       6.746   1.422   1.549  0.00  0.00    -0.347 N 
ATOM     20  C   UNL d   1       7.897   0.731   2.064  0.00  0.00     0.151 C 
ATOM     21  H   UNL d   1       6.344   2.182   2.094  0.00  0.00     0.163 HD
ATOM     22  O   UNL d   1       4.745   3.087   1.983  0.00  0.00    -0.272 OA
ENDBRANCH  13  14
ENDBRANCH  12  13
ENDBRANCH   6  12
BRANCH   5  23
ATOM     23  C   UNL d   1      -3.379   1.401   0.036  0.00  0.00    -0.019 A 
ATOM     24  C   UNL d   1      -4.428   0.642  -0.509  0.00  0.00     0.013 A 
ATOM     25  C   UNL d   1      -5.747   1.105  -0.472  0.00  0.00     0.001 A 
ATOM     26  C   UNL d   1      -6.039   2.334   0.110  0.00  0.00     0.000 A 
ATOM     27  C   UNL d   1      -5.011   3.104   0.650  0.00  0.00     0.001 A 
ATOM     28  C   UNL d   1      -3.691   2.643   0.611  0.00  0.00     0.013 A 
ENDBRANCH   5  23
TORSDOF 4
