REMARK  4 active torsions:
REMARK  status: ('A' for Active; 'I' for Inactive)
REMARK    1  A    between atoms: C_2  and  C_1 
REMARK    2  A    between atoms: N_6  and  C_3 
REMARK       I    between atoms: C_8  and  N_6 
REMARK       I    between atoms: N_11  and  C_8 
REMARK    3  A    between atoms: C_14  and  N_11 
REMARK    4  A    between atoms: O_18  and  C_17 
ROOT
ATOM      1  C   UNL d   1      -5.706  -1.299  -0.193  0.00  0.00     0.032 A 
ATOM      2  C   UNL d   1      -4.583  -0.596  -0.592  0.00  0.00     0.090 A 
ATOM      3  S   UNL d   1      -3.344  -0.676   0.586  0.00  0.00    -0.083 SA
ATOM      4  C   UNL d   1      -5.506  -1.926   1.084  0.00  0.00     0.024 A 
ATOM      5  C   UNL d   1      -4.265  -1.665   1.614  0.00  0.00     0.053 A 
ENDROOT
BRANCH   2   6
ATOM      6  N   UNL d   1      -4.407   0.193  -1.722  0.00  0.00    -0.302 N 
ATOM      7  C   UNL d   1      -3.249   0.738  -2.235  0.00  0.00     0.325 C 
ATOM      8  N   UNL d   1      -2.111   0.011  -2.006  0.00  0.00    -0.306 N 
ATOM      9  O   UNL d   1      -3.312   1.728  -2.960  0.00  0.00    -0.247 OA
ATOM     10  H   UNL d   1      -2.264  -0.932  -1.673  0.00  0.00     0.171 HD
ATOM     11  H   UNL d   1      -5.257   0.478  -2.203  0.00  0.00     0.171 HD
BRANCH   8  12
ATOM     12  C   UNL d   1      -0.788   0.303  -2.379  0.00  0.00     0.069 A 
ATOM     13  C   UNL d   1       0.108  -0.773  -2.503  0.00  0.00     0.095 A 
ATOM     14  C   UNL d   1       1.464  -0.558  -2.749  0.00  0.00     0.039 A 
ATOM     15  C   UNL d   1       1.933   0.743  -2.910  0.00  0.00     0.003 A 
ATOM     16  C   UNL d   1       1.046   1.819  -2.822  0.00  0.00     0.002 A 
ATOM     17  C   UNL d   1      -0.314   1.601  -2.562  0.00  0.00     0.032 A 
BRANCH  13  18
ATOM     18  O   UNL d   1      -0.316  -2.076  -2.390  0.00  0.00    -0.354 OA
ATOM     19  C   UNL d   1      -1.028  -2.473  -3.569  0.00  0.00     0.210 C 
ENDBRANCH  13  18
ENDBRANCH   8  12
ENDBRANCH   2   6
BRANCH   1  20
ATOM     20  C   UNL d   1      -6.980  -1.429  -1.000  0.00  0.00     0.088 A 
ATOM     21  N   UNL d   1      -7.150  -0.850  -2.171  0.00  0.00    -0.349 N 
ATOM     22  C   UNL d   1      -8.404  -1.185  -2.686  0.00  0.00     0.050 A 
ATOM     23  HN  UNL d   1      -6.469  -0.247  -2.632  1.00  0.00     0.166 HD
ATOM     24  C   UNL d   1      -8.941  -0.771  -3.924  0.00  0.00     0.031 A 
ATOM     25  C   UNL d   1      -9.179  -2.017  -1.878  0.00  0.00     0.033 A 
ATOM     26  C   UNL d   1     -10.219  -1.197  -4.310  0.00  0.00     0.002 A 
ATOM     27  C   UNL d   1     -10.970  -2.027  -3.484  0.00  0.00     0.002 A 
ATOM     28  C   UNL d   1     -10.462  -2.450  -2.253  0.00  0.00     0.021 A 
ATOM     29  S   UNL d   1      -8.310  -2.373  -0.446  0.00  0.00    -0.069 SA
ENDBRANCH   1  20
TORSDOF 4
