REMARK  6 active torsions:
REMARK  status: ('A' for Active; 'I' for Inactive)
REMARK       I    between atoms: N_4  and  C_1 
REMARK    1  A    between atoms: C_9  and  C_1 
REMARK    2  A    between atoms: N_2  and  C_3 
REMARK    3  A    between atoms: C_7  and  N_4 
REMARK    4  A    between atoms: N_5  and  C_8 
REMARK    5  A    between atoms: C_15  and  C_6 
REMARK    6  A    between atoms: O_22  and  C_6 
ROOT
ATOM      1  C   UNL d   1       0.128   3.742  -0.369  0.00  0.00     0.103 A 
ATOM      2  C   UNL d   1       0.200   1.331  -0.146  0.00  0.00     0.037 A 
ATOM      3  C   UNL d   1       0.650   2.509  -0.744  0.00  0.00     0.065 A 
ATOM      4  N   UNL d   1      -0.837   3.819   0.569  0.00  0.00    -0.352 N 
ATOM      5  HN  UNL d   1      -1.211   4.722   0.862  1.00  0.00     0.166 HD
ATOM      6  C   UNL d   1      -1.298   2.668   1.114  0.00  0.00     0.090 A 
ATOM      7  C   UNL d   1      -0.816   1.409   0.800  0.00  0.00     0.034 A 
ENDROOT
BRANCH   2   8
ATOM      8  C   UNL d   1       0.923   0.080  -0.526  0.00  0.00     0.256 C 
ATOM      9  N   UNL d   1       0.696  -1.027   0.275  0.00  0.00    -0.321 N 
ATOM     10  H   UNL d   1      -0.271  -1.155   0.534  0.00  0.00     0.169 HD
ATOM     11  O   UNL d   1       1.659   0.095  -1.510  0.00  0.00    -0.267 OA
BRANCH   9  12
ATOM     12  C   UNL d   1       1.403  -2.229   0.021  0.00  0.00     0.061 A 
ATOM     13  C   UNL d   1       2.789  -2.380   0.299  0.00  0.00     0.057 A 
ATOM     14  C   UNL d   1       3.355  -3.618  -0.067  0.00  0.00     0.031 A 
ATOM     15  C   UNL d   1       2.613  -4.631  -0.688  0.00  0.00     0.002 A 
ATOM     16  C   UNL d   1       1.264  -4.446  -0.951  0.00  0.00     0.002 A 
ATOM     17  C   UNL d   1       0.654  -3.256  -0.575  0.00  0.00     0.032 A 
BRANCH  13  18
ATOM     18  N   UNL d   1       3.576  -1.394   0.879  0.00  0.00    -0.375 N 
ATOM     19  C   UNL d   1       5.036  -1.349   0.689  0.00  0.00     0.149 C 
ATOM     20  C   UNL d   1       5.487   0.122   0.619  0.00  0.00     0.187 C 
ATOM     21  O   UNL d   1       5.079   0.861   1.785  0.00  0.00    -0.388 OA
ATOM     22  C   UNL d   1       3.645   0.821   1.915  0.00  0.00     0.187 C 
ATOM     23  C   UNL d   1       3.142  -0.627   2.058  0.00  0.00     0.149 C 
ENDBRANCH  13  18
ENDBRANCH   9  12
ENDBRANCH   2   8
BRANCH   1  24
ATOM     24  N   UNL d   1       0.670   4.889  -0.922  0.00  0.00    -0.367 N 
ATOM     25  C   UNL d   1       0.626   6.138  -0.175  0.00  0.00     0.127 C 
ATOM     26  C   UNL d   1      -0.520   7.036  -0.626  0.00  0.00     0.062 C 
ATOM     27  C   UNL d   1      -0.567   7.233  -2.159  0.00  0.00     0.088 C 
ATOM     28  C   UNL d   1      -0.519   5.850  -2.840  0.00  0.00     0.062 C 
ATOM     29  C   UNL d   1       0.673   5.017  -2.373  0.00  0.00     0.127 C 
BRANCH  27  30
ATOM     30  C   UNL d   1      -1.760   8.093  -2.625  0.00  0.00    -0.024 A 
ATOM     31  C   UNL d   1      -2.328   9.076  -1.792  0.00  0.00     0.012 A 
ATOM     32  C   UNL d   1      -3.379   9.888  -2.228  0.00  0.00     0.024 A 
ATOM     33  C   UNL d   1      -3.881   9.749  -3.512  0.00  0.00     0.034 A 
ATOM     34  C   UNL d   1      -3.329   8.799  -4.372  0.00  0.00     0.024 A 
ATOM     35 CL   UNL d   1      -5.164  10.752  -4.056  0.00  0.00    -0.084 Cl
ATOM     36  C   UNL d   1      -2.277   7.985  -3.931  0.00  0.00     0.012 A 
ENDBRANCH  27  30
BRANCH  27  37
ATOM     37  O   UNL d   1       0.617   7.952  -2.548  0.00  0.00    -0.385 OA
ATOM     38  H   UNL d   1       0.417   8.435  -3.369  0.00  0.00     0.211 HD
ENDBRANCH  27  37
ENDBRANCH   1  24
TORSDOF 6
