REMARK  4 active torsions:
REMARK  status: ('A' for Active; 'I' for Inactive)
REMARK    1  A    between atoms: C_3  and  C_1 
REMARK    2  A    between atoms: C_15  and  N_2 
REMARK    3  A    between atoms: C_16  and  C_8 
REMARK    4  A    between atoms: N_21  and  C_11 
ROOT
ATOM      1  C   UNL d   1      -0.489  -2.755   0.004  0.00  0.00     0.054 A 
ATOM      2  C   UNL d   1      -1.028  -3.385  -1.116  0.00  0.00     0.060 A 
ATOM      3  N   UNL d   1      -1.168  -4.740  -1.166  0.00  0.00    -0.331 N 
ATOM      4  HN  UNL d   1      -1.558  -5.193  -1.992  1.00  0.00     0.168 HD
ATOM      5  C   UNL d   1      -0.784  -5.461  -0.113  0.00  0.00     0.155 A 
ATOM      6  C   UNL d   1      -0.225  -3.607   1.068  0.00  0.00     0.108 A 
ATOM      7  N   UNL d   1      -0.340  -4.945   1.028  0.00  0.00    -0.342 N 
ATOM      8  HN  UNL d   1      -0.101  -5.531   1.828  1.00  0.00     0.167 HD
ENDROOT
BRANCH   1   9
ATOM      9  C   UNL d   1      -0.239  -1.325   0.133  0.00  0.00     0.152 A 
ATOM     10  N   UNL d   1       0.894  -0.714   0.678  0.00  0.00    -0.224 N 
ATOM     11  N   UNL d   1       0.635   0.609   0.804  0.00  0.00     0.001 NA
ATOM     12  N   UNL d   1      -0.542   0.811   0.240  0.00  0.00    -0.007 NA
ATOM     13  N   UNL d   1      -1.100  -0.368  -0.163  0.00  0.00    -0.269 N 
ATOM     14  HN  UNL d   1      -2.009  -0.487  -0.609  1.00  0.00     0.185 HD
BRANCH  10  15
ATOM     15  C   UNL d   1       2.134  -1.255   1.107  0.00  0.00     0.056 A 
ATOM     16  C   UNL d   1       2.656  -2.433   0.554  0.00  0.00     0.033 A 
ATOM     17  C   UNL d   1       3.829  -2.990   1.075  0.00  0.00     0.026 A 
ATOM     18  C   UNL d   1       4.488  -2.367   2.132  0.00  0.00     0.034 A 
ATOM     19  C   UNL d   1       4.003  -1.171   2.656  0.00  0.00     0.026 A 
ATOM     20 CL   UNL d   1       5.908  -3.078   2.792  0.00  0.00    -0.084 Cl
ATOM     21  C   UNL d   1       2.836  -0.604   2.135  0.00  0.00     0.033 A 
ENDBRANCH  10  15
ENDBRANCH   1   9
BRANCH   2  22
ATOM     22  C   UNL d   1      -1.515  -2.706  -2.343  0.00  0.00    -0.008 A 
ATOM     23  C   UNL d   1      -0.828  -1.643  -2.961  0.00  0.00     0.017 A 
ATOM     24  C   UNL d   1      -1.344  -1.002  -4.094  0.00  0.00     0.043 A 
ATOM     25  C   UNL d   1      -2.538  -1.441  -4.647  0.00  0.00     0.116 A 
ATOM     26  C   UNL d   1      -3.226  -2.508  -4.094  0.00  0.00     0.043 A 
ATOM     27  F   UNL d   1      -3.028  -0.828  -5.733  0.00  0.00    -0.206 F 
ATOM     28  C   UNL d   1      -2.717  -3.133  -2.950  0.00  0.00     0.017 A 
ENDBRANCH   2  22
BRANCH   5  29
ATOM     29  N   UNL d   1      -0.865  -6.831  -0.197  0.00  0.00    -0.274 NA
ATOM     30  H   UNL d   1      -0.895  -7.242   0.727  0.00  0.00     0.127 HD
ATOM     31  H   UNL d   1      -1.572  -7.111  -0.859  0.00  0.00     0.127 HD
ENDBRANCH   5  29
TORSDOF 4
