REMARK  4 active torsions:
REMARK  status: ('A' for Active; 'I' for Inactive)
REMARK    1  A    between atoms: N_7  and  C_1 
REMARK       I    between atoms: C_8  and  N_7 
REMARK    2  A    between atoms: C_9  and  C_8 
REMARK    3  A    between atoms: C_10  and  C_11 
REMARK    4  A    between atoms: O_15  and  C_10 
ROOT
ATOM      1  N   UNL d   1      -1.079  -5.800  -0.056  0.00  0.00    -0.307 N 
ATOM      2  C   UNL d   1       0.231  -5.448   0.077  0.00  0.00     0.247 C 
ATOM      3  O   UNL d   1       1.070  -6.299   0.365  0.00  0.00    -0.268 OA
ATOM      4  H   UNL d   1      -1.263  -6.770   0.160  0.00  0.00     0.170 HD
ENDROOT
BRANCH   1   5
ATOM      5  C   UNL d   1      -2.170  -5.042  -0.430  0.00  0.00     0.142 A 
ATOM      6  C   UNL d   1      -3.498  -5.527  -0.521  0.00  0.00     0.073 A 
ATOM      7  C   UNL d   1      -4.268  -4.485  -0.966  0.00  0.00     0.132 A 
ATOM      8 BR   UNL d   1      -4.078  -7.259  -0.113  0.00  0.00    -0.045 Br
ATOM      9  N   UNL d   1      -3.407  -3.435  -1.066  0.00  0.00    -0.305 N 
ATOM     10  N   UNL d   1      -2.131  -3.751  -0.777  0.00  0.00    -0.283 N 
ATOM     11  C   UNL d   1      -3.740  -2.078  -1.426  0.00  0.00     0.177 C 
ATOM     12  HN  UNL d   1      -1.314  -3.141  -0.815  1.00  0.00     0.189 HD
ENDBRANCH   1   5
BRANCH   2  13
ATOM     13  C   UNL d   1       0.645  -4.057  -0.196  0.00  0.00     0.081 C 
ATOM     14  C   UNL d   1       1.395  -3.311   0.628  0.00  0.00     0.086 C 
BRANCH  14  15
ATOM     15  C   UNL d   1       1.894  -3.658   1.963  0.00  0.00     0.165 C 
ATOM     16  O   UNL d   1       2.834  -3.100   2.500  0.00  0.00    -0.647 OA
BRANCH  15  17
ATOM     17  O   UNL d   1       1.167  -4.582   2.603  0.00  0.00    -0.773 OA
ATOM     18  H   UNL d   1       1.654  -4.731   3.438  0.00  0.00     0.167 HD
ENDBRANCH  15  17
ENDBRANCH  14  15
ENDBRANCH   2  13
TORSDOF 4
