REMARK  2 active torsions:
REMARK  status: ('A' for Active; 'I' for Inactive)
REMARK    1  A    between atoms: C_4  and  C_1 
REMARK    2  A    between atoms: N_12  and  C_5 
ROOT
ATOM      1  C   UNL d   1       1.251   0.775  -0.008  0.00  0.00     0.058 A 
ATOM      2  N   UNL d   1       1.400  -0.589  -0.200  0.00  0.00    -0.335 N 
ATOM      3  HN  UNL d   1       2.289  -1.057  -0.372  1.00  0.00     0.168 HD
ATOM      4  C   UNL d   1       0.239  -1.195  -0.130  0.00  0.00     0.144 A 
ATOM      5  S   UNL d   1      -1.105  -0.153   0.155  0.00  0.00    -0.064 SA
ATOM      6  C   UNL d   1      -0.045   1.190   0.221  0.00  0.00     0.084 A 
ENDROOT
BRANCH   1   7
ATOM      7  C   UNL d   1       2.437   1.691  -0.044  0.00  0.00     0.033 A 
ATOM      8  S   UNL d   1       2.398   3.369   0.292  0.00  0.00    -0.076 SA
ATOM      9  C   UNL d   1       4.066   3.506   0.048  0.00  0.00     0.075 A 
ATOM     10 CL   UNL d   1       4.834   5.029   0.253  0.00  0.00    -0.076 Cl
ATOM     11  C   UNL d   1       4.666   2.327  -0.307  0.00  0.00     0.033 A 
ATOM     12  C   UNL d   1       3.714   1.264  -0.360  0.00  0.00     0.023 A 
ENDBRANCH   1   7
BRANCH   4  13
ATOM     13  N   UNL d   1       0.036  -2.524  -0.271  0.00  0.00    -0.375 N 
ATOM     14  C   UNL d   1       1.107  -3.446   0.036  0.00  0.00     0.148 C 
ATOM     15  H   UNL d   1      -0.894  -2.868  -0.068  0.00  0.00     0.161 HD
ENDBRANCH   4  13
TORSDOF 2
