REMARK  4 active torsions:
REMARK  status: ('A' for Active; 'I' for Inactive)
REMARK    1  A    between atoms: C_3  and  C_1 
REMARK    2  A    between atoms: C_2  and  C_3 
REMARK    3  A    between atoms: S_11  and  C_6 
REMARK    4  A    between atoms: S_12  and  C_6 
ROOT
ATOM      1  C   UNL d   1       0.439   0.490  -1.312  0.00  0.00     0.207 C 
ATOM      2  O   UNL d   1       0.985   1.006  -2.285  0.00  0.00    -0.285 OA
ENDROOT
BRANCH   1   3
ATOM      3  C   UNL d   1      -1.014   0.359  -1.188  0.00  0.00     0.124 A 
ATOM      4  N   UNL d   1      -1.626  -0.152  -0.135  0.00  0.00    -0.357 N 
ATOM      5  C   UNL d   1      -2.994  -0.117  -0.332  0.00  0.00     0.096 A 
ATOM      6  HN  UNL d   1      -1.161  -0.517   0.697  1.00  0.00     0.166 HD
ATOM      7  C   UNL d   1      -3.410   0.414  -1.532  0.00  0.00     0.069 A 
ATOM      8  S   UNL d   1      -2.048   0.897  -2.452  0.00  0.00    -0.079 SA
ENDBRANCH   1   3
BRANCH   1   9
ATOM      9  C   UNL d   1       1.251  -0.064  -0.177  0.00  0.00     0.083 C 
ATOM     10  C   UNL d   1       2.559   0.114   0.079  0.00  0.00     0.040 C 
BRANCH  10  11
ATOM     11  S   UNL d   1       3.212  -0.675   1.508  0.00  0.00    -0.127 SA
ATOM     12  C   UNL d   1       4.581  -1.617   0.790  0.00  0.00     0.096 C 
ENDBRANCH  10  11
BRANCH  10  13
ATOM     13  S   UNL d   1       3.635   1.117  -0.852  0.00  0.00    -0.127 SA
ATOM     14  C   UNL d   1       3.316   2.722  -0.085  0.00  0.00     0.096 C 
ENDBRANCH  10  13
ENDBRANCH   1   9
TORSDOF 4
