REMARK  6 active torsions:
REMARK  status: ('A' for Active; 'I' for Inactive)
REMARK    1  A    between atoms: C_7  and  C_1 
REMARK    2  A    between atoms: C_8  and  C_2 
REMARK    3  A    between atoms: C_9  and  C_3 
REMARK    4  A    between atoms: O_14  and  C_7 
REMARK    5  A    between atoms: O_15  and  C_8 
REMARK    6  A    between atoms: O_21  and  C_18 
ROOT
ATOM      1  C   UNL d   1       1.321  -1.012   0.141  0.00  0.00     0.052 C 
ATOM      2  C   UNL d   1      -1.242  -1.067   0.125  0.00  0.00     0.052 C 
ATOM      3  C   UNL d   1       0.057  -1.858  -0.071  0.00  0.00     0.100 C 
ATOM      4  C   UNL d   1      -1.213   0.287   0.087  0.00  0.00     0.018 C 
ATOM      5  C   UNL d   1       1.245   0.339   0.095  0.00  0.00     0.018 C 
ATOM      6  N   UNL d   1       0.002   0.944  -0.044  0.00  0.00    -0.362 N 
ATOM      7  C   UNL d   1      -2.432   1.173   0.163  0.00  0.00     0.069 C 
ATOM      8  C   UNL d   1       2.398   1.307   0.182  0.00  0.00     0.069 C 
ATOM      9  H   UNL d   1      -0.016   1.961  -0.023  0.00  0.00     0.165 HD
ENDROOT
BRANCH   3  10
ATOM     10  C   UNL d   1       0.096  -2.478  -1.476  0.00  0.00    -0.044 A 
ATOM     11  C   UNL d   1       0.061  -1.656  -2.618  0.00  0.00     0.011 A 
ATOM     12  C   UNL d   1       0.119  -2.198  -3.902  0.00  0.00     0.037 A 
ATOM     13  C   UNL d   1       0.209  -3.576  -4.075  0.00  0.00     0.068 A 
ATOM     14  C   UNL d   1       0.239  -4.402  -2.948  0.00  0.00     0.037 A 
ATOM     15  C   UNL d   1       0.186  -3.863  -1.659  0.00  0.00     0.011 A 
BRANCH  13  16
ATOM     16  O   UNL d   1       0.274  -4.224  -5.278  0.00  0.00    -0.356 OA
ATOM     17  C   UNL d   1       0.302  -3.403  -6.441  0.00  0.00     0.210 C 
ENDBRANCH  13  16
ENDBRANCH   3  10
BRANCH   2  18
ATOM     18  C   UNL d   1      -2.507  -1.825   0.356  0.00  0.00     0.291 C 
ATOM     19  O   UNL d   1      -3.615  -1.325   0.468  0.00  0.00    -0.260 OA
BRANCH  18  20
ATOM     20  O   UNL d   1      -2.253  -3.155   0.466  0.00  0.00    -0.323 OA
ATOM     21  C   UNL d   1      -3.411  -3.962   0.686  0.00  0.00     0.213 C 
ENDBRANCH  18  20
ENDBRANCH   2  18
BRANCH   1  22
ATOM     22  C   UNL d   1       2.600  -1.749   0.329  0.00  0.00     0.291 C 
ATOM     23  O   UNL d   1       3.693  -1.368  -0.056  0.00  0.00    -0.260 OA
BRANCH  22  24
ATOM     24  O   UNL d   1       2.377  -2.895   1.025  0.00  0.00    -0.323 OA
ATOM     25  C   UNL d   1       3.560  -3.647   1.306  0.00  0.00     0.213 C 
ENDBRANCH  22  24
ENDBRANCH   1  22
TORSDOF 6
