REMARK  4 active torsions:
REMARK  status: ('A' for Active; 'I' for Inactive)
REMARK    1  A    between atoms: O_5  and  C_1 
REMARK    2  A    between atoms: C_3  and  C_2 
REMARK    3  A    between atoms: O_16  and  C_3 
REMARK    4  A    between atoms: C_11  and  O_5 
ROOT
ATOM      1  C   UNL d   1      -0.619   1.303  -0.577  0.00  0.00     0.165 A 
ATOM      2  C   UNL d   1      -1.229   0.123  -0.996  0.00  0.00     0.089 A 
ATOM      3  N   UNL d   1       0.729   1.478  -0.551  0.00  0.00    -0.346 N 
ATOM      4  HN  UNL d   1       1.140   2.340  -0.192  1.00  0.00     0.167 HD
ATOM      5  C   UNL d   1      -0.384  -0.895  -1.466  0.00  0.00     0.024 A 
ATOM      6  C   UNL d   1       1.504   0.478  -1.015  0.00  0.00     0.090 A 
ATOM      7  C   UNL d   1       0.997  -0.714  -1.490  0.00  0.00     0.018 A 
ENDROOT
BRANCH   1   8
ATOM      8  O   UNL d   1      -1.420   2.359  -0.150  0.00  0.00    -0.293 OA
BRANCH   8   9
ATOM      9  C   UNL d   1      -0.875   3.627  -0.197  0.00  0.00     0.080 A 
ATOM     10  C   UNL d   1      -1.066   4.445   0.921  0.00  0.00     0.077 A 
ATOM     11  C   UNL d   1      -0.491   5.699   0.893  0.00  0.00     0.107 A 
ATOM     12  O   UNL d   1      -0.532   6.616   1.897  0.00  0.00    -0.323 OA
ATOM     13  C   UNL d   1       0.222   6.150  -0.195  0.00  0.00     0.105 A 
ATOM     14  C   UNL d   1       0.300   7.660   1.347  0.00  0.00     0.352 A 
ATOM     15  O   UNL d   1       0.731   7.396  -0.004  0.00  0.00    -0.323 OA
ATOM     16  C   UNL d   1       0.379   5.385  -1.329  0.00  0.00     0.042 A 
ATOM     17  C   UNL d   1      -0.195   4.113  -1.334  0.00  0.00     0.040 A 
ENDBRANCH   8   9
ENDBRANCH   1   8
BRANCH   2  18
ATOM     18  C   UNL d   1      -2.689  -0.145  -0.998  0.00  0.00     0.180 C 
ATOM     19  O   UNL d   1      -3.138  -1.214  -1.390  0.00  0.00    -0.646 OA
BRANCH  18  20
ATOM     20  O   UNL d   1      -3.501   0.832  -0.547  0.00  0.00    -0.773 OA
ATOM     21  H   UNL d   1      -3.067   1.654  -0.251  0.00  0.00     0.167 HD
ENDBRANCH  18  20
ENDBRANCH   2  18
TORSDOF 4
