REMARK  3 active torsions:
REMARK  status: ('A' for Active; 'I' for Inactive)
REMARK    1  A    between atoms: C_6  and  C_2 
REMARK    2  A    between atoms: C_7  and  N_3 
REMARK    3  A    between atoms: N_13  and  C_7 
ROOT
ATOM      1  C   UNL d   1       1.072  -0.837  -0.028  0.00  0.00     0.049 A 
ATOM      2  C   UNL d   1       2.475  -1.384  -0.038  0.00  0.00     0.244 C 
ATOM      3  N   UNL d   1       3.408  -0.242  -0.347  0.00  0.00    -0.339 N 
ATOM      4  C   UNL d   1       0.687   0.486  -0.062  0.00  0.00    -0.019 A 
ATOM      5  N   UNL d   1      -0.058  -1.608  -0.006  0.00  0.00    -0.356 N 
ATOM      6  C   UNL d   1      -0.734   0.524  -0.043  0.00  0.00    -0.001 A 
ATOM      7  C   UNL d   1      -1.175  -0.802   0.005  0.00  0.00     0.043 A 
ATOM      8  C   UNL d   1       3.079   1.061   0.286  0.00  0.00     0.131 C 
ATOM      9  C   UNL d   1       1.690   1.583  -0.141  0.00  0.00     0.061 C 
ATOM     10  C   UNL d   1      -1.696   1.551  -0.060  0.00  0.00     0.014 A 
ATOM     11  C   UNL d   1      -2.531  -1.149   0.032  0.00  0.00     0.030 A 
ATOM     12  C   UNL d   1      -3.057   1.221  -0.026  0.00  0.00     0.001 A 
ATOM     13  C   UNL d   1      -3.465  -0.112   0.022  0.00  0.00     0.002 A 
ATOM     14  H   UNL d   1      -0.096  -2.619   0.016  0.00  0.00     0.166 HD
ENDROOT
BRANCH   3  15
ATOM     15  C   UNL d   1       4.686  -0.544  -0.826  0.00  0.00     0.170 C 
ATOM     16  S   UNL d   1       4.933  -1.585  -2.117  0.00  0.00    -0.041 SA
BRANCH  15  17
ATOM     17  N   UNL d   1       5.693   0.101  -0.144  0.00  0.00    -0.371 N 
ATOM     18  C   UNL d   1       7.124  -0.075  -0.330  0.00  0.00     0.148 C 
ATOM     19  H   UNL d   1       5.436   0.463   0.763  0.00  0.00     0.161 HD
ENDBRANCH  15  17
ENDBRANCH   3  15
BRANCH   2  20
ATOM     20  C   UNL d   1       2.864  -2.146   1.268  0.00  0.00     0.413 C 
ATOM     21  F   UNL d   1       1.810  -2.333   2.099  0.00  0.00    -0.168 F 
ATOM     22  F   UNL d   1       3.349  -3.380   0.981  0.00  0.00    -0.168 F 
ATOM     23  F   UNL d   1       3.816  -1.500   1.986  0.00  0.00    -0.168 F 
ENDBRANCH   2  20
TORSDOF 3
