REMARK  6 active torsions:
REMARK  status: ('A' for Active; 'I' for Inactive)
REMARK    1  A    between atoms: C8_7  and  C1_1 
REMARK    2  A    between atoms: O3_8  and  C2_2 
REMARK    3  A    between atoms: N_15  and  C8_7 
REMARK    4  A    between atoms: C_14  and  CA_17 
REMARK    5  A    between atoms: OXT_18  and  C_14 
REMARK    6  A    between atoms: CA_17  and  N_15 
ROOT
ATOM      1  C1  <1> d   1       1.804   1.111   0.032  0.00  0.00     0.004 A 
ATOM      2  C2  <1> d   1       2.004  -0.274   0.026  0.00  0.00     0.074 A 
ATOM      3  C4  <1> d   1       0.479   1.585  -0.029  0.00  0.00     0.024 A 
ATOM      4  C5  <1> d   1       0.923  -1.158  -0.017  0.00  0.00     0.049 A 
ATOM      5  C6  <1> d   1      -0.621   0.711  -0.040  0.00  0.00    -0.025 A 
ATOM      6  C7  <1> d   1      -0.395  -0.682  -0.032  0.00  0.00    -0.023 A 
ATOM      7  C10 <1> d   1      -1.939   1.194  -0.053  0.00  0.00     0.012 A 
ATOM      8  C11 <1> d   1      -1.491  -1.557  -0.035  0.00  0.00     0.012 A 
ATOM      9  C13 <1> d   1      -2.798  -1.062  -0.034  0.00  0.00     0.001 A 
ATOM     10  C14 <1> d   1      -3.020   0.311  -0.042  0.00  0.00     0.001 A 
ENDROOT
BRANCH   1  11
ATOM     11  C8  <1> d   1       2.933   2.107   0.066  0.00  0.00     0.312 C 
BRANCH  11  12
ATOM     12  N   ALA d   1       2.920   3.045   1.211  0.00  0.00     0.102 N 
ATOM     13  H   ALA d   1       2.089   3.634   1.107  0.00  0.00     0.317 HD
BRANCH  12  14
ATOM     14  CA  ALA d   1       2.825   2.391   2.550  0.00  0.00     0.313 C 
ATOM     15  CB  ALA d   1       2.667   3.487   3.602  0.00  0.00     0.054 C 
BRANCH  14  16
ATOM     16  C   ALA d   1       4.103   1.602   2.864  0.00  0.00     0.173 C 
ATOM     17  O   ALA d   1       4.167   0.642   3.615  0.00  0.00    -0.648 OA
BRANCH  16  18
ATOM     18  OXT ALA d   1       5.181   2.110   2.218  0.00  0.00    -0.775 OA
ATOM     19  HXT ALA d   1       4.868   2.877   1.681  0.00  0.00     0.167 HD
ENDBRANCH  16  18
ENDBRANCH  14  16
ENDBRANCH  12  14
ENDBRANCH  11  12
ENDBRANCH   1  11
BRANCH   2  20
ATOM     20  O3  <1> d   1       3.236  -0.862   0.046  0.00  0.00    -0.360 OA
ATOM     21  H8  <1> d   1       3.874  -0.311   0.529  0.00  0.00     0.217 HD
ENDBRANCH   2  20
TORSDOF 6
