REMARK  5 active torsions:
REMARK  status: ('A' for Active; 'I' for Inactive)
REMARK       I    between atoms: N_2  and  C_1 
REMARK       I    between atoms: N_7  and  C_1 
REMARK    1  A    between atoms: C_3  and  C_8 
REMARK    2  A    between atoms: C_5  and  N_4 
REMARK    3  A    between atoms: C_6  and  O_15 
REMARK    4  A    between atoms: C_21  and  N_7 
REMARK    5  A    between atoms: O_15  and  C_25 
ROOT
ATOM      1  C   UNL d   1       0.953  -0.065   0.224  0.00  0.00     0.323 C 
ATOM      2  N   UNL d   1       0.261  -1.241   0.497  0.00  0.00    -0.331 N 
ATOM      3  N   UNL d   1      -0.365  -4.048   0.721  0.00  0.00    -0.364 N 
ATOM      4  N   UNL d   1       0.521   0.659  -0.856  0.00  0.00    -0.309 N 
ATOM      5  O   UNL d   1       1.895   0.272   0.937  0.00  0.00    -0.247 OA
ATOM      6  C   UNL d   1       0.646  -1.996   1.696  0.00  0.00     0.147 C 
ATOM      7  C   UNL d   1      -0.960  -1.771  -0.141  0.00  0.00     0.147 C 
ATOM      8  C   UNL d   1       0.812  -3.497   1.411  0.00  0.00     0.144 C 
ATOM      9  C   UNL d   1      -0.834  -3.279  -0.443  0.00  0.00     0.144 C 
ATOM     10  H   UNL d   1      -0.178   0.240  -1.449  0.00  0.00     0.170 HD
ENDROOT
BRANCH   4  11
ATOM     11  C   UNL d   1       0.996   1.921  -1.296  0.00  0.00     0.036 A 
ATOM     12  C   UNL d   1       1.992   2.656  -0.651  0.00  0.00     0.032 A 
ATOM     13  C   UNL d   1       2.408   3.907  -1.138  0.00  0.00     0.039 A 
ATOM     14  C   UNL d   1       1.845   4.431  -2.296  0.00  0.00     0.078 A 
ATOM     15  C   UNL d   1       0.830   3.713  -2.932  0.00  0.00     0.039 A 
ATOM     16  C   UNL d   1       0.412   2.469  -2.443  0.00  0.00     0.032 A 
BRANCH  14  17
ATOM     17  O   UNL d   1       2.180   5.600  -2.913  0.00  0.00    -0.255 OA
BRANCH  17  18
ATOM     18  C   UNL d   1       3.348   6.283  -2.488  0.00  0.00     0.530 C 
ATOM     19  F   UNL d   1       4.388   5.448  -2.281  0.00  0.00    -0.144 F 
ATOM     20  F   UNL d   1       3.709   7.153  -3.459  0.00  0.00    -0.144 F 
ATOM     21  F   UNL d   1       3.103   6.986  -1.363  0.00  0.00    -0.144 F 
ENDBRANCH  17  18
ENDBRANCH  14  17
ENDBRANCH   4  11
BRANCH   3  22
ATOM     22  C   UNL d   1      -1.250  -4.880   1.381  0.00  0.00     0.103 A 
ATOM     23  C   UNL d   1      -0.783  -5.893   2.221  0.00  0.00     0.064 A 
ATOM     24  C   UNL d   1      -1.671  -6.793   2.829  0.00  0.00     0.052 A 
ATOM     25  C   UNL d   1      -3.032  -6.648   2.575  0.00  0.00     0.033 A 
ATOM     26  C   UNL d   1      -3.428  -5.625   1.736  0.00  0.00     0.090 A 
ATOM     27  N   UNL d   1      -2.573  -4.759   1.143  0.00  0.00    -0.352 N 
ATOM     28  HN  UNL d   1      -2.923  -4.026   0.527  1.00  0.00     0.166 HD
BRANCH  24  29
ATOM     29  C   UNL d   1      -1.169  -7.908   3.703  0.00  0.00     0.417 C 
ATOM     30  F   UNL d   1       0.182  -7.894   3.885  0.00  0.00    -0.166 F 
ATOM     31  F   UNL d   1      -1.712  -7.875   4.951  0.00  0.00    -0.166 F 
ATOM     32  F   UNL d   1      -1.464  -9.138   3.199  0.00  0.00    -0.166 F 
ENDBRANCH  24  29
ENDBRANCH   3  22
TORSDOF 5
