REMARK  9 active torsions:
REMARK  status: ('A' for Active; 'I' for Inactive)
REMARK    1  A    between atoms: C_10  and  N_1 
REMARK    2  A    between atoms: N_2  and  C_9 
REMARK    3  A    between atoms: S_3  and  N_21 
REMARK    4  A    between atoms: C_14  and  S_3 
REMARK    5  A    between atoms: S_4  and  C_13 
REMARK    6  A    between atoms: N_22  and  S_4 
REMARK    7  A    between atoms: N_21  and  C_29 
REMARK    8  A    between atoms: C_30  and  N_22 
REMARK    9  A    between atoms: C_29  and  C_30 
ROOT
ATOM      1  C   UNL d   1       8.250  -6.696  -0.396  0.00  0.00     0.150 C 
ENDROOT
BRANCH   1   2
ATOM      2  N   UNL d   1       9.141  -7.850  -0.681  0.00  0.00    -0.310 N 
ATOM      3  C   UNL d   1       8.552  -8.867  -1.578  0.00  0.00     0.163 C 
BRANCH   2   4
ATOM      4  S   UNL d   1      10.170  -8.452   0.533  0.00  0.00     0.260 S 
ATOM      5  O   UNL d   1       9.390  -8.575   1.742  0.00  0.00    -0.200 OA
ATOM      6  O   UNL d   1      10.892  -9.574  -0.014  0.00  0.00    -0.200 OA
BRANCH   4   7
ATOM      7  C   UNL d   1      11.361  -7.152   0.755  0.00  0.00     0.081 A 
ATOM      8  C   UNL d   1      11.533  -6.585   2.018  0.00  0.00     0.051 A 
ATOM      9  C   UNL d   1      12.550  -5.645   2.217  0.00  0.00     0.062 A 
ATOM     10 CL   UNL d   1      12.604  -4.858   3.762  0.00  0.00    -0.082 Cl
ATOM     11  C   UNL d   1      13.406  -5.278   1.163  0.00  0.00     0.067 A 
ATOM     12  C   UNL d   1      13.194  -5.828  -0.113  0.00  0.00     0.033 A 
ATOM     13  C   UNL d   1      12.182  -6.775  -0.315  0.00  0.00     0.027 A 
BRANCH  11  14
ATOM     14  N   UNL d   1      14.494  -4.401   1.372  0.00  0.00    -0.250 N 
ATOM     15  C   UNL d   1      14.694  -3.247   0.664  0.00  0.00     0.232 C 
ATOM     16  C   UNL d   1      15.876  -2.518   1.245  0.00  0.00     0.123 C 
ATOM     17  O   UNL d   1      14.012  -2.801  -0.250  0.00  0.00    -0.273 OA
ATOM     18  C   UNL d   1      16.460  -3.497   2.265  0.00  0.00     0.050 C 
ATOM     19  C   UNL d   1      15.469  -4.633   2.309  0.00  0.00     0.240 C 
ATOM     20  C   UNL d   1      16.684  -2.893   3.651  0.00  0.00     0.020 C 
ATOM     21  C   UNL d   1      17.854  -4.003   1.880  0.00  0.00     0.020 C 
ATOM     22  O   UNL d   1      15.600  -5.628   3.014  0.00  0.00    -0.272 OA
ATOM     23  C   UNL d   1      18.074  -2.271   3.593  0.00  0.00     0.001 C 
ATOM     24  C   UNL d   1      18.824  -2.988   2.474  0.00  0.00     0.001 C 
ENDBRANCH  11  14
ENDBRANCH   4   7
ENDBRANCH   2   4
ENDBRANCH   1   2
BRANCH   1  25
ATOM     25  C   UNL d   1       7.122  -6.933   0.634  0.00  0.00     0.127 C 
BRANCH  25  26
ATOM     26  N   UNL d   1       6.221  -5.725   0.773  0.00  0.00    -0.209 NA
ATOM     27  C   UNL d   1       5.616  -5.298  -0.518  0.00  0.00     0.129 C 
BRANCH  26  28
ATOM     28  S   UNL d   1       5.006  -5.909   1.997  0.00  0.00     0.243 S 
ATOM     29  O   UNL d   1       4.428  -7.231   1.825  0.00  0.00    -0.206 OA
ATOM     30  O   UNL d   1       4.177  -4.732   1.975  0.00  0.00    -0.206 OA
BRANCH  28  31
ATOM     31  C   UNL d   1       5.896  -5.853   3.526  0.00  0.00     0.076 A 
ATOM     32  C   UNL d   1       6.514  -4.663   3.913  0.00  0.00     0.027 A 
ATOM     33  C   UNL d   1       7.102  -4.565   5.177  0.00  0.00     0.033 A 
ATOM     34  C   UNL d   1       7.096  -5.666   6.050  0.00  0.00     0.067 A 
ATOM     35  C   UNL d   1       6.471  -6.860   5.647  0.00  0.00     0.062 A 
ATOM     36  C   UNL d   1       5.861  -6.952   4.390  0.00  0.00     0.051 A 
ATOM     37 CL   UNL d   1       6.292  -8.202   6.726  0.00  0.00    -0.082 Cl
BRANCH  34  38
ATOM     38  N   UNL d   1       7.705  -5.537   7.312  0.00  0.00    -0.250 N 
ATOM     39  C   UNL d   1       7.354  -4.591   8.238  0.00  0.00     0.232 C 
ATOM     40  C   UNL d   1       8.220  -4.754   9.457  0.00  0.00     0.123 C 
ATOM     41  O   UNL d   1       6.465  -3.757   8.151  0.00  0.00    -0.273 OA
ATOM     42  C   UNL d   1       9.273  -5.780   9.039  0.00  0.00     0.050 C 
ATOM     43  C   UNL d   1       8.822  -6.253   7.670  0.00  0.00     0.240 C 
ATOM     44  C   UNL d   1       9.422  -6.947  10.014  0.00  0.00     0.020 C 
ATOM     45  C   UNL d   1      10.685  -5.190   8.985  0.00  0.00     0.020 C 
ATOM     46  O   UNL d   1       9.432  -7.061   6.989  0.00  0.00    -0.272 OA
ATOM     47  C   UNL d   1      10.433  -6.475  11.052  0.00  0.00     0.001 C 
ATOM     48  C   UNL d   1      11.247  -5.365  10.392  0.00  0.00     0.001 C 
ENDBRANCH  34  38
ENDBRANCH  28  31
ENDBRANCH  26  28
ENDBRANCH  25  26
ENDBRANCH   1  25
TORSDOF 9
