REMARK  5 active torsions:
REMARK  status: ('A' for Active; 'I' for Inactive)
REMARK    1  A    between atoms: C_9  and  N_1 
REMARK    2  A    between atoms: C_7  and  C_2 
REMARK    3  A    between atoms: N_10  and  C_8 
REMARK    4  A    between atoms: C_11  and  N_10 
REMARK    5  A    between atoms: O_17  and  C_14 
ROOT
ATOM      1  N   UNL d   1       0.667   0.530  -0.482  0.00  0.00    -0.225 N 
ATOM      2  C   UNL d   1       0.960  -0.782  -0.101  0.00  0.00     0.139 C 
ATOM      3  N   UNL d   1      -1.074  -0.314   0.430  0.00  0.00    -0.007 NA
ATOM      4  N   UNL d   1      -0.574   0.824  -0.023  0.00  0.00     0.001 NA
ATOM      5  N   UNL d   1      -0.146  -1.319   0.380  0.00  0.00    -0.270 N 
ATOM      6  HN  UNL d   1      -0.282  -2.290   0.659  1.00  0.00     0.185 HD
ENDROOT
BRANCH   2   7
ATOM      7  C   UNL d   1       2.288  -1.284  -0.121  0.00  0.00     0.068 C 
ATOM      8  C   UNL d   1       2.547  -2.600  -0.161  0.00  0.00     0.094 C 
BRANCH   8   9
ATOM      9  N   UNL d   1       3.782  -3.253  -0.162  0.00  0.00    -0.361 N 
ATOM     10  C   UNL d   1       5.068  -2.557  -0.036  0.00  0.00     0.155 C 
BRANCH   9  11
ATOM     11  C   UNL d   1       3.890  -4.675  -0.217  0.00  0.00     0.033 A 
ATOM     12  C   UNL d   1       2.994  -5.445  -0.979  0.00  0.00     0.029 A 
ATOM     13  C   UNL d   1       3.082  -6.841  -1.032  0.00  0.00     0.002 A 
ATOM     14  C   UNL d   1       4.073  -7.506  -0.314  0.00  0.00     0.000 A 
ATOM     15  C   UNL d   1       4.977  -6.773   0.446  0.00  0.00     0.002 A 
ATOM     16  C   UNL d   1       4.886  -5.376   0.491  0.00  0.00     0.029 A 
ENDBRANCH   9  11
ENDBRANCH   8   9
ENDBRANCH   2   7
BRANCH   1  17
ATOM     17  C   UNL d   1       1.429   1.482  -1.205  0.00  0.00     0.056 A 
ATOM     18  C   UNL d   1       2.396   1.082  -2.138  0.00  0.00     0.034 A 
ATOM     19  C   UNL d   1       3.192   2.036  -2.784  0.00  0.00     0.039 A 
ATOM     20  C   UNL d   1       3.032   3.392  -2.502  0.00  0.00     0.068 A 
ATOM     21  C   UNL d   1       2.027   3.790  -1.616  0.00  0.00     0.039 A 
ATOM     22  C   UNL d   1       1.212   2.847  -0.983  0.00  0.00     0.034 A 
BRANCH  20  23
ATOM     23  O   UNL d   1       3.779   4.412  -3.020  0.00  0.00    -0.356 OA
ATOM     24  C   UNL d   1       4.859   4.052  -3.873  0.00  0.00     0.210 C 
ENDBRANCH  20  23
ENDBRANCH   1  17
TORSDOF 5
