REMARK  0 active torsions:
REMARK  status: ('A' for Active; 'I' for Inactive)
ROOT
ATOM      1  C   UNL d   1       2.948   0.572  -0.305  0.00  0.00     0.049 C 
ATOM      2  S   UNL d   1       2.220  -1.016  -0.874  0.00  0.00    -0.144 SA
ATOM      3  S   UNL d   1       1.750   1.962  -0.298  0.00  0.00    -0.144 SA
ATOM      4  C   UNL d   1      -0.297  -0.772   0.270  0.00  0.00    -0.041 A 
ATOM      5  C   UNL d   1      -0.500   0.593   0.531  0.00  0.00    -0.041 A 
ATOM      6  C   UNL d   1      -1.379  -1.546  -0.190  0.00  0.00     0.015 A 
ATOM      7  C   UNL d   1      -1.770   1.154   0.300  0.00  0.00     0.015 A 
ATOM      8  C   UNL d   1      -2.651  -0.989  -0.398  0.00  0.00    -0.056 A 
ATOM      9  C   UNL d   1      -2.846   0.382  -0.164  0.00  0.00    -0.056 A 
ATOM     10  C   UNL d   1       1.050  -1.426   0.453  0.00  0.00     0.114 C 
ATOM     11  C   UNL d   1       0.609   1.485   1.025  0.00  0.00     0.114 C 
ATOM     12  C   UNL d   1       3.695   0.437   1.028  0.00  0.00     0.038 C 
ATOM     13  C   UNL d   1       3.987   0.950  -1.383  0.00  0.00     0.038 C 
ATOM     14  C   UNL d   1      -3.772  -1.868  -0.881  0.00  0.00     0.049 C 
ATOM     15  C   UNL d   1      -4.173   1.043  -0.408  0.00  0.00     0.049 C 
ENDROOT
TORSDOF 0
