REMARK  4 active torsions:
REMARK  status: ('A' for Active; 'I' for Inactive)
REMARK    1  A    between atoms: C_7  and  N_1 
REMARK    2  A    between atoms: N_6  and  C_9 
REMARK    3  A    between atoms: N_15  and  C_7 
REMARK    4  A    between atoms: C_17  and  N_15 
ROOT
ATOM      1  N   UNL d   1       1.919   0.024  -0.160  0.00  0.00    -0.267 N 
ATOM      2  C   UNL d   1       1.153   1.153  -0.104  0.00  0.00     0.262 A 
ATOM      3  C   UNL d   1       1.164  -1.110  -0.068  0.00  0.00     0.262 A 
ATOM      4  C   UNL d   1      -0.241   0.708  -0.056  0.00  0.00     0.050 A 
ATOM      5  C   UNL d   1      -0.231  -0.676  -0.042  0.00  0.00     0.048 A 
ATOM      6  C   UNL d   1      -1.416   1.436  -0.026  0.00  0.00     0.054 A 
ATOM      7  C   UNL d   1      -2.612   0.699   0.005  0.00  0.00     0.103 A 
ATOM      8  C   UNL d   1      -1.394  -1.421   0.003  0.00  0.00     0.020 A 
ATOM      9  O   UNL d   1       1.495   2.319  -0.079  0.00  0.00    -0.267 OA
ATOM     10  O   UNL d   1       1.504  -2.273   0.032  0.00  0.00    -0.267 OA
ATOM     11  C   UNL d   1      -2.604  -0.719   0.023  0.00  0.00     0.037 A 
ENDROOT
BRANCH   1  12
ATOM     12  C   UNL d   1       3.354   0.018  -0.175  0.00  0.00     0.230 C 
BRANCH  12  13
ATOM     13  N   UNL d   1       3.782   0.014  -1.567  0.00  0.00    -0.276 NA
ATOM     14  H   UNL d   1       3.311   0.749  -2.087  0.00  0.00     0.129 HD
BRANCH  13  15
ATOM     15  C   UNL d   1       5.165   0.030  -1.810  0.00  0.00     0.009 A 
ATOM     16  C   UNL d   1       6.092  -0.649  -1.004  0.00  0.00     0.026 A 
ATOM     17  C   UNL d   1       7.456  -0.650  -1.314  0.00  0.00     0.044 A 
ATOM     18  C   UNL d   1       7.899   0.002  -2.454  0.00  0.00     0.116 A 
ATOM     19  C   UNL d   1       7.003   0.638  -3.300  0.00  0.00     0.044 A 
ATOM     20  F   UNL d   1       9.205   0.002  -2.751  0.00  0.00    -0.206 F 
ATOM     21  C   UNL d   1       5.640   0.634  -2.987  0.00  0.00     0.026 A 
ENDBRANCH  13  15
ENDBRANCH  12  13
ENDBRANCH   1  12
BRANCH   7  22
ATOM     22  N   UNL d   1      -3.899   1.409   0.011  0.00  0.00    -0.116 N 
ATOM     23  O   UNL d   1      -3.871   2.647  -0.018  0.00  0.00    -0.532 OA
ATOM     24  O   UNL d   1      -4.932   0.726   0.038  0.00  0.00    -0.532 OA
ENDBRANCH   7  22
TORSDOF 4
