REMARK  4 active torsions:
REMARK  status: ('A' for Active; 'I' for Inactive)
REMARK    1  A    between atoms: N_11  and  N_1 
REMARK    2  A    between atoms: C_7  and  C_4 
REMARK    3  A    between atoms: C_5  and  C_7 
REMARK    4  A    between atoms: C_16  and  C_15 
ROOT
ATOM      1  N   UNL d   1       0.955   0.477  -0.120  0.00  0.00    -0.202 N 
ATOM      2  C   UNL d   1      -0.149   1.329  -0.063  0.00  0.00     0.285 A 
ATOM      3  C   UNL d   1       0.695  -0.888  -0.068  0.00  0.00     0.168 A 
ATOM      4  C   UNL d   1      -1.406   0.530  -0.078  0.00  0.00     0.078 A 
ATOM      5  S   UNL d   1      -1.054  -1.147  -0.178  0.00  0.00    -0.053 SA
ATOM      6  S   UNL d   1       1.733  -2.183   0.130  0.00  0.00    -0.050 SA
ATOM      7  O   UNL d   1      -0.147   2.552   0.009  0.00  0.00    -0.265 OA
ENDROOT
BRANCH   4   8
ATOM      8  C   UNL d   1      -2.612   1.109   0.013  0.00  0.00     0.042 C 
BRANCH   8   9
ATOM      9  C   UNL d   1      -3.892   0.396   0.058  0.00  0.00     0.049 A 
ATOM     10  C   UNL d   1      -4.438  -0.008   1.280  0.00  0.00     0.171 A 
ATOM     11  C   UNL d   1      -5.654  -0.684   1.330  0.00  0.00     0.197 A 
ATOM     12  F   UNL d   1      -3.789   0.261   2.424  0.00  0.00    -0.202 F 
ATOM     13  F   UNL d   1      -6.164  -1.059   2.511  0.00  0.00    -0.199 F 
ATOM     14  C   UNL d   1      -6.338  -0.967   0.157  0.00  0.00     0.199 A 
ATOM     15  C   UNL d   1      -5.809  -0.576  -1.065  0.00  0.00     0.197 A 
ATOM     16  F   UNL d   1      -7.512  -1.615   0.204  0.00  0.00    -0.199 F 
ATOM     17  C   UNL d   1      -4.593   0.100  -1.115  0.00  0.00     0.171 A 
ATOM     18  F   UNL d   1      -6.471  -0.847  -2.199  0.00  0.00    -0.199 F 
ATOM     19  F   UNL d   1      -4.097   0.472  -2.305  0.00  0.00    -0.202 F 
ENDBRANCH   8   9
ENDBRANCH   4   8
BRANCH   1  20
ATOM     20  N   UNL d   1       2.185   1.091   0.031  0.00  0.00    -0.300 N 
ATOM     21  C   UNL d   1       3.222   0.651  -0.607  0.00  0.00     0.120 C 
ATOM     22  HN  UNL d   1       2.277   1.896   0.651  1.00  0.00     0.186 HD
BRANCH  21  23
ATOM     23  C   UNL d   1       4.530   1.343  -0.478  0.00  0.00     0.003 A 
ATOM     24  C   UNL d   1       5.705   0.826  -1.043  0.00  0.00     0.047 A 
ATOM     25  C   UNL d   1       6.903   1.545  -0.949  0.00  0.00     0.048 A 
ATOM     26 CL   UNL d   1       5.758  -0.691  -1.867  0.00  0.00    -0.083 Cl
ATOM     27  C   UNL d   1       6.928   2.776  -0.296  0.00  0.00     0.035 A 
ATOM     28  C   UNL d   1       5.770   3.293   0.279  0.00  0.00     0.025 A 
ATOM     29 CL   UNL d   1       8.396   3.668  -0.206  0.00  0.00    -0.084 Cl
ATOM     30  C   UNL d   1       4.574   2.577   0.191  0.00  0.00     0.016 A 
ENDBRANCH  21  23
ENDBRANCH   1  20
TORSDOF 4
