REMARK  5 active torsions:
REMARK  status: ('A' for Active; 'I' for Inactive)
REMARK    1  A    between atoms: C_11  and  N_3 
REMARK    2  A    between atoms: N_14  and  C_9 
REMARK    3  A    between atoms: C_22  and  C_11 
REMARK    4  A    between atoms: N_15  and  N_14 
REMARK    5  A    between atoms: C_23  and  C_20 
ROOT
ATOM      1  C   UNL d   1      -0.202  -0.877  -0.003  0.00  0.00     0.160 A 
ATOM      2  C   UNL d   1      -0.459   0.459   0.003  0.00  0.00     0.164 A 
ATOM      3  N   UNL d   1       1.878   0.856   0.035  0.00  0.00    -0.260 N 
ATOM      4  N   UNL d   1      -1.327  -1.618  -0.061  0.00  0.00    -0.172 N 
ATOM      5  HN  UNL d   1      -1.393  -2.635  -0.105  1.00  0.00     0.186 HD
ATOM      6  N   UNL d   1       1.066  -1.388   0.054  0.00  0.00    -0.287 N 
ATOM      7  C   UNL d   1       2.147  -0.521   0.145  0.00  0.00     0.333 C 
ATOM      8  C   UNL d   1       0.594   1.426  -0.004  0.00  0.00     0.283 C 
ATOM      9  C   UNL d   1      -2.322  -0.757  -0.048  0.00  0.00     0.701 A 
ATOM     10  N   UNL d   1      -1.835   0.543   0.013  0.00  0.00    -0.177 N 
ATOM     11  O   UNL d   1       3.288  -0.954   0.328  0.00  0.00    -0.246 OA
ATOM     12  O   UNL d   1       0.388   2.639  -0.026  0.00  0.00    -0.265 OA
ATOM     13  C   UNL d   1       1.301  -2.818   0.064  0.00  0.00     0.163 C 
ATOM     14  C   UNL d   1      -2.639   1.738   0.006  0.00  0.00     0.176 C 
ENDROOT
BRANCH   9  15
ATOM     15  N   UNL d   1      -3.640  -1.081  -0.127  0.00  0.00    -0.132 N 
ATOM     16  H   UNL d   1      -4.371  -0.444   0.172  0.00  0.00     0.205 HD
BRANCH  15  17
ATOM     17  N   UNL d   1      -3.960  -2.277  -0.690  0.00  0.00    -0.297 N 
ATOM     18  C   UNL d   1      -5.168  -2.723  -0.617  0.00  0.00     0.119 C 
ATOM     19  HN  UNL d   1      -3.244  -2.822  -1.171  1.00  0.00     0.186 HD
BRANCH  18  20
ATOM     20  C   UNL d   1      -5.500  -4.010  -1.274  0.00  0.00    -0.017 A 
ATOM     21  C   UNL d   1      -4.508  -4.720  -1.956  0.00  0.00     0.030 A 
ATOM     22  C   UNL d   1      -4.864  -5.895  -2.586  0.00  0.00     0.088 A 
ATOM     23  N   UNL d   1      -6.120  -6.396  -2.575  0.00  0.00    -0.375 N 
ATOM     24  C   UNL d   1      -7.055  -5.693  -1.900  0.00  0.00     0.088 A 
ATOM     25  HN  UNL d   1      -6.350  -7.266  -3.055  1.00  0.00     0.164 HD
ATOM     26  C   UNL d   1      -6.800  -4.503  -1.235  0.00  0.00     0.030 A 
ENDBRANCH  18  20
ENDBRANCH  15  17
ENDBRANCH   9  15
BRANCH   3  27
ATOM     27  C   UNL d   1       3.032   1.748   0.030  0.00  0.00     0.175 C 
BRANCH  27  28
ATOM     28  C   UNL d   1       3.656   1.895  -1.346  0.00  0.00    -0.040 A 
ATOM     29  C   UNL d   1       3.271   2.941  -2.197  0.00  0.00     0.009 A 
ATOM     30  C   UNL d   1       3.830   3.062  -3.472  0.00  0.00     0.001 A 
ATOM     31  C   UNL d   1       4.774   2.138  -3.916  0.00  0.00     0.000 A 
ATOM     32  C   UNL d   1       5.171   1.098  -3.080  0.00  0.00     0.001 A 
ATOM     33  C   UNL d   1       4.620   0.981  -1.803  0.00  0.00     0.009 A 
ENDBRANCH  27  28
ENDBRANCH   3  27
TORSDOF 5
