REMARK  3 active torsions:
REMARK  status: ('A' for Active; 'I' for Inactive)
REMARK    1  A    between atoms: N_2  and  S_1 
REMARK    2  A    between atoms: C_10  and  S_1 
REMARK       I    between atoms: C_3  and  N_2 
REMARK       I    between atoms: N_5  and  C_3 
REMARK    3  A    between atoms: C_4  and  N_5 
ROOT
ATOM      1  N   UNL d   1       0.490   0.804   1.383  0.00  0.00    -0.232 N 
ATOM      2  C   UNL d   1      -0.656   1.050   2.133  0.00  0.00     0.335 C 
ATOM      3  N   UNL d   1      -1.856   0.745   1.556  0.00  0.00    -0.292 N 
ATOM      4  O   UNL d   1      -0.478   1.543   3.238  0.00  0.00    -0.246 OA
ATOM      5  H   UNL d   1       1.364   0.991   1.869  0.00  0.00     0.183 HD
ATOM      6  H   UNL d   1      -1.863   0.206   0.701  0.00  0.00     0.172 HD
ENDROOT
BRANCH   1   7
ATOM      7  S   UNL d   1       0.663   0.112  -0.098  0.00  0.00     0.266 S 
ATOM      8  O   UNL d   1      -0.366  -0.902  -0.207  0.00  0.00    -0.200 OA
ATOM      9  O   UNL d   1       2.065  -0.181  -0.274  0.00  0.00    -0.200 OA
BRANCH   7  10
ATOM     10  C   UNL d   1       0.242   1.383  -1.263  0.00  0.00     0.080 A 
ATOM     11  C   UNL d   1       0.515   2.727  -1.010  0.00  0.00     0.026 A 
ATOM     12  C   UNL d   1       0.219   3.680  -1.992  0.00  0.00     0.008 A 
ATOM     13  C   UNL d   1      -0.346   3.295  -3.218  0.00  0.00    -0.062 A 
ATOM     14  C   UNL d   1      -0.651   1.947  -3.438  0.00  0.00     0.008 A 
ATOM     15  C   UNL d   1      -0.576   4.314  -4.296  0.00  0.00     0.048 C 
ATOM     16  C   UNL d   1      -0.362   0.993  -2.463  0.00  0.00     0.026 A 
ENDBRANCH   7  10
ENDBRANCH   1   7
BRANCH   3  17
ATOM     17  C   UNL d   1      -3.071   1.198   2.032  0.00  0.00     0.132 A 
ATOM     18  N   UNL d   1      -3.250   1.902   3.152  0.00  0.00    -0.245 N 
ATOM     19  O   UNL d   1      -4.580   2.254   3.187  0.00  0.00    -0.241 OA
ATOM     20  HN  UNL d   1      -2.539   2.134   3.847  1.00  0.00     0.196 HD
ATOM     21  C   UNL d   1      -5.202   1.770   2.083  0.00  0.00     0.076 A 
ATOM     22  C   UNL d   1      -4.301   1.041   1.345  0.00  0.00     0.084 A 
ATOM     23  C   UNL d   1      -6.614   2.155   1.918  0.00  0.00     0.079 C 
ENDBRANCH   3  17
TORSDOF 3
