REMARK  1 active torsions:
REMARK  status: ('A' for Active; 'I' for Inactive)
REMARK    1  A    between atoms: C_10  and  C_1 
ROOT
ATOM      1  C   UNL d   1       0.753   0.777   1.073  0.00  0.00    -0.035 C 
ATOM      2  C   UNL d   1      -1.532   0.246   0.070  0.00  0.00     0.019 C 
ATOM      3  C   UNL d   1      -0.784   1.025   1.165  0.00  0.00     0.031 C 
ATOM      4  C   UNL d   1       0.976  -0.760   1.212  0.00  0.00     0.014 C 
ATOM      5  C   UNL d   1       1.221   1.200  -0.347  0.00  0.00     0.014 C 
ATOM      6  C   UNL d   1       0.463   0.423  -1.438  0.00  0.00    -0.012 C 
ATOM      7  C   UNL d   1       0.221  -1.539   0.120  0.00  0.00    -0.012 C 
ATOM      8  C   UNL d   1      -1.043   0.705  -1.311  0.00  0.00     0.025 C 
ATOM      9  C   UNL d   1      -1.284  -1.258   0.239  0.00  0.00     0.025 C 
ATOM     10  C   UNL d   1       0.717  -1.082  -1.261  0.00  0.00     0.009 C 
ATOM     11 BR   UNL d   1      -3.448   0.601   0.222  0.00  0.00    -0.085 Br
ENDROOT
BRANCH   1  12
ATOM     12  C   UNL d   1       1.509   1.548   2.215  0.00  0.00    -0.014 C 
ATOM     13  C   UNL d   1       3.033   1.346   2.201  0.00  0.00     0.010 C 
ATOM     14  C   UNL d   1       1.232   3.059   2.240  0.00  0.00     0.010 C 
ENDBRANCH   1  12
TORSDOF 1
