REMARK  2 active torsions:
REMARK  status: ('A' for Active; 'I' for Inactive)
REMARK    1  A    between atoms: C_12  and  N_3 
REMARK    2  A    between atoms: C_14  and  C_12 
ROOT
ATOM      1  C   UNL d   1       0.163   0.644  -0.074  0.00  0.00     0.155 A 
ATOM      2  C   UNL d   1       0.296  -0.723  -0.025  0.00  0.00     0.160 A 
ATOM      3  N   UNL d   1       1.453   1.093  -0.024  0.00  0.00    -0.254 N 
ATOM      4  N   UNL d   1      -0.977   1.374  -0.133  0.00  0.00    -0.335 N 
ATOM      5  HN  UNL d   1      -0.998   2.393  -0.184  1.00  0.00     0.168 HD
ATOM      6  N   UNL d   1       1.612  -1.073   0.015  0.00  0.00    -0.276 N 
ATOM      7  HN  UNL d   1       1.983  -2.023   0.049  1.00  0.00     0.184 HD
ATOM      8  N   UNL d   1       2.324   0.053   0.002  0.00  0.00    -0.018 NA
ATOM      9  C   UNL d   1      -0.889  -1.542  -0.011  0.00  0.00     0.279 A 
ATOM     10  N   UNL d   1      -2.066  -0.768  -0.050  0.00  0.00    -0.313 N 
ATOM     11  C   UNL d   1      -2.042   0.625  -0.118  0.00  0.00     0.187 A 
ATOM     12  O   UNL d   1      -0.879  -2.767   0.033  0.00  0.00    -0.265 OA
ATOM     13  C   UNL d   1      -3.328  -1.475  -0.004  0.00  0.00     0.160 C 
ENDROOT
BRANCH   3  14
ATOM     14  C   UNL d   1       1.932   2.460   0.005  0.00  0.00     0.187 C 
BRANCH  14  15
ATOM     15  C   UNL d   1       2.066   2.952   1.427  0.00  0.00    -0.039 A 
ATOM     16  C   UNL d   1       3.253   2.738   2.146  0.00  0.00     0.010 A 
ATOM     17  C   UNL d   1       3.344   3.108   3.490  0.00  0.00     0.024 A 
ATOM     18  C   UNL d   1       2.251   3.695   4.122  0.00  0.00     0.034 A 
ATOM     19  C   UNL d   1       1.074   3.935   3.416  0.00  0.00     0.024 A 
ATOM     20 CL   UNL d   1       2.345   4.104   5.790  0.00  0.00    -0.084 Cl
ATOM     21  C   UNL d   1       0.981   3.565   2.073  0.00  0.00     0.010 A 
ENDBRANCH  14  15
ENDBRANCH   3  14
TORSDOF 2
