REMARK  2 active torsions:
REMARK  status: ('A' for Active; 'I' for Inactive)
REMARK    1  A    between atoms: N_2  and  C_1 
REMARK    2  A    between atoms: C_3  and  C_6 
ROOT
ATOM      1  C   UNL d   1      -0.448  -2.796   0.299  0.00  0.00     0.178 C 
ATOM      2  N   UNL d   1       0.094  -3.320   1.577  0.00  0.00    -0.270 NA
ATOM      3  N   UNL d   1      -0.174  -3.770  -0.778  0.00  0.00    -0.270 NA
ATOM      4  C   UNL d   1       0.187  -4.708   1.302  0.00  0.00     0.034 A 
ATOM      5  C   UNL d   1      -0.006  -4.971  -0.052  0.00  0.00     0.031 A 
ATOM      6  C   UNL d   1       0.522  -5.702   2.196  0.00  0.00     0.067 A 
ATOM      7  C   UNL d   1       0.088  -6.254  -0.553  0.00  0.00     0.028 A 
ATOM      8  C   UNL d   1       0.598  -7.000   1.702  0.00  0.00     0.118 A 
ATOM      9  C   UNL d   1       0.378  -7.285   0.348  0.00  0.00     0.044 A 
ATOM     10  F   UNL d   1       0.901  -8.002   2.539  0.00  0.00    -0.206 F 
ATOM     11  H   UNL d   1       1.045  -2.977   1.692  0.00  0.00     0.129 HD
ATOM     12  H   UNL d   1      -0.938  -3.849  -1.442  0.00  0.00     0.129 HD
ENDROOT
BRANCH   1  13
ATOM     13  C   UNL d   1       0.064  -1.402   0.014  0.00  0.00     0.017 A 
ATOM     14  S   UNL d   1      -0.850  -0.038   0.526  0.00  0.00    -0.068 SA
ATOM     15  C   UNL d   1       0.374   1.038   0.053  0.00  0.00     0.144 A 
ATOM     16  C   UNL d   1       1.446   0.403  -0.534  0.00  0.00     0.045 A 
ATOM     17  C   UNL d   1       1.260  -1.014  -0.567  0.00  0.00     0.020 A 
BRANCH  15  18
ATOM     18  N   UNL d   1       0.236   2.452   0.298  0.00  0.00    -0.108 N 
ATOM     19  O   UNL d   1       1.226   3.150   0.034  0.00  0.00    -0.531 OA
ATOM     20  O   UNL d   1      -0.837   2.870   0.746  0.00  0.00    -0.531 OA
ENDBRANCH  15  18
ENDBRANCH   1  13
TORSDOF 2
