REMARK  5 active torsions:
REMARK  status: ('A' for Active; 'I' for Inactive)
REMARK    1  A    between atoms: C_5  and  C_1 
REMARK    2  A    between atoms: C_2  and  C_3 
REMARK       I    between atoms: C_3  and  N_4 
REMARK    3  A    between atoms: N_4  and  N_7 
REMARK    4  A    between atoms: N_7  and  C_6 
REMARK    5  A    between atoms: O_18  and  C_10 
ROOT
ATOM      1  N   UNL d   1      -1.617   1.929   3.020  0.00  0.00    -0.187 NA
ATOM      2  H   UNL d   1      -2.481   2.330   2.657  0.00  0.00     0.154 HD
ENDROOT
BRANCH   1   3
ATOM      3  N   UNL d   1      -1.810   1.385   4.309  0.00  0.00    -0.281 N 
ATOM      4  C   UNL d   1      -1.961   2.257   5.387  0.00  0.00     0.269 C 
ATOM      5  O   UNL d   1      -2.129   3.462   5.239  0.00  0.00    -0.266 OA
ATOM      6  H   UNL d   1      -1.566   0.402   4.384  0.00  0.00     0.184 HD
BRANCH   4   7
ATOM      7  C   UNL d   1      -1.921   1.615   6.754  0.00  0.00     0.066 A 
ATOM      8  C   UNL d   1      -2.535   2.210   7.880  0.00  0.00     0.084 A 
ATOM      9  C   UNL d   1      -2.516   1.535   9.113  0.00  0.00     0.038 A 
ATOM     10  C   UNL d   1      -1.869   0.308   9.252  0.00  0.00     0.003 A 
ATOM     11  C   UNL d   1      -1.220  -0.256   8.163  0.00  0.00     0.001 A 
ATOM     12  C   UNL d   1      -1.239   0.395   6.928  0.00  0.00     0.020 A 
BRANCH   8  13
ATOM     13  O   UNL d   1      -3.188   3.408   7.729  0.00  0.00    -0.355 OA
ATOM     14  C   UNL d   1      -3.305   4.217   8.898  0.00  0.00     0.210 C 
ENDBRANCH   8  13
ENDBRANCH   4   7
ENDBRANCH   1   3
BRANCH   1  15
ATOM     15  C   UNL d   1      -1.044   0.991   2.123  0.00  0.00     0.099 A 
ATOM     16  C   UNL d   1      -0.932   1.331   0.776  0.00  0.00     0.060 A 
ATOM     17  C   UNL d   1      -0.298   0.452  -0.115  0.00  0.00     0.052 A 
ATOM     18  C   UNL d   1       0.231  -0.738   0.390  0.00  0.00     0.033 A 
ATOM     19  C   UNL d   1       0.089  -0.999   1.740  0.00  0.00     0.090 A 
ATOM     20  N   UNL d   1      -0.538  -0.173   2.606  0.00  0.00    -0.356 N 
ATOM     21  HN  UNL d   1      -0.628  -0.417   3.593  1.00  0.00     0.166 HD
BRANCH  17  22
ATOM     22  C   UNL d   1      -0.168   0.768  -1.581  0.00  0.00     0.417 C 
ATOM     23  F   UNL d   1      -0.736   1.952  -1.939  0.00  0.00    -0.166 F 
ATOM     24  F   UNL d   1      -0.756  -0.179  -2.365  0.00  0.00    -0.166 F 
ATOM     25  F   UNL d   1       1.129   0.834  -1.988  0.00  0.00    -0.166 F 
ENDBRANCH  17  22
ENDBRANCH   1  15
TORSDOF 5
