REMARK  4 active torsions:
REMARK  status: ('A' for Active; 'I' for Inactive)
REMARK    1  A    between atoms: N_8  and  C_6 
REMARK    2  A    between atoms: C_7  and  C_11 
REMARK    3  A    between atoms: N_13  and  N_8 
REMARK    4  A    between atoms: C_18  and  N_13 
ROOT
ATOM      1  N   UNL d   1      -4.064  -1.364  -0.511  0.00  0.00    -0.302 N 
ATOM      2  HN  UNL d   1      -5.038  -1.081  -0.618  1.00  0.00     0.186 HD
ENDROOT
BRANCH   1   3
ATOM      3  C   UNL d   1      -3.149  -0.554  -0.077  0.00  0.00     0.054 C 
ATOM      4  C   UNL d   1      -3.344   0.808   0.314  0.00  0.00     0.066 A 
ATOM      5  N   UNL d   1      -2.200   1.308   0.861  0.00  0.00    -0.344 N 
ATOM      6  C   UNL d   1      -4.283   1.815   0.318  0.00  0.00    -0.021 A 
ATOM      7  C   UNL d   1      -2.320   2.593   1.259  0.00  0.00     0.045 A 
ATOM      8  C   UNL d   1      -1.129   0.337   0.925  0.00  0.00     0.136 C 
ATOM      9  C   UNL d   1      -3.630   2.961   0.925  0.00  0.00    -0.001 A 
ATOM     10  C   UNL d   1      -1.412   3.463   1.876  0.00  0.00     0.030 A 
ATOM     11  C   UNL d   1      -4.040   4.280   1.216  0.00  0.00     0.014 A 
ATOM     12  C   UNL d   1      -3.141   5.166   1.830  0.00  0.00     0.001 A 
ATOM     13  C   UNL d   1      -1.850   4.759   2.155  0.00  0.00     0.002 A 
ATOM     14  C   UNL d   1      -1.658  -0.849   0.105  0.00  0.00     0.081 C 
ATOM     15  C   UNL d   1      -5.673   1.775  -0.201  0.00  0.00     0.052 C 
ENDBRANCH   1   3
BRANCH   1  16
ATOM     16  N   UNL d   1      -3.631  -2.626  -0.816  0.00  0.00    -0.301 N 
ATOM     17  H   UNL d   1      -2.844  -3.012  -0.301  0.00  0.00     0.187 HD
BRANCH  16  18
ATOM     18  C   UNL d   1      -4.561  -3.637  -1.146  0.00  0.00     0.048 A 
ATOM     19  C   UNL d   1      -5.893  -3.375  -1.480  0.00  0.00     0.047 A 
ATOM     20  C   UNL d   1      -6.758  -4.413  -1.880  0.00  0.00     0.050 A 
ATOM     21  C   UNL d   1      -6.264  -5.724  -1.961  0.00  0.00     0.016 A 
ATOM     22  C   UNL d   1      -4.934  -5.996  -1.657  0.00  0.00     0.003 A 
ATOM     23  C   UNL d   1      -4.091  -4.957  -1.265  0.00  0.00     0.031 A 
BRANCH  20  24
ATOM     24  C   UNL d   1      -8.194  -4.138  -2.244  0.00  0.00     0.417 C 
ATOM     25  F   UNL d   1      -8.576  -2.843  -2.076  0.00  0.00    -0.166 F 
ATOM     26  F   UNL d   1      -8.464  -4.442  -3.546  0.00  0.00    -0.166 F 
ATOM     27  F   UNL d   1      -9.067  -4.882  -1.506  0.00  0.00    -0.166 F 
ENDBRANCH  20  24
ENDBRANCH  16  18
ENDBRANCH   1  16
TORSDOF 4
