REMARK  1 active torsions:
REMARK  status: ('A' for Active; 'I' for Inactive)
REMARK    1  A    between atoms: C_7  and  O_19 
ROOT
ATOM      1  C   UNL d   1       2.132   1.823  -1.505  0.00  0.00    -0.009 C 
ATOM      2  C   UNL d   1       1.841   2.000   0.040  0.00  0.00     0.001 C 
ATOM      3  C   UNL d   1      -1.580  -0.536   0.799  0.00  0.00    -0.072 C 
ATOM      4  C   UNL d   1       0.569   1.262   0.299  0.00  0.00    -0.005 C 
ATOM      5  C   UNL d   1       0.951  -0.245   0.269  0.00  0.00    -0.002 C 
ATOM      6  C   UNL d   1      -0.347  -1.063   0.060  0.00  0.00     0.019 C 
ATOM      7  C   UNL d   1       2.660   3.245  -1.877  0.00  0.00     0.062 C 
ATOM      8  C   UNL d   1      -2.657  -1.323   0.995  0.00  0.00     0.053 C 
ATOM      9  C   UNL d   1       2.968   0.533  -1.443  0.00  0.00     0.013 C 
ATOM     10  C   UNL d   1       2.127  -0.626  -0.749  0.00  0.00     0.006 C 
ATOM     11  C   UNL d   1      -0.285   1.564   1.514  0.00  0.00     0.010 C 
ATOM     12  C   UNL d   1       2.168   3.428   0.435  0.00  0.00     0.009 C 
ATOM     13  C   UNL d   1      -0.150  -2.534   0.441  0.00  0.00     0.017 C 
ATOM     14  C   UNL d   1      -1.654   0.924   1.231  0.00  0.00     0.035 C 
ATOM     15  C   UNL d   1      -2.661  -2.741   0.553  0.00  0.00     0.149 C 
ATOM     16  C   UNL d   1       3.270   3.779  -0.583  0.00  0.00     0.038 C 
ATOM     17  O   UNL d   1      -3.710  -3.366   0.569  0.00  0.00    -0.293 OA
ATOM     18  C   UNL d   1      -1.372  -3.360   0.049  0.00  0.00     0.084 C 
ATOM     19  C   UNL d   1       0.993   1.488  -2.530  0.00  0.00     0.018 C 
ATOM     20  C   UNL d   1       3.502   3.351  -3.131  0.00  0.00     0.046 C 
ENDROOT
BRANCH   7  21
ATOM     21  O   UNL d   1       1.508   4.094  -2.129  0.00  0.00    -0.389 OA
ATOM     22  H   UNL d   1       1.770   5.021  -2.001  0.00  0.00     0.210 HD
ENDBRANCH   7  21
TORSDOF 1
