REMARK  4 active torsions:
REMARK  status: ('A' for Active; 'I' for Inactive)
REMARK    1  A    between atoms: C_2  and  C_1 
REMARK    2  A    between atoms: C_4  and  C_2 
REMARK    3  A    between atoms: S_8  and  C_3 
REMARK    4  A    between atoms: C_9  and  S_8 
ROOT
ATOM      1  C   UNL d   1       0.963  -0.043  -0.005  0.00  0.00     0.062 C 
ATOM      2  C   UNL d   1       2.286   0.036   0.190  0.00  0.00     0.054 C 
ENDROOT
BRANCH   1   3
ATOM      3  C   UNL d   1       0.268   1.037  -0.753  0.00  0.00     0.182 C 
ATOM      4  O   UNL d   1       0.784   2.133  -0.944  0.00  0.00    -0.288 OA
BRANCH   3   5
ATOM      5  C   UNL d   1      -1.107   0.757  -1.251  0.00  0.00     0.014 A 
ATOM      6  C   UNL d   1      -2.003   1.829  -1.367  0.00  0.00     0.017 A 
ATOM      7  C   UNL d   1      -3.292   1.619  -1.867  0.00  0.00     0.025 A 
ATOM      8  C   UNL d   1      -3.680   0.340  -2.262  0.00  0.00     0.034 A 
ATOM      9  C   UNL d   1      -2.794  -0.731  -2.159  0.00  0.00     0.025 A 
ATOM     10 CL   UNL d   1      -5.258   0.083  -2.899  0.00  0.00    -0.084 Cl
ATOM     11  C   UNL d   1      -1.505  -0.524  -1.655  0.00  0.00     0.017 A 
ENDBRANCH   3   5
ENDBRANCH   1   3
BRANCH   2  12
ATOM     12  S   UNL d   1       3.144  -1.221   1.018  0.00  0.00    -0.102 SA
BRANCH  12  13
ATOM     13  C   UNL d   1       3.913  -0.266   2.314  0.00  0.00     0.004 A 
ATOM     14  C   UNL d   1       3.589  -0.543   3.646  0.00  0.00     0.019 A 
ATOM     15  C   UNL d   1       4.194   0.169   4.686  0.00  0.00     0.008 A 
ATOM     16  C   UNL d   1       5.136   1.166   4.411  0.00  0.00    -0.062 A 
ATOM     17  C   UNL d   1       5.470   1.432   3.077  0.00  0.00     0.008 A 
ATOM     18  C   UNL d   1       5.772   1.927   5.534  0.00  0.00     0.048 C 
ATOM     19  C   UNL d   1       4.867   0.717   2.037  0.00  0.00     0.019 A 
ENDBRANCH  12  13
ENDBRANCH   2  12
TORSDOF 4
