REMARK  4 active torsions:
REMARK  status: ('A' for Active; 'I' for Inactive)
REMARK    1  A    between atoms: C_2  and  C_1 
REMARK    2  A    between atoms: N_8  and  C_3 
REMARK    3  A    between atoms: C_4  and  C_5 
REMARK       I    between atoms: C_5  and  N_10 
REMARK    4  A    between atoms: N_10  and  N_8 
ROOT
ATOM      1  N   UNL d   1      -0.464  -5.016  -2.050  0.00  0.00    -0.186 NA
ATOM      2  H   UNL d   1       0.230  -5.769  -1.978  0.00  0.00     0.154 HD
ENDROOT
BRANCH   1   3
ATOM      3  C   UNL d   1      -0.408  -4.191  -0.895  0.00  0.00     0.120 A 
ATOM      4  N   UNL d   1      -1.507  -4.074  -0.103  0.00  0.00    -0.353 N 
ATOM      5  C   UNL d   1      -1.431  -3.286   0.994  0.00  0.00     0.105 A 
ATOM      6  HN  UNL d   1      -2.369  -4.570  -0.330  1.00  0.00     0.166 HD
ATOM      7  C   UNL d   1      -0.313  -2.542   1.341  0.00  0.00     0.065 A 
ATOM      8  C   UNL d   1       0.802  -2.634   0.503  0.00  0.00     0.044 A 
ATOM      9  C   UNL d   1       0.766  -3.472  -0.613  0.00  0.00     0.074 A 
ATOM     10 CL   UNL d   1       2.159  -3.551  -1.627  0.00  0.00    -0.081 Cl
BRANCH   7  11
ATOM     11  C   UNL d   1      -0.335  -1.697   2.575  0.00  0.00     0.418 C 
ATOM     12  F   UNL d   1       0.781  -0.934   2.729  0.00  0.00    -0.166 F 
ATOM     13  F   UNL d   1      -0.440  -2.441   3.709  0.00  0.00    -0.166 F 
ATOM     14  F   UNL d   1      -1.385  -0.831   2.596  0.00  0.00    -0.166 F 
ENDBRANCH   7  11
ENDBRANCH   1   3
BRANCH   1  15
ATOM     15  N   UNL d   1      -1.750  -5.513  -2.295  0.00  0.00    -0.281 N 
ATOM     16  C   UNL d   1      -1.910  -6.828  -2.665  0.00  0.00     0.267 C 
ATOM     17  O   UNL d   1      -0.993  -7.647  -2.618  0.00  0.00    -0.266 OA
ATOM     18  H   UNL d   1      -2.490  -4.819  -2.328  0.00  0.00     0.184 HD
BRANCH  16  19
ATOM     19  C   UNL d   1      -3.281  -7.242  -3.086  0.00  0.00     0.054 A 
ATOM     20  C   UNL d   1      -4.235  -6.395  -3.674  0.00  0.00     0.049 A 
ATOM     21 CL   UNL d   1      -3.952  -4.733  -4.063  0.00  0.00    -0.083 Cl
ATOM     22  C   UNL d   1      -5.500  -6.893  -4.018  0.00  0.00     0.025 A 
ATOM     23  C   UNL d   1      -5.821  -8.231  -3.796  0.00  0.00     0.002 A 
ATOM     24  C   UNL d   1      -4.876  -9.084  -3.233  0.00  0.00     0.001 A 
ATOM     25  C   UNL d   1      -3.615  -8.594  -2.883  0.00  0.00     0.019 A 
ENDBRANCH  16  19
ENDBRANCH   1  15
TORSDOF 4
