REMARK  4 active torsions:
REMARK  status: ('A' for Active; 'I' for Inactive)
REMARK    1  A    between atoms: N_12  and  N_5 
REMARK    2  A    between atoms: C_16  and  N_7 
REMARK       I    between atoms: C_13  and  N_12 
REMARK    3  A    between atoms: C_17  and  C_13 
REMARK    4  A    between atoms: N_15  and  C_17 
ROOT
ATOM      1  C   UNL d   1       0.067  -0.129  -0.131  0.00  0.00     0.147 C 
ATOM      2  C   UNL d   1       0.167   1.088   0.518  0.00  0.00     0.149 C 
ATOM      3  N   UNL d   1      -1.038  -0.630  -0.743  0.00  0.00    -0.328 N 
ATOM      4  HN  UNL d   1      -1.020  -1.472  -1.319  1.00  0.00     0.169 HD
ATOM      5  N   UNL d   1      -2.186   1.202   0.284  0.00  0.00    -0.203 N 
ATOM      6  C   UNL d   1      -1.038   1.860   0.763  0.00  0.00     0.298 C 
ATOM      7  N   UNL d   1       1.313  -0.728   0.043  0.00  0.00    -0.292 N 
ATOM      8  N   UNL d   1       1.452   1.372   0.873  0.00  0.00    -0.344 N 
ATOM      9  HN  UNL d   1       1.813   2.226   1.299  1.00  0.00     0.167 HD
ATOM     10  C   UNL d   1      -2.126   0.062  -0.529  0.00  0.00     0.104 C 
ATOM     11  C   UNL d   1       2.118   0.289   0.539  0.00  0.00     0.191 C 
ATOM     12  O   UNL d   1      -1.057   2.953   1.330  0.00  0.00    -0.263 OA
ATOM     13  C   UNL d   1      -3.394  -0.339  -1.238  0.00  0.00     0.091 C 
ENDROOT
BRANCH   5  14
ATOM     14  N   UNL d   1      -3.409   1.541   0.909  0.00  0.00    -0.258 N 
ATOM     15  C   UNL d   1      -3.551   1.214   2.250  0.00  0.00     0.265 C 
ATOM     16  O   UNL d   1      -2.704   0.603   2.898  0.00  0.00    -0.270 OA
ATOM     17  H   UNL d   1      -4.171   1.920   0.361  0.00  0.00     0.190 HD
BRANCH  15  18
ATOM     18  C   UNL d   1      -4.877   1.653   2.870  0.00  0.00     0.376 C 
BRANCH  18  19
ATOM     19  N   UNL d   1      -6.010   0.959   2.223  0.00  0.00     0.101 N 
ATOM     20  C   UNL d   1      -5.971  -0.510   2.450  0.00  0.00     0.299 C 
ATOM     21  C   UNL d   1      -6.360  -0.958   3.869  0.00  0.00     0.198 C 
ATOM     22  O   UNL d   1      -7.655  -0.461   4.223  0.00  0.00    -0.388 OA
ATOM     23  C   UNL d   1      -7.679   0.968   4.154  0.00  0.00     0.198 C 
ATOM     24  C   UNL d   1      -7.302   1.469   2.747  0.00  0.00     0.299 C 
ENDBRANCH  18  19
ENDBRANCH  15  18
ENDBRANCH   5  14
BRANCH   7  25
ATOM     25  C   UNL d   1       1.709  -2.094  -0.138  0.00  0.00     0.042 A 
ATOM     26  C   UNL d   1       0.804  -3.062  -0.590  0.00  0.00     0.030 A 
ATOM     27  C   UNL d   1       1.179  -4.411  -0.660  0.00  0.00     0.002 A 
ATOM     28  C   UNL d   1       2.458  -4.808  -0.282  0.00  0.00     0.000 A 
ATOM     29  C   UNL d   1       3.372  -3.855   0.155  0.00  0.00     0.002 A 
ATOM     30  C   UNL d   1       3.004  -2.508   0.225  0.00  0.00     0.030 A 
ENDBRANCH   7  25
TORSDOF 4
