REMARK  8 active torsions:
REMARK  status: ('A' for Active; 'I' for Inactive)
REMARK    1  A    between atoms: C_5  and  C_1 
REMARK       I    between atoms: N_4  and  C_5 
REMARK    2  A    between atoms: C_9  and  C_6 
REMARK    3  A    between atoms: C_20  and  N_10 
REMARK    4  A    between atoms: C_21  and  C_20 
REMARK    5  A    between atoms: C_31  and  C_28 
REMARK    6  A    between atoms: O_34  and  C_28 
REMARK    7  A    between atoms: C_29  and  C_30 
REMARK    8  A    between atoms: O_35  and  C_29 
ROOT
ATOM      1  C   UNL d   2       0.758  -1.055   4.048  0.00  0.00     0.088 C 
ATOM      2  C   UNL d   2       0.170  -0.886   2.862  0.00  0.00     0.088 C 
ENDROOT
BRANCH   1   3
ATOM      3  C   UNL d   2      -0.047  -1.222   5.260  0.00  0.00     0.165 C 
ATOM      4  O   UNL d   2      -1.260  -1.316   5.275  0.00  0.00    -0.647 OA
BRANCH   3   5
ATOM      5  O   UNL d   2       0.720  -1.225   6.370  0.00  0.00    -0.773 OA
ATOM      6  H   UNL d   2       1.676  -1.107   6.218  0.00  0.00     0.167 HD
ENDBRANCH   3   5
ENDBRANCH   1   3
BRANCH   2   7
ATOM      7  C   UNL d   2       0.985  -0.598   1.679  0.00  0.00     0.165 C 
ATOM      8  O   UNL d   2       0.592  -0.640   0.532  0.00  0.00    -0.647 OA
BRANCH   7   9
ATOM      9  O   UNL d   2       2.209  -0.183   2.046  0.00  0.00    -0.773 OA
ATOM     10  H   UNL d   2       2.595   0.196   1.215  0.00  0.00     0.167 HD
ENDBRANCH   7   9
ENDBRANCH   2   7
TORSDOF 8
