REMARK  10 active torsions:
REMARK  status: ('A' for Active; 'I' for Inactive)
REMARK    1  A    between atoms: N_2  and  C_1 
REMARK    2  A    between atoms: O_25  and  C_4 
REMARK    3  A    between atoms: C_5  and  N_15 
REMARK    4  A    between atoms: N_12  and  C_5 
REMARK    5  A    between atoms: S_14  and  C_7 
REMARK    6  A    between atoms: C_8  and  C_22 
REMARK       I    between atoms: N_16  and  C_8 
REMARK    7  A    between atoms: O_28  and  C_9 
REMARK    8  A    between atoms: C_19  and  N_12 
REMARK    9  A    between atoms: C_22  and  S_14 
REMARK   10  A    between atoms: N_15  and  N_16 
ROOT
ATOM      1  C   UNL d   1      -5.229  -0.736  -0.956  0.00  0.00     0.245 C 
ATOM      2  N   UNL d   1      -5.617   0.531  -1.369  0.00  0.00    -0.267 N 
ATOM      3  O   UNL d   1      -5.952  -1.731  -1.077  0.00  0.00    -0.271 OA
ATOM      4  H   UNL d   1      -4.894   1.224  -1.550  0.00  0.00     0.190 HD
ENDROOT
BRANCH   1   5
ATOM      5  C   UNL d   1      -3.815  -0.913  -0.410  0.00  0.00     0.184 C 
BRANCH   5   6
ATOM      6  S   UNL d   1      -2.914   0.611   0.013  0.00  0.00    -0.118 SA
BRANCH   6   7
ATOM      7  C   UNL d   1      -1.391  -0.100   0.693  0.00  0.00     0.037 A 
ATOM      8  C   UNL d   1      -1.081   0.196   2.034  0.00  0.00     0.060 A 
ATOM      9  C   UNL d   1       0.086  -0.293   2.666  0.00  0.00     0.102 A 
ATOM     10  C   UNL d   1       0.929  -1.111   1.904  0.00  0.00     0.138 A 
ATOM     11  C   UNL d   1       0.648  -1.402   0.556  0.00  0.00     0.077 A 
ATOM     12  C   UNL d   1      -0.503  -0.898  -0.060  0.00  0.00     0.087 A 
BRANCH   9  13
ATOM     13  O   UNL d   1       0.169   0.076   3.973  0.00  0.00    -0.353 OA
ATOM     14  C   UNL d   1       1.447   0.290   4.569  0.00  0.00     0.210 C 
ENDBRANCH   9  13
BRANCH  10  15
ATOM     15  N   UNL d   1       2.085  -1.768   2.465  0.00  0.00    -0.113 N 
ATOM     16  O   UNL d   1       3.175  -1.567   1.907  0.00  0.00    -0.532 OA
ATOM     17  O   UNL d   1       1.908  -2.532   3.430  0.00  0.00    -0.532 OA
ENDBRANCH  10  15
BRANCH  12  18
ATOM     18  O   UNL d   1      -0.833  -1.124  -1.371  0.00  0.00    -0.355 OA
ATOM     19  C   UNL d   1       0.013  -1.977  -2.136  0.00  0.00     0.210 C 
ENDBRANCH  12  18
ENDBRANCH   6   7
ENDBRANCH   5   6
ENDBRANCH   1   5
BRANCH   2  20
ATOM     20  N   UNL d   1      -6.861   0.713  -2.058  0.00  0.00    -0.274 N 
ATOM     21  H   UNL d   1      -6.802   0.573  -3.063  0.00  0.00     0.189 HD
BRANCH  20  22
ATOM     22  C   UNL d   1      -8.062   0.311  -1.485  0.00  0.00     0.191 C 
ATOM     23  S   UNL d   1      -8.400   0.161   0.148  0.00  0.00    -0.039 SA
BRANCH  22  24
ATOM     24  N   UNL d   1      -9.021  -0.084  -2.392  0.00  0.00    -0.332 N 
ATOM     25  H   UNL d   1      -9.657  -0.787  -2.025  0.00  0.00     0.168 HD
BRANCH  24  26
ATOM     26  C   UNL d   1      -9.482   0.596  -3.537  0.00  0.00     0.036 A 
ATOM     27  C   UNL d   1      -9.245   1.957  -3.752  0.00  0.00     0.055 A 
ATOM     28  C   UNL d   1      -9.879   2.623  -4.808  0.00  0.00     0.058 A 
ATOM     29 CL   UNL d   1      -9.616   4.326  -4.955  0.00  0.00    -0.082 Cl
ATOM     30  C   UNL d   1     -10.727   1.925  -5.678  0.00  0.00     0.055 A 
ATOM     31  C   UNL d   1     -10.930   0.555  -5.488  0.00  0.00     0.028 A 
ATOM     32 CL   UNL d   1     -11.568   2.691  -6.976  0.00  0.00    -0.083 Cl
ATOM     33  C   UNL d   1     -10.323  -0.098  -4.414  0.00  0.00     0.031 A 
ENDBRANCH  24  26
ENDBRANCH  22  24
ENDBRANCH  20  22
ENDBRANCH   2  20
TORSDOF 10
