REMARK  3 active torsions:
REMARK  status: ('A' for Active; 'I' for Inactive)
REMARK       I    between atoms: N_5  and  C_1 
REMARK    1  A    between atoms: C_6  and  C_1 
REMARK    2  A    between atoms: C_2  and  C_6 
REMARK    3  A    between atoms: C_8  and  N_5 
ROOT
ATOM      1  C   UNL d   1       1.064   0.056  -0.097  0.00  0.00     0.226 C 
ATOM      2  N   UNL d   1       1.329   1.363  -0.487  0.00  0.00    -0.327 N 
ATOM      3  O   UNL d   1       1.419  -0.466   0.956  0.00  0.00    -0.273 OA
ATOM      4  H   UNL d   1       0.810   1.720  -1.280  0.00  0.00     0.169 HD
ENDROOT
BRANCH   2   5
ATOM      5  C   UNL d   1       2.175   2.278   0.176  0.00  0.00     0.037 A 
ATOM      6  C   UNL d   1       3.053   1.906   1.197  0.00  0.00     0.061 A 
ATOM      7  C   UNL d   1       3.897   2.821   1.815  0.00  0.00     0.061 A 
ATOM      8  N   UNL d   1       4.736   2.394   2.779  0.00  0.00    -0.363 N 
ATOM      9  C   UNL d   1       3.864   4.177   1.411  0.00  0.00     0.059 A 
ATOM     10  C   UNL d   1       5.534   3.325   3.338  0.00  0.00     0.105 A 
ATOM     11  HN  UNL d   1       4.766   1.417   3.069  1.00  0.00     0.165 HD
ATOM     12  C   UNL d   1       5.500   4.647   2.951  0.00  0.00     0.105 A 
ATOM     13  N   UNL d   1       4.669   5.097   1.984  0.00  0.00    -0.363 N 
ATOM     14  HN  UNL d   1       4.651   6.077   1.704  1.00  0.00     0.165 HD
ATOM     15  C   UNL d   1       2.992   4.549   0.397  0.00  0.00     0.034 A 
ATOM     16  C   UNL d   1       2.159   3.614  -0.230  0.00  0.00     0.032 A 
ENDBRANCH   2   5
BRANCH   1  17
ATOM     17  C   UNL d   1       0.267  -0.736  -1.121  0.00  0.00     0.142 C 
BRANCH  17  18
ATOM     18  C   UNL d   1      -1.229  -0.640  -0.912  0.00  0.00    -0.038 A 
ATOM     19  C   UNL d   1      -1.937  -1.470   0.009  0.00  0.00    -0.019 A 
ATOM     20  C   UNL d   1      -3.338  -1.289   0.145  0.00  0.00    -0.025 A 
ATOM     21  C   UNL d   1      -1.336  -2.478   0.799  0.00  0.00     0.013 A 
ATOM     22  C   UNL d   1      -4.074  -2.093   1.032  0.00  0.00     0.012 A 
ATOM     23  C   UNL d   1      -3.995  -0.307  -0.609  0.00  0.00     0.012 A 
ATOM     24  C   UNL d   1      -3.453  -3.086   1.786  0.00  0.00     0.001 A 
ATOM     25  C   UNL d   1      -2.084  -3.279   1.669  0.00  0.00     0.001 A 
ATOM     26  C   UNL d   1      -3.297   0.493  -1.507  0.00  0.00     0.001 A 
ATOM     27  C   UNL d   1      -1.926   0.327  -1.659  0.00  0.00     0.008 A 
ENDBRANCH  17  18
ENDBRANCH   1  17
TORSDOF 3
