REMARK  4 active torsions:
REMARK  status: ('A' for Active; 'I' for Inactive)
REMARK    1  A    between atoms: C_3  and  C_1 
REMARK    2  A    between atoms: C_6  and  C_3 
REMARK    3  A    between atoms: N_14  and  C_8 
REMARK    4  A    between atoms: C_15  and  N_14 
ROOT
ATOM      1  C   UNL d   1      -5.346   0.648  -0.324  0.00  0.00     0.072 C 
ATOM      2  C   UNL d   1      -5.053  -0.608   0.030  0.00  0.00     0.092 C 
ENDROOT
BRANCH   1   3
ATOM      3  C   UNL d   1      -6.726   1.205  -0.381  0.00  0.00     0.183 C 
ATOM      4  O   UNL d   1      -7.691   0.636   0.111  0.00  0.00    -0.288 OA
BRANCH   3   5
ATOM      5  C   UNL d   1      -6.869   2.537  -1.034  0.00  0.00     0.016 A 
ATOM      6  C   UNL d   1      -6.134   2.867  -2.181  0.00  0.00     0.041 A 
ATOM      7  C   UNL d   1      -6.249   4.142  -2.745  0.00  0.00     0.056 A 
ATOM      8 CL   UNL d   1      -5.290   4.485  -4.142  0.00  0.00    -0.083 Cl
ATOM      9  C   UNL d   1      -7.106   5.088  -2.172  0.00  0.00     0.055 A 
ATOM     10  C   UNL d   1      -7.864   4.745  -1.048  0.00  0.00     0.026 A 
ATOM     11 CL   UNL d   1      -7.270   6.689  -2.799  0.00  0.00    -0.083 Cl
ATOM     12  C   UNL d   1      -7.752   3.470  -0.483  0.00  0.00     0.017 A 
ENDBRANCH   3   5
ENDBRANCH   1   3
BRANCH   2  13
ATOM     13  N   UNL d   1      -5.886  -1.628   0.411  0.00  0.00    -0.366 N 
ATOM     14  H   UNL d   1      -6.875  -1.371   0.456  0.00  0.00     0.165 HD
BRANCH  13  15
ATOM     15  C   UNL d   1      -5.591  -3.003   0.478  0.00  0.00     0.033 A 
ATOM     16  C   UNL d   1      -4.298  -3.523   0.335  0.00  0.00     0.053 A 
ATOM     17  C   UNL d   1      -4.061  -4.903   0.336  0.00  0.00     0.042 A 
ATOM     18 CL   UNL d   1      -2.432  -5.438   0.104  0.00  0.00    -0.084 Cl
ATOM     19  C   UNL d   1      -5.112  -5.811   0.500  0.00  0.00    -0.040 A 
ATOM     20  C   UNL d   1      -6.401  -5.300   0.695  0.00  0.00     0.011 A 
ATOM     21  C   UNL d   1      -4.894  -7.296   0.437  0.00  0.00     0.050 C 
ATOM     22  C   UNL d   1      -6.633  -3.916   0.690  0.00  0.00     0.030 A 
ENDBRANCH  13  15
ENDBRANCH   2  13
TORSDOF 4
