REMARK  3 active torsions:
REMARK  status: ('A' for Active; 'I' for Inactive)
REMARK    1  A    between atoms: N_7  and  C_4 
REMARK    2  A    between atoms: C_5  and  C_10 
REMARK    3  A    between atoms: O_17  and  C_11 
ROOT
ATOM      1  N   UNL d   1      -2.522  -1.525  -0.295  0.00  0.00    -0.350 N 
ATOM      2  HN  UNL d   1      -3.331  -1.082  -0.730  1.00  0.00     0.166 HD
ATOM      3  C   UNL d   1      -2.512  -2.759   0.107  0.00  0.00     0.104 C 
ENDROOT
BRANCH   3   4
ATOM      4  C   UNL d   1      -3.732  -3.595   0.048  0.00  0.00     0.014 A 
ATOM      5  C   UNL d   1      -4.957  -3.098  -0.415  0.00  0.00     0.077 A 
ATOM      6  C   UNL d   1      -6.086  -3.914  -0.437  0.00  0.00     0.039 A 
ATOM      7  C   UNL d   1      -6.003  -5.229   0.023  0.00  0.00     0.022 A 
ATOM      8  C   UNL d   1      -4.785  -5.720   0.495  0.00  0.00     0.011 A 
ATOM      9  C   UNL d   1      -3.646  -4.915   0.506  0.00  0.00     0.034 A 
ATOM     10 BR   UNL d   1      -4.683  -7.494   1.142  0.00  0.00    -0.051 Br
BRANCH   5  11
ATOM     11  O   UNL d   1      -5.127  -1.812  -0.847  0.00  0.00    -0.360 OA
ATOM     12  H   UNL d   1      -4.273  -1.344  -0.719  0.00  0.00     0.217 HD
ENDBRANCH   5  11
ENDBRANCH   3   4
BRANCH   1  13
ATOM     13  C   UNL d   1      -1.307  -0.864  -0.070  0.00  0.00     0.128 A 
ATOM     14  C   UNL d   1      -0.854   0.204  -0.857  0.00  0.00     0.084 A 
ATOM     15  C   UNL d   1       0.297   0.608  -0.225  0.00  0.00     0.076 A 
ATOM     16  O   UNL d   1       0.514  -0.181   0.865  0.00  0.00    -0.241 OA
ATOM     17  C   UNL d   1       1.283   1.679  -0.460  0.00  0.00     0.079 C 
ATOM     18  N   UNL d   1      -0.512  -1.105   0.972  0.00  0.00    -0.245 N 
ATOM     19  HN  UNL d   1      -0.633  -1.816   1.694  1.00  0.00     0.196 HD
ENDBRANCH   1  13
TORSDOF 3
