REMARK  3 active torsions:
REMARK  status: ('A' for Active; 'I' for Inactive)
REMARK    1  A    between atoms: C_4  and  C_2 
REMARK       I    between atoms: N_9  and  C_4 
REMARK       I    between atoms: C_7  and  N_10 
REMARK       I    between atoms: N_11  and  C_7 
REMARK    2  A    between atoms: N_10  and  N_9 
REMARK    3  A    between atoms: C_17  and  N_11 
ROOT
ATOM      1  C   UNL d   1      -4.376   1.973  -0.199  0.00  0.00     0.277 C 
ATOM      2  N   UNL d   1      -4.250   3.275  -0.642  0.00  0.00    -0.261 N 
ATOM      3  O   UNL d   1      -5.485   1.500   0.070  0.00  0.00    -0.265 OA
ATOM      4  H   UNL d   1      -3.350   3.674  -0.916  0.00  0.00     0.190 HD
ENDROOT
BRANCH   1   5
ATOM      5  C   UNL d   1      -3.137   1.213  -0.098  0.00  0.00     0.075 A 
ATOM      6  S   UNL d   1      -1.616   1.943  -0.327  0.00  0.00    -0.083 SA
ATOM      7  C   UNL d   1      -0.752   0.457  -0.146  0.00  0.00     0.027 A 
ATOM      8  C   UNL d   1      -1.635  -0.590   0.135  0.00  0.00    -0.017 A 
ATOM      9  C   UNL d   1       0.657   0.235  -0.257  0.00  0.00    -0.008 A 
ATOM     10  C   UNL d   1      -1.101  -1.888   0.314  0.00  0.00     0.014 A 
ATOM     11  C   UNL d   1      -2.999  -0.132   0.178  0.00  0.00     0.037 A 
ATOM     12  C   UNL d   1       0.275  -2.119   0.198  0.00  0.00     0.013 A 
ATOM     13  C   UNL d   1       1.158  -1.077  -0.089  0.00  0.00    -0.025 A 
ATOM     14  C   UNL d   1       2.539  -1.296  -0.223  0.00  0.00     0.012 A 
ATOM     15  C   UNL d   1       3.409  -0.240  -0.511  0.00  0.00     0.001 A 
ATOM     16  C   UNL d   1       2.915   1.051  -0.666  0.00  0.00     0.001 A 
ATOM     17  C   UNL d   1       1.549   1.293  -0.540  0.00  0.00     0.013 A 
ENDBRANCH   1   5
BRANCH   2  18
ATOM     18  N   UNL d   1      -5.390   4.038  -0.952  0.00  0.00    -0.248 N 
ATOM     19  C   UNL d   1      -5.154   5.353  -1.322  0.00  0.00     0.339 C 
ATOM     20  N   UNL d   1      -6.320   6.065  -1.525  0.00  0.00    -0.308 N 
ATOM     21  O   UNL d   1      -4.003   5.765  -1.449  0.00  0.00    -0.245 OA
ATOM     22  H   UNL d   1      -7.179   5.612  -1.252  0.00  0.00     0.170 HD
ATOM     23  H   UNL d   1      -6.224   3.788  -0.429  0.00  0.00     0.192 HD
BRANCH  20  24
ATOM     24  C   UNL d   1      -6.391   7.446  -1.812  0.00  0.00     0.036 C 
ATOM     25  C   UNL d   1      -5.303   8.182  -2.283  0.00  0.00     0.030 C 
ATOM     26  C   UNL d   1      -5.358   9.575  -2.339  0.00  0.00     0.009 C 
ATOM     27  C   UNL d   1      -6.511  10.254  -1.938  0.00  0.00    -0.062 C 
ATOM     28  C   UNL d   1      -7.644   9.513  -1.587  0.00  0.00     0.009 C 
ATOM     29  C   UNL d   1      -6.475  11.746  -1.790  0.00  0.00     0.048 C 
ATOM     30  C   UNL d   1      -7.590   8.114  -1.542  0.00  0.00     0.030 C 
ENDBRANCH  20  24
ENDBRANCH   2  18
TORSDOF 3
