REMARK  5 active torsions:
REMARK  status: ('A' for Active; 'I' for Inactive)
REMARK    1  A    between atoms: N_5  and  S_1 
REMARK    2  A    between atoms: C_6  and  S_1 
REMARK    3  A    between atoms: N_2  and  C_7 
REMARK    4  A    between atoms: C_19  and  N_5 
REMARK    5  A    between atoms: C_22  and  C_14 
ROOT
ATOM      1  S   UNL d   1       0.917  -0.041   0.011  0.00  0.00     0.263 S 
ATOM      2  O   UNL d   1       0.331  -1.366  -0.017  0.00  0.00    -0.200 OA
ATOM      3  O   UNL d   1       2.354   0.146  -0.004  0.00  0.00    -0.200 OA
ENDROOT
BRANCH   1   4
ATOM      4  N   UNL d   1       0.351   0.793   1.361  0.00  0.00    -0.281 N 
ATOM      5  H   UNL d   1       0.976   1.530   1.680  0.00  0.00     0.179 HD
BRANCH   4   6
ATOM      6  C   UNL d   1      -1.045   0.961   1.557  0.00  0.00     0.042 A 
ATOM      7  C   UNL d   1      -1.753  -0.001   2.270  0.00  0.00     0.030 A 
ATOM      8  C   UNL d   1      -3.126   0.158   2.481  0.00  0.00     0.010 A 
ATOM      9  C   UNL d   1      -3.814   1.264   1.958  0.00  0.00    -0.055 A 
ATOM     10  C   UNL d   1      -3.092   2.206   1.210  0.00  0.00     0.010 A 
ATOM     11  C   UNL d   1      -1.712   2.067   1.029  0.00  0.00     0.030 A 
BRANCH   9  12
ATOM     12  C   UNL d   1      -5.302   1.468   2.201  0.00  0.00     0.010 C 
ATOM     13  C   UNL d   1      -6.142   0.316   1.647  0.00  0.00     0.015 C 
ATOM     14  C   UNL d   1      -5.597   1.681   3.690  0.00  0.00     0.015 C 
ENDBRANCH   9  12
ENDBRANCH   4   6
ENDBRANCH   1   4
BRANCH   1  15
ATOM     15  C   UNL d   1       0.245   0.883  -1.351  0.00  0.00     0.080 A 
ATOM     16  C   UNL d   1       0.982   1.913  -1.934  0.00  0.00     0.027 A 
ATOM     17  C   UNL d   1       0.396   2.701  -2.934  0.00  0.00     0.032 A 
ATOM     18  C   UNL d   1      -0.930   2.487  -3.358  0.00  0.00     0.045 A 
ATOM     19  C   UNL d   1      -1.625   1.409  -2.785  0.00  0.00     0.032 A 
ATOM     20  C   UNL d   1      -1.039   0.596  -1.808  0.00  0.00     0.027 A 
BRANCH  18  21
ATOM     21  N   UNL d   1      -1.556   3.351  -4.309  0.00  0.00    -0.252 N 
ATOM     22  C   UNL d   1      -2.920   3.509  -4.433  0.00  0.00     0.231 A 
ATOM     23  C   UNL d   1      -3.206   4.558  -5.465  0.00  0.00     0.113 A 
ATOM     24  O   UNL d   1      -3.822   2.975  -3.801  0.00  0.00    -0.273 OA
ATOM     25  C   UNL d   1      -1.855   4.965  -5.990  0.00  0.00     0.113 A 
ATOM     26  C   UNL d   1      -0.875   4.159  -5.192  0.00  0.00     0.231 A 
ATOM     27  O   UNL d   1       0.330   4.240  -5.393  0.00  0.00    -0.273 OA
ENDBRANCH  18  21
ENDBRANCH   1  15
TORSDOF 5
