REMARK  3 active torsions:
REMARK  status: ('A' for Active; 'I' for Inactive)
REMARK    1  A    between atoms: C_4  and  N_1 
REMARK    2  A    between atoms: C_8  and  C_4 
REMARK    3  A    between atoms: C_12  and  N_6 
ROOT
ATOM      1  N   UNL d   1      -0.394   0.957  -0.058  0.00  0.00    -0.293 N 
ATOM      2  C   UNL d   1       0.891   0.496   0.043  0.00  0.00     0.150 C 
ATOM      3  C   UNL d   1      -1.392   0.004  -0.115  0.00  0.00     0.235 C 
ATOM      4  S   UNL d   1       0.888  -1.206   0.429  0.00  0.00    -0.084 SA
ATOM      5  N   UNL d   1       1.909   1.269  -0.140  0.00  0.00    -0.337 N 
ATOM      6  HN  UNL d   1       1.732   2.255  -0.335  1.00  0.00     0.168 HD
ATOM      7  C   UNL d   1      -0.850  -1.392   0.004  0.00  0.00     0.185 C 
ATOM      8  O   UNL d   1      -2.585   0.235  -0.284  0.00  0.00    -0.272 OA
ENDROOT
BRANCH   1   9
ATOM      9  C   UNL d   1      -0.718   2.377  -0.126  0.00  0.00     0.174 C 
BRANCH   9  10
ATOM     10  C   UNL d   1      -0.874   2.992   1.256  0.00  0.00    -0.018 A 
ATOM     11  C   UNL d   1      -0.077   4.049   1.724  0.00  0.00     0.042 A 
ATOM     12 CL   UNL d   1       1.151   4.786   0.759  0.00  0.00    -0.084 Cl
ATOM     13  C   UNL d   1      -0.265   4.567   3.014  0.00  0.00     0.024 A 
ATOM     14  C   UNL d   1      -1.247   4.045   3.853  0.00  0.00     0.002 A 
ATOM     15  C   UNL d   1      -2.057   3.011   3.401  0.00  0.00     0.001 A 
ATOM     16  C   UNL d   1      -1.880   2.499   2.114  0.00  0.00     0.010 A 
ENDBRANCH   9  10
ENDBRANCH   1   9
BRANCH   5  17
ATOM     17  C   UNL d   1       3.243   0.836  -0.088  0.00  0.00     0.034 A 
ATOM     18  C   UNL d   1       3.733  -0.253  -0.821  0.00  0.00     0.031 A 
ATOM     19  C   UNL d   1       5.081  -0.621  -0.751  0.00  0.00     0.026 A 
ATOM     20  C   UNL d   1       5.964   0.139   0.009  0.00  0.00     0.034 A 
ATOM     21  C   UNL d   1       5.509   1.262   0.696  0.00  0.00     0.026 A 
ATOM     22 CL   UNL d   1       7.626  -0.299   0.083  0.00  0.00    -0.084 Cl
ATOM     23  C   UNL d   1       4.153   1.604   0.645  0.00  0.00     0.031 A 
ENDBRANCH   5  17
TORSDOF 3
