REMARK  3 active torsions:
REMARK  status: ('A' for Active; 'I' for Inactive)
REMARK    1  A    between atoms: C_7  and  C_3 
REMARK    2  A    between atoms: C_15  and  C_4 
REMARK    3  A    between atoms: C_24  and  C_12 
ROOT
ATOM      1  C   UNL d   1       4.489   2.372  -1.150  0.00  0.00    -0.042 A 
ATOM      2  C   UNL d   1       4.656   3.371  -0.174  0.00  0.00    -0.043 A 
ATOM      3  C   UNL d   1       2.436   1.579   0.003  0.00  0.00    -0.002 A 
ATOM      4  C   UNL d   1       3.351   1.541  -1.067  0.00  0.00     0.022 A 
ATOM      5  C   UNL d   1       3.749   3.398   0.911  0.00  0.00     0.016 A 
ATOM      6  C   UNL d   1       2.664   2.502   1.034  0.00  0.00    -0.045 A 
ATOM      7  C   UNL d   1       5.478   2.167  -2.304  0.00  0.00    -0.020 C 
ATOM      8  C   UNL d   1       5.795   4.397  -0.235  0.00  0.00    -0.020 C 
ATOM      9  C   UNL d   1       6.792   2.942  -2.069  0.00  0.00     0.015 C 
ATOM     10  C   UNL d   1       6.535   4.361  -1.594  0.00  0.00     0.015 C 
ATOM     11  C   UNL d   1       4.816   2.624  -3.622  0.00  0.00     0.020 C 
ATOM     12  C   UNL d   1       5.875   0.676  -2.447  0.00  0.00     0.020 C 
ATOM     13  C   UNL d   1       6.794   4.114   0.908  0.00  0.00     0.020 C 
ATOM     14  C   UNL d   1       5.257   5.838  -0.073  0.00  0.00     0.020 C 
ENDROOT
BRANCH   3  15
ATOM     15  C   UNL d   1       1.300   0.650  -0.016  0.00  0.00     0.050 A 
ATOM     16  N   UNL d   1       0.050   0.984   0.484  0.00  0.00    -0.349 N 
ATOM     17  C   UNL d   1      -0.808  -0.001   0.301  0.00  0.00     0.084 A 
ATOM     18  HN  UNL d   1      -0.174   1.872   0.933  1.00  0.00     0.166 HD
ATOM     19  S   UNL d   1      -0.150  -1.394  -0.469  0.00  0.00    -0.081 SA
ATOM     20  C   UNL d   1       1.372  -0.623  -0.553  0.00  0.00     0.082 A 
BRANCH  17  21
ATOM     21  C   UNL d   1      -2.204   0.010   0.771  0.00  0.00    -0.002 A 
ATOM     22  C   UNL d   1      -3.233  -0.683   0.109  0.00  0.00     0.016 A 
ATOM     23  C   UNL d   1      -4.538  -0.683   0.612  0.00  0.00     0.024 A 
ATOM     24  C   UNL d   1      -4.830   0.017   1.781  0.00  0.00     0.034 A 
ATOM     25  C   UNL d   1      -3.832   0.729   2.440  0.00  0.00     0.024 A 
ATOM     26 CL   UNL d   1      -6.429  -0.005   2.412  0.00  0.00    -0.084 Cl
ATOM     27  C   UNL d   1      -2.529   0.730   1.932  0.00  0.00     0.016 A 
ENDBRANCH  17  21
ENDBRANCH   3  15
BRANCH   6  28
ATOM     28  C   UNL d   1       1.830   2.577   2.296  0.00  0.00     0.035 C 
ATOM     29  C   UNL d   1       0.748   3.645   2.238  0.00  0.00     0.010 C 
ENDBRANCH   6  28
TORSDOF 3
