REMARK  6 active torsions:
REMARK  status: ('A' for Active; 'I' for Inactive)
REMARK    1  A    between atoms: C_3  and  C_1 
REMARK    2  A    between atoms: C_4  and  C_1 
REMARK    3  A    between atoms: C_8  and  C_2 
REMARK    4  A    between atoms: O_11  and  C_3 
REMARK    5  A    between atoms: N_5  and  C_4 
REMARK    6  A    between atoms: C_17  and  O_11 
ROOT
ATOM      1  C   UNL d   1       0.942  -0.001   0.082  0.00  0.00     0.102 C 
ATOM      2  C   UNL d   1       0.262   1.079  -0.354  0.00  0.00     0.039 C 
ENDROOT
BRANCH   1   3
ATOM      3  C   UNL d   1       0.216  -1.175   0.603  0.00  0.00     0.302 C 
ATOM      4  O   UNL d   1      -0.998  -1.246   0.699  0.00  0.00    -0.259 OA
BRANCH   3   5
ATOM      5  O   UNL d   1       1.110  -2.088   1.054  0.00  0.00    -0.317 OA
BRANCH   5   6
ATOM      6  C   UNL d   1       0.614  -3.013   2.029  0.00  0.00     0.174 C 
ATOM      7  C   UNL d   1       0.744  -2.359   3.394  0.00  0.00     0.034 C 
ENDBRANCH   5   6
ENDBRANCH   3   5
ENDBRANCH   1   3
BRANCH   1   8
ATOM      8  C   UNL d   1       2.462  -0.001   0.082  0.00  0.00    -0.031 C 
BRANCH   8   9
ATOM      9  N   UNL d   1       3.723  -0.001   0.082  0.00  0.00    -0.365 N 
ATOM     10  HN2 UNL d   1       2.703  -0.001   0.082  1.00  0.00     0.165 HD
ATOM     11  HN1 UNL d   1       4.743  -0.001   0.082  1.00  0.00     0.165 HD
ENDBRANCH   8   9
ENDBRANCH   1   8
BRANCH   2  12
ATOM     12  C   UNL d   1       0.911   2.316  -0.817  0.00  0.00    -0.033 A 
ATOM     13  C   UNL d   1       1.288   2.475  -2.155  0.00  0.00     0.035 A 
ATOM     14  C   UNL d   1       1.949   3.635  -2.563  0.00  0.00     0.034 A 
ATOM     15 CL   UNL d   1       2.416   3.818  -4.207  0.00  0.00    -0.084 Cl
ATOM     16  C   UNL d   1       2.241   4.647  -1.647  0.00  0.00     0.024 A 
ATOM     17  C   UNL d   1       1.866   4.497  -0.315  0.00  0.00     0.003 A 
ATOM     18  C   UNL d   1       1.204   3.338   0.101  0.00  0.00     0.011 A 
ENDBRANCH   2  12
TORSDOF 6
