REMARK  6 active torsions:
REMARK  status: ('A' for Active; 'I' for Inactive)
REMARK    1  A    between atoms: N_2  and  S_1 
REMARK    2  A    between atoms: C_11  and  S_1 
REMARK    3  A    between atoms: C_3  and  N_2 
REMARK    4  A    between atoms: C_4  and  C_9 
REMARK    5  A    between atoms: C_6  and  O_10 
REMARK    6  A    between atoms: O_10  and  C_8 
ROOT
ATOM      1  C   UNL d   1       0.704   0.168   2.896  0.00  0.00     0.057 A 
ATOM      2  C   UNL d   1       2.081  -0.013   3.140  0.00  0.00     0.098 A 
ATOM      3  C   UNL d   1       0.183  -0.775   5.070  0.00  0.00     0.049 A 
ATOM      4  C   UNL d   1      -0.236  -0.233   3.847  0.00  0.00     0.043 A 
ATOM      5  C   UNL d   1       2.498  -0.605   4.332  0.00  0.00     0.040 A 
ATOM      6  C   UNL d   1       1.553  -0.991   5.287  0.00  0.00     0.019 A 
ENDROOT
BRANCH   1   7
ATOM      7  N   UNL d   1       0.276   0.768   1.660  0.00  0.00    -0.179 NA
ATOM      8  H   UNL d   1      -0.336   0.167   1.114  0.00  0.00     0.146 HD
BRANCH   7   9
ATOM      9  S   UNL d   1      -0.310   2.363   1.725  0.00  0.00     0.245 S 
ATOM     10  O   UNL d   1       0.018   3.002   0.465  0.00  0.00    -0.206 OA
ATOM     11  O   UNL d   1       0.008   2.970   2.992  0.00  0.00    -0.206 OA
BRANCH   9  12
ATOM     12  C   UNL d   1      -2.079   2.075   1.682  0.00  0.00     0.074 A 
ATOM     13  C   UNL d   1      -2.820   2.083   2.864  0.00  0.00     0.025 A 
ATOM     14  C   UNL d   1      -4.184   1.789   2.819  0.00  0.00     0.008 A 
ATOM     15  C   UNL d   1      -4.814   1.509   1.599  0.00  0.00    -0.062 A 
ATOM     16  C   UNL d   1      -4.071   1.579   0.413  0.00  0.00     0.008 A 
ATOM     17  C   UNL d   1      -6.281   1.188   1.563  0.00  0.00     0.048 C 
ATOM     18  C   UNL d   1      -2.704   1.859   0.451  0.00  0.00     0.025 A 
ENDBRANCH   9  12
ENDBRANCH   7   9
ENDBRANCH   1   7
BRANCH   2  19
ATOM     19  O   UNL d   1       2.917   0.492   2.176  0.00  0.00    -0.308 OA
BRANCH  19  20
ATOM     20  C   UNL d   1       4.258   0.224   2.139  0.00  0.00     0.083 A 
ATOM     21  C   UNL d   1       5.088   1.297   1.867  0.00  0.00    -0.017 A 
ATOM     22  C   UNL d   1       6.417   1.108   1.463  0.00  0.00    -0.043 A 
ATOM     23  C   UNL d   1       4.750   2.757   1.888  0.00  0.00     0.042 C 
ATOM     24  C   UNL d   1       7.007   2.417   1.018  0.00  0.00     0.040 C 
ATOM     25  C   UNL d   1       6.990  -0.157   1.445  0.00  0.00    -0.055 A 
ATOM     26  C   UNL d   1       5.736   3.266   0.837  0.00  0.00     0.009 C 
ATOM     27  C   UNL d   1       6.164  -1.244   1.778  0.00  0.00     0.010 A 
ATOM     28  C   UNL d   1       8.397  -0.373   0.977  0.00  0.00     0.049 C 
ATOM     29  C   UNL d   1       4.801  -1.060   2.087  0.00  0.00     0.038 A 
ENDBRANCH  19  20
ENDBRANCH   2  19
BRANCH   3  30
ATOM     30  C   UNL d   1      -0.814  -1.085   6.160  0.00  0.00     0.417 C 
ATOM     31  F   UNL d   1      -2.078  -0.668   5.870  0.00  0.00    -0.166 F 
ATOM     32  F   UNL d   1      -0.909  -2.418   6.418  0.00  0.00    -0.166 F 
ATOM     33  F   UNL d   1      -0.490  -0.494   7.342  0.00  0.00    -0.166 F 
ENDBRANCH   3  30
TORSDOF 6
