REMARK  8 active torsions:
REMARK  status: ('A' for Active; 'I' for Inactive)
REMARK    1  A    between atoms: C_2  and  C_1 
REMARK       I    between atoms: C_3  and  N_6 
REMARK    2  A    between atoms: C_8  and  C_3 
REMARK    3  A    between atoms: C_4  and  C_8 
REMARK    4  A    between atoms: C_10  and  C_4 
REMARK    5  A    between atoms: C_5  and  C_10 
REMARK    6  A    between atoms: O_17  and  C_5 
REMARK    7  A    between atoms: N_6  and  C_16 
REMARK    8  A    between atoms: C_16  and  C_15 
ROOT
ATOM      1  C   UNL d   1       0.571  -6.579   2.454  0.00  0.00     0.218 C 
ATOM      2  N   UNL d   1       0.862  -7.820   1.924  0.00  0.00    -0.357 N 
ATOM      3  O   UNL d   1       0.334  -5.652   1.701  0.00  0.00    -0.274 OA
ATOM      4  H   UNL d   1       1.305  -8.523   2.501  0.00  0.00     0.162 HD
ENDROOT
BRANCH   1   5
ATOM      5  C   UNL d   1       0.576  -6.505   3.977  0.00  0.00     0.112 C 
BRANCH   5   6
ATOM      6  C   UNL d   1       0.260  -5.151   4.706  0.00  0.00    -0.023 C 
ATOM      7  C   UNL d   1      -1.182  -4.643   4.448  0.00  0.00     0.010 C 
ATOM      8  C   UNL d   1      -1.450  -4.006   3.096  0.00  0.00     0.001 C 
ATOM      9  C   UNL d   1      -0.376  -3.029   2.622  0.00  0.00     0.000 C 
ATOM     10  C   UNL d   1       1.070  -3.297   3.049  0.00  0.00     0.001 C 
ATOM     11  C   UNL d   1       1.265  -4.027   4.373  0.00  0.00     0.010 C 
BRANCH   6  12
ATOM     12  C   UNL d   1       0.307  -5.405   6.256  0.00  0.00     0.119 C 
BRANCH  12  13
ATOM     13  C   UNL d   1       1.608  -5.941   6.805  0.00  0.00     0.140 C 
ATOM     14  O   UNL d   1       1.903  -7.128   6.809  0.00  0.00    -0.650 OA
BRANCH  13  15
ATOM     15  O   UNL d   1       2.432  -4.989   7.298  0.00  0.00    -0.776 OA
ATOM     16  H   UNL d   1       2.081  -4.081   7.249  0.00  0.00     0.167 HD
ENDBRANCH  13  15
ENDBRANCH  12  13
ENDBRANCH   6  12
ENDBRANCH   5   6
ENDBRANCH   1   5
BRANCH   2  17
ATOM     17  C   UNL d   1       0.924  -7.927   0.483  0.00  0.00     0.161 C 
BRANCH  17  18
ATOM     18  C   UNL d   1       1.261  -9.313   0.018  0.00  0.00    -0.040 A 
ATOM     19  C   UNL d   1       2.360  -9.532  -0.824  0.00  0.00     0.025 A 
ATOM     20  C   UNL d   1       2.684 -10.824  -1.266  0.00  0.00     0.048 A 
ATOM     21  C   UNL d   1       1.883 -11.898  -0.853  0.00  0.00     0.016 A 
ATOM     22  C   UNL d   1       0.773 -11.686  -0.037  0.00  0.00     0.001 A 
ATOM     23  C   UNL d   1       0.457 -10.399   0.391  0.00  0.00     0.009 A 
BRANCH  20  24
ATOM     24  C   UNL d   1       3.880 -11.070  -2.154  0.00  0.00     0.417 C 
ATOM     25  F   UNL d   1       4.461  -9.927  -2.615  0.00  0.00    -0.166 F 
ATOM     26  F   UNL d   1       3.568 -11.801  -3.259  0.00  0.00    -0.166 F 
ATOM     27  F   UNL d   1       4.866 -11.758  -1.515  0.00  0.00    -0.166 F 
ENDBRANCH  20  24
ENDBRANCH  17  18
ENDBRANCH   2  17
TORSDOF 8
