REMARK  4 active torsions:
REMARK  status: ('A' for Active; 'I' for Inactive)
REMARK    1  A    between atoms: C_2  and  C_1 
REMARK    2  A    between atoms: N_7  and  C_3 
REMARK       I    between atoms: C_6  and  N_10 
REMARK    3  A    between atoms: C_16  and  C_6 
REMARK    4  A    between atoms: N_10  and  N_7 
ROOT
ATOM      1  C   UNL d   1       0.998   1.494  -0.723  0.00  0.00     0.065 A 
ATOM      2  C   UNL d   1      -0.206   3.930  -1.296  0.00  0.00     0.120 A 
ATOM      3  N   UNL d   1       1.151   3.862  -1.205  0.00  0.00    -0.353 N 
ATOM      4  HN  UNL d   1       1.726   4.696  -1.324  1.00  0.00     0.166 HD
ATOM      5  C   UNL d   1      -1.004   2.793  -1.093  0.00  0.00     0.074 A 
ATOM      6  C   UNL d   1      -0.396   1.573  -0.793  0.00  0.00     0.044 A 
ATOM      7  C   UNL d   1       1.715   2.657  -0.951  0.00  0.00     0.105 A 
ATOM      8 CL   UNL d   1      -2.728   2.857  -1.153  0.00  0.00    -0.081 Cl
ENDROOT
BRANCH   2   9
ATOM      9  N   UNL d   1      -0.827   5.186  -1.527  0.00  0.00    -0.186 NA
ATOM     10  H   UNL d   1      -1.422   5.140  -2.362  0.00  0.00     0.154 HD
BRANCH   9  11
ATOM     11  N   UNL d   1       0.083   6.249  -1.592  0.00  0.00    -0.285 N 
ATOM     12  C   UNL d   1      -0.105   7.227  -2.546  0.00  0.00     0.235 C 
ATOM     13  O   UNL d   1      -0.933   7.118  -3.452  0.00  0.00    -0.272 OA
ATOM     14  H   UNL d   1       0.727   6.327  -0.811  0.00  0.00     0.184 HD
BRANCH  12  15
ATOM     15  C   UNL d   1       0.759   8.467  -2.320  0.00  0.00     0.071 C 
ATOM     16  C   UNL d   1       2.249   8.134  -2.344  0.00  0.00     0.019 C 
ATOM     17  C   UNL d   1       0.444   9.558  -3.341  0.00  0.00     0.019 C 
ENDBRANCH  12  15
ENDBRANCH   9  11
ENDBRANCH   2   9
BRANCH   1  18
ATOM     18  C   UNL d   1       1.722   0.218  -0.419  0.00  0.00     0.418 C 
ATOM     19  F   UNL d   1       0.893  -0.802  -0.065  0.00  0.00    -0.166 F 
ATOM     20  F   UNL d   1       2.606   0.354   0.607  0.00  0.00    -0.166 F 
ATOM     21  F   UNL d   1       2.444  -0.235  -1.479  0.00  0.00    -0.166 F 
ENDBRANCH   1  18
TORSDOF 4
