REMARK  10 active torsions:
REMARK  status: ('A' for Active; 'I' for Inactive)
REMARK    1  A    between atoms: N_5  and  C_1 
REMARK    2  A    between atoms: C_8  and  C_2 
REMARK    3  A    between atoms: C_7  and  N_5 
REMARK    4  A    between atoms: C_14  and  C_6 
REMARK    5  A    between atoms: N_9  and  C_7 
REMARK    6  A    between atoms: O_18  and  C_8 
REMARK    7  A    between atoms: C_10  and  N_9 
REMARK    8  A    between atoms: O_20  and  C_11 
REMARK    9  A    between atoms: O_21  and  C_17 
REMARK   10  A    between atoms: C_24  and  O_18 
ROOT
ATOM      1  C   UNL d   1       0.284   1.016   0.241  0.00  0.00     0.093 C 
ATOM      2  C   UNL d   1       1.574   0.506   0.153  0.00  0.00     0.074 C 
ATOM      3  S   UNL d   1      -0.857  -0.215   0.449  0.00  0.00    -0.071 SA
ATOM      4  C   UNL d   1       1.546  -0.942   0.201  0.00  0.00     0.040 C 
ATOM      5  C   UNL d   1       0.273  -1.478   0.246  0.00  0.00     0.018 C 
ENDROOT
BRANCH   1   6
ATOM      6  N   UNL d   1      -0.105   2.349   0.245  0.00  0.00    -0.327 N 
ATOM      7  H   UNL d   1       0.676   2.998   0.214  0.00  0.00     0.169 HD
BRANCH   6   8
ATOM      8  C   UNL d   1      -1.345   2.952   0.101  0.00  0.00     0.177 C 
ATOM      9  S   UNL d   1      -2.815   2.331  -0.404  0.00  0.00    -0.040 SA
BRANCH   8  10
ATOM     10  N   UNL d   1      -1.335   4.321   0.279  0.00  0.00    -0.331 N 
ATOM     11  H   UNL d   1      -2.163   4.795  -0.062  0.00  0.00     0.168 HD
BRANCH  10  12
ATOM     12  C   UNL d   1      -0.389   5.112   0.950  0.00  0.00     0.068 A 
ATOM     13  C   UNL d   1      -0.013   6.381   0.485  0.00  0.00     0.097 A 
ATOM     14  C   UNL d   1       0.901   7.136   1.241  0.00  0.00     0.075 A 
ATOM     15  C   UNL d   1       1.422   6.653   2.443  0.00  0.00     0.070 A 
ATOM     16  C   UNL d   1       1.000   5.417   2.920  0.00  0.00     0.039 A 
ATOM     17  C   UNL d   1       0.111   4.646   2.176  0.00  0.00     0.035 A 
BRANCH  13  18
ATOM     18  O   UNL d   1      -0.398   7.025  -0.661  0.00  0.00    -0.354 OA
ATOM     19  C   UNL d   1      -0.948   6.285  -1.742  0.00  0.00     0.210 C 
ENDBRANCH  13  18
BRANCH  15  20
ATOM     20  O   UNL d   1       2.321   7.297   3.245  0.00  0.00    -0.356 OA
ATOM     21  C   UNL d   1       3.025   8.385   2.660  0.00  0.00     0.210 C 
ENDBRANCH  15  20
ENDBRANCH  10  12
ENDBRANCH   8  10
ENDBRANCH   6   8
ENDBRANCH   1   6
BRANCH   2  22
ATOM     22  C   UNL d   1       2.817   1.250  -0.041  0.00  0.00     0.296 C 
ATOM     23  O   UNL d   1       3.919   0.705  -0.051  0.00  0.00    -0.259 OA
BRANCH  22  24
ATOM     24  O   UNL d   1       2.632   2.583  -0.300  0.00  0.00    -0.318 OA
BRANCH  24  25
ATOM     25  C   UNL d   1       3.765   3.260  -0.870  0.00  0.00     0.174 C 
ATOM     26  C   UNL d   1       4.686   3.822   0.195  0.00  0.00     0.034 C 
ENDBRANCH  24  25
ENDBRANCH  22  24
ENDBRANCH   2  22
BRANCH   5  27
ATOM     27  C   UNL d   1      -0.175  -2.883   0.118  0.00  0.00    -0.019 A 
ATOM     28  C   UNL d   1       0.694  -3.863  -0.391  0.00  0.00     0.013 A 
ATOM     29  C   UNL d   1       0.262  -5.178  -0.598  0.00  0.00     0.001 A 
ATOM     30  C   UNL d   1      -1.050  -5.539  -0.303  0.00  0.00     0.000 A 
ATOM     31  C   UNL d   1      -1.924  -4.592   0.215  0.00  0.00     0.001 A 
ATOM     32  C   UNL d   1      -1.488  -3.282   0.430  0.00  0.00     0.013 A 
ENDBRANCH   5  27
TORSDOF 10
