REMARK  3 active torsions:
REMARK  status: ('A' for Active; 'I' for Inactive)
REMARK    1  A    between atoms: C_5  and  C_1 
REMARK    2  A    between atoms: C_8  and  C_4 
REMARK       I    between atoms: N_9  and  C_5 
REMARK    3  A    between atoms: C_17  and  N_9 
ROOT
ATOM      1  C   UNL d   1       1.279   0.758  -0.158  0.00  0.00     0.108 A 
ATOM      2  N   UNL d   1       1.460  -0.620   0.023  0.00  0.00    -0.345 N 
ATOM      3  HN  UNL d   1       2.340  -1.068   0.275  1.00  0.00     0.167 HD
ATOM      4  C   UNL d   1       0.313  -1.254  -0.183  0.00  0.00     0.085 A 
ATOM      5  S   UNL d   1      -1.033  -0.223  -0.529  0.00  0.00    -0.081 SA
ATOM      6  C   UNL d   1      -0.012   1.131  -0.480  0.00  0.00     0.087 A 
ENDROOT
BRANCH   1   7
ATOM      7  C   UNL d   1       2.343   1.764   0.009  0.00  0.00     0.273 C 
ATOM      8  N   UNL d   1       3.575   1.236   0.337  0.00  0.00    -0.322 N 
ATOM      9  H   UNL d   1       3.642   0.224   0.291  0.00  0.00     0.169 HD
ATOM     10  O   UNL d   1       2.091   2.954  -0.153  0.00  0.00    -0.266 OA
BRANCH   8  11
ATOM     11  C   UNL d   1       4.706   1.969   0.760  0.00  0.00     0.035 A 
ATOM     12  C   UNL d   1       4.657   3.328   1.087  0.00  0.00     0.030 A 
ATOM     13  C   UNL d   1       5.781   3.989   1.591  0.00  0.00     0.009 A 
ATOM     14  C   UNL d   1       6.983   3.305   1.774  0.00  0.00    -0.062 A 
ATOM     15  C   UNL d   1       7.051   1.956   1.410  0.00  0.00     0.009 A 
ATOM     16  C   UNL d   1       8.158   4.023   2.368  0.00  0.00     0.048 C 
ATOM     17  C   UNL d   1       5.919   1.292   0.916  0.00  0.00     0.030 A 
ENDBRANCH   8  11
ENDBRANCH   1   7
BRANCH   4  18
ATOM     18  C   UNL d   1       0.098  -2.713  -0.106  0.00  0.00    -0.002 A 
ATOM     19  C   UNL d   1      -0.876  -3.353  -0.901  0.00  0.00     0.024 A 
ATOM     20  C   UNL d   1      -1.066  -4.718  -0.779  0.00  0.00    -0.022 A 
ATOM     21  C   UNL d   1      -1.974  -5.610  -1.531  0.00  0.00     0.068 C 
ATOM     22  C   UNL d   1      -0.299  -5.465   0.093  0.00  0.00     0.075 A 
ATOM     23  C   UNL d   1      -1.829  -6.873  -0.682  0.00  0.00     0.180 C 
ATOM     24  O   UNL d   1      -0.595  -6.802   0.075  0.00  0.00    -0.350 OA
ATOM     25  C   UNL d   1       0.683  -4.886   0.872  0.00  0.00     0.038 A 
ATOM     26  C   UNL d   1       0.878  -3.501   0.770  0.00  0.00     0.017 A 
ENDBRANCH   4  18
TORSDOF 3
