REMARK  1 active torsions:
REMARK  status: ('A' for Active; 'I' for Inactive)
REMARK    1  A    between atoms: C_2  and  C_1 
ROOT
ATOM      1  C   UNL d   1      -1.893  -0.065  -0.002  0.00  0.00     0.063 A 
ATOM      2  C   UNL d   1      -1.157  -1.191   0.003  0.00  0.00     0.107 A 
ATOM      3  N   UNL d   1       0.216  -1.137   0.007  0.00  0.00    -0.333 N 
ATOM      4  C   UNL d   1      -1.198   1.216  -0.000  0.00  0.00     0.023 A 
ATOM      5  C   UNL d   1       0.942   0.030   0.004  0.00  0.00     0.245 A 
ATOM      6  C   UNL d   1       0.142   1.281   0.002  0.00  0.00     0.075 A 
ATOM      7  O   UNL d   1       2.166   0.054   0.004  0.00  0.00    -0.268 OA
ATOM      8  H   UNL d   1       0.762  -1.991   0.008  0.00  0.00     0.168 HD
ENDROOT
BRANCH   1   9
ATOM      9  C   UNL d   1      -3.396  -0.096  -0.013  0.00  0.00     0.418 C 
ATOM     10  F   UNL d   1      -3.955   1.142  -0.010  0.00  0.00    -0.166 F 
ATOM     11  F   UNL d   1      -3.874  -0.737  -1.110  0.00  0.00    -0.166 F 
ATOM     12  F   UNL d   1      -3.891  -0.751   1.069  0.00  0.00    -0.166 F 
ENDBRANCH   1   9
TORSDOF 1
