REMARK  3 active torsions:
REMARK  status: ('A' for Active; 'I' for Inactive)
REMARK    1  A    between atoms: C_7  and  C_1 
REMARK    2  A    between atoms: O_14  and  C_2 
REMARK    3  A    between atoms: O_15  and  C_7 
ROOT
ATOM      1  C   UNL d   1       2.539  -0.699  -0.002  0.00  0.00     0.087 A 
ATOM      2  C   UNL d   1       1.341  -1.435  -0.003  0.00  0.00     0.097 A 
ATOM      3  C   UNL d   1       0.051  -0.811  -0.003  0.00  0.00     0.031 A 
ATOM      4  N   UNL d   1       1.220   1.316  -0.004  0.00  0.00    -0.364 N 
ATOM      5  HN  UNL d   1       1.195   2.335  -0.005  1.00  0.00     0.165 HD
ATOM      6  C   UNL d   1       0.069   0.613  -0.003  0.00  0.00     0.051 A 
ATOM      7  C   UNL d   1       2.406   0.669  -0.004  0.00  0.00     0.109 A 
ATOM      8  C   UNL d   1      -1.227  -1.473  -0.001  0.00  0.00    -0.047 A 
ATOM      9  C   UNL d   1      -1.136   1.330  -0.003  0.00  0.00    -0.034 A 
ATOM     10  C   UNL d   1      -2.410  -0.715  -0.002  0.00  0.00     0.008 A 
ATOM     11  C   UNL d   1      -2.367   0.666  -0.003  0.00  0.00     0.009 A 
ATOM     12  C   UNL d   1      -1.458  -2.965   0.001  0.00  0.00     0.049 C 
ATOM     13  C   UNL d   1      -1.180   2.838  -0.003  0.00  0.00     0.050 C 
ENDROOT
BRANCH   1  14
ATOM     14  C   UNL d   1       3.852  -1.395  -0.002  0.00  0.00     0.180 C 
ATOM     15  O   UNL d   1       3.904  -2.619  -0.003  0.00  0.00    -0.646 OA
BRANCH  14  16
ATOM     16  O   UNL d   1       4.974  -0.653  -0.000  0.00  0.00    -0.773 OA
ATOM     17  H   UNL d   1       4.918   0.315   0.002  0.00  0.00     0.167 HD
ENDBRANCH  14  16
ENDBRANCH   1  14
BRANCH   2  18
ATOM     18  O   UNL d   1       1.395  -2.811  -0.002  0.00  0.00    -0.359 OA
ATOM     19  H   UNL d   1       2.328  -3.122  -0.003  0.00  0.00     0.217 HD
ENDBRANCH   2  18
TORSDOF 3
