REMARK  5 active torsions:
REMARK  status: ('A' for Active; 'I' for Inactive)
REMARK       I    between atoms: N_2  and  C_1 
REMARK       I    between atoms: N_5  and  C_1 
REMARK    1  A    between atoms: C_6  and  N_2 
REMARK    2  A    between atoms: C_10  and  N_5 
REMARK    3  A    between atoms: O_13  and  C_7 
REMARK    4  A    between atoms: O_15  and  C_9 
REMARK    5  A    between atoms: C_18  and  O_15 
ROOT
ATOM      1  C   UNL d   1       0.888   0.041  -0.572  0.00  0.00     0.303 C 
ATOM      2  N   UNL d   1       0.164  -1.151  -0.613  0.00  0.00    -0.208 NA
ATOM      3  N   UNL d   1       0.032   1.109  -0.378  0.00  0.00    -0.312 N 
ATOM      4  O   UNL d   1       2.100   0.127  -0.716  0.00  0.00    -0.253 OA
ATOM      5  H   UNL d   1      -0.612  -0.997  -1.246  0.00  0.00     0.138 HD
ATOM      6  H   UNL d   1      -0.816   0.898   0.130  0.00  0.00     0.170 HD
ENDROOT
BRANCH   2   7
ATOM      7  C   UNL d   1       0.865  -2.343  -0.930  0.00  0.00     0.050 A 
ATOM      8  C   UNL d   1       1.103  -3.343   0.025  0.00  0.00     0.090 A 
ATOM      9  C   UNL d   1       1.864  -4.461  -0.340  0.00  0.00     0.038 A 
ATOM     10  C   UNL d   1       2.358  -4.601  -1.639  0.00  0.00     0.003 A 
ATOM     11  C   UNL d   1       2.100  -3.618  -2.590  0.00  0.00     0.002 A 
ATOM     12  C   UNL d   1       1.347  -2.497  -2.239  0.00  0.00     0.027 A 
BRANCH   8  13
ATOM     13  O   UNL d   1       0.720  -3.340   1.341  0.00  0.00    -0.350 OA
BRANCH  13  14
ATOM     14  C   UNL d   1      -0.587  -2.842   1.619  0.00  0.00     0.171 C 
ATOM     15  C   UNL d   1      -0.989  -3.322   3.003  0.00  0.00     0.034 C 
ENDBRANCH  13  14
ENDBRANCH   8  13
ENDBRANCH   2   7
BRANCH   3  16
ATOM     16  C   UNL d   1       0.363   2.466  -0.563  0.00  0.00     0.051 A 
ATOM     17  C   UNL d   1       1.475   2.907  -1.279  0.00  0.00     0.119 A 
ATOM     18  N   UNL d   1       1.763   4.211  -1.516  0.00  0.00    -0.345 N 
ATOM     19  C   UNL d   1       0.915   5.122  -1.002  0.00  0.00     0.141 A 
ATOM     20  HN  UNL d   1       2.581   4.488  -2.058  1.00  0.00     0.167 HD
ATOM     21  C   UNL d   1      -0.211   4.790  -0.264  0.00  0.00     0.058 A 
ATOM     22  C   UNL d   1      -0.493   3.439  -0.053  0.00  0.00     0.035 A 
BRANCH  19  23
ATOM     23  O   UNL d   1       1.143   6.467  -1.208  0.00  0.00    -0.341 OA
ATOM     24  C   UNL d   1       2.271   6.710  -2.045  0.00  0.00     0.211 C 
ENDBRANCH  19  23
ENDBRANCH   3  16
TORSDOF 5
