REMARK  3 active torsions:
REMARK  status: ('A' for Active; 'I' for Inactive)
REMARK    1  A    between atoms: C_4  and  C_1 
REMARK       I    between atoms: C_2  and  N_3 
REMARK       I    between atoms: N_8  and  C_2 
REMARK    2  A    between atoms: N_3  and  C_5 
REMARK    3  A    between atoms: C_16  and  N_8 
ROOT
ATOM      1  C   UNL d   1      -1.101  -3.598   4.449  0.00  0.00     0.325 C 
ATOM      2  N   UNL d   1      -1.230  -2.238   4.498  0.00  0.00    -0.307 N 
ATOM      3  N   UNL d   1      -0.138  -4.134   3.650  0.00  0.00    -0.309 N 
ATOM      4  O   UNL d   1      -1.863  -4.244   5.168  0.00  0.00    -0.247 OA
ATOM      5  H   UNL d   1      -1.882  -2.006   5.244  0.00  0.00     0.170 HD
ATOM      6  H   UNL d   1       0.420  -3.500   3.121  0.00  0.00     0.170 HD
ENDROOT
BRANCH   2   7
ATOM      7  C   UNL d   1      -0.528  -1.131   3.972  0.00  0.00     0.053 C 
ATOM      8  C   UNL d   1       0.294  -1.162   2.845  0.00  0.00     0.032 C 
ATOM      9  C   UNL d   1       1.137  -0.083   2.544  0.00  0.00     0.018 C 
ATOM     10  C   UNL d   1       1.148   1.065   3.345  0.00  0.00     0.049 C 
ATOM     11  C   UNL d   1       0.199   1.171   4.367  0.00  0.00     0.037 C 
ATOM     12  C   UNL d   1      -0.646   0.095   4.656  0.00  0.00     0.038 C 
ATOM     13 BR   UNL d   1      -1.952   0.352   6.019  0.00  0.00    -0.049 Br
BRANCH  10  14
ATOM     14  C   UNL d   1       2.144   2.169   3.086  0.00  0.00     0.417 C 
ATOM     15  F   UNL d   1       2.270   3.035   4.129  0.00  0.00    -0.166 F 
ATOM     16  F   UNL d   1       1.816   2.923   2.004  0.00  0.00    -0.166 F 
ATOM     17  F   UNL d   1       3.397   1.691   2.848  0.00  0.00    -0.166 F 
ENDBRANCH  10  14
ENDBRANCH   2   7
BRANCH   3  18
ATOM     18  C   UNL d   1       0.184  -5.495   3.461  0.00  0.00     0.036 A 
ATOM     19  C   UNL d   1      -0.264  -6.530   4.276  0.00  0.00     0.029 A 
ATOM     20  C   UNL d   1       0.131  -7.847   4.025  0.00  0.00     0.002 A 
ATOM     21  C   UNL d   1       0.961  -8.141   2.943  0.00  0.00     0.000 A 
ATOM     22  C   UNL d   1       1.404  -7.116   2.117  0.00  0.00     0.002 A 
ATOM     23  C   UNL d   1       1.027  -5.794   2.385  0.00  0.00     0.029 A 
ENDBRANCH   3  18
TORSDOF 3
