REMARK  10 active torsions:
REMARK  status: ('A' for Active; 'I' for Inactive)
REMARK    1  A    between atoms: C_10  and  C_1 
REMARK    2  A    between atoms: C_11  and  C_2 
REMARK    3  A    between atoms: C_12  and  C_3 
REMARK    4  A    between atoms: C_13  and  C_4 
REMARK    5  A    between atoms: O_19  and  C_5 
REMARK    6  A    between atoms: O_18  and  C_6 
REMARK    7  A    between atoms: O_21  and  C_10 
REMARK    8  A    between atoms: O_20  and  C_11 
REMARK    9  A    between atoms: O_23  and  C_12 
REMARK   10  A    between atoms: O_22  and  C_13 
ROOT
ATOM      1  C   UNL d   1       0.780   0.255   0.440  0.00  0.00     0.100 C 
ATOM      2  C   UNL d   1       0.086   2.267  -1.950  0.00  0.00     0.100 C 
ATOM      3  C   UNL d   1       0.775   0.265  -2.091  0.00  0.00     0.049 C 
ATOM      4  C   UNL d   1       2.929   1.881  -1.245  0.00  0.00     0.049 C 
ATOM      5  C   UNL d   1       0.987   0.752  -0.790  0.00  0.00     0.075 C 
ATOM      6  C   UNL d   1       1.946   2.551  -2.068  0.00  0.00     0.075 C 
ATOM      7  C   UNL d   1      -0.610   1.242  -0.405  0.00  0.00     0.055 C 
ATOM      8  C   UNL d   1       2.526   0.696   0.124  0.00  0.00     0.075 C 
ATOM      9  C   UNL d   1       0.026   1.193  -2.986  0.00  0.00     0.075 C 
ENDROOT
BRANCH   1  10
ATOM     10  C   UNL d   1       0.484  -1.226   0.547  0.00  0.00     0.155 C 
ATOM     11  O   UNL d   1       1.254  -2.129   0.256  0.00  0.00    -0.649 OA
BRANCH  10  12
ATOM     12  O   UNL d   1      -0.723  -1.472   1.102  0.00  0.00    -0.775 OA
ATOM     13  H   UNL d   1      -1.261  -0.688   1.332  0.00  0.00     0.167 HD
ENDBRANCH  10  12
ENDBRANCH   1  10
BRANCH   5  14
ATOM     14  O   UNL d   1       1.046   2.358  -0.111  0.00  0.00    -0.363 OA
ATOM     15  H   UNL d   1       1.099   2.333   0.868  0.00  0.00     0.217 HD
ENDBRANCH   5  14
BRANCH   3  16
ATOM     16  C   UNL d   1       1.111  -1.060  -2.653  0.00  0.00     0.291 C 
ATOM     17  O   UNL d   1       0.454  -1.620  -3.513  0.00  0.00    -0.260 OA
BRANCH  16  18
ATOM     18  O   UNL d   1       2.379  -1.334  -2.269  0.00  0.00    -0.323 OA
ATOM     19  C   UNL d   1       3.082  -2.350  -2.987  0.00  0.00     0.213 C 
ENDBRANCH  16  18
ENDBRANCH   3  16
BRANCH   2  20
ATOM     20  C   UNL d   1      -0.774   3.487  -2.180  0.00  0.00     0.155 C 
ATOM     21  O   UNL d   1      -1.944   3.556  -1.824  0.00  0.00    -0.649 OA
BRANCH  20  22
ATOM     22  O   UNL d   1      -0.168   4.492  -2.848  0.00  0.00    -0.775 OA
ATOM     23  H   UNL d   1       0.771   4.283  -3.067  0.00  0.00     0.167 HD
ENDBRANCH  20  22
ENDBRANCH   2  20
BRANCH   4  24
ATOM     24  C   UNL d   1       4.403   2.008  -1.356  0.00  0.00     0.291 C 
ATOM     25  O   UNL d   1       5.175   1.552  -0.527  0.00  0.00    -0.260 OA
BRANCH  24  26
ATOM     26  O   UNL d   1       4.750   2.667  -2.492  0.00  0.00    -0.323 OA
ATOM     27  C   UNL d   1       6.167   2.790  -2.651  0.00  0.00     0.213 C 
ENDBRANCH  24  26
ENDBRANCH   4  24
BRANCH   6  28
ATOM     28  O   UNL d   1       2.256   3.391  -3.126  0.00  0.00    -0.363 OA
ATOM     29  H   UNL d   1       3.227   3.325  -3.263  0.00  0.00     0.217 HD
ENDBRANCH   6  28
TORSDOF 10
