REMARK  2 active torsions:
REMARK  status: ('A' for Active; 'I' for Inactive)
REMARK    1  A    between atoms: C_4  and  N_1 
REMARK    2  A    between atoms: C_5  and  C_3 
ROOT
ATOM      1  C   UNL d   1       2.344  -0.002  -0.034  0.00  0.00     0.081 C 
ATOM      2  C   UNL d   1       2.799  -0.942   1.115  0.00  0.00     0.025 C 
ATOM      3  C   UNL d   1       2.735   1.469   0.268  0.00  0.00     0.025 C 
ATOM      4  C   UNL d   1       2.073   2.126   1.494  0.00  0.00     0.002 C 
ATOM      5  C   UNL d   1       2.110  -2.305   1.283  0.00  0.00     0.002 C 
ATOM      6  C   UNL d   1       0.438  -1.594   3.158  0.00  0.00     0.000 C 
ATOM      7  C   UNL d   1      -0.201   2.836   2.486  0.00  0.00     0.000 C 
ATOM      8  C   UNL d   1       0.668  -2.301   1.813  0.00  0.00     0.000 C 
ATOM      9  C   UNL d   1       0.673   2.692   1.232  0.00  0.00     0.000 C 
ATOM     10  C   UNL d   1      -0.957  -0.949   3.262  0.00  0.00     0.000 C 
ATOM     11  C   UNL d   1      -0.420   1.558   3.314  0.00  0.00     0.000 C 
ATOM     12  C   UNL d   1      -1.069   0.404   2.541  0.00  0.00     0.000 C 
ENDROOT
BRANCH   1  13
ATOM     13  N   UNL d   1       0.913  -0.154  -0.313  0.00  0.00    -0.393 N 
ATOM     14  C   UNL d   1       0.450   0.393  -1.380  0.00  0.00     0.094 C 
ATOM     15  HN  UNL d   1       0.306  -0.677   0.318  1.00  0.00     0.159 HD
BRANCH  14  16
ATOM     16  C   UNL d   1      -0.973   0.246  -1.778  0.00  0.00    -0.021 A 
ATOM     17  C   UNL d   1      -1.828  -0.620  -1.089  0.00  0.00     0.013 A 
ATOM     18  C   UNL d   1      -3.145  -0.801  -1.516  0.00  0.00     0.001 A 
ATOM     19  C   UNL d   1      -3.612  -0.112  -2.632  0.00  0.00     0.000 A 
ATOM     20  C   UNL d   1      -2.771   0.776  -3.306  0.00  0.00     0.001 A 
ATOM     21  C   UNL d   1      -1.452   0.959  -2.880  0.00  0.00     0.013 A 
ENDBRANCH  14  16
ENDBRANCH   1  13
TORSDOF 2
