REMARK  3 active torsions:
REMARK  status: ('A' for Active; 'I' for Inactive)
REMARK    1  A    between atoms: N_8  and  N_2 
REMARK    2  A    between atoms: C_12  and  N_8 
REMARK    3  A    between atoms: O_14  and  C_13 
ROOT
ATOM      1  C   UNL d   1      -0.999   0.902   0.014  0.00  0.00     0.109 A 
ATOM      2  N   UNL d   1      -1.276   2.177   0.021  0.00  0.00    -0.296 N 
ATOM      3  HN  UNL d   1      -0.530   2.871  -0.006  1.00  0.00     0.187 HD
ATOM      4  C   UNL d   1       0.425   0.478  -0.016  0.00  0.00     0.006 A 
ATOM      5  C   UNL d   1      -2.057  -0.203   0.049  0.00  0.00     0.200 A 
ATOM      6  C   UNL d   1      -1.596  -1.606   0.037  0.00  0.00     0.058 A 
ATOM      7  C   UNL d   1      -0.296  -1.913   0.031  0.00  0.00     0.016 A 
ATOM      8  C   UNL d   1       0.745  -0.886   0.017  0.00  0.00    -0.023 A 
ATOM      9  O   UNL d   1      -3.254   0.050   0.102  0.00  0.00    -0.286 OA
ATOM     10  C   UNL d   1       1.444   1.442  -0.057  0.00  0.00     0.015 A 
ATOM     11  C   UNL d   1       2.094  -1.267   0.030  0.00  0.00     0.012 A 
ATOM     12  C   UNL d   1       2.781   1.050  -0.051  0.00  0.00     0.001 A 
ATOM     13  C   UNL d   1       3.106  -0.304  -0.000  0.00  0.00     0.001 A 
ENDROOT
BRANCH   2  14
ATOM     14  N   UNL d   1      -2.572   2.560   0.065  0.00  0.00    -0.300 N 
ATOM     15  H   UNL d   1      -3.322   1.880   0.229  0.00  0.00     0.187 HD
BRANCH  14  16
ATOM     16  C   UNL d   1      -2.893   3.922   0.187  0.00  0.00     0.050 A 
ATOM     17  C   UNL d   1      -1.923   4.926   0.067  0.00  0.00     0.067 A 
ATOM     18  C   UNL d   1      -2.281   6.270   0.151  0.00  0.00     0.067 A 
ATOM     19  C   UNL d   1      -3.602   6.643   0.354  0.00  0.00     0.036 A 
ATOM     20  C   UNL d   1      -4.580   5.658   0.474  0.00  0.00     0.005 A 
ATOM     21  C   UNL d   1      -4.226   4.307   0.387  0.00  0.00     0.031 A 
BRANCH  18  22
ATOM     22  O   UNL d   1      -1.349   7.259   0.029  0.00  0.00    -0.361 OA
ATOM     23  H   UNL d   1      -0.486   6.840  -0.120  0.00  0.00     0.217 HD
ENDBRANCH  18  22
ENDBRANCH  14  16
ENDBRANCH   2  14
TORSDOF 3
