REMARK  1 active torsions:
REMARK  status: ('A' for Active; 'I' for Inactive)
REMARK    1  A    between atoms: N_9  and  N_1 
ROOT
ATOM      1  N   UNL d   1       2.265  -0.151   0.133  0.00  0.00    -0.205 N 
ATOM      2  C   UNL d   1       1.688   1.128   0.124  0.00  0.00     0.276 C 
ATOM      3  C   UNL d   1       1.566  -1.359  -0.006  0.00  0.00     0.276 C 
ATOM      4  C   UNL d   1       0.213   1.190   0.037  0.00  0.00     0.046 A 
ATOM      5  C   UNL d   1       0.085  -1.257   0.025  0.00  0.00     0.046 A 
ATOM      6  C   UNL d   1      -0.530   0.002   0.025  0.00  0.00     0.006 A 
ATOM      7  O   UNL d   1       2.075  -2.470  -0.146  0.00  0.00    -0.266 OA
ATOM      8  O   UNL d   1       2.349   2.166   0.181  0.00  0.00    -0.266 OA
ATOM      9  C   UNL d   1      -1.944   0.079   0.008  0.00  0.00    -0.024 A 
ATOM     10  C   UNL d   1      -0.684  -2.428   0.037  0.00  0.00     0.018 A 
ATOM     11  C   UNL d   1      -0.423   2.437  -0.015  0.00  0.00     0.018 A 
ATOM     12  C   UNL d   1      -1.813   2.508  -0.058  0.00  0.00     0.002 A 
ATOM     13  C   UNL d   1      -2.074  -2.350   0.050  0.00  0.00     0.002 A 
ATOM     14  C   UNL d   1      -2.700  -1.103   0.030  0.00  0.00     0.012 A 
ATOM     15  C   UNL d   1      -2.568   1.336  -0.035  0.00  0.00     0.012 A 
ENDROOT
BRANCH   1  16
ATOM     16  N   UNL d   1       3.710  -0.177   0.091  0.00  0.00    -0.232 NA
ATOM     17  C   UNL d   1       4.278  -0.827   1.268  0.00  0.00     0.133 C 
ATOM     18  H   UNL d   1       4.004   0.807   0.093  0.00  0.00     0.146 HD
ENDBRANCH   1  16
TORSDOF 1
