REMARK  6 active torsions:
REMARK  status: ('A' for Active; 'I' for Inactive)
REMARK    1  A    between atoms: C_11  and  N_2 
REMARK    2  A    between atoms: S_9  and  C_3 
REMARK    3  A    between atoms: N_10  and  C_7 
REMARK    4  A    between atoms: C_20  and  C_11 
REMARK    5  A    between atoms: C_13  and  O_19 
REMARK    6  A    between atoms: O_19  and  C_20 
ROOT
ATOM      1  C   UNL d   1       0.084   0.669  -0.032  0.00  0.00     0.118 A 
ATOM      2  N   UNL d   1       1.496  -1.070  -0.075  0.00  0.00    -0.291 N 
ATOM      3  C   UNL d   1       0.189  -1.436  -0.058  0.00  0.00     0.149 A 
ATOM      4  N   UNL d   1      -0.675  -0.476  -0.027  0.00  0.00    -0.331 N 
ATOM      5  HN  UNL d   1      -1.692  -0.552  -0.003  1.00  0.00     0.168 HD
ATOM      6  C   UNL d   1       1.528   0.298  -0.089  0.00  0.00     0.277 A 
ATOM      7  C   UNL d   1      -0.362   1.934  -0.002  0.00  0.00     0.120 C 
ATOM      8  O   UNL d   1       2.490   1.042  -0.160  0.00  0.00    -0.265 OA
ENDROOT
BRANCH   2   9
ATOM      9  C   UNL d   1       2.695  -1.893  -0.148  0.00  0.00     0.161 C 
BRANCH   9  10
ATOM     10  C   UNL d   1       3.091  -2.219  -1.590  0.00  0.00     0.196 C 
BRANCH  10  11
ATOM     11  O   UNL d   1       4.284  -3.011  -1.567  0.00  0.00    -0.350 OA
BRANCH  11  12
ATOM     12  C   UNL d   1       4.787  -3.376  -2.785  0.00  0.00     0.068 A 
ATOM     13  C   UNL d   1       6.160  -3.644  -2.813  0.00  0.00     0.038 A 
ATOM     14  C   UNL d   1       6.783  -4.039  -3.999  0.00  0.00     0.026 A 
ATOM     15  C   UNL d   1       6.028  -4.184  -5.160  0.00  0.00     0.034 A 
ATOM     16  C   UNL d   1       4.657  -3.940  -5.139  0.00  0.00     0.026 A 
ATOM     17 CL   UNL d   1       6.785  -4.674  -6.624  0.00  0.00    -0.084 Cl
ATOM     18  C   UNL d   1       4.036  -3.538  -3.952  0.00  0.00     0.038 A 
ENDBRANCH  11  12
ENDBRANCH  10  11
ENDBRANCH   9  10
ENDBRANCH   2   9
BRANCH   3  19
ATOM     19  S   UNL d   1      -0.277  -3.102  -0.095  0.00  0.00    -0.098 SA
ATOM     20  C   UNL d   1      -2.078  -2.922   0.014  0.00  0.00     0.099 C 
ENDBRANCH   3  19
BRANCH   7  21
ATOM     21  N   UNL d   1      -1.654   2.460   0.051  0.00  0.00    -0.396 N 
ATOM     22  C   UNL d   1      -2.878   1.661   0.092  0.00  0.00     0.148 C 
ATOM     23  C   UNL d   1      -1.901   3.902   0.021  0.00  0.00     0.148 C 
ENDBRANCH   7  21
TORSDOF 6
