REMARK  4 active torsions:
REMARK  status: ('A' for Active; 'I' for Inactive)
REMARK    1  A    between atoms: S_9  and  C_1 
REMARK    2  A    between atoms: C_19  and  N_2 
REMARK    3  A    between atoms: C_21  and  C_4 
REMARK    4  A    between atoms: C_5  and  S_9 
ROOT
ATOM      1  C   UNL d   1      -0.249  -2.529  -0.963  0.00  0.00     0.174 A 
ATOM      2  N   UNL d   1       0.944  -1.918  -0.548  0.00  0.00    -0.275 N 
ATOM      3  C   UNL d   1       0.733  -0.555  -0.827  0.00  0.00     0.139 A 
ATOM      4  N   UNL d   1      -0.419  -0.426  -1.454  0.00  0.00    -0.282 N 
ATOM      5  HN  UNL d   1      -0.805   0.453  -1.800  1.00  0.00     0.188 HD
ATOM      6  N   UNL d   1      -1.011  -1.639  -1.568  0.00  0.00    -0.277 N 
ATOM      7  HN  UNL d   1      -1.894  -1.830  -2.040  1.00  0.00     0.189 HD
ENDROOT
BRANCH   1   8
ATOM      8  S   UNL d   1      -1.008  -3.924  -0.227  0.00  0.00    -0.033 SA
BRANCH   8   9
ATOM      9  C   UNL d   1      -1.102  -5.088  -1.568  0.00  0.00     0.092 C 
ATOM     10  C   UNL d   1      -2.252  -5.896  -1.822  0.00  0.00     0.039 C 
ATOM     11  C   UNL d   1      -1.919  -7.193  -2.218  0.00  0.00     0.089 C 
ATOM     12  C   UNL d   1      -3.720  -5.753  -1.892  0.00  0.00    -0.029 C 
ATOM     13  S   UNL d   1      -3.242  -8.250  -2.305  0.00  0.00    -0.075 SA
ATOM     14  N   UNL d   1      -0.712  -7.670  -2.539  0.00  0.00    -0.346 N 
ATOM     15  C   UNL d   1      -4.306  -6.935  -2.325  0.00  0.00    -0.008 C 
ATOM     16  C   UNL d   1      -5.663  -7.095  -2.915  0.00  0.00     0.047 C 
ATOM     17  C   UNL d   1      -6.640  -6.078  -2.358  0.00  0.00     0.005 C 
ATOM     18  C   UNL d   1      -6.067  -4.671  -2.124  0.00  0.00     0.005 C 
ATOM     19  C   UNL d   1      -4.549  -4.498  -1.824  0.00  0.00     0.040 C 
ATOM     20  C   UNL d   1       0.228  -6.734  -2.511  0.00  0.00     0.182 C 
ATOM     21  HN  UNL d   1      -0.533  -8.645  -2.779  1.00  0.00     0.167 HD
ATOM     22  N   UNL d   1       0.113  -5.497  -2.022  0.00  0.00    -0.346 N 
ATOM     23  HN  UNL d   1       0.918  -4.872  -1.990  1.00  0.00     0.167 HD
ENDBRANCH   8   9
ENDBRANCH   1   8
BRANCH   2  24
ATOM     24  C   UNL d   1       2.211  -2.469  -0.182  0.00  0.00     0.043 A 
ATOM     25  C   UNL d   1       2.800  -3.438  -1.000  0.00  0.00     0.030 A 
ATOM     26  C   UNL d   1       4.171  -3.710  -0.889  0.00  0.00     0.002 A 
ATOM     27  C   UNL d   1       4.958  -3.036   0.050  0.00  0.00     0.000 A 
ATOM     28  C   UNL d   1       4.361  -2.117   0.908  0.00  0.00     0.002 A 
ATOM     29  C   UNL d   1       3.004  -1.832   0.799  0.00  0.00     0.030 A 
ENDBRANCH   2  24
BRANCH   3  30
ATOM     30  C   UNL d   1       1.653   0.562  -0.585  0.00  0.00     0.010 A 
ATOM     31  C   UNL d   1       2.858   0.688  -1.304  0.00  0.00     0.015 A 
ATOM     32  C   UNL d   1       3.711   1.769  -1.068  0.00  0.00     0.001 A 
ATOM     33  C   UNL d   1       3.371   2.742  -0.131  0.00  0.00     0.000 A 
ATOM     34  C   UNL d   1       2.171   2.639   0.572  0.00  0.00     0.001 A 
ATOM     35  C   UNL d   1       1.315   1.558   0.335  0.00  0.00     0.015 A 
ENDBRANCH   3  30
TORSDOF 4
