REMARK  2 active torsions:
REMARK  status: ('A' for Active; 'I' for Inactive)
REMARK    1  A    between atoms: C_9  and  C_3 
REMARK    2  A    between atoms: C_8  and  C_7 
ROOT
ATOM      1  N   UNL d   1      -0.772   0.042   0.065  0.00  0.00    -0.331 N 
ATOM      2  HN  UNL d   1      -1.757  -0.219   0.119  1.00  0.00     0.168 HD
ATOM      3  C   UNL d   1      -0.251   1.224   0.016  0.00  0.00     0.162 A 
ATOM      4  C   UNL d   1       0.327  -0.773   0.025  0.00  0.00     0.111 A 
ATOM      5  O   UNL d   1       1.099   1.315  -0.043  0.00  0.00    -0.256 OA
ATOM      6  C   UNL d   1       1.571   0.036  -0.031  0.00  0.00     0.316 A 
ATOM      7  C   UNL d   1       0.330  -2.111   0.006  0.00  0.00     0.048 C 
ATOM      8  O   UNL d   1       2.729  -0.327  -0.064  0.00  0.00    -0.257 OA
ENDROOT
BRANCH   7   9
ATOM      9  C   UNL d   1      -0.923  -2.874  -0.018  0.00  0.00    -0.017 A 
ATOM     10  C   UNL d   1      -1.590  -3.189  -1.212  0.00  0.00     0.021 A 
ATOM     11 BR   UNL d   1      -0.876  -2.739  -2.917  0.00  0.00    -0.050 Br
ATOM     12  C   UNL d   1      -2.822  -3.849  -1.181  0.00  0.00     0.020 A 
ATOM     13  C   UNL d   1      -3.396  -4.201   0.040  0.00  0.00     0.001 A 
ATOM     14  C   UNL d   1      -2.737  -3.902   1.231  0.00  0.00     0.001 A 
ATOM     15  C   UNL d   1      -1.507  -3.241   1.204  0.00  0.00     0.013 A 
ENDBRANCH   7   9
BRANCH   3  16
ATOM     16  C   UNL d   1      -0.984   2.498   0.035  0.00  0.00     0.015 A 
ATOM     17  C   UNL d   1      -2.376   2.469   0.194  0.00  0.00     0.016 A 
ATOM     18  C   UNL d   1      -3.102   3.660   0.233  0.00  0.00     0.001 A 
ATOM     19  C   UNL d   1      -2.441   4.882   0.108  0.00  0.00     0.000 A 
ATOM     20  C   UNL d   1      -1.056   4.915  -0.060  0.00  0.00     0.001 A 
ATOM     21  C   UNL d   1      -0.325   3.725  -0.097  0.00  0.00     0.016 A 
ENDBRANCH   3  16
TORSDOF 2
