REMARK  7 active torsions:
REMARK  status: ('A' for Active; 'I' for Inactive)
REMARK    1  A    between atoms: C_2  and  S_1 
REMARK    2  A    between atoms: N_5  and  S_1 
REMARK    3  A    between atoms: N_7  and  N_5 
REMARK       I    between atoms: C_9  and  N_7 
REMARK    4  A    between atoms: C_12  and  C_9 
REMARK    5  A    between atoms: O_16  and  C_11 
REMARK    6  A    between atoms: C_21  and  O_16 
REMARK    7  A    between atoms: O_22  and  C_17 
ROOT
ATOM      1  N   UNL d   1       1.969   3.962   1.790  0.00  0.00    -0.256 N 
ATOM      2  C   UNL d   1       0.644   3.638   1.996  0.00  0.00     0.270 C 
ATOM      3  O   UNL d   1       0.268   2.772   2.779  0.00  0.00    -0.266 OA
ATOM      4  H   UNL d   1       2.292   4.587   1.050  0.00  0.00     0.191 HD
ENDROOT
BRANCH   2   5
ATOM      5  C   UNL d   1      -0.333   4.392   1.170  0.00  0.00     0.036 A 
ATOM      6  C   UNL d   1      -1.496   3.740   0.734  0.00  0.00     0.056 A 
ATOM      7  C   UNL d   1      -2.426   4.403  -0.078  0.00  0.00     0.103 A 
ATOM      8  C   UNL d   1      -2.209   5.757  -0.396  0.00  0.00     0.101 A 
ATOM      9  C   UNL d   1      -1.050   6.402   0.057  0.00  0.00     0.040 A 
ATOM     10  C   UNL d   1      -0.114   5.730   0.839  0.00  0.00     0.020 A 
BRANCH   7  11
ATOM     11  O   UNL d   1      -3.548   3.790  -0.569  0.00  0.00    -0.343 OA
BRANCH  11  12
ATOM     12  C   UNL d   1      -3.498   2.388  -0.838  0.00  0.00     0.129 C 
ATOM     13  C   UNL d   1      -2.537   2.031  -1.972  0.00  0.00     0.032 C 
ATOM     14  C   UNL d   1      -3.127   0.804  -2.658  0.00  0.00     0.002 C 
ATOM     15  C   UNL d   1      -4.570   0.687  -2.180  0.00  0.00     0.002 C 
ATOM     16  C   UNL d   1      -4.855   1.957  -1.395  0.00  0.00     0.032 C 
ENDBRANCH  11  12
ENDBRANCH   7  11
BRANCH   8  17
ATOM     17  O   UNL d   1      -2.983   6.560  -1.193  0.00  0.00    -0.353 OA
ATOM     18  C   UNL d   1      -4.388   6.353  -1.142  0.00  0.00     0.210 C 
ENDBRANCH   8  17
ENDBRANCH   2   5
BRANCH   1  19
ATOM     19  N   UNL d   1       2.976   3.307   2.584  0.00  0.00    -0.219 N 
ATOM     20  H   UNL d   1       2.699   2.712   3.370  0.00  0.00     0.200 HD
BRANCH  19  21
ATOM     21  S   UNL d   1       4.591   3.753   2.447  0.00  0.00     0.293 S 
ATOM     22  O   UNL d   1       4.695   5.186   2.625  0.00  0.00    -0.197 OA
ATOM     23  O   UNL d   1       5.382   2.815   3.219  0.00  0.00    -0.197 OA
BRANCH  21  24
ATOM     24  C   UNL d   1       5.069   3.498   0.785  0.00  0.00     0.167 A 
ATOM     25  N   UNL d   1       4.365   4.028  -0.293  0.00  0.00    -0.340 N 
ATOM     26  C   UNL d   1       5.050   3.664  -1.355  0.00  0.00     0.183 A 
ATOM     27  HN  UNL d   1       3.506   4.577  -0.265  1.00  0.00     0.167 HD
ATOM     28  N   UNL d   1       6.140   2.909  -1.018  0.00  0.00    -0.354 N 
ATOM     29  C   UNL d   1       6.158   2.774   0.339  0.00  0.00     0.135 A 
ATOM     30  C   UNL d   1       7.109   2.381  -1.946  0.00  0.00     0.156 C 
ENDBRANCH  21  24
ENDBRANCH  19  21
ENDBRANCH   1  19
TORSDOF 7
