REMARK  1 active torsions:
REMARK  status: ('A' for Active; 'I' for Inactive)
REMARK    1  A    between atoms: C_8  and  N_7 
ROOT
ATOM      1  C   UNL d   1       4.027   0.354   0.575  0.00  0.00     0.166 A 
ATOM      2  S   UNL d   1       3.123   1.764   1.105  0.00  0.00    -0.022 SA
ATOM      3  C   UNL d   1       4.612   2.433   1.713  0.00  0.00     0.160 A 
ATOM      4  N   UNL d   1       5.303   0.392   0.816  0.00  0.00    -0.278 N 
ATOM      5  HN  UNL d   1       5.966  -0.342   0.569  1.00  0.00     0.189 HD
ATOM      6  N   UNL d   1       5.624   1.555   1.446  0.00  0.00    -0.282 N 
ATOM      7  N   UNL d   1       3.301  -0.618  -0.047  0.00  0.00    -0.335 N 
ATOM      8  S   UNL d   1       4.812   3.879   2.490  0.00  0.00    -0.051 SA
ATOM      9  H   UNL d   1       6.594   1.736   1.682  0.00  0.00     0.188 HD
ATOM     10  H   UNL d   1       2.311  -0.436  -0.150  0.00  0.00     0.168 HD
ENDROOT
BRANCH   7  11
ATOM     11  C   UNL d   1       3.627  -1.989  -0.091  0.00  0.00     0.040 A 
ATOM     12  C   UNL d   1       3.186  -2.796  -1.159  0.00  0.00    -0.035 A 
ATOM     13  C   UNL d   1       3.509  -4.165  -1.168  0.00  0.00     0.009 A 
ATOM     14  C   UNL d   1       2.395  -2.260  -2.321  0.00  0.00     0.050 C 
ATOM     15  C   UNL d   1       4.270  -4.731  -0.146  0.00  0.00     0.007 A 
ATOM     16  C   UNL d   1       4.729  -3.941   0.906  0.00  0.00    -0.060 A 
ATOM     17  C   UNL d   1       4.406  -2.579   0.921  0.00  0.00     0.037 A 
ATOM     18  C   UNL d   1       5.546  -4.547   2.008  0.00  0.00     0.048 C 
ENDBRANCH   7  11
TORSDOF 1
