REMARK  4 active torsions:
REMARK  status: ('A' for Active; 'I' for Inactive)
REMARK    1  A    between atoms: C_6  and  C_1 
REMARK    2  A    between atoms: C_5  and  C_4 
REMARK       I    between atoms: N_7  and  C_6 
REMARK       I    between atoms: C_8  and  N_7 
REMARK       I    between atoms: N_16  and  C_8 
REMARK    3  A    between atoms: C_10  and  C_13 
REMARK    4  A    between atoms: C_24  and  N_16 
ROOT
ATOM      1  C   UNL d   1       0.738   0.562  -0.108  0.00  0.00     0.108 A 
ATOM      2  N   UNL d   1       0.911  -0.814  -0.276  0.00  0.00    -0.345 N 
ATOM      3  HN  UNL d   1       1.748  -1.252  -0.661  1.00  0.00     0.167 HD
ATOM      4  C   UNL d   1      -0.159  -1.467   0.134  0.00  0.00     0.086 A 
ATOM      5  S   UNL d   1      -1.444  -0.467   0.701  0.00  0.00    -0.081 SA
ATOM      6  C   UNL d   1      -0.497   0.927   0.391  0.00  0.00     0.087 A 
ENDROOT
BRANCH   1   7
ATOM      7  C   UNL d   1       1.811   1.499  -0.453  0.00  0.00     0.276 C 
ATOM      8  N   UNL d   1       2.934   0.848  -0.921  0.00  0.00    -0.274 N 
ATOM      9  C   UNL d   1       3.856   1.354  -1.798  0.00  0.00     0.327 C 
ATOM     10  H   UNL d   1       2.812  -0.154  -1.035  0.00  0.00     0.173 HD
ATOM     11  N   UNL d   1       4.056   2.710  -1.733  0.00  0.00    -0.309 N 
ATOM     12  O   UNL d   1       4.413   0.574  -2.567  0.00  0.00    -0.247 OA
ATOM     13  H   UNL d   1       3.615   3.179  -0.947  0.00  0.00     0.170 HD
ATOM     14  O   UNL d   1       1.737   2.710  -0.267  0.00  0.00    -0.266 OA
BRANCH  11  15
ATOM     15  C   UNL d   1       4.875   3.492  -2.573  0.00  0.00     0.036 A 
ATOM     16  C   UNL d   1       5.375   3.037  -3.798  0.00  0.00     0.032 A 
ATOM     17  C   UNL d   1       6.173   3.866  -4.591  0.00  0.00     0.044 A 
ATOM     18  C   UNL d   1       6.480   5.147  -4.152  0.00  0.00     0.116 A 
ATOM     19  C   UNL d   1       5.992   5.619  -2.941  0.00  0.00     0.044 A 
ATOM     20  F   UNL d   1       7.254   5.937  -4.908  0.00  0.00    -0.206 F 
ATOM     21  C   UNL d   1       5.177   4.796  -2.157  0.00  0.00     0.032 A 
ENDBRANCH  11  15
ENDBRANCH   1   7
BRANCH   4  22
ATOM     22  C   UNL d   1      -0.297  -2.930   0.136  0.00  0.00     0.019 A 
ATOM     23  C   UNL d   1       0.653  -3.765   0.748  0.00  0.00     0.047 A 
ATOM     24  C   UNL d   1       0.524  -5.161   0.690  0.00  0.00     0.041 A 
ATOM     25 CL   UNL d   1       2.006  -3.141   1.631  0.00  0.00    -0.083 Cl
ATOM     26  C   UNL d   1      -0.555  -5.756   0.021  0.00  0.00     0.049 A 
ATOM     27  C   UNL d   1      -1.513  -4.926  -0.578  0.00  0.00     0.017 A 
ATOM     28  C   UNL d   1      -1.384  -3.534  -0.523  0.00  0.00     0.017 A 
BRANCH  26  29
ATOM     29  C   UNL d   1      -0.691  -7.257  -0.069  0.00  0.00     0.417 C 
ATOM     30  F   UNL d   1       0.314  -7.933   0.551  0.00  0.00    -0.166 F 
ATOM     31  F   UNL d   1      -1.847  -7.707   0.490  0.00  0.00    -0.166 F 
ATOM     32  F   UNL d   1      -0.701  -7.698  -1.357  0.00  0.00    -0.166 F 
ENDBRANCH  26  29
ENDBRANCH   4  22
TORSDOF 4
