REMARK  8 active torsions:
REMARK  status: ('A' for Active; 'I' for Inactive)
REMARK    1  A    between atoms: C_6  and  C_1 
REMARK    2  A    between atoms: C_10  and  N_2 
REMARK    3  A    between atoms: C_8  and  C_4 
REMARK    4  A    between atoms: O_13  and  C_6 
REMARK    5  A    between atoms: N_7  and  C_15 
REMARK    6  A    between atoms: C_12  and  C_10 
REMARK    7  A    between atoms: C_15  and  C_12 
REMARK    8  A    between atoms: C_22  and  O_13 
ROOT
ATOM      1  C   UNL d   1      -0.328   1.181   0.076  0.00  0.00     0.064 A 
ATOM      2  N   UNL d   1       0.925  -0.690   0.040  0.00  0.00    -0.349 N 
ATOM      3  C   UNL d   1       0.976   0.699   0.020  0.00  0.00     0.024 A 
ATOM      4  C   UNL d   1      -0.407  -1.119   0.089  0.00  0.00     0.046 A 
ATOM      5  C   UNL d   1      -1.171   0.043   0.109  0.00  0.00     0.050 A 
ATOM      6  C   UNL d   1       2.227   1.513  -0.036  0.00  0.00     0.069 C 
ENDROOT
BRANCH   2   7
ATOM      7  C   UNL d   1       2.115  -1.538   0.004  0.00  0.00     0.131 C 
BRANCH   7   8
ATOM      8  C   UNL d   1       2.516  -1.961  -1.407  0.00  0.00     0.050 C 
BRANCH   8   9
ATOM      9  C   UNL d   1       3.773  -2.847  -1.407  0.00  0.00     0.274 C 
BRANCH   9  10
ATOM     10  N   UNL d   1       3.657  -4.021  -0.535  0.00  0.00     0.092 N 
ATOM     11  C   UNL d   1       2.680  -5.017  -1.026  0.00  0.00     0.298 C 
ATOM     12  C   UNL d   1       2.558  -6.165  -0.009  0.00  0.00     0.198 C 
ATOM     13  O   UNL d   1       3.819  -6.817   0.195  0.00  0.00    -0.388 OA
ATOM     14  C   UNL d   1       4.801  -5.869   0.639  0.00  0.00     0.198 C 
ATOM     15  C   UNL d   1       4.952  -4.713  -0.366  0.00  0.00     0.298 C 
ENDBRANCH   9  10
ENDBRANCH   8   9
ENDBRANCH   7   8
ENDBRANCH   2   7
BRANCH   4  16
ATOM     16  C   UNL d   1      -0.927  -2.501   0.042  0.00  0.00    -0.009 A 
ATOM     17  C   UNL d   1      -2.095  -2.767  -0.695  0.00  0.00     0.014 A 
ATOM     18  C   UNL d   1      -2.611  -4.063  -0.807  0.00  0.00     0.001 A 
ATOM     19  C   UNL d   1      -1.959  -5.125  -0.192  0.00  0.00     0.000 A 
ATOM     20  C   UNL d   1      -0.839  -4.876   0.592  0.00  0.00     0.001 A 
ATOM     21  C   UNL d   1      -0.351  -3.571   0.734  0.00  0.00     0.014 A 
ENDBRANCH   4  16
BRANCH   1  22
ATOM     22  C   UNL d   1      -0.728   2.586   0.131  0.00  0.00     0.295 C 
ATOM     23  O   UNL d   1       0.067   3.520   0.186  0.00  0.00    -0.259 OA
BRANCH  22  24
ATOM     24  O   UNL d   1      -2.080   2.725   0.210  0.00  0.00    -0.318 OA
BRANCH  24  25
ATOM     25  C   UNL d   1      -2.536   3.989   0.707  0.00  0.00     0.174 C 
ATOM     26  C   UNL d   1      -2.557   3.915   2.224  0.00  0.00     0.034 C 
ENDBRANCH  24  25
ENDBRANCH  22  24
ENDBRANCH   1  22
TORSDOF 8
