REMARK  6 active torsions:
REMARK  status: ('A' for Active; 'I' for Inactive)
REMARK    1  A    between atoms: C_2  and  C_1 
REMARK    2  A    between atoms: C_5  and  C_2 
REMARK    3  A    between atoms: O_18  and  C_2 
REMARK    4  A    between atoms: C_3  and  C_7 
REMARK    5  A    between atoms: C_6  and  C_3 
REMARK    6  A    between atoms: N_4  and  C_5 
ROOT
ATOM      1  N   UNL d   1      -1.546  -1.145  -0.666  0.00  0.00     0.091 N 
ATOM      2  C   UNL d   1      -2.724  -3.867  -0.776  0.00  0.00     0.064 C 
ATOM      3  C   UNL d   1      -3.507  -2.641  -0.313  0.00  0.00     0.043 C 
ATOM      4  C   UNL d   1      -1.223  -3.624  -0.591  0.00  0.00     0.043 C 
ATOM      5  C   UNL d   1      -0.749  -2.283  -1.162  0.00  0.00     0.273 C 
ATOM      6  C   UNL d   1      -2.979  -1.343  -0.930  0.00  0.00     0.273 C 
ENDROOT
BRANCH   2   7
ATOM      7  C   UNL d   1      -3.074  -4.202  -2.230  0.00  0.00     0.163 C 
ATOM      8  O   UNL d   1      -2.496  -3.683  -3.182  0.00  0.00    -0.292 OA
BRANCH   7   9
ATOM      9  C   UNL d   1      -4.202  -5.127  -2.537  0.00  0.00     0.010 A 
ATOM     10  C   UNL d   1      -4.925  -4.903  -3.723  0.00  0.00     0.018 A 
ATOM     11  C   UNL d   1      -5.944  -5.777  -4.104  0.00  0.00     0.043 A 
ATOM     12  C   UNL d   1      -6.234  -6.875  -3.305  0.00  0.00     0.116 A 
ATOM     13  C   UNL d   1      -5.533  -7.107  -2.126  0.00  0.00     0.043 A 
ATOM     14  F   UNL d   1      -7.193  -7.730  -3.680  0.00  0.00    -0.206 F 
ATOM     15  C   UNL d   1      -4.511  -6.232  -1.736  0.00  0.00     0.018 A 
ENDBRANCH   7   9
ENDBRANCH   2   7
BRANCH   1  16
ATOM     16  C   UNL d   1      -1.042   0.110  -1.287  0.00  0.00     0.313 C 
BRANCH  16  17
ATOM     17  C   UNL d   1      -1.744   1.415  -0.845  0.00  0.00     0.253 C 
BRANCH  17  18
ATOM     18  C   UNL d   1      -1.123   2.634  -1.553  0.00  0.00     0.414 C 
ATOM     19  F   UNL d   1      -0.110   2.297  -2.383  0.00  0.00    -0.168 F 
ATOM     20  F   UNL d   1      -0.618   3.514  -0.654  0.00  0.00    -0.168 F 
ATOM     21  F   UNL d   1      -2.047   3.293  -2.288  0.00  0.00    -0.168 F 
ENDBRANCH  17  18
BRANCH  17  22
ATOM     22  O   UNL d   1      -1.723   1.536   0.595  0.00  0.00    -0.385 OA
ATOM     23  H   UNL d   1      -0.805   1.728   0.859  0.00  0.00     0.210 HD
ENDBRANCH  17  22
ENDBRANCH  16  17
ENDBRANCH   1  16
TORSDOF 6
