REMARK  3 active torsions:
REMARK  status: ('A' for Active; 'I' for Inactive)
REMARK    1  A    between atoms: C_9  and  C_3 
REMARK    2  A    between atoms: O_12  and  C_4 
REMARK    3  A    between atoms: C_13  and  O_12 
ROOT
ATOM      1  N   UNL d   1       1.722   0.071   0.056  0.00  0.00    -0.321 N 
ATOM      2  HN  UNL d   1       2.740   0.133   0.078  1.00  0.00     0.169 HD
ATOM      3  C   UNL d   1       0.948   1.170   0.044  0.00  0.00     0.134 A 
ATOM      4  C   UNL d   1       1.089  -1.112   0.038  0.00  0.00     0.151 A 
ATOM      5  N   UNL d   1      -0.401   1.132   0.054  0.00  0.00    -0.344 N 
ATOM      6  HN  UNL d   1      -0.952   1.990   0.041  1.00  0.00     0.167 HD
ATOM      7  C   UNL d   1      -0.278  -1.253   0.082  0.00  0.00     0.081 A 
ATOM      8  C   UNL d   1      -0.998  -0.079   0.081  0.00  0.00     0.011 A 
ATOM      9  C   UNL d   1      -2.496  -0.082   0.072  0.00  0.00     0.068 C 
ENDROOT
BRANCH   4  10
ATOM     10  O   UNL d   1       1.844  -2.276  -0.039  0.00  0.00    -0.294 OA
BRANCH  10  11
ATOM     11  C   UNL d   1       3.038  -2.213  -0.729  0.00  0.00     0.077 A 
ATOM     12  C   UNL d   1       4.089  -2.993  -0.241  0.00  0.00     0.039 A 
ATOM     13  C   UNL d   1       5.319  -3.003  -0.904  0.00  0.00     0.026 A 
ATOM     14  C   UNL d   1       5.494  -2.236  -2.055  0.00  0.00     0.034 A 
ATOM     15  C   UNL d   1       4.446  -1.472  -2.560  0.00  0.00     0.026 A 
ATOM     16 CL   UNL d   1       7.013  -2.239  -2.865  0.00  0.00    -0.084 Cl
ATOM     17  C   UNL d   1       3.211  -1.477  -1.908  0.00  0.00     0.039 A 
ENDBRANCH  10  11
ENDBRANCH   4  10
BRANCH   3  18
ATOM     18  C   UNL d   1       1.639   2.480  -0.063  0.00  0.00     0.076 A 
ATOM     19  N   UNL d   1       0.876   3.608  -0.029  0.00  0.00    -0.363 N 
ATOM     20  C   UNL d   1       1.500   4.801  -0.146  0.00  0.00     0.088 A 
ATOM     21  HN  UNL d   1      -0.136   3.554   0.081  1.00  0.00     0.165 HD
ATOM     22  C   UNL d   1       2.867   4.946  -0.301  0.00  0.00     0.017 A 
ATOM     23  C   UNL d   1       3.646   3.800  -0.339  0.00  0.00     0.004 A 
ATOM     24  C   UNL d   1       3.030   2.556  -0.219  0.00  0.00     0.033 A 
ENDBRANCH   3  18
TORSDOF 3
