REMARK  6 active torsions:
REMARK  status: ('A' for Active; 'I' for Inactive)
REMARK    1  A    between atoms: C_2  and  S_1 
REMARK    2  A    between atoms: N_8  and  S_1 
REMARK    3  A    between atoms: C_7  and  C_3 
REMARK    4  A    between atoms: O_19  and  C_7 
REMARK    5  A    between atoms: C_14  and  N_8 
REMARK    6  A    between atoms: C_10  and  C_14 
ROOT
ATOM      1  S   UNL d   1       0.950  -0.009  -0.066  0.00  0.00     0.264 S 
ATOM      2  O   UNL d   1       0.207   1.175  -0.428  0.00  0.00    -0.204 OA
ATOM      3  O   UNL d   1       2.396  -0.049  -0.047  0.00  0.00    -0.204 OA
ENDROOT
BRANCH   1   4
ATOM      4  C   UNL d   1       0.468  -1.211  -1.309  0.00  0.00     0.186 A 
ATOM      5  C   UNL d   1       0.723  -1.248  -2.673  0.00  0.00     0.071 A 
ATOM      6  C   UNL d   1       0.083  -2.397  -3.218  0.00  0.00     0.072 A 
ATOM      7  C   UNL d   1      -0.539  -3.006  -2.144  0.00  0.00     0.067 A 
ATOM      8  O   UNL d   1      -0.314  -2.304  -0.997  0.00  0.00    -0.301 OA
ATOM      9  C   UNL d   1      -1.371  -4.224  -2.013  0.00  0.00     0.078 C 
BRANCH   6  10
ATOM     10  C   UNL d   1       0.061  -2.862  -4.597  0.00  0.00     0.295 C 
ATOM     11  O   UNL d   1      -0.525  -3.873  -4.963  0.00  0.00    -0.259 OA
BRANCH  10  12
ATOM     12  O   UNL d   1       0.774  -2.039  -5.420  0.00  0.00    -0.322 OA
ATOM     13  C   UNL d   1       0.803  -2.450  -6.787  0.00  0.00     0.213 C 
ENDBRANCH  10  12
ENDBRANCH   6  10
ENDBRANCH   1   4
BRANCH   1  14
ATOM     14  N   UNL d   1       0.352  -0.543   1.424  0.00  0.00    -0.210 NA
ATOM     15  H   UNL d   1      -0.611  -0.861   1.306  0.00  0.00     0.140 HD
BRANCH  14  16
ATOM     16  C   UNL d   1       1.200  -1.524   2.126  0.00  0.00     0.144 C 
BRANCH  16  17
ATOM     17  C   UNL d   1       0.623  -1.963   3.460  0.00  0.00    -0.022 A 
ATOM     18  C   UNL d   1       0.935  -3.217   4.019  0.00  0.00     0.043 A 
ATOM     19  C   UNL d   1       0.429  -3.597   5.266  0.00  0.00     0.048 A 
ATOM     20 CL   UNL d   1       1.969  -4.344   3.212  0.00  0.00    -0.084 Cl
ATOM     21  C   UNL d   1      -0.381  -2.721   5.980  0.00  0.00     0.035 A 
ATOM     22  C   UNL d   1      -0.680  -1.463   5.465  0.00  0.00     0.024 A 
ATOM     23 CL   UNL d   1      -1.003  -3.189   7.514  0.00  0.00    -0.084 Cl
ATOM     24  C   UNL d   1      -0.174  -1.084   4.219  0.00  0.00     0.012 A 
ENDBRANCH  16  17
ENDBRANCH  14  16
ENDBRANCH   1  14
TORSDOF 6
