REMARK  3 active torsions:
REMARK  status: ('A' for Active; 'I' for Inactive)
REMARK       I    between atoms: C_6  and  N_1 
REMARK    1  A    between atoms: C_10  and  C_4 
REMARK    2  A    between atoms: C_8  and  C_6 
REMARK    3  A    between atoms: O_21  and  C_17 
ROOT
ATOM      1  N   UNL d   1      -0.353   1.044  -0.003  0.00  0.00    -0.230 N 
ATOM      2  N   UNL d   1       0.964   0.701  -0.052  0.00  0.00    -0.295 N 
ATOM      3  HN  UNL d   1       1.766   1.328  -0.111  1.00  0.00     0.187 HD
ATOM      4  C   UNL d   1      -0.331  -1.186   0.054  0.00  0.00     0.015 A 
ATOM      5  C   UNL d   1      -1.155  -0.081   0.104  0.00  0.00     0.134 A 
ATOM      6  C   UNL d   1      -0.774   2.398  -0.068  0.00  0.00     0.283 C 
ATOM      7  C   UNL d   1       0.979  -0.636  -0.008  0.00  0.00     0.035 A 
ATOM      8  O   UNL d   1      -1.934   2.593   0.295  0.00  0.00    -0.265 OA
ATOM      9  C   UNL d   1       2.290  -1.337  -0.065  0.00  0.00     0.070 C 
ENDROOT
BRANCH   4  10
ATOM     10  C   UNL d   1      -0.798  -2.567   0.030  0.00  0.00    -0.022 A 
ATOM     11  C   UNL d   1      -1.989  -2.922  -0.621  0.00  0.00     0.015 A 
ATOM     12  C   UNL d   1      -2.386  -4.262  -0.717  0.00  0.00     0.037 A 
ATOM     13  C   UNL d   1      -1.591  -5.266  -0.167  0.00  0.00     0.068 A 
ATOM     14  C   UNL d   1      -0.410  -4.922   0.483  0.00  0.00     0.037 A 
ATOM     15  C   UNL d   1      -0.028  -3.585   0.602  0.00  0.00     0.015 A 
BRANCH  13  16
ATOM     16  O   UNL d   1      -1.835  -6.608  -0.245  0.00  0.00    -0.356 OA
ATOM     17  C   UNL d   1      -3.207  -6.979  -0.287  0.00  0.00     0.210 C 
ENDBRANCH  13  16
ENDBRANCH   4  10
BRANCH   6  18
ATOM     18  C   UNL d   1       0.090   3.466  -0.582  0.00  0.00     0.074 A 
ATOM     19  S   UNL d   1      -0.442   5.099  -0.452  0.00  0.00    -0.097 SA
ATOM     20  C   UNL d   1       0.915   5.692  -1.303  0.00  0.00     0.050 A 
ATOM     21  C   UNL d   1       1.772   4.684  -1.671  0.00  0.00     0.009 A 
ATOM     22  C   UNL d   1       1.298   3.405  -1.255  0.00  0.00     0.025 A 
ENDBRANCH   6  18
TORSDOF 3
