REMARK  6 active torsions:
REMARK  status: ('A' for Active; 'I' for Inactive)
REMARK    1  A    between atoms: C_10  and  N_1 
REMARK    2  A    between atoms: S_15  and  C_2 
REMARK    3  A    between atoms: C_12  and  C_3 
REMARK    4  A    between atoms: C_11  and  O_13 
REMARK    5  A    between atoms: O_13  and  C_12 
REMARK    6  A    between atoms: C_23  and  C_16 
ROOT
ATOM      1  N   UNL d   1      -0.299  -1.261  -0.053  0.00  0.00    -0.277 N 
ATOM      2  C   UNL d   1       0.896  -0.551  -0.023  0.00  0.00     0.164 A 
ATOM      3  C   UNL d   1      -1.270  -0.260  -0.123  0.00  0.00     0.129 A 
ATOM      4  N   UNL d   1       0.666   0.740  -0.057  0.00  0.00    -0.278 N 
ATOM      5  HN  UNL d   1       1.372   1.476  -0.034  1.00  0.00     0.189 HD
ATOM      6  N   UNL d   1      -0.681   0.922  -0.127  0.00  0.00    -0.285 N 
ATOM      7  HN  UNL d   1      -1.157   1.823  -0.175  1.00  0.00     0.188 HD
ENDROOT
BRANCH   3   8
ATOM      8  C   UNL d   1      -2.746  -0.427   0.026  0.00  0.00     0.254 C 
BRANCH   8   9
ATOM      9  O   UNL d   1      -3.359  -0.055  -1.213  0.00  0.00    -0.343 OA
BRANCH   9  10
ATOM     10  C   UNL d   1      -4.725   0.062  -1.204  0.00  0.00     0.076 A 
ATOM     11  C   UNL d   1      -5.325   0.599  -2.340  0.00  0.00    -0.018 A 
ATOM     12  C   UNL d   1      -6.718   0.718  -2.442  0.00  0.00    -0.043 A 
ATOM     13  C   UNL d   1      -4.643   1.128  -3.563  0.00  0.00     0.042 A 
ATOM     14  C   UNL d   1      -7.129   1.307  -3.756  0.00  0.00     0.040 A 
ATOM     15  C   UNL d   1      -7.558   0.312  -1.411  0.00  0.00    -0.055 A 
ATOM     16  C   UNL d   1      -5.799   1.574  -4.469  0.00  0.00     0.009 A 
ATOM     17  C   UNL d   1      -6.960  -0.208  -0.259  0.00  0.00     0.010 A 
ATOM     18  C   UNL d   1      -9.048   0.424  -1.520  0.00  0.00     0.049 C 
ATOM     19  C   UNL d   1      -5.564  -0.335  -0.158  0.00  0.00     0.038 A 
ENDBRANCH   9  10
ENDBRANCH   8   9
ENDBRANCH   3   8
BRANCH   1  20
ATOM     20  C   UNL d   1      -0.489  -2.674  -0.004  0.00  0.00     0.043 A 
ATOM     21  C   UNL d   1       0.332  -3.478   0.805  0.00  0.00     0.030 A 
ATOM     22  C   UNL d   1       0.203  -4.869   0.787  0.00  0.00     0.010 A 
ATOM     23  C   UNL d   1      -0.764  -5.492  -0.011  0.00  0.00    -0.055 A 
ATOM     24  C   UNL d   1      -1.608  -4.683  -0.785  0.00  0.00     0.010 A 
ATOM     25  C   UNL d   1      -1.472  -3.286  -0.786  0.00  0.00     0.030 A 
BRANCH  23  26
ATOM     26  C   UNL d   1      -0.904  -7.006  -0.055  0.00  0.00     0.010 C 
ATOM     27  C   UNL d   1       0.334  -7.672  -0.664  0.00  0.00     0.015 C 
ATOM     28  C   UNL d   1      -1.203  -7.591   1.329  0.00  0.00     0.015 C 
ENDBRANCH  23  26
ENDBRANCH   1  20
BRANCH   2  29
ATOM     29  S   UNL d   1       2.507  -1.197  -0.111  0.00  0.00    -0.105 SA
ATOM     30  H   UNL d   1       2.235  -2.421  -0.580  0.00  0.00     0.110 HD
ENDBRANCH   2  29
TORSDOF 6
