REMARK  1 active torsions:
REMARK  status: ('A' for Active; 'I' for Inactive)
REMARK    1  A    between atoms: O_10  and  N_7 
ROOT
ATOM      1  C   UNL d   1      -0.697  -0.501   0.074  0.00  0.00     0.023 A 
ATOM      2  C   UNL d   1      -1.109   0.819   0.096  0.00  0.00     0.022 A 
ATOM      3  N   UNL d   1      -0.003   1.621   0.088  0.00  0.00    -0.358 N 
ATOM      4  C   UNL d   1       0.727  -0.495   0.033  0.00  0.00     0.005 A 
ATOM      5  C   UNL d   1       1.133   0.845   0.038  0.00  0.00     0.043 A 
ATOM      6  C   UNL d   1      -1.681  -1.577   0.072  0.00  0.00     0.045 C 
ATOM      7  N   UNL d   1      -1.246  -2.802   0.041  0.00  0.00    -0.273 N 
ATOM      8  HN  UNL d   1      -0.260  -3.057  -0.012  1.00  0.00     0.194 HD
ATOM      9  C   UNL d   1      -2.518   1.298   0.110  0.00  0.00     0.058 C 
ATOM     10  C   UNL d   1       1.720  -1.495  -0.018  0.00  0.00     0.014 A 
ATOM     11  C   UNL d   1       2.481   1.225  -0.006  0.00  0.00     0.030 A 
ATOM     12  C   UNL d   1      -3.153  -1.169   0.164  0.00  0.00     0.060 C 
ATOM     13  C   UNL d   1      -3.409   0.199  -0.490  0.00  0.00     0.012 C 
ATOM     14  C   UNL d   1       3.070  -1.131  -0.065  0.00  0.00     0.001 A 
ATOM     15  C   UNL d   1       3.442   0.211  -0.060  0.00  0.00     0.002 A 
ATOM     16  H   UNL d   1      -0.007   2.633   0.100  0.00  0.00     0.166 HD
ENDROOT
BRANCH   7  17
ATOM     17  O   UNL d   1      -2.294  -3.728   0.088  0.00  0.00    -0.290 OA
ATOM     18  H   UNL d   1      -1.820  -4.579   0.034  0.00  0.00     0.244 HD
ENDBRANCH   7  17
TORSDOF 1
