REMARK  7 active torsions:
REMARK  status: ('A' for Active; 'I' for Inactive)
REMARK    1  A    between atoms: C_9  and  N_1 
REMARK    2  A    between atoms: C_5  and  C_4 
REMARK    3  A    between atoms: C_7  and  C_12 
REMARK    4  A    between atoms: O_14  and  C_7 
REMARK    5  A    between atoms: C_13  and  C_21 
REMARK    6  A    between atoms: C_21  and  O_14 
REMARK    7  A    between atoms: O_22  and  C_15 
ROOT
ATOM      1  N   UNL d   1      -5.273   6.078  -2.086  0.00  0.00    -0.269 N 
ATOM      2  HN  UNL d   1      -5.275   7.055  -1.794  1.00  0.00     0.194 HD
ATOM      3  C   UNL d   1      -5.895   5.112  -1.500  0.00  0.00     0.047 C 
ATOM      4  O   UNL d   1      -4.588   5.551  -3.202  0.00  0.00    -0.272 OA
ATOM      5  C   UNL d   1      -5.836   3.808  -2.220  0.00  0.00     0.096 C 
ATOM      6  C   UNL d   1      -4.792   4.133  -3.257  0.00  0.00     0.182 C 
ENDROOT
BRANCH   6   7
ATOM      7  C   UNL d   1      -3.462   3.390  -3.107  0.00  0.00     0.213 C 
BRANCH   7   8
ATOM      8  O   UNL d   1      -2.894   3.461  -1.776  0.00  0.00    -0.315 OA
BRANCH   8   9
ATOM      9  C   UNL d   1      -2.771   2.262  -1.148  0.00  0.00     0.293 C 
ATOM     10  O   UNL d   1      -3.237   1.204  -1.559  0.00  0.00    -0.259 OA
BRANCH   9  11
ATOM     11  C   UNL d   1      -1.995   2.312   0.117  0.00  0.00     0.039 A 
ATOM     12  C   UNL d   1      -1.440   3.485   0.657  0.00  0.00     0.020 A 
ATOM     13  C   UNL d   1      -0.727   3.436   1.870  0.00  0.00     0.037 A 
ATOM     14  C   UNL d   1      -0.555   2.210   2.536  0.00  0.00     0.102 A 
ATOM     15  C   UNL d   1      -1.088   1.036   1.996  0.00  0.00     0.037 A 
ATOM     16  C   UNL d   1      -1.799   1.096   0.796  0.00  0.00     0.020 A 
BRANCH  14  17
ATOM     17  N   UNL d   1       0.184   2.145   3.805  0.00  0.00    -0.116 N 
ATOM     18  O   UNL d   1       0.307   1.036   4.345  0.00  0.00    -0.532 OA
ATOM     19  O   UNL d   1       0.638   3.204   4.259  0.00  0.00    -0.532 OA
ENDBRANCH  14  17
ENDBRANCH   9  11
ENDBRANCH   8   9
ENDBRANCH   7   8
ENDBRANCH   6   7
BRANCH   3  20
ATOM     20  C   UNL d   1      -6.680   5.253  -0.253  0.00  0.00     0.022 A 
ATOM     21  C   UNL d   1      -6.340   6.072   0.837  0.00  0.00     0.080 A 
ATOM     22  C   UNL d   1      -7.220   6.130   1.934  0.00  0.00     0.037 A 
ATOM     23  C   UNL d   1      -8.418   5.414   1.959  0.00  0.00     0.003 A 
ATOM     24  C   UNL d   1      -8.764   4.625   0.873  0.00  0.00     0.001 A 
ATOM     25  C   UNL d   1      -7.900   4.541  -0.218  0.00  0.00     0.016 A 
BRANCH  21  26
ATOM     26  O   UNL d   1      -5.292   6.934   0.994  0.00  0.00    -0.355 OA
ATOM     27  C   UNL d   1      -4.002   6.559   0.541  0.00  0.00     0.210 C 
ENDBRANCH  21  26
ENDBRANCH   3  20
TORSDOF 7
