REMARK  2 active torsions:
REMARK  status: ('A' for Active; 'I' for Inactive)
REMARK    1  A    between atoms: N_4  and  C_1 
REMARK    2  A    between atoms: N_16  and  C_5 
ROOT
ATOM      1  C   UNL d   1       2.229  -0.019  -0.002  0.00  0.00     0.686 A 
ATOM      2  N   UNL d   1       1.595   0.797   0.863  0.00  0.00    -0.180 N 
ATOM      3  HN  UNL d   1       2.119   1.453   1.441  1.00  0.00     0.185 HD
ATOM      4  C   UNL d   1       0.255   0.727   0.947  0.00  0.00     0.116 A 
ATOM      5  N   UNL d   1       1.567  -0.925  -0.741  0.00  0.00    -0.200 N 
ATOM      6  HN  UNL d   1       2.064  -1.538  -1.388  1.00  0.00     0.183 HD
ATOM      7  C   UNL d   1      -0.484  -0.186   0.227  0.00  0.00     0.099 A 
ATOM      8  C   UNL d   1      -1.899  -0.276   0.291  0.00  0.00     0.104 C 
ATOM      9  N   UNL d   1      -3.058  -0.339   0.296  0.00  0.00    -0.191 NA
ATOM     10  C   UNL d   1       0.233  -1.003  -0.606  0.00  0.00     0.132 A 
ENDROOT
BRANCH   4  11
ATOM     11  N   UNL d   1      -0.326   1.609   1.860  0.00  0.00    -0.287 NA
ATOM     12  H   UNL d   1       0.402   2.230   2.205  0.00  0.00     0.125 HD
ATOM     13  H   UNL d   1      -1.118   2.122   1.486  0.00  0.00     0.125 HD
ENDBRANCH   4  11
BRANCH   1  14
ATOM     14  N   UNL d   1       3.598   0.114  -0.160  0.00  0.00    -0.182 N 
ATOM     15  C   UNL d   1       4.505  -0.498  -1.041  0.00  0.00     0.058 A 
ATOM     16  C   UNL d   1       5.827  -0.141  -0.756  0.00  0.00    -0.029 A 
ATOM     17  C   UNL d   1       4.235  -1.326  -2.118  0.00  0.00     0.031 A 
ATOM     18  C   UNL d   1       6.887  -0.582  -1.532  0.00  0.00     0.009 A 
ATOM     19  C   UNL d   1       5.852   0.801   0.402  0.00  0.00     0.061 C 
ATOM     20  C   UNL d   1       6.610  -1.416  -2.616  0.00  0.00     0.001 A 
ATOM     21  C   UNL d   1       5.291  -1.788  -2.907  0.00  0.00     0.002 A 
ATOM     22  C   UNL d   1       4.397   0.714   0.910  0.00  0.00     0.152 C 
ENDBRANCH   1  14
TORSDOF 2
