REMARK  4 active torsions:
REMARK  status: ('A' for Active; 'I' for Inactive)
REMARK    1  A    between atoms: C_6  and  C_1 
REMARK    2  A    between atoms: C_3  and  C_2 
REMARK    3  A    between atoms: O_16  and  C_6 
REMARK    4  A    between atoms: C_18  and  O_16 
ROOT
ATOM      1  C   UNL d   1      -0.813  -1.086   0.132  0.00  0.00     0.144 A 
ATOM      2  C   UNL d   1       0.572  -1.096   0.051  0.00  0.00     0.121 A 
ATOM      3  N   UNL d   1      -1.269   0.226   0.115  0.00  0.00    -0.340 N 
ATOM      4  HN  UNL d   1      -2.233   0.559   0.150  1.00  0.00     0.167 HD
ATOM      5  O   UNL d   1       0.979   0.212  -0.016  0.00  0.00    -0.302 OA
ATOM      6  C   UNL d   1      -0.168   0.935   0.043  0.00  0.00     0.234 A 
ENDROOT
BRANCH   2   7
ATOM      7  C   UNL d   1       1.616  -2.111  -0.103  0.00  0.00     0.022 A 
ATOM      8  C   UNL d   1       2.894  -2.016   0.481  0.00  0.00     0.048 A 
ATOM      9  C   UNL d   1       3.859  -3.009   0.265  0.00  0.00     0.048 A 
ATOM     10 CL   UNL d   1       3.357  -0.714   1.527  0.00  0.00    -0.083 Cl
ATOM     11  C   UNL d   1       3.556  -4.118  -0.519  0.00  0.00     0.035 A 
ATOM     12  C   UNL d   1       2.300  -4.246  -1.094  0.00  0.00     0.025 A 
ATOM     13 CL   UNL d   1       4.741  -5.337  -0.781  0.00  0.00    -0.084 Cl
ATOM     14  C   UNL d   1       1.346  -3.244  -0.896  0.00  0.00     0.018 A 
ENDBRANCH   2   7
BRANCH   1  15
ATOM     15  C   UNL d   1      -1.676  -2.256   0.144  0.00  0.00     0.312 C 
ATOM     16  O   UNL d   1      -1.327  -3.349   0.568  0.00  0.00    -0.258 OA
BRANCH  15  17
ATOM     17  O   UNL d   1      -2.847  -2.028  -0.519  0.00  0.00    -0.317 OA
BRANCH  17  18
ATOM     18  C   UNL d   1      -3.507  -3.206  -1.002  0.00  0.00     0.175 C 
ATOM     19  C   UNL d   1      -2.932  -3.563  -2.362  0.00  0.00     0.034 C 
ENDBRANCH  17  18
ENDBRANCH  15  17
ENDBRANCH   1  15
TORSDOF 4
