REMARK  3 active torsions:
REMARK  status: ('A' for Active; 'I' for Inactive)
REMARK    1  A    between atoms: C_9  and  N_1 
REMARK    2  A    between atoms: C_3  and  C_2 
REMARK    3  A    between atoms: C_10  and  C_8 
ROOT
ATOM      1  N   UNL d   1      -0.144  -1.294  -0.036  0.00  0.00    -0.223 N 
ATOM      2  C   UNL d   1       1.085  -0.635  -0.113  0.00  0.00     0.150 A 
ATOM      3  N   UNL d   1      -1.128  -0.368  -0.045  0.00  0.00     0.001 NA
ATOM      4  N   UNL d   1      -0.528   0.806  -0.111  0.00  0.00    -0.007 NA
ATOM      5  N   UNL d   1       0.828   0.661  -0.159  0.00  0.00    -0.269 N 
ATOM      6  HN  UNL d   1       1.515   1.412  -0.219  1.00  0.00     0.185 HD
ENDROOT
BRANCH   1   7
ATOM      7  C   UNL d   1      -0.453  -2.666   0.146  0.00  0.00     0.071 A 
ATOM      8  C   UNL d   1      -1.563  -3.270  -0.485  0.00  0.00     0.076 A 
ATOM      9  C   UNL d   1      -1.823  -4.628  -0.215  0.00  0.00     0.018 A 
ATOM     10  C   UNL d   1      -0.999  -5.374   0.631  0.00  0.00     0.001 A 
ATOM     11  C   UNL d   1       0.097  -4.773   1.235  0.00  0.00     0.002 A 
ATOM     12  C   UNL d   1       0.365  -3.424   1.004  0.00  0.00     0.032 A 
BRANCH   8  13
ATOM     13  C   UNL d   1      -2.467  -2.602  -1.496  0.00  0.00     0.419 C 
ATOM     14  F   UNL d   1      -1.913  -1.559  -2.169  0.00  0.00    -0.166 F 
ATOM     15  F   UNL d   1      -2.847  -3.469  -2.484  0.00  0.00    -0.166 F 
ATOM     16  F   UNL d   1      -3.631  -2.153  -0.950  0.00  0.00    -0.166 F 
ENDBRANCH   8  13
ENDBRANCH   1   7
BRANCH   2  17
ATOM     17  C   UNL d   1       2.425  -1.235  -0.238  0.00  0.00     0.032 A 
ATOM     18  C   UNL d   1       3.554  -0.694   0.411  0.00  0.00     0.049 A 
ATOM     19  C   UNL d   1       4.818  -1.282   0.271  0.00  0.00     0.048 A 
ATOM     20 CL   UNL d   1       3.464   0.686   1.453  0.00  0.00    -0.083 Cl
ATOM     21  C   UNL d   1       4.971  -2.423  -0.508  0.00  0.00     0.035 A 
ATOM     22  C   UNL d   1       3.878  -2.971  -1.169  0.00  0.00     0.025 A 
ATOM     23 CL   UNL d   1       6.516  -3.163  -0.653  0.00  0.00    -0.084 Cl
ATOM     24  C   UNL d   1       2.621  -2.368  -1.053  0.00  0.00     0.019 A 
ENDBRANCH   2  17
TORSDOF 3
