REMARK  4 active torsions:
REMARK  status: ('A' for Active; 'I' for Inactive)
REMARK    1  A    between atoms: C_9  and  N_1 
REMARK    2  A    between atoms: N_8  and  N_2 
REMARK       I    between atoms: C_7  and  N_8 
REMARK       I    between atoms: N_11  and  C_7 
REMARK    3  A    between atoms: C_16  and  N_11 
REMARK    4  A    between atoms: O_18  and  C_15 
ROOT
ATOM      1  N   UNL d   1      -0.971  -0.943   0.221  0.00  0.00    -0.308 N 
ATOM      2  N   UNL d   1       0.506   1.350   0.170  0.00  0.00    -0.150 NA
ATOM      3  C   UNL d   1      -1.693   0.265   0.321  0.00  0.00     0.240 C 
ATOM      4  C   UNL d   1       1.143   0.246  -0.407  0.00  0.00     0.236 C 
ATOM      5  C   UNL d   1      -0.913   1.503  -0.142  0.00  0.00     0.226 C 
ATOM      6  C   UNL d   1       0.217  -0.943  -0.649  0.00  0.00     0.230 C 
ATOM      7  O   UNL d   1       2.300   0.275  -0.824  0.00  0.00    -0.276 OA
ATOM      8  O   UNL d   1      -2.859   0.383   0.689  0.00  0.00    -0.272 OA
ENDROOT
BRANCH   2   9
ATOM      9  N   UNL d   1       1.246   2.562   0.061  0.00  0.00    -0.264 N 
ATOM     10  C   UNL d   1       1.344   3.514   1.050  0.00  0.00     0.331 C 
ATOM     11  N   UNL d   1       0.484   3.348   2.091  0.00  0.00    -0.337 N 
ATOM     12  O   UNL d   1       2.114   4.458   0.924  0.00  0.00    -0.246 OA
ATOM     13  H   UNL d   1       0.171   2.399   2.231  0.00  0.00     0.164 HD
ATOM     14  H   UNL d   1       2.004   2.568  -0.621  0.00  0.00     0.186 HD
BRANCH  11  15
ATOM     15  C   UNL d   1       0.152   4.332   3.118  0.00  0.00     0.086 C 
ATOM     16  C   UNL d   1      -0.576   5.559   2.541  0.00  0.00     0.025 C 
ATOM     17  C   UNL d   1       0.306   6.774   2.280  0.00  0.00     0.002 C 
ATOM     18  C   UNL d   1       1.149   7.109   3.499  0.00  0.00     0.000 C 
ATOM     19  C   UNL d   1       2.062   5.943   3.849  0.00  0.00     0.002 C 
ATOM     20  C   UNL d   1       1.290   4.649   4.102  0.00  0.00     0.025 C 
ENDBRANCH  11  15
ENDBRANCH   2   9
BRANCH   1  21
ATOM     21  C   UNL d   1      -1.543  -2.222   0.543  0.00  0.00     0.040 A 
ATOM     22  C   UNL d   1      -2.923  -2.471   0.463  0.00  0.00     0.066 A 
ATOM     23  C   UNL d   1      -3.450  -3.736   0.756  0.00  0.00     0.070 A 
ATOM     24  C   UNL d   1      -2.596  -4.762   1.156  0.00  0.00     0.037 A 
ATOM     25  C   UNL d   1      -1.227  -4.534   1.258  0.00  0.00     0.005 A 
ATOM     26  C   UNL d   1      -0.707  -3.276   0.950  0.00  0.00     0.030 A 
BRANCH  23  27
ATOM     27  O   UNL d   1      -4.768  -4.098   0.678  0.00  0.00    -0.356 OA
ATOM     28  C   UNL d   1      -5.686  -3.106   0.234  0.00  0.00     0.210 C 
ENDBRANCH  23  27
ENDBRANCH   1  21
TORSDOF 4
