REMARK  6 active torsions:
REMARK  status: ('A' for Active; 'I' for Inactive)
REMARK    1  A    between atoms: N_15  and  C_4 
REMARK    2  A    between atoms: N_14  and  C_9 
REMARK    3  A    between atoms: S_17  and  C_11 
REMARK    4  A    between atoms: C_19  and  N_15 
REMARK    5  A    between atoms: C_30  and  S_17 
REMARK    6  A    between atoms: C_20  and  C_30 
ROOT
ATOM      1  N   UNL d   1      -1.123   1.357  -0.145  0.00  0.00    -0.175 N 
ATOM      2  HN  UNL d   1      -1.099   2.373  -0.235  1.00  0.00     0.186 HD
ATOM      3  C   UNL d   1       0.011   0.670  -0.118  0.00  0.00     0.138 A 
ATOM      4  C   UNL d   1       1.267  -1.330   0.031  0.00  0.00     0.123 A 
ATOM      5  N   UNL d   1       2.402  -0.617  -0.003  0.00  0.00    -0.322 N 
ATOM      6  HN  UNL d   1       3.314  -1.071   0.037  1.00  0.00     0.169 HD
ATOM      7  N   UNL d   1       1.135   1.369  -0.160  0.00  0.00    -0.322 N 
ATOM      8  HN  UNL d   1       1.116   2.386  -0.240  1.00  0.00     0.169 HD
ATOM      9  C   UNL d   1      -2.297   0.723  -0.056  0.00  0.00     0.681 A 
ATOM     10  C   UNL d   1       0.018  -0.702  -0.025  0.00  0.00     0.069 A 
ATOM     11  C   UNL d   1       2.291   0.708  -0.093  0.00  0.00     0.147 A 
ATOM     12  N   UNL d   1      -2.383  -0.610   0.029  0.00  0.00    -0.201 N 
ATOM     13  HN  UNL d   1      -3.286  -1.082   0.075  1.00  0.00     0.183 HD
ATOM     14  C   UNL d   1      -1.230  -1.300   0.053  0.00  0.00     0.125 A 
ENDROOT
BRANCH   4  15
ATOM     15  N   UNL d   1       1.347  -2.743   0.131  0.00  0.00    -0.342 N 
ATOM     16  H   UNL d   1       0.968  -3.176  -0.705  0.00  0.00     0.167 HD
BRANCH  15  17
ATOM     17  C   UNL d   1       2.437  -3.462   0.671  0.00  0.00     0.033 A 
ATOM     18  C   UNL d   1       3.157  -2.974   1.773  0.00  0.00     0.031 A 
ATOM     19  C   UNL d   1       4.212  -3.702   2.327  0.00  0.00     0.026 A 
ATOM     20  C   UNL d   1       4.547  -4.940   1.791  0.00  0.00     0.034 A 
ATOM     21  C   UNL d   1       3.825  -5.460   0.719  0.00  0.00     0.026 A 
ATOM     22 CL   UNL d   1       5.854  -5.836   2.461  0.00  0.00    -0.084 Cl
ATOM     23  C   UNL d   1       2.765  -4.729   0.170  0.00  0.00     0.031 A 
ENDBRANCH  15  17
ENDBRANCH   4  15
BRANCH  11  24
ATOM     24  S   UNL d   1       3.760   1.699  -0.032  0.00  0.00    -0.090 SA
BRANCH  24  25
ATOM     25  C   UNL d   1       4.946   0.565  -0.809  0.00  0.00     0.108 C 
BRANCH  25  26
ATOM     26  C   UNL d   1       6.277   1.257  -0.909  0.00  0.00    -0.026 C 
ATOM     27  C   UNL d   1       7.410   0.813  -0.350  0.00  0.00     0.007 C 
ENDBRANCH  25  26
ENDBRANCH  24  25
ENDBRANCH  11  24
BRANCH   9  28
ATOM     28  N   UNL d   1      -3.437   1.473   0.030  0.00  0.00    -0.214 N 
ATOM     29  C   UNL d   1      -3.401   2.924  -0.143  0.00  0.00     0.167 C 
ATOM     30  C   UNL d   1      -4.377   3.562   0.858  0.00  0.00     0.188 C 
ATOM     31  O   UNL d   1      -5.704   3.022   0.719  0.00  0.00    -0.388 OA
ATOM     32  C   UNL d   1      -5.693   1.600   0.944  0.00  0.00     0.188 C 
ATOM     33  C   UNL d   1      -4.766   0.873  -0.046  0.00  0.00     0.167 C 
ENDBRANCH   9  28
TORSDOF 6
