REMARK  5 active torsions:
REMARK  status: ('A' for Active; 'I' for Inactive)
REMARK    1  A    between atoms: C_10  and  C_1 
REMARK    2  A    between atoms: N_6  and  C_2 
REMARK    3  A    between atoms: C_7  and  C_3 
REMARK       I    between atoms: C_9  and  N_6 
REMARK       I    between atoms: N_12  and  C_9 
REMARK    4  A    between atoms: O_20  and  C_10 
REMARK    5  A    between atoms: N_11  and  N_12 
ROOT
ATOM      1  C   UNL d   1      -1.293  -0.496  -0.407  0.00  0.00     0.122 C 
ATOM      2  C   UNL d   1      -0.656   0.707  -0.178  0.00  0.00     0.193 C 
ATOM      3  C   UNL d   1      -0.208  -1.407  -0.609  0.00  0.00     0.089 C 
ATOM      4  N   UNL d   1       0.922  -0.719  -0.855  0.00  0.00    -0.257 N 
ATOM      5  HN  UNL d   1       1.800  -1.091  -1.217  1.00  0.00     0.195 HD
ATOM      6  O   UNL d   1       0.650   0.589  -0.519  0.00  0.00    -0.218 OA
ENDROOT
BRANCH   2   7
ATOM      7  N   UNL d   1      -1.135   1.897   0.303  0.00  0.00    -0.285 N 
ATOM      8  C   UNL d   1      -0.430   2.876   0.948  0.00  0.00     0.336 C 
ATOM      9  N   UNL d   1       0.919   2.676   1.144  0.00  0.00    -0.271 N 
ATOM     10  O   UNL d   1      -1.055   3.846   1.381  0.00  0.00    -0.246 OA
ATOM     11  H   UNL d   1       1.360   1.829   0.801  0.00  0.00     0.185 HD
ATOM     12  H   UNL d   1      -2.137   1.993   0.440  0.00  0.00     0.172 HD
BRANCH   9  13
ATOM     13  N   UNL d   1       1.619   3.504   2.048  0.00  0.00    -0.223 NA
ATOM     14  C   UNL d   1       2.243   2.734   3.139  0.00  0.00     0.140 C 
ATOM     15  C   UNL d   1       2.990   3.671   4.100  0.00  0.00     0.183 C 
ATOM     16  O   UNL d   1       3.982   4.440   3.405  0.00  0.00    -0.389 OA
ATOM     17  C   UNL d   1       3.364   5.220   2.371  0.00  0.00     0.183 C 
ATOM     18  C   UNL d   1       2.630   4.324   1.363  0.00  0.00     0.140 C 
ENDBRANCH   9  13
ENDBRANCH   2   7
BRANCH   1  19
ATOM     19  C   UNL d   1      -2.715  -0.680  -0.244  0.00  0.00     0.299 C 
ATOM     20  O   UNL d   1      -3.353  -0.165   0.661  0.00  0.00    -0.259 OA
BRANCH  19  21
ATOM     21  O   UNL d   1      -3.263  -1.325  -1.302  0.00  0.00    -0.322 OA
ATOM     22  C   UNL d   1      -4.690  -1.322  -1.366  0.00  0.00     0.213 C 
ENDBRANCH  19  21
ENDBRANCH   1  19
BRANCH   3  23
ATOM     23  C   UNL d   1      -0.123  -2.843  -0.317  0.00  0.00     0.037 A 
ATOM     24  C   UNL d   1      -0.820  -3.831  -1.028  0.00  0.00     0.048 A 
ATOM     25 CL   UNL d   1      -1.683  -3.514  -2.489  0.00  0.00    -0.083 Cl
ATOM     26  C   UNL d   1      -0.783  -5.174  -0.613  0.00  0.00     0.025 A 
ATOM     27  C   UNL d   1       0.004  -5.567   0.466  0.00  0.00     0.003 A 
ATOM     28  C   UNL d   1       0.760  -4.617   1.139  0.00  0.00     0.025 A 
ATOM     29  C   UNL d   1       0.684  -3.269   0.770  0.00  0.00     0.048 A 
ATOM     30 CL   UNL d   1       1.614  -2.179   1.756  0.00  0.00    -0.083 Cl
ENDBRANCH   3  23
TORSDOF 5
