REMARK  9 active torsions:
REMARK  status: ('A' for Active; 'I' for Inactive)
REMARK    1  A    between atoms: C_20  and  N_1 
REMARK    2  A    between atoms: S_18  and  C_2 
REMARK    3  A    between atoms: C_22  and  C_3 
REMARK    4  A    between atoms: C_10  and  C_19 
REMARK    5  A    between atoms: C_33  and  C_13 
REMARK    6  A    between atoms: C_25  and  S_18 
REMARK    7  A    between atoms: C_19  and  C_25 
REMARK    8  A    between atoms: C_21  and  O_23 
REMARK    9  A    between atoms: O_23  and  C_22 
ROOT
ATOM      1  N   UNL d   1       0.039   0.032  -0.144  0.00  0.00    -0.277 N 
ATOM      2  C   UNL d   1       0.743  -0.975  -0.805  0.00  0.00     0.168 A 
ATOM      3  C   UNL d   1      -1.302  -0.303  -0.381  0.00  0.00     0.129 A 
ATOM      4  N   UNL d   1      -0.085  -1.787  -1.422  0.00  0.00    -0.278 N 
ATOM      5  HN  UNL d   1       0.178  -2.591  -1.993  1.00  0.00     0.189 HD
ATOM      6  N   UNL d   1      -1.353  -1.367  -1.165  0.00  0.00    -0.285 N 
ATOM      7  HN  UNL d   1      -2.205  -1.802  -1.520  1.00  0.00     0.188 HD
ENDROOT
BRANCH   2   8
ATOM      8  S   UNL d   1       2.446  -1.335  -0.645  0.00  0.00    -0.084 SA
BRANCH   8   9
ATOM      9  C   UNL d   1       2.343  -3.061  -0.106  0.00  0.00     0.166 C 
BRANCH   9  10
ATOM     10  C   UNL d   1       3.691  -3.741   0.124  0.00  0.00     0.169 C 
ATOM     11  O   UNL d   1       4.764  -3.185  -0.100  0.00  0.00    -0.291 OA
BRANCH  10  12
ATOM     12  C   UNL d   1       3.661  -5.179   0.619  0.00  0.00     0.017 C 
ATOM     13  C   UNL d   1       2.403  -5.771   0.855  0.00  0.00     0.024 C 
ATOM     14  C   UNL d   1       2.228  -7.106   1.277  0.00  0.00    -0.042 C 
ATOM     15  C   UNL d   1       0.809  -7.595   1.585  0.00  0.00    -0.020 C 
ATOM     16  C   UNL d   1       3.360  -7.929   1.369  0.00  0.00    -0.043 C 
ATOM     17  C   UNL d   1       0.822  -8.977   2.273  0.00  0.00     0.015 C 
ATOM     18  C   UNL d   1       0.003  -7.658   0.270  0.00  0.00     0.020 C 
ATOM     19  C   UNL d   1       0.088  -6.630   2.560  0.00  0.00     0.020 C 
ATOM     20  C   UNL d   1       1.792  -9.934   1.605  0.00  0.00     0.015 C 
ATOM     21  C   UNL d   1       3.255  -9.430   1.674  0.00  0.00    -0.020 C 
ATOM     22  C   UNL d   1       3.837  -9.711   3.076  0.00  0.00     0.020 C 
ATOM     23  C   UNL d   1       4.047 -10.262   0.638  0.00  0.00     0.020 C 
ATOM     24  C   UNL d   1       4.626  -7.328   1.191  0.00  0.00     0.016 C 
ATOM     25  C   UNL d   1       4.801  -5.963   0.859  0.00  0.00    -0.044 C 
BRANCH  25  26
ATOM     26  C   UNL d   1       6.226  -5.454   0.798  0.00  0.00     0.035 C 
ATOM     27  C   UNL d   1       6.871  -5.634  -0.567  0.00  0.00     0.010 C 
ENDBRANCH  25  26
ENDBRANCH  10  12
ENDBRANCH   9  10
ENDBRANCH   8   9
ENDBRANCH   2   8
BRANCH   1  28
ATOM     28  C   UNL d   1       0.582   1.089   0.648  0.00  0.00     0.043 A 
ATOM     29  C   UNL d   1       1.813   1.665   0.297  0.00  0.00     0.030 A 
ATOM     30  C   UNL d   1       2.420   2.618   1.117  0.00  0.00     0.002 A 
ATOM     31  C   UNL d   1       1.786   3.036   2.282  0.00  0.00     0.000 A 
ATOM     32  C   UNL d   1       0.542   2.511   2.616  0.00  0.00     0.002 A 
ATOM     33  C   UNL d   1      -0.061   1.542   1.806  0.00  0.00     0.030 A 
ENDBRANCH   1  28
BRANCH   3  34
ATOM     34  C   UNL d   1      -2.538   0.339   0.155  0.00  0.00     0.254 C 
BRANCH  34  35
ATOM     35  O   UNL d   1      -2.551   1.736  -0.136  0.00  0.00    -0.343 OA
BRANCH  35  36
ATOM     36  C   UNL d   1      -3.639   2.432   0.333  0.00  0.00     0.076 A 
ATOM     37  C   UNL d   1      -3.724   3.778  -0.013  0.00  0.00    -0.018 A 
ATOM     38  C   UNL d   1      -4.779   4.586   0.435  0.00  0.00    -0.043 A 
ATOM     39  C   UNL d   1      -2.777   4.547  -0.877  0.00  0.00     0.042 A 
ATOM     40  C   UNL d   1      -4.653   5.988  -0.068  0.00  0.00     0.040 A 
ATOM     41  C   UNL d   1      -5.789   4.076   1.246  0.00  0.00    -0.055 A 
ATOM     42  C   UNL d   1      -3.371   5.963  -0.908  0.00  0.00     0.009 A 
ATOM     43  C   UNL d   1      -5.720   2.723   1.586  0.00  0.00     0.010 A 
ATOM     44  C   UNL d   1      -6.911   4.939   1.738  0.00  0.00     0.049 C 
ATOM     45  C   UNL d   1      -4.662   1.910   1.135  0.00  0.00     0.038 A 
ENDBRANCH  35  36
ENDBRANCH  34  35
ENDBRANCH   3  34
TORSDOF 9
