REMARK  1 active torsions:
REMARK  status: ('A' for Active; 'I' for Inactive)
REMARK    1  A    between atoms: C_10  and  N_7 
ROOT
ATOM      1  N   UNL d   1       2.281  -0.735   0.316  0.00  0.00    -0.288 N 
ATOM      2  C   UNL d   1       2.376   0.577  -0.077  0.00  0.00     0.232 C 
ATOM      3  C   UNL d   1       1.130  -1.469   0.384  0.00  0.00     0.261 C 
ATOM      4  C   UNL d   1      -0.114  -0.730   0.172  0.00  0.00     0.066 A 
ATOM      5  O   UNL d   1       1.192   1.301  -0.163  0.00  0.00    -0.278 OA
ATOM      6  C   UNL d   1      -0.038   0.640  -0.038  0.00  0.00     0.095 A 
ATOM      7  N   UNL d   1       3.478   1.188  -0.369  0.00  0.00    -0.322 N 
ATOM      8  HN  UNL d   1       3.442   2.178  -0.612  1.00  0.00     0.169 HD
ATOM      9  O   UNL d   1       1.141  -2.679   0.583  0.00  0.00    -0.267 OA
ATOM     10  C   UNL d   1      -1.354  -1.371   0.198  0.00  0.00     0.020 A 
ATOM     11  C   UNL d   1      -1.196   1.401  -0.177  0.00  0.00     0.038 A 
ATOM     12  C   UNL d   1      -2.518  -0.619   0.036  0.00  0.00     0.001 A 
ATOM     13  C   UNL d   1      -2.440   0.767  -0.136  0.00  0.00     0.003 A 
ATOM     14  H   UNL d   1       3.128  -1.261   0.453  0.00  0.00     0.172 HD
ENDROOT
BRANCH   7  15
ATOM     15  C   UNL d   1       4.721   0.536  -0.364  0.00  0.00     0.035 A 
ATOM     16  C   UNL d   1       4.963  -0.639  -1.088  0.00  0.00     0.029 A 
ATOM     17  C   UNL d   1       6.205  -1.275  -1.024  0.00  0.00     0.002 A 
ATOM     18  C   UNL d   1       7.238  -0.706  -0.283  0.00  0.00     0.000 A 
ATOM     19  C   UNL d   1       7.031   0.501   0.383  0.00  0.00     0.002 A 
ATOM     20  C   UNL d   1       5.777   1.115   0.343  0.00  0.00     0.029 A 
ENDBRANCH   7  15
TORSDOF 1
