REMARK  3 active torsions:
REMARK  status: ('A' for Active; 'I' for Inactive)
REMARK    1  A    between atoms: C_4  and  C_2 
REMARK       I    between atoms: N_7  and  C_4 
REMARK    2  A    between atoms: C_15  and  N_7 
REMARK    3  A    between atoms: C_9  and  C_15 
ROOT
ATOM      1  C   UNL d   1      -0.295  -0.595   0.049  0.00  0.00     0.092 A 
ATOM      2  C   UNL d   1      -1.444  -1.375   0.018  0.00  0.00     0.065 A 
ATOM      3  O   UNL d   1       0.990  -1.079   0.097  0.00  0.00    -0.339 OA
ATOM      4  C   UNL d   1      -0.352   0.792   0.048  0.00  0.00    -0.021 A 
ATOM      5  C   UNL d   1       1.859   0.082   0.000  0.00  0.00     0.064 C 
ATOM      6  C   UNL d   1       1.010   1.363   0.140  0.00  0.00     0.079 C 
ATOM      7  C   UNL d   1      -2.677  -0.701  -0.029  0.00  0.00     0.020 A 
ATOM      8  C   UNL d   1      -1.564   1.461   0.011  0.00  0.00     0.010 A 
ATOM      9  C   UNL d   1      -2.735   0.704  -0.033  0.00  0.00     0.002 A 
ATOM     10  C   UNL d   1       2.563   0.017  -1.359  0.00  0.00     0.046 C 
ATOM     11  C   UNL d   1       2.880  -0.034   1.134  0.00  0.00     0.046 C 
ENDROOT
BRANCH   2  12
ATOM     12  C   UNL d   1      -1.439  -2.868   0.035  0.00  0.00     0.254 C 
ATOM     13  N   UNL d   1      -0.215  -3.492   0.097  0.00  0.00    -0.352 N 
ATOM     14  H   UNL d   1       0.627  -2.925   0.080  0.00  0.00     0.163 HD
ATOM     15  O   UNL d   1      -2.497  -3.492  -0.008  0.00  0.00    -0.268 OA
BRANCH  13  16
ATOM     16  C   UNL d   1      -0.095  -4.928   0.045  0.00  0.00     0.169 C 
BRANCH  16  17
ATOM     17  C   UNL d   1       1.349  -5.329   0.067  0.00  0.00     0.000 A 
ATOM     18  S   UNL d   1       2.401  -4.875  -1.211  0.00  0.00    -0.105 SA
ATOM     19  C   UNL d   1       3.721  -5.704  -0.510  0.00  0.00     0.050 A 
ATOM     20  C   UNL d   1       3.376  -6.320   0.671  0.00  0.00     0.008 A 
ATOM     21  C   UNL d   1       2.008  -6.099   1.007  0.00  0.00     0.017 A 
ENDBRANCH  16  17
ENDBRANCH  13  16
ENDBRANCH   2  12
TORSDOF 3
