REMARK  5 active torsions:
REMARK  status: ('A' for Active; 'I' for Inactive)
REMARK    1  A    between atoms: C_2  and  C_1 
REMARK       I    between atoms: N_3  and  C_1 
REMARK    2  A    between atoms: C_6  and  N_3 
REMARK    3  A    between atoms: C_4  and  C_5 
REMARK    4  A    between atoms: S_16  and  C_7 
REMARK    5  A    between atoms: C_24  and  S_16 
ROOT
ATOM      1  C   UNL d   1       0.176   0.945  -0.663  0.00  0.00     0.080 A 
ATOM      2  C   UNL d   1      -1.100   1.471  -0.390  0.00  0.00     0.067 A 
ATOM      3  C   UNL d   1       0.913   1.490  -1.725  0.00  0.00     0.086 A 
ATOM      4  N   UNL d   1       0.442   2.509  -2.492  0.00  0.00    -0.360 N 
ATOM      5  HN  UNL d   1       0.990   2.873  -3.271  1.00  0.00     0.166 HD
ATOM      6  C   UNL d   1      -0.763   3.023  -2.198  0.00  0.00     0.089 A 
ATOM      7  C   UNL d   1      -1.563   2.534  -1.187  0.00  0.00     0.034 A 
ENDROOT
BRANCH   1   8
ATOM      8  C   UNL d   1       0.844   0.007   0.260  0.00  0.00     0.259 C 
ATOM      9  N   UNL d   1       0.292  -1.258   0.359  0.00  0.00    -0.322 N 
ATOM     10  H   UNL d   1      -0.292  -1.547  -0.411  0.00  0.00     0.169 HD
ATOM     11  O   UNL d   1       1.827   0.440   0.845  0.00  0.00    -0.267 OA
BRANCH   9  12
ATOM     12  C   UNL d   1       0.680  -2.267   1.287  0.00  0.00     0.046 C 
ATOM     13  C   UNL d   1       1.211  -1.981   2.570  0.00  0.00    -0.035 C 
ATOM     14  C   UNL d   1       1.751  -3.023   3.353  0.00  0.00     0.009 C 
ATOM     15  C   UNL d   1       1.173  -0.637   3.250  0.00  0.00     0.050 C 
ATOM     16  C   UNL d   1       1.682  -4.344   2.935  0.00  0.00     0.001 C 
ATOM     17  C   UNL d   1       1.031  -4.642   1.750  0.00  0.00     0.009 C 
ATOM     18  C   UNL d   1       0.502  -3.627   0.923  0.00  0.00    -0.035 C 
ATOM     19  C   UNL d   1      -0.206  -4.116  -0.314  0.00  0.00     0.050 C 
ENDBRANCH   9  12
ENDBRANCH   1   8
BRANCH   2  20
ATOM     20  C   UNL d   1      -2.027   1.008   0.701  0.00  0.00     0.418 C 
ATOM     21  F   UNL d   1      -1.560   0.062   1.545  0.00  0.00    -0.166 F 
ATOM     22  F   UNL d   1      -2.434   2.039   1.494  0.00  0.00    -0.166 F 
ATOM     23  F   UNL d   1      -3.172   0.486   0.171  0.00  0.00    -0.166 F 
ENDBRANCH   2  20
BRANCH   3  24
ATOM     24  S   UNL d   1       2.475   0.825  -2.292  0.00  0.00    -0.112 SA
BRANCH  24  25
ATOM     25  C   UNL d   1       3.442   2.369  -2.366  0.00  0.00     0.076 C 
ATOM     26  C   UNL d   1       4.804   2.106  -2.986  0.00  0.00     0.016 C 
ENDBRANCH  24  25
ENDBRANCH   3  24
TORSDOF 5
