REMARK  3 active torsions:
REMARK  status: ('A' for Active; 'I' for Inactive)
REMARK    1  A    between atoms: C_3  and  C_1 
REMARK       I    between atoms: N_7  and  C_3 
REMARK    2  A    between atoms: N_5  and  C_10 
REMARK    3  A    between atoms: C_15  and  N_7 
ROOT
ATOM      1  C   UNL d   1      -2.133  -4.737   0.724  0.00  0.00     0.259 C 
ATOM      2  N   UNL d   1      -2.575  -3.712  -0.103  0.00  0.00    -0.323 N 
ATOM      3  O   UNL d   1      -2.864  -5.532   1.302  0.00  0.00    -0.267 OA
ATOM      4  H   UNL d   1      -1.866  -3.212  -0.619  0.00  0.00     0.169 HD
ENDROOT
BRANCH   2   5
ATOM      5  C   UNL d   1      -3.906  -3.251  -0.223  0.00  0.00     0.035 A 
ATOM      6  C   UNL d   1      -4.938  -3.652   0.618  0.00  0.00     0.032 A 
ATOM      7  C   UNL d   1      -6.200  -3.052   0.539  0.00  0.00     0.031 A 
ATOM      8  C   UNL d   1      -6.491  -2.039  -0.385  0.00  0.00     0.030 A 
ATOM      9  C   UNL d   1      -5.474  -1.703  -1.284  0.00  0.00     0.031 A 
ATOM     10  C   UNL d   1      -4.193  -2.288  -1.198  0.00  0.00     0.032 A 
BRANCH   8  11
ATOM     11  N   UNL d   1      -7.754  -1.464  -0.378  0.00  0.00    -0.378 N 
ATOM     12  C   UNL d   1      -8.279  -0.743  -1.543  0.00  0.00     0.153 C 
ATOM     13  C   UNL d   1      -9.830  -0.707  -1.459  0.00  0.00     0.291 C 
ATOM     14  N   UNL d   1     -10.331  -0.105  -0.198  0.00  0.00     0.087 N 
ATOM     15  C   UNL d   1      -9.733  -0.823   0.953  0.00  0.00     0.291 C 
ATOM     16  C   UNL d   1     -11.789  -0.175  -0.136  0.00  0.00     0.310 C 
ATOM     17  C   UNL d   1      -8.189  -0.849   0.898  0.00  0.00     0.153 C 
ENDBRANCH   8  11
ENDBRANCH   2   5
BRANCH   1  18
ATOM     18  C   UNL d   1      -0.667  -4.871   0.947  0.00  0.00     0.066 A 
ATOM     19  C   UNL d   1       0.299  -4.016   0.446  0.00  0.00     0.092 A 
ATOM     20  O   UNL d   1       0.075  -2.957  -0.402  0.00  0.00    -0.339 OA
ATOM     21  C   UNL d   1       1.643  -4.181   0.760  0.00  0.00    -0.021 A 
ATOM     22  C   UNL d   1       1.384  -2.374  -0.674  0.00  0.00     0.064 A 
ATOM     23  C   UNL d   1       1.371  -0.931  -0.162  0.00  0.00     0.046 C 
ATOM     24  C   UNL d   1       1.577  -2.399  -2.192  0.00  0.00     0.046 C 
ATOM     25  C   UNL d   1       2.477  -3.199   0.033  0.00  0.00     0.079 A 
ATOM     26  C   UNL d   1       2.076  -5.184   1.614  0.00  0.00     0.010 A 
ATOM     27  C   UNL d   1       1.132  -6.073   2.112  0.00  0.00     0.002 A 
ATOM     28  C   UNL d   1      -0.226  -5.926   1.774  0.00  0.00     0.020 A 
ENDBRANCH   1  18
TORSDOF 3
