REMARK  5 active torsions:
REMARK  status: ('A' for Active; 'I' for Inactive)
REMARK    1  A    between atoms: C_9  and  C_1 
REMARK    2  A    between atoms: C_17  and  N_2 
REMARK    3  A    between atoms: C_10  and  C_5 
REMARK    4  A    between atoms: C_7  and  C_8 
REMARK       I    between atoms: C_8  and  N_16 
REMARK    5  A    between atoms: N_16  and  C_27 
ROOT
ATOM      1  C   UNL d   1       2.127   1.361   0.186  0.00  0.00     0.057 A 
ATOM      2  C   UNL d   1       3.181   0.977  -0.646  0.00  0.00     0.034 A 
ATOM      3  C   UNL d   1       2.247   2.538   0.933  0.00  0.00     0.034 A 
ATOM      4  C   UNL d   1       4.462   2.949   0.024  0.00  0.00     0.035 A 
ATOM      5  C   UNL d   1       3.407   3.315   0.862  0.00  0.00     0.032 A 
ATOM      6  C   UNL d   1       4.346   1.763  -0.713  0.00  0.00     0.032 A 
ENDROOT
BRANCH   1   7
ATOM      7  N   UNL d   1       0.903   0.633   0.261  0.00  0.00    -0.251 N 
ATOM      8  C   UNL d   1       0.619  -0.700   0.049  0.00  0.00     0.142 C 
ATOM      9  C   UNL d   1      -0.760  -0.800   0.010  0.00  0.00     0.072 C 
ATOM     10  C   UNL d   1      -1.253   0.482   0.328  0.00  0.00     0.134 C 
ATOM     11  N   UNL d   1      -0.233   1.324   0.559  0.00  0.00    -0.289 N 
ATOM     12  HN  UNL d   1      -0.296   2.287   0.892  1.00  0.00     0.187 HD
BRANCH   8  13
ATOM     13  C   UNL d   1       1.611  -1.781  -0.026  0.00  0.00     0.434 C 
ATOM     14  F   UNL d   1       2.842  -1.461   0.434  0.00  0.00    -0.165 F 
ATOM     15  F   UNL d   1       1.207  -2.853   0.708  0.00  0.00    -0.165 F 
ATOM     16  F   UNL d   1       1.761  -2.222  -1.300  0.00  0.00    -0.165 F 
ENDBRANCH   8  13
BRANCH  10  17
ATOM     17  C   UNL d   1      -2.704   0.877   0.446  0.00  0.00     0.434 C 
ATOM     18  F   UNL d   1      -2.896   2.185   0.754  0.00  0.00    -0.165 F 
ATOM     19  F   UNL d   1      -3.374   0.645  -0.716  0.00  0.00    -0.165 F 
ATOM     20  F   UNL d   1      -3.339   0.148   1.405  0.00  0.00    -0.165 F 
ENDBRANCH  10  17
ENDBRANCH   1   7
BRANCH   4  21
ATOM     21  N   UNL d   1       5.623   3.728  -0.168  0.00  0.00    -0.323 N 
ATOM     22  C   UNL d   1       5.880   4.981   0.379  0.00  0.00     0.260 C 
ATOM     23  O   UNL d   1       5.183   5.539   1.218  0.00  0.00    -0.267 OA
ATOM     24  H   UNL d   1       6.332   3.333  -0.767  0.00  0.00     0.169 HD
BRANCH  22  25
ATOM     25  C   UNL d   1       7.104   5.620  -0.077  0.00  0.00     0.087 A 
ATOM     26  C   UNL d   1       7.764   5.542  -1.288  0.00  0.00     0.090 A 
ATOM     27  O   UNL d   1       8.858   6.354  -1.255  0.00  0.00    -0.242 OA
ATOM     28  C   UNL d   1       7.532   4.876  -2.586  0.00  0.00     0.080 C 
ATOM     29  N   UNL d   1       8.922   7.007  -0.045  0.00  0.00    -0.265 N 
ATOM     30  C   UNL d   1       7.855   6.592   0.648  0.00  0.00     0.047 A 
ATOM     31  HN  UNL d   1       9.634   7.671   0.260  1.00  0.00     0.194 HD
ATOM     32  C   UNL d   1       7.579   7.144   1.996  0.00  0.00     0.071 C 
ENDBRANCH  22  25
ENDBRANCH   4  21
TORSDOF 5
