REMARK  7 active torsions:
REMARK  status: ('A' for Active; 'I' for Inactive)
REMARK    1  A    between atoms: N_7  and  C_1 
REMARK    2  A    between atoms: C_5  and  C_11 
REMARK    3  A    between atoms: C_6  and  C_10 
REMARK    4  A    between atoms: C_16  and  N_7 
REMARK    5  A    between atoms: C_12  and  C_9 
REMARK    6  A    between atoms: C_13  and  C_12 
REMARK       I    between atoms: N_17  and  C_13 
REMARK    7  A    between atoms: C_15  and  N_17 
ROOT
ATOM      1  C   UNL d   1      -2.590  -2.509   1.204  0.00  0.00     0.223 C 
ATOM      2  N   UNL d   1      -1.690  -3.428   0.696  0.00  0.00    -0.327 N 
ATOM      3  O   UNL d   1      -3.758  -2.767   1.497  0.00  0.00    -0.273 OA
ATOM      4  H   UNL d   1      -0.701  -3.192   0.734  0.00  0.00     0.169 HD
ENDROOT
BRANCH   1   5
ATOM      5  C   UNL d   1      -2.082  -1.075   1.441  0.00  0.00     0.128 C 
BRANCH   5   6
ATOM      6  C   UNL d   1      -0.870  -0.659   0.623  0.00  0.00     0.156 C 
ATOM      7  S   UNL d   1      -0.564   1.141   0.426  0.00  0.00    -0.079 SA
ATOM      8  C   UNL d   1       1.161   0.864   0.505  0.00  0.00     0.148 C 
ATOM      9  N   UNL d   1       1.388  -0.204   1.305  0.00  0.00    -0.306 N 
ATOM     10  C   UNL d   1       0.404  -1.141   1.296  0.00  0.00     0.238 C 
ATOM     11  H   UNL d   1       2.320  -0.520   1.519  0.00  0.00     0.171 HD
ATOM     12  O   UNL d   1       0.587  -2.300   1.645  0.00  0.00    -0.272 OA
BRANCH   8  13
ATOM     13  N   UNL d   1       2.028   1.540  -0.164  0.00  0.00    -0.335 N 
ATOM     14  HN  UNL d   1       1.737   2.368  -0.684  1.00  0.00     0.168 HD
BRANCH  13  15
ATOM     15  C   UNL d   1       3.387   1.135  -0.179  0.00  0.00     0.056 C 
ATOM     16  C   UNL d   1       3.837  -0.150  -0.561  0.00  0.00     0.060 C 
ATOM     17 CL   UNL d   1       2.775  -1.341  -1.238  0.00  0.00    -0.082 Cl
ATOM     18  C   UNL d   1       5.180  -0.516  -0.419  0.00  0.00     0.026 C 
ATOM     19  C   UNL d   1       6.117   0.428  -0.010  0.00  0.00     0.002 C 
ATOM     20  C   UNL d   1       5.712   1.737   0.243  0.00  0.00     0.002 C 
ATOM     21  C   UNL d   1       4.357   2.082   0.172  0.00  0.00     0.031 C 
ENDBRANCH  13  15
ENDBRANCH   8  13
ENDBRANCH   5   6
ENDBRANCH   1   5
BRANCH   2  22
ATOM     22  C   UNL d   1      -1.952  -4.740   0.230  0.00  0.00     0.036 A 
ATOM     23  C   UNL d   1      -3.203  -5.354   0.292  0.00  0.00     0.045 A 
ATOM     24  C   UNL d   1      -3.402  -6.653  -0.214  0.00  0.00     0.050 A 
ATOM     25  C   UNL d   1      -2.333  -7.323  -0.821  0.00  0.00     0.032 A 
ATOM     26  C   UNL d   1      -1.072  -6.721  -0.920  0.00  0.00     0.050 A 
ATOM     27  C   UNL d   1      -0.887  -5.440  -0.360  0.00  0.00     0.045 A 
BRANCH  24  28
ATOM     28  C   UNL d   1      -4.763  -7.298  -0.092  0.00  0.00     0.417 C 
ATOM     29  F   UNL d   1      -4.836  -8.515  -0.703  0.00  0.00    -0.166 F 
ATOM     30  F   UNL d   1      -5.124  -7.513   1.202  0.00  0.00    -0.166 F 
ATOM     31  F   UNL d   1      -5.753  -6.546  -0.645  0.00  0.00    -0.166 F 
ENDBRANCH  24  28
BRANCH  26  32
ATOM     32  C   UNL d   1       0.066  -7.419  -1.627  0.00  0.00     0.417 C 
ATOM     33  F   UNL d   1      -0.323  -8.535  -2.305  0.00  0.00    -0.166 F 
ATOM     34  F   UNL d   1       0.672  -6.620  -2.550  0.00  0.00    -0.166 F 
ATOM     35  F   UNL d   1       1.047  -7.821  -0.775  0.00  0.00    -0.166 F 
ENDBRANCH  26  32
ENDBRANCH   2  22
TORSDOF 7
