REMARK  4 active torsions:
REMARK  status: ('A' for Active; 'I' for Inactive)
REMARK    1  A    between atoms: C_8  and  N_1 
REMARK    2  A    between atoms: C_7  and  C_2 
REMARK    3  A    between atoms: N_12  and  C_9 
REMARK    4  A    between atoms: C_13  and  N_12 
ROOT
ATOM      1  N   UNL d   1       3.754   0.660   0.073  0.00  0.00    -0.225 N 
ATOM      2  C   UNL d   1       3.651  -0.730  -0.013  0.00  0.00     0.139 C 
ATOM      3  N   UNL d   1       5.728  -0.159  -0.061  0.00  0.00    -0.007 NA
ATOM      4  N   UNL d   1       5.061   0.985  -0.090  0.00  0.00     0.001 NA
ATOM      5  N   UNL d   1       4.877  -1.226   0.000  0.00  0.00    -0.270 N 
ATOM      6  HN  UNL d   1       5.136  -2.211   0.047  1.00  0.00     0.185 HD
ENDROOT
BRANCH   2   7
ATOM      7  C   UNL d   1       2.410  -1.379  -0.220  0.00  0.00     0.068 C 
ATOM      8  C   UNL d   1       2.169  -2.650   0.122  0.00  0.00     0.092 C 
BRANCH   8   9
ATOM      9  N   UNL d   1       2.985  -3.582   0.706  0.00  0.00    -0.366 N 
ATOM     10  H   UNL d   1       3.965  -3.318   0.798  0.00  0.00     0.165 HD
BRANCH   9  11
ATOM     11  C   UNL d   1       2.649  -4.897   1.079  0.00  0.00     0.031 A 
ATOM     12  C   UNL d   1       3.667  -5.852   1.215  0.00  0.00     0.031 A 
ATOM     13  C   UNL d   1       3.370  -7.191   1.502  0.00  0.00     0.021 A 
ATOM     14  C   UNL d   1       2.046  -7.588   1.657  0.00  0.00     0.011 A 
ATOM     15  C   UNL d   1       1.019  -6.658   1.541  0.00  0.00     0.021 A 
ATOM     16 BR   UNL d   1       1.636  -9.398   2.017  0.00  0.00    -0.051 Br
ATOM     17  C   UNL d   1       1.323  -5.324   1.252  0.00  0.00     0.031 A 
ENDBRANCH   9  11
ENDBRANCH   8   9
ENDBRANCH   2   7
BRANCH   1  18
ATOM     18  C   UNL d   1       2.784   1.667   0.337  0.00  0.00     0.056 A 
ATOM     19  C   UNL d   1       1.589   1.370   1.012  0.00  0.00     0.034 A 
ATOM     20  C   UNL d   1       0.665   2.384   1.283  0.00  0.00     0.044 A 
ATOM     21  C   UNL d   1       0.935   3.688   0.886  0.00  0.00     0.116 A 
ATOM     22  C   UNL d   1       2.119   4.003   0.231  0.00  0.00     0.044 A 
ATOM     23  F   UNL d   1       0.048   4.654   1.152  0.00  0.00    -0.206 F 
ATOM     24  C   UNL d   1       3.053   2.996  -0.035  0.00  0.00     0.034 A 
ENDBRANCH   1  18
TORSDOF 4
