REMARK  6 active torsions:
REMARK  status: ('A' for Active; 'I' for Inactive)
REMARK    1  A    between atoms: N_2  and  C_1 
REMARK    2  A    between atoms: N_8  and  C_1 
REMARK    3  A    between atoms: C_3  and  N_2 
REMARK    4  A    between atoms: C_13  and  N_8 
REMARK    5  A    between atoms: O_11  and  C_14 
REMARK    6  A    between atoms: C_14  and  C_13 
ROOT
ATOM      1  N   UNL d   1       0.325  -0.919   0.745  0.00  0.00    -0.333 N 
ATOM      2  H   UNL d   1       0.722  -0.004   0.578  0.00  0.00     0.168 HD
ENDROOT
BRANCH   1   3
ATOM      3  C   UNL d   1      -0.889  -1.107   0.140  0.00  0.00     0.172 C 
ATOM      4  S   UNL d   1      -2.269  -1.752   0.826  0.00  0.00    -0.041 SA
BRANCH   3   5
ATOM      5  N   UNL d   1      -0.962  -0.641  -1.148  0.00  0.00    -0.365 N 
ATOM      6  H   UNL d   1      -1.873  -0.810  -1.569  0.00  0.00     0.161 HD
BRANCH   5   7
ATOM      7  C   UNL d   1       0.137  -0.728  -2.109  0.00  0.00     0.148 C 
BRANCH   7   8
ATOM      8  C   UNL d   1       0.208  -2.131  -2.723  0.00  0.00     0.183 C 
BRANCH   8   9
ATOM      9  O   UNL d   1      -0.989  -2.384  -3.458  0.00  0.00    -0.399 OA
ATOM     10  H   UNL d   1      -0.971  -3.321  -3.718  0.00  0.00     0.209 HD
ENDBRANCH   8   9
ENDBRANCH   7   8
ENDBRANCH   5   7
ENDBRANCH   3   5
ENDBRANCH   1   3
BRANCH   1  11
ATOM     11  C   UNL d   1       0.951  -1.718   1.727  0.00  0.00     0.040 A 
ATOM     12  C   UNL d   1       1.864  -1.146   2.631  0.00  0.00    -0.035 A 
ATOM     13  C   UNL d   1       2.611  -1.992   3.473  0.00  0.00     0.015 A 
ATOM     14  C   UNL d   1       2.092   0.336   2.752  0.00  0.00     0.050 C 
ATOM     15  C   UNL d   1       2.447  -3.382   3.444  0.00  0.00    -0.061 A 
ATOM     16  C   UNL d   1       1.513  -3.932   2.566  0.00  0.00     0.009 A 
ATOM     17  C   UNL d   1       3.296  -4.261   4.313  0.00  0.00     0.048 C 
ATOM     18  C   UNL d   1       0.774  -3.107   1.716  0.00  0.00     0.030 A 
ENDBRANCH   1  11
TORSDOF 6
