REMARK  4 active torsions:
REMARK  status: ('A' for Active; 'I' for Inactive)
REMARK    1  A    between atoms: C_12  and  C_1 
REMARK    2  A    between atoms: O_8  and  C_3 
REMARK    3  A    between atoms: C_14  and  O_8 
REMARK    4  A    between atoms: C_11  and  C_14 
ROOT
ATOM      1  C   UNL d   1      -1.280   2.567  -0.115  0.00  0.00     0.077 A 
ATOM      2  C   UNL d   1       0.224   2.488   0.019  0.00  0.00     0.262 A 
ATOM      3  C   UNL d   1      -2.003   1.433  -0.293  0.00  0.00     0.098 A 
ATOM      4  N   UNL d   1       0.834   1.249  -0.052  0.00  0.00    -0.312 N 
ATOM      5  C   UNL d   1      -1.309   0.118  -0.231  0.00  0.00     0.026 A 
ATOM      6  C   UNL d   1       0.089   0.051  -0.113  0.00  0.00     0.057 A 
ATOM      7  C   UNL d   1       0.737  -1.195  -0.024  0.00  0.00    -0.030 A 
ATOM      8  C   UNL d   1      -2.042  -1.087  -0.248  0.00  0.00     0.023 A 
ATOM      9  O   UNL d   1       0.877   3.521   0.180  0.00  0.00    -0.267 OA
ATOM     10  C   UNL d   1      -0.022  -2.376  -0.040  0.00  0.00     0.016 A 
ATOM     11  C   UNL d   1      -1.409  -2.333  -0.143  0.00  0.00    -0.060 A 
ATOM     12  C   UNL d   1       2.274   1.212   0.163  0.00  0.00     0.133 C 
ATOM     13  C   UNL d   1       2.221  -1.305   0.187  0.00  0.00     0.042 C 
ATOM     14  C   UNL d   1       2.968  -0.068  -0.266  0.00  0.00     0.025 C 
ATOM     15  C   UNL d   1      -2.201  -3.608  -0.120  0.00  0.00     0.048 C 
ENDROOT
BRANCH   3  16
ATOM     16  O   UNL d   1      -3.360   1.283  -0.486  0.00  0.00    -0.345 OA
BRANCH  16  17
ATOM     17  C   UNL d   1      -4.235   2.279  -1.008  0.00  0.00     0.215 C 
BRANCH  17  18
ATOM     18  C   UNL d   1      -4.836   1.904  -2.355  0.00  0.00    -0.028 A 
ATOM     19  C   UNL d   1      -6.035   2.501  -2.805  0.00  0.00    -0.054 A 
ATOM     20  C   UNL d   1      -6.530   2.178  -4.079  0.00  0.00     0.008 A 
ATOM     21  C   UNL d   1      -6.834   3.455  -1.958  0.00  0.00     0.049 C 
ATOM     22  C   UNL d   1      -5.829   1.320  -4.925  0.00  0.00     0.007 A 
ATOM     23  C   UNL d   1      -4.623   0.754  -4.510  0.00  0.00    -0.061 A 
ATOM     24  C   UNL d   1      -4.137   1.050  -3.229  0.00  0.00     0.016 A 
ATOM     25  C   UNL d   1      -3.849  -0.124  -5.447  0.00  0.00     0.048 C 
ENDBRANCH  17  18
ENDBRANCH  16  17
ENDBRANCH   3  16
BRANCH   1  26
ATOM     26  C   UNL d   1      -1.839   3.926   0.030  0.00  0.00    -0.018 A 
ATOM     27  C   UNL d   1      -2.351   4.354   1.264  0.00  0.00     0.012 A 
ATOM     28  C   UNL d   1      -2.816   5.663   1.415  0.00  0.00     0.001 A 
ATOM     29  C   UNL d   1      -2.784   6.545   0.335  0.00  0.00     0.000 A 
ATOM     30  C   UNL d   1      -2.278   6.130  -0.895  0.00  0.00     0.001 A 
ATOM     31  C   UNL d   1      -1.796   4.827  -1.045  0.00  0.00     0.012 A 
ENDBRANCH   1  26
TORSDOF 4
