REMARK  6 active torsions:
REMARK  status: ('A' for Active; 'I' for Inactive)
REMARK    1  A    between atoms: C_6  and  C_2 
REMARK       I    between atoms: C_9  and  N_3 
REMARK    2  A    between atoms: C_15  and  C_9 
REMARK    3  A    between atoms: C_12  and  S_13 
REMARK    4  A    between atoms: S_13  and  C_15 
REMARK    5  A    between atoms: O_24  and  C_16 
REMARK    6  A    between atoms: O_26  and  C_22 
ROOT
ATOM      1  C   UNL d   1       1.043  -0.723   0.166  0.00  0.00     0.049 A 
ATOM      2  C   UNL d   1       2.463  -1.240   0.260  0.00  0.00     0.245 C 
ATOM      3  N   UNL d   1       3.378  -0.136  -0.177  0.00  0.00    -0.333 N 
ATOM      4  C   UNL d   1       0.631   0.587   0.002  0.00  0.00    -0.019 A 
ATOM      5  N   UNL d   1      -0.080  -1.504   0.232  0.00  0.00    -0.356 N 
ATOM      6  C   UNL d   1      -0.793   0.607   0.013  0.00  0.00    -0.001 A 
ATOM      7  C   UNL d   1      -1.212  -0.720   0.131  0.00  0.00     0.043 A 
ATOM      8  C   UNL d   1       4.673  -0.332  -0.680  0.00  0.00     0.230 C 
ATOM      9  C   UNL d   1       3.019   1.232   0.274  0.00  0.00     0.131 C 
ATOM     10  C   UNL d   1       1.618   1.689  -0.174  0.00  0.00     0.061 C 
ATOM     11  O   UNL d   1       5.369   0.640  -0.994  0.00  0.00    -0.273 OA
ATOM     12  C   UNL d   1      -1.778   1.611  -0.081  0.00  0.00     0.014 A 
ATOM     13  C   UNL d   1      -2.563  -1.094   0.134  0.00  0.00     0.030 A 
ATOM     14  C   UNL d   1      -3.135   1.254  -0.066  0.00  0.00     0.001 A 
ATOM     15  C   UNL d   1      -3.518  -0.081   0.031  0.00  0.00     0.002 A 
ATOM     16  H   UNL d   1      -0.112  -2.509   0.343  0.00  0.00     0.166 HD
ENDROOT
BRANCH   2  17
ATOM     17  C   UNL d   1       2.813  -1.844   1.655  0.00  0.00     0.413 C 
ATOM     18  F   UNL d   1       1.777  -1.832   2.523  0.00  0.00    -0.168 F 
ATOM     19  F   UNL d   1       3.186  -3.141   1.506  0.00  0.00    -0.168 F 
ATOM     20  F   UNL d   1       3.847  -1.204   2.247  0.00  0.00    -0.168 F 
ENDBRANCH   2  17
BRANCH   8  21
ATOM     21  C   UNL d   1       5.197  -1.771  -0.806  0.00  0.00     0.182 C 
BRANCH  21  22
ATOM     22  S   UNL d   1       6.863  -1.841  -1.593  0.00  0.00    -0.118 SA
BRANCH  22  23
ATOM     23  C   UNL d   1       7.186  -3.608  -1.502  0.00  0.00     0.037 A 
ATOM     24  C   UNL d   1       6.329  -4.391  -2.305  0.00  0.00     0.058 A 
ATOM     25  C   UNL d   1       6.322  -5.783  -2.239  0.00  0.00     0.069 A 
ATOM     26  C   UNL d   1       7.250  -6.421  -1.423  0.00  0.00     0.039 A 
ATOM     27  C   UNL d   1       8.170  -5.667  -0.698  0.00  0.00     0.041 A 
ATOM     28  C   UNL d   1       8.155  -4.260  -0.719  0.00  0.00     0.085 A 
BRANCH  25  29
ATOM     29  O   UNL d   1       5.457  -6.609  -2.898  0.00  0.00    -0.356 OA
ATOM     30  C   UNL d   1       4.436  -5.976  -3.661  0.00  0.00     0.210 C 
ENDBRANCH  25  29
BRANCH  28  31
ATOM     31  O   UNL d   1       9.137  -3.765   0.091  0.00  0.00    -0.355 OA
ATOM     32  C   UNL d   1       9.351  -2.372   0.209  0.00  0.00     0.210 C 
ENDBRANCH  28  31
ENDBRANCH  22  23
ENDBRANCH  21  22
ENDBRANCH   8  21
TORSDOF 6
