REMARK  3 active torsions:
REMARK  status: ('A' for Active; 'I' for Inactive)
REMARK    1  A    between atoms: S_9  and  C_3 
REMARK    2  A    between atoms: C_15  and  S_9 
REMARK    3  A    between atoms: C_11  and  C_15 
ROOT
ATOM      1  N   UNL d   1       0.546   0.731   0.027  0.00  0.00    -0.159 N 
ATOM      2  C   UNL d   1       0.328  -0.620   0.082  0.00  0.00     0.697 A 
ATOM      3  C   UNL d   1       1.894   0.890  -0.055  0.00  0.00     0.177 A 
ATOM      4  N   UNL d   1       1.482  -1.244   0.070  0.00  0.00    -0.130 N 
ATOM      5  HN  UNL d   1       1.621  -2.253   0.119  1.00  0.00     0.205 HD
ATOM      6  N   UNL d   1       2.477  -0.287  -0.023  0.00  0.00    -0.265 N 
ATOM      7  HN  UNL d   1       3.481  -0.463  -0.059  1.00  0.00     0.189 HD
ATOM      8  N   UNL d   1      -0.928  -1.115   0.131  0.00  0.00    -0.225 N 
ATOM      9  C   UNL d   1      -0.512   1.712  -0.058  0.00  0.00     0.151 C 
ATOM     10  C   UNL d   1      -1.872   1.119   0.311  0.00  0.00     0.041 C 
ATOM     11  C   UNL d   1      -2.029  -0.271  -0.301  0.00  0.00     0.139 C 
ATOM     12  H   UNL d   1      -1.021  -2.110  -0.058  0.00  0.00     0.177 HD
ENDROOT
BRANCH   3  13
ATOM     13  S   UNL d   1       2.662   2.428  -0.210  0.00  0.00    -0.088 SA
BRANCH  13  14
ATOM     14  C   UNL d   1       4.220   1.932  -0.999  0.00  0.00     0.108 C 
BRANCH  14  15
ATOM     15  C   UNL d   1       5.077   3.150  -1.191  0.00  0.00    -0.026 C 
ATOM     16  C   UNL d   1       5.467   3.628  -2.381  0.00  0.00     0.007 C 
ENDBRANCH  14  15
ENDBRANCH  13  14
ENDBRANCH   3  13
TORSDOF 3
