REMARK  4 active torsions:
REMARK  status: ('A' for Active; 'I' for Inactive)
REMARK    1  A    between atoms: C_8  and  N_1 
REMARK    2  A    between atoms: S_13  and  C_2 
REMARK    3  A    between atoms: C_21  and  S_13 
REMARK    4  A    between atoms: C_17  and  C_21 
ROOT
ATOM      1  N   UNL d   1       2.441  -0.739  -0.108  0.00  0.00    -0.258 N 
ATOM      2  C   UNL d   1       2.416   0.655  -0.108  0.00  0.00     0.155 A 
ATOM      3  C   UNL d   1       1.237  -1.463  -0.058  0.00  0.00     0.270 A 
ATOM      4  N   UNL d   1       1.327   1.355  -0.098  0.00  0.00    -0.335 N 
ATOM      5  HN  UNL d   1       1.368   2.374  -0.102  1.00  0.00     0.168 HD
ATOM      6  C   UNL d   1      -0.008  -0.689  -0.059  0.00  0.00     0.098 A 
ATOM      7  C   UNL d   1       0.094   0.697  -0.082  0.00  0.00     0.053 A 
ATOM      8  O   UNL d   1       1.158  -2.688   0.025  0.00  0.00    -0.266 OA
ATOM      9  C   UNL d   1      -1.262  -1.303  -0.027  0.00  0.00     0.134 A 
ATOM     10  F   UNL d   1      -1.393  -2.637   0.002  0.00  0.00    -0.205 F 
ATOM     11  C   UNL d   1      -1.079   1.461  -0.085  0.00  0.00     0.031 A 
ATOM     12  C   UNL d   1      -2.335   0.848  -0.058  0.00  0.00     0.005 A 
ATOM     13  C   UNL d   1      -2.424  -0.540  -0.025  0.00  0.00     0.043 A 
ENDROOT
BRANCH   1  14
ATOM     14  C   UNL d   1       3.636  -1.527  -0.101  0.00  0.00     0.045 A 
ATOM     15  C   UNL d   1       3.773  -2.563  -1.040  0.00  0.00     0.037 A 
ATOM     16  C   UNL d   1       4.850  -3.458  -1.000  0.00  0.00    -0.054 A 
ATOM     17  C   UNL d   1       4.902  -4.577  -2.005  0.00  0.00     0.049 C 
ATOM     18  C   UNL d   1       5.819  -3.314   0.007  0.00  0.00    -0.056 A 
ATOM     19  C   UNL d   1       5.704  -2.257   0.925  0.00  0.00     0.009 A 
ATOM     20  C   UNL d   1       6.944  -4.301   0.148  0.00  0.00     0.049 C 
ATOM     21  C   UNL d   1       4.622  -1.372   0.875  0.00  0.00     0.031 A 
ENDBRANCH   1  14
BRANCH   2  22
ATOM     22  S   UNL d   1       3.895   1.601  -0.159  0.00  0.00    -0.089 SA
BRANCH  22  23
ATOM     23  C   UNL d   1       4.410   1.297  -1.868  0.00  0.00     0.108 C 
BRANCH  23  24
ATOM     24  C   UNL d   1       5.561   2.200  -2.204  0.00  0.00    -0.026 C 
ATOM     25  C   UNL d   1       5.600   3.020  -3.263  0.00  0.00     0.007 C 
ENDBRANCH  23  24
ENDBRANCH  22  23
ENDBRANCH   2  22
TORSDOF 4
