REMARK  0 active torsions:
REMARK  status: ('A' for Active; 'I' for Inactive)
ROOT
ATOM      1  C   UNL d   1       0.518  -3.051  -3.822  0.00  0.00    -0.027 A 
ATOM      2  C   UNL d   1       1.307  -4.279  -4.271  0.00  0.00    -0.025 A 
ATOM      3  C   UNL d   1       0.660  -4.268  -2.908  0.00  0.00     0.021 A 
ATOM      4  C   UNL d   1      -2.718  -2.239  -6.814  0.00  0.00     0.021 C 
ATOM      5  C   UNL d   1      -0.930  -2.827  -4.345  0.00  0.00    -0.001 C 
ATOM      6  C   UNL d   1      -2.019  -3.619  -6.655  0.00  0.00     0.006 C 
ATOM      7  C   UNL d   1      -1.570  -3.986  -5.195  0.00  0.00    -0.004 C 
ATOM      8  C   UNL d   1      -4.140  -2.643  -7.148  0.00  0.00     0.135 C 
ATOM      9  C   UNL d   1       1.265  -1.831  -3.265  0.00  0.00     0.018 C 
ATOM     10  C   UNL d   1      -2.585  -1.372  -5.569  0.00  0.00     0.018 C 
ATOM     11  C   UNL d   1      -1.164  -1.466  -5.019  0.00  0.00     0.007 C 
ATOM     12  C   UNL d   1       2.821  -4.240  -4.293  0.00  0.00     0.088 C 
ATOM     13  C   UNL d   1       0.714  -5.108  -5.377  0.00  0.00     0.011 C 
ATOM     14  C   UNL d   1      -0.782  -5.314  -5.218  0.00  0.00     0.006 C 
ATOM     15  C   UNL d   1      -3.045  -4.678  -7.157  0.00  0.00     0.013 C 
ATOM     16  C   UNL d   1       3.382  -3.171  -3.393  0.00  0.00     0.127 C 
ATOM     17  C   UNL d   1      -4.166  -3.954  -7.875  0.00  0.00     0.079 C 
ATOM     18  O   UNL d   1      -5.133  -1.943  -6.964  0.00  0.00    -0.297 OA
ATOM     19  O   UNL d   1       4.336  -3.376  -2.639  0.00  0.00    -0.298 OA
ATOM     20  C   UNL d   1       2.765  -1.808  -3.545  0.00  0.00     0.079 C 
ATOM     21  C   UNL d   1      -2.211  -1.470  -8.050  0.00  0.00     0.024 C 
ENDROOT
TORSDOF 0
