REMARK  4 active torsions:
REMARK  status: ('A' for Active; 'I' for Inactive)
REMARK    1  A    between atoms: N_2  and  C_1 
REMARK    2  A    between atoms: C_6  and  C_1 
REMARK    3  A    between atoms: C_8  and  N_2 
REMARK    4  A    between atoms: C_7  and  C_8 
ROOT
ATOM      1  N   UNL d   1       0.304  -1.254  -0.190  0.00  0.00    -0.376 N 
ATOM      2  H   UNL d   1      -0.657  -1.198  -0.513  0.00  0.00     0.160 HD
ENDROOT
BRANCH   1   3
ATOM      3  C   UNL d   1       0.892  -0.029   0.025  0.00  0.00     0.107 C 
ATOM      4  S   UNL d   1      -0.028   1.328  -0.340  0.00  0.00    -0.060 SA
BRANCH   3   5
ATOM      5  C   UNL d   1       2.271   0.055   0.573  0.00  0.00     0.002 A 
ATOM      6  C   UNL d   1       3.232   0.869  -0.044  0.00  0.00     0.014 A 
ATOM      7  C   UNL d   1       4.501   1.011   0.521  0.00  0.00     0.001 A 
ATOM      8  C   UNL d   1       4.819   0.336   1.700  0.00  0.00     0.000 A 
ATOM      9  C   UNL d   1       3.868  -0.475   2.318  0.00  0.00     0.001 A 
ATOM     10  C   UNL d   1       2.593  -0.608   1.763  0.00  0.00     0.014 A 
ENDBRANCH   3   5
ENDBRANCH   1   3
BRANCH   1  11
ATOM     11  C   UNL d   1       0.899  -2.579  -0.135  0.00  0.00     0.160 C 
BRANCH  11  12
ATOM     12  C   UNL d   1       0.047  -3.580  -0.862  0.00  0.00    -0.025 A 
ATOM     13  C   UNL d   1      -0.504  -4.676  -0.203  0.00  0.00     0.096 A 
ATOM     14  N   UNL d   1      -1.290  -5.603  -0.796  0.00  0.00    -0.375 N 
ATOM     15  C   UNL d   1      -1.547  -5.433  -2.113  0.00  0.00     0.087 A 
ATOM     16  HN  UNL d   1      -1.672  -6.392  -0.275  1.00  0.00     0.164 HD
ATOM     17  C   UNL d   1      -1.045  -4.382  -2.862  0.00  0.00     0.018 A 
ATOM     18  C   UNL d   1      -0.234  -3.447  -2.226  0.00  0.00     0.011 A 
ENDBRANCH  11  12
ENDBRANCH   1  11
TORSDOF 4
