REMARK  6 active torsions:
REMARK  status: ('A' for Active; 'I' for Inactive)
REMARK    1  A    between atoms: C_3  and  S_1 
REMARK    2  A    between atoms: N_9  and  S_1 
REMARK    3  A    between atoms: C_5  and  C_2 
REMARK    4  A    between atoms: N_10  and  C_6 
REMARK    5  A    between atoms: C_18  and  N_9 
REMARK    6  A    between atoms: C_12  and  C_18 
ROOT
ATOM      1  S   UNL d   1       1.014  -0.062  -0.135  0.00  0.00     0.260 S 
ATOM      2  O   UNL d   1       1.429  -1.401   0.234  0.00  0.00    -0.200 OA
ATOM      3  O   UNL d   1       0.002   0.653   0.604  0.00  0.00    -0.200 OA
ENDROOT
BRANCH   1   4
ATOM      4  C   UNL d   1       0.489  -0.139  -1.814  0.00  0.00     0.095 A 
ATOM      5  C   UNL d   1       0.043   0.988  -2.470  0.00  0.00     0.115 A 
ATOM      6  N   UNL d   1      -0.457   0.979  -3.736  0.00  0.00    -0.351 N 
ATOM      7  C   UNL d   1      -0.566  -0.200  -4.389  0.00  0.00     0.103 A 
ATOM      8  HN  UNL d   1      -0.745   1.848  -4.186  1.00  0.00     0.166 HD
ATOM      9  C   UNL d   1      -0.159  -1.381  -3.764  0.00  0.00     0.050 A 
ATOM     10  C   UNL d   1       0.375  -1.356  -2.472  0.00  0.00     0.030 A 
BRANCH   7  11
ATOM     11  N   UNL d   1      -1.140  -0.222  -5.639  0.00  0.00    -0.363 N 
ATOM     12  C   UNL d   1      -1.995   0.885  -6.087  0.00  0.00     0.150 C 
ATOM     13  C   UNL d   1      -1.397   1.578  -7.318  0.00  0.00     0.187 C 
ATOM     14  O   UNL d   1      -1.105   0.635  -8.364  0.00  0.00    -0.388 OA
ATOM     15  C   UNL d   1      -0.155  -0.335  -7.899  0.00  0.00     0.187 C 
ATOM     16  C   UNL d   1      -0.691  -1.131  -6.698  0.00  0.00     0.150 C 
ENDBRANCH   7  11
ENDBRANCH   1   4
BRANCH   1  17
ATOM     17  N   UNL d   1       2.420   0.864  -0.149  0.00  0.00    -0.311 N 
ATOM     18  H   UNL d   1       3.116   0.553  -0.827  0.00  0.00     0.172 HD
BRANCH  17  19
ATOM     19  C   UNL d   1       2.264   2.315  -0.023  0.00  0.00     0.178 C 
BRANCH  19  20
ATOM     20  C   UNL d   1       3.613   2.964  -0.050  0.00  0.00     0.002 A 
ATOM     21  S   UNL d   1       4.557   2.915  -1.477  0.00  0.00    -0.092 SA
ATOM     22  C   UNL d   1       5.809   3.869  -0.788  0.00  0.00     0.022 A 
ATOM     23  C   UNL d   1       5.495   4.218   0.513  0.00  0.00     0.021 A 
ATOM     24  C   UNL d   1       4.239   3.692   0.941  0.00  0.00     0.018 A 
BRANCH  22  25
ATOM     25  C   UNL d   1       6.996   4.198  -1.545  0.00  0.00     0.021 A 
ATOM     26  S   UNL d   1       8.495   4.534  -0.774  0.00  0.00    -0.101 SA
ATOM     27  C   UNL d   1       9.306   4.727  -2.266  0.00  0.00     0.050 A 
ATOM     28  C   UNL d   1       8.458   4.571  -3.337  0.00  0.00     0.008 A 
ATOM     29  C   UNL d   1       7.127   4.275  -2.921  0.00  0.00     0.021 A 
ENDBRANCH  22  25
ENDBRANCH  19  20
ENDBRANCH  17  19
ENDBRANCH   1  17
TORSDOF 6
