REMARK  1 active torsions:
REMARK  status: ('A' for Active; 'I' for Inactive)
REMARK    1  A    between atoms: C_13  and  N_1 
ROOT
ATOM      1  N   UNL d   1       0.909  -0.696  -0.066  0.00  0.00    -0.306 N 
ATOM      2  C   UNL d   1       0.935   0.669  -0.018  0.00  0.00     0.159 A 
ATOM      3  N   UNL d   1      -0.245   1.226   0.062  0.00  0.00    -0.281 N 
ATOM      4  HN  UNL d   1      -0.465   2.220   0.128  1.00  0.00     0.188 HD
ATOM      5  C   UNL d   1      -0.424  -1.024  -0.034  0.00  0.00     0.194 A 
ATOM      6  N   UNL d   1      -1.115   0.175   0.039  0.00  0.00    -0.274 N 
ATOM      7  C   UNL d   1       2.146   1.444  -0.039  0.00  0.00     0.120 A 
ATOM      8  S   UNL d   1      -1.163  -2.507  -0.050  0.00  0.00    -0.039 SA
ATOM      9  O   UNL d   1       3.247   0.958  -0.692  0.00  0.00    -0.319 OA
ATOM     10  C   UNL d   1       2.442   2.693   0.474  0.00  0.00     0.043 A 
ATOM     11  C   UNL d   1       4.229   1.887  -0.592  0.00  0.00     0.142 A 
ATOM     12  C   UNL d   1       3.791   2.967   0.134  0.00  0.00     0.027 A 
ATOM     13  H   UNL d   1      -2.120   0.299   0.094  0.00  0.00     0.189 HD
ENDROOT
BRANCH   1  14
ATOM     14  C   UNL d   1       2.046  -1.613   0.014  0.00  0.00     0.129 C 
ATOM     15  C   UNL d   1       2.595  -1.998  -1.350  0.00  0.00     0.027 C 
ENDBRANCH   1  14
TORSDOF 1
