REMARK  6 active torsions:
REMARK  status: ('A' for Active; 'I' for Inactive)
REMARK    1  A    between atoms: C_2  and  C_1 
REMARK       I    between atoms: N_3  and  C_1 
REMARK    2  A    between atoms: C_6  and  N_3 
REMARK    3  A    between atoms: C_16  and  N_3 
REMARK    4  A    between atoms: C_4  and  C_5 
REMARK    5  A    between atoms: O_17  and  C_7 
REMARK    6  A    between atoms: C_25  and  O_17 
ROOT
ATOM      1  C   UNL d   1       0.130  -0.809  -0.912  0.00  0.00     0.098 A 
ATOM      2  C   UNL d   1       0.638  -0.229  -2.092  0.00  0.00     0.069 A 
ATOM      3  C   UNL d   1      -0.922  -1.719  -1.040  0.00  0.00     0.159 A 
ATOM      4  N   UNL d   1      -1.498  -2.030  -2.230  0.00  0.00    -0.346 N 
ATOM      5  HN  UNL d   1      -2.283  -2.679  -2.280  1.00  0.00     0.167 HD
ATOM      6  C   UNL d   1      -1.004  -1.454  -3.340  0.00  0.00     0.091 A 
ATOM      7  C   UNL d   1       0.053  -0.565  -3.324  0.00  0.00     0.034 A 
ENDROOT
BRANCH   1   8
ATOM      8  C   UNL d   1       0.832  -0.585   0.367  0.00  0.00     0.263 C 
ATOM      9  N   UNL d   1       0.198   0.014   1.469  0.00  0.00    -0.313 N 
ATOM     10  O   UNL d   1       2.029  -0.873   0.326  0.00  0.00    -0.267 OA
BRANCH   9  11
ATOM     11  C   UNL d   1       1.032   0.448   2.554  0.00  0.00     0.049 A 
ATOM     12  C   UNL d   1       1.220   1.831   2.795  0.00  0.00    -0.035 A 
ATOM     13  C   UNL d   1       2.008   2.239   3.885  0.00  0.00     0.009 A 
ATOM     14  C   UNL d   1       0.647   2.925   1.934  0.00  0.00     0.050 C 
ATOM     15  C   UNL d   1       2.626   1.307   4.711  0.00  0.00     0.001 A 
ATOM     16  C   UNL d   1       2.454  -0.050   4.466  0.00  0.00     0.009 A 
ATOM     17  C   UNL d   1       1.657  -0.500   3.398  0.00  0.00    -0.035 A 
ATOM     18  C   UNL d   1       1.476  -1.989   3.269  0.00  0.00     0.050 C 
ENDBRANCH   9  11
BRANCH   9  19
ATOM     19  C   UNL d   1      -1.246   0.281   1.628  0.00  0.00     0.128 C 
ATOM     20  C   UNL d   1      -1.839  -0.419   2.850  0.00  0.00     0.027 C 
ENDBRANCH   9  19
ENDBRANCH   1   8
BRANCH   2  21
ATOM     21  C   UNL d   1       1.833   0.691  -2.107  0.00  0.00     0.418 C 
ATOM     22  F   UNL d   1       1.984   1.465  -1.001  0.00  0.00    -0.166 F 
ATOM     23  F   UNL d   1       3.007   0.035  -2.313  0.00  0.00    -0.166 F 
ATOM     24  F   UNL d   1       1.746   1.590  -3.139  0.00  0.00    -0.166 F 
ENDBRANCH   2  21
BRANCH   3  25
ATOM     25  O   UNL d   1      -1.405  -2.353   0.087  0.00  0.00    -0.335 OA
BRANCH  25  26
ATOM     26  C   UNL d   1      -2.570  -3.149  -0.166  0.00  0.00     0.173 C 
ATOM     27  C   UNL d   1      -3.226  -3.480   1.161  0.00  0.00     0.034 C 
ENDBRANCH  25  26
ENDBRANCH   3  25
TORSDOF 6
