REMARK  4 active torsions:
REMARK  status: ('A' for Active; 'I' for Inactive)
REMARK    1  A    between atoms: N_2  and  C_1 
REMARK    2  A    between atoms: N_4  and  N_2 
REMARK    3  A    between atoms: C_6  and  N_4 
REMARK    4  A    between atoms: C_7  and  N_5 
ROOT
ATOM      1  N   UNL d   1       0.388   0.613  -1.215  0.00  0.00    -0.293 N 
ATOM      2  H   UNL d   1      -0.554   0.319  -0.984  0.00  0.00     0.183 HD
ENDROOT
BRANCH   1   3
ATOM      3  C   UNL d   1       1.273   0.688  -0.160  0.00  0.00     0.182 C 
ATOM      4  S   UNL d   1       2.931   0.502  -0.264  0.00  0.00    -0.040 SA
ATOM      5  N   UNL d   1       0.735   0.986   1.058  0.00  0.00    -0.367 N 
ATOM      6  H   UNL d   1       1.425   1.025   1.803  0.00  0.00     0.161 HD
BRANCH   5   7
ATOM      7  C   UNL d   1      -0.580   1.527   1.359  0.00  0.00     0.117 C 
ATOM      8  C   UNL d   1      -1.609   0.452   1.654  0.00  0.00     0.026 C 
ENDBRANCH   5   7
ENDBRANCH   1   3
BRANCH   1   9
ATOM      9  N   UNL d   1       0.839   0.046  -2.425  0.00  0.00    -0.204 NA
ATOM     10  H   UNL d   1       1.857   0.121  -2.527  0.00  0.00     0.153 HD
BRANCH   9  11
ATOM     11  C   UNL d   1       0.190   0.500  -3.599  0.00  0.00     0.027 A 
ATOM     12  C   UNL d   1      -0.783   1.506  -3.623  0.00  0.00     0.025 A 
ATOM     13  C   UNL d   1      -1.403   1.873  -4.823  0.00  0.00     0.002 A 
ATOM     14  C   UNL d   1      -1.067   1.230  -6.012  0.00  0.00     0.000 A 
ATOM     15  C   UNL d   1      -0.106   0.224  -6.005  0.00  0.00     0.002 A 
ATOM     16  C   UNL d   1       0.518  -0.134  -4.808  0.00  0.00     0.025 A 
ENDBRANCH   9  11
ENDBRANCH   1   9
TORSDOF 4
