REMARK  2 active torsions:
REMARK  status: ('A' for Active; 'I' for Inactive)
REMARK    1  A    between atoms: C_2  and  C_1 
REMARK       I    between atoms: N_10  and  C_2 
REMARK    2  A    between atoms: C_3  and  N_13 
ROOT
ATOM      1  C   UNL d   1      -0.298  -2.331  -0.083  0.00  0.00     0.263 C 
ATOM      2  N   UNL d   1       0.830  -3.129  -0.337  0.00  0.00    -0.344 N 
ATOM      3  N   UNL d   1       3.187  -4.886  -0.706  0.00  0.00     0.105 N 
ATOM      4  O   UNL d   1      -0.476  -1.826   1.022  0.00  0.00    -0.267 OA
ATOM      5  C   UNL d   1       1.759  -3.353   0.771  0.00  0.00     0.156 C 
ATOM      6  C   UNL d   1       0.794  -4.240  -1.288  0.00  0.00     0.156 C 
ATOM      7  C   UNL d   1       2.196  -4.667  -1.767  0.00  0.00     0.293 C 
ATOM      8  C   UNL d   1       3.150  -3.768   0.263  0.00  0.00     0.293 C 
ENDROOT
BRANCH   3   9
ATOM      9  C   UNL d   1       3.242  -6.269  -0.175  0.00  0.00     0.290 C 
ATOM     10  C   UNL d   1       1.970  -6.815   0.472  0.00  0.00    -0.009 C 
ATOM     11  C   UNL d   1       2.144  -6.924   1.863  0.00  0.00    -0.017 C 
ATOM     12  C   UNL d   1       0.777  -7.206  -0.126  0.00  0.00     0.010 C 
ATOM     13  C   UNL d   1       1.064  -7.217   2.683  0.00  0.00     0.013 C 
ATOM     14  C   UNL d   1       3.540  -6.702   2.176  0.00  0.00    -0.017 A 
ATOM     15  C   UNL d   1      -0.182  -7.447   2.090  0.00  0.00     0.001 C 
ATOM     16  C   UNL d   1      -0.318  -7.474   0.695  0.00  0.00     0.001 C 
ATOM     17  C   UNL d   1       4.228  -6.383   0.983  0.00  0.00    -0.009 A 
ATOM     18  C   UNL d   1       4.223  -6.786   3.372  0.00  0.00     0.013 A 
ATOM     19  C   UNL d   1       5.597  -6.141   0.972  0.00  0.00     0.010 A 
ATOM     20  C   UNL d   1       6.280  -6.216   2.184  0.00  0.00     0.001 A 
ATOM     21  C   UNL d   1       5.601  -6.539   3.373  0.00  0.00     0.001 A 
ENDBRANCH   3   9
BRANCH   1  22
ATOM     22  C   UNL d   1      -1.220  -2.127  -1.178  0.00  0.00     0.110 A 
ATOM     23  C   UNL d   1      -1.052  -1.913  -2.542  0.00  0.00     0.043 A 
ATOM     24  N   UNL d   1      -2.241  -1.833  -3.261  0.00  0.00    -0.296 N 
ATOM     25  C   UNL d   1       0.212  -1.800  -3.318  0.00  0.00     0.071 C 
ATOM     26  N   UNL d   1      -3.302  -1.925  -2.479  0.00  0.00    -0.061 NA
ATOM     27  HN  UNL d   1      -2.288  -1.718  -4.273  1.00  0.00     0.183 HD
ATOM     28  S   UNL d   1      -2.906  -2.095  -0.865  0.00  0.00     0.007 SA
ENDBRANCH   1  22
TORSDOF 2
