REMARK  3 active torsions:
REMARK  status: ('A' for Active; 'I' for Inactive)
REMARK    1  A    between atoms: S_2  and  C_1 
REMARK    2  A    between atoms: N_7  and  S_2 
REMARK    3  A    between atoms: C_10  and  N_7 
ROOT
ATOM      1  S   UNL d   1       4.109  -3.893  -0.728  0.00  0.00     0.267 S 
ATOM      2  O   UNL d   1       4.465  -3.296   0.541  0.00  0.00    -0.200 OA
ATOM      3  O   UNL d   1       5.107  -4.058  -1.757  0.00  0.00    -0.200 OA
ENDROOT
BRANCH   1   4
ATOM      4  C   UNL d   1       3.514  -5.512  -0.334  0.00  0.00     0.138 A 
ATOM      5  S   UNL d   1       2.317  -5.570   0.904  0.00  0.00    -0.068 SA
ATOM      6  C   UNL d   1       2.237  -7.259   0.831  0.00  0.00     0.054 A 
ATOM      7 BR   UNL d   1       1.129  -8.281   1.943  0.00  0.00    -0.043 Br
ATOM      8  C   UNL d   1       3.060  -7.803  -0.120  0.00  0.00     0.048 A 
ATOM      9  C   UNL d   1       3.792  -6.784  -0.789  0.00  0.00     0.043 A 
ATOM     10 BR   UNL d   1       5.003  -7.255  -2.162  0.00  0.00    -0.049 Br
ENDBRANCH   1   4
BRANCH   1  11
ATOM     11  N   UNL d   1       2.860  -2.942  -1.335  0.00  0.00    -0.306 N 
ATOM     12  H   UNL d   1       3.051  -1.972  -1.076  0.00  0.00     0.173 HD
BRANCH  11  13
ATOM     13  C   UNL d   1       2.262  -3.098  -2.688  0.00  0.00     0.029 C 
ATOM     14  C   UNL d   1       1.516  -4.427  -2.808  0.00  0.00     0.038 C 
ATOM     15  C   UNL d   1       1.239  -1.954  -2.838  0.00  0.00     0.038 C 
ATOM     16  C   UNL d   1       3.302  -2.954  -3.802  0.00  0.00     0.038 C 
ENDBRANCH  11  13
ENDBRANCH   1  11
TORSDOF 3
