REMARK  4 active torsions:
REMARK  status: ('A' for Active; 'I' for Inactive)
REMARK    1  A    between atoms: C_8  and  C_1 
REMARK    2  A    between atoms: N_3  and  C_2 
REMARK       I    between atoms: C_6  and  N_3 
REMARK    3  A    between atoms: C_10  and  C_6 
REMARK    4  A    between atoms: O_12  and  C_8 
ROOT
ATOM      1  C   UNL d   1       0.208  -1.602   0.112  0.00  0.00     0.079 A 
ATOM      2  C   UNL d   1      -1.222  -1.393   0.178  0.00  0.00     0.059 A 
ATOM      3  S   UNL d   1      -0.195   0.951  -0.066  0.00  0.00    -0.103 SA
ATOM      4  C   UNL d   1       0.877  -0.381   0.003  0.00  0.00    -0.003 A 
ATOM      5  C   UNL d   1      -1.553  -0.054   0.111  0.00  0.00     0.080 A 
ATOM      6  C   UNL d   1       2.348  -0.114  -0.029  0.00  0.00     0.057 C 
ENDROOT
BRANCH   2   7
ATOM      7  N   UNL d   1      -2.182  -2.401   0.301  0.00  0.00    -0.321 N 
ATOM      8  C   UNL d   1      -3.276  -2.254   1.130  0.00  0.00     0.256 C 
ATOM      9  O   UNL d   1      -3.466  -1.321   1.909  0.00  0.00    -0.267 OA
ATOM     10  H   UNL d   1      -1.881  -3.348   0.091  0.00  0.00     0.169 HD
BRANCH   8  11
ATOM     11  C   UNL d   1      -4.266  -3.352   1.111  0.00  0.00     0.032 A 
ATOM     12  C   UNL d   1      -4.794  -3.803   2.326  0.00  0.00     0.017 A 
ATOM     13  C   UNL d   1      -5.854  -4.710   2.330  0.00  0.00     0.001 A 
ATOM     14  C   UNL d   1      -6.393  -5.152   1.123  0.00  0.00     0.000 A 
ATOM     15  C   UNL d   1      -5.856  -4.714  -0.090  0.00  0.00     0.001 A 
ATOM     16  C   UNL d   1      -4.785  -3.817  -0.102  0.00  0.00     0.017 A 
ENDBRANCH   8  11
ENDBRANCH   2   7
BRANCH   1  17
ATOM     17  C   UNL d   1       0.915  -2.878   0.249  0.00  0.00     0.296 C 
ATOM     18  O   UNL d   1       2.136  -2.988   0.261  0.00  0.00    -0.259 OA
BRANCH  17  19
ATOM     19  O   UNL d   1       0.061  -3.939   0.408  0.00  0.00    -0.322 OA
ATOM     20  C   UNL d   1       0.686  -5.183   0.732  0.00  0.00     0.213 C 
ENDBRANCH  17  19
ENDBRANCH   1  17
TORSDOF 4
