REMARK  3 active torsions:
REMARK  status: ('A' for Active; 'I' for Inactive)
REMARK    1  A    between atoms: C_2  and  C_1 
REMARK       I    between atoms: N_6  and  C_2 
REMARK    2  A    between atoms: N_8  and  C_3 
REMARK    3  A    between atoms: N_10  and  N_6 
ROOT
ATOM      1  C   UNL d   1       0.656   1.271   0.005  0.00  0.00     0.054 A 
ATOM      2  C   UNL d   1       1.380   0.062  -0.006  0.00  0.00     0.021 A 
ATOM      3  C   UNL d   1      -0.751   1.254   0.036  0.00  0.00     0.025 A 
ATOM      4  C   UNL d   1       0.667  -1.142  -0.065  0.00  0.00     0.025 A 
ATOM      5  C   UNL d   1      -1.451   0.039   0.013  0.00  0.00    -0.061 A 
ATOM      6  C   UNL d   1      -0.730  -1.156  -0.034  0.00  0.00     0.008 A 
ATOM      7  C   UNL d   1      -2.951   0.005   0.043  0.00  0.00     0.048 C 
ENDROOT
BRANCH   1   8
ATOM      8  C   UNL d   1       1.384   2.573   0.090  0.00  0.00     0.267 C 
ATOM      9  O   UNL d   1       2.478   2.652   0.647  0.00  0.00    -0.266 OA
ATOM     10  N   UNL d   1       0.762   3.674  -0.492  0.00  0.00    -0.290 N 
ATOM     11  H   UNL d   1       0.002   3.538  -1.158  0.00  0.00     0.183 HD
BRANCH  10  12
ATOM     12  N   UNL d   1       1.433   4.918  -0.484  0.00  0.00    -0.247 NA
ATOM     13  H   UNL d   1       2.408   4.721  -0.212  0.00  0.00     0.143 HD
ATOM     14  H   UNL d   1       1.073   5.460   0.306  0.00  0.00     0.143 HD
ENDBRANCH  10  12
ENDBRANCH   1   8
BRANCH   2  15
ATOM     15  N   UNL d   1       2.776   0.021  -0.202  0.00  0.00    -0.302 NA
ATOM     16  H   UNL d   1       3.226   0.883   0.128  0.00  0.00     0.124 HD
ATOM     17  H   UNL d   1       3.221  -0.803   0.189  0.00  0.00     0.124 HD
ENDBRANCH   2  15
TORSDOF 3
