REMARK  2 active torsions:
REMARK  status: ('A' for Active; 'I' for Inactive)
REMARK    1  A    between atoms: C_6  and  N_2 
REMARK    2  A    between atoms: C_9  and  C_6 
ROOT
ATOM      1  S   UNL d   1       1.377   0.393  -0.007  0.00  0.00     0.268 S 
ATOM      2  N   UNL d   1       1.230  -1.271   0.058  0.00  0.00    -0.231 N 
ATOM      3  C   UNL d   1      -0.100  -1.733   0.149  0.00  0.00     0.269 A 
ATOM      4  C   UNL d   1      -1.012  -0.575   0.090  0.00  0.00     0.056 A 
ATOM      5  C   UNL d   1      -0.344   0.641   0.019  0.00  0.00     0.095 A 
ATOM      6  O   UNL d   1       1.937   0.865   1.236  0.00  0.00    -0.200 OA
ATOM      7  O   UNL d   1       1.882   0.767  -1.306  0.00  0.00    -0.200 OA
ATOM      8  O   UNL d   1      -0.455  -2.889   0.259  0.00  0.00    -0.266 OA
ATOM      9  C   UNL d   1      -2.397  -0.620   0.093  0.00  0.00     0.018 A 
ATOM     10  C   UNL d   1      -1.007   1.853  -0.036  0.00  0.00     0.026 A 
ATOM     11  C   UNL d   1      -3.093   0.592   0.032  0.00  0.00     0.001 A 
ATOM     12  C   UNL d   1      -2.403   1.818  -0.027  0.00  0.00     0.002 A 
ENDROOT
BRANCH   2  13
ATOM     13  C   UNL d   1       2.444  -2.081   0.059  0.00  0.00     0.204 C 
BRANCH  13  14
ATOM     14  C   UNL d   1       2.468  -2.970  -1.140  0.00  0.00     0.054 A 
ATOM     15  N   UNL d   1       2.605  -4.295  -1.003  0.00  0.00    -0.264 N 
ATOM     16  O   UNL d   1       2.480  -4.821  -2.276  0.00  0.00    -0.243 OA
ATOM     17  HN  UNL d   1       2.768  -4.811  -0.138  1.00  0.00     0.194 HD
ATOM     18  C   UNL d   1       2.292  -3.811  -3.166  0.00  0.00     0.074 A 
ATOM     19  C   UNL d   1       2.330  -2.610  -2.503  0.00  0.00     0.063 A 
ATOM     20  C   UNL d   1       2.067  -4.207  -4.566  0.00  0.00     0.079 C 
ENDBRANCH  13  14
ENDBRANCH   2  13
TORSDOF 2
