REMARK  5 active torsions:
REMARK  status: ('A' for Active; 'I' for Inactive)
REMARK       I    between atoms: N_2  and  C_1 
REMARK    1  A    between atoms: C_3  and  C_1 
REMARK    2  A    between atoms: C_5  and  N_2 
REMARK    3  A    between atoms: O_7  and  C_4 
REMARK    4  A    between atoms: C_16  and  O_7 
REMARK    5  A    between atoms: C_10  and  C_12 
ROOT
ATOM      1  C   UNL d   1       0.586  -0.749  -3.544  0.00  0.00     0.175 A 
ATOM      2  C   UNL d   1       1.107  -1.059  -2.276  0.00  0.00     0.087 A 
ATOM      3  N   UNL d   1       1.152  -1.190  -4.700  0.00  0.00    -0.345 N 
ATOM      4  HN  UNL d   1       0.737  -0.978  -5.608  1.00  0.00     0.167 HD
ATOM      5  C   UNL d   1       2.308  -1.771  -2.224  0.00  0.00     0.035 A 
ATOM      6  C   UNL d   1       2.282  -1.919  -4.601  0.00  0.00     0.090 A 
ATOM      7  C   UNL d   1       2.900  -2.219  -3.400  0.00  0.00     0.019 A 
ENDROOT
BRANCH   2   8
ATOM      8  N   UNL d   1       0.544  -0.660  -1.038  0.00  0.00    -0.319 N 
ATOM      9  C   UNL d   1      -0.657  -1.202  -0.594  0.00  0.00     0.257 C 
ATOM     10  O   UNL d   1      -1.387  -1.941  -1.241  0.00  0.00    -0.267 OA
ATOM     11  H   UNL d   1       1.208  -0.511  -0.288  0.00  0.00     0.169 HD
BRANCH   9  12
ATOM     12  C   UNL d   1      -0.976  -0.866   0.836  0.00  0.00     0.043 A 
ATOM     13  C   UNL d   1      -1.379  -1.841   1.799  0.00  0.00    -0.010 A 
ATOM     14  C   UNL d   1      -1.657  -1.393   3.119  0.00  0.00    -0.025 A 
ATOM     15  C   UNL d   1      -1.515  -3.231   1.552  0.00  0.00     0.013 A 
ATOM     16  C   UNL d   1      -2.061  -2.301   4.112  0.00  0.00     0.012 A 
ATOM     17  C   UNL d   1      -1.522  -0.035   3.447  0.00  0.00     0.012 A 
ATOM     18  C   UNL d   1      -2.195  -3.658   3.831  0.00  0.00     0.001 A 
ATOM     19  C   UNL d   1      -1.916  -4.122   2.554  0.00  0.00     0.001 A 
ATOM     20  C   UNL d   1      -1.125   0.899   2.495  0.00  0.00     0.002 A 
ATOM     21  C   UNL d   1      -0.856   0.488   1.195  0.00  0.00     0.018 A 
ENDBRANCH   9  12
ENDBRANCH   2   8
BRANCH   1  22
ATOM     22  O   UNL d   1      -0.496   0.122  -3.637  0.00  0.00    -0.292 OA
BRANCH  22  23
ATOM     23  C   UNL d   1      -0.552   0.983  -4.720  0.00  0.00     0.077 A 
ATOM     24  C   UNL d   1      -1.812   1.257  -5.247  0.00  0.00     0.038 A 
ATOM     25  C   UNL d   1      -1.963   2.174  -6.301  0.00  0.00     0.011 A 
ATOM     26  C   UNL d   1      -0.862   2.860  -6.853  0.00  0.00    -0.050 A 
ATOM     27  C   UNL d   1       0.399   2.572  -6.303  0.00  0.00     0.011 A 
ATOM     28  C   UNL d   1       0.550   1.661  -5.244  0.00  0.00     0.038 A 
BRANCH  26  29
ATOM     29  C   UNL d   1      -1.068   3.891  -7.982  0.00  0.00    -0.024 C 
ATOM     30  C   UNL d   1       0.238   4.561  -8.471  0.00  0.00     0.019 C 
ATOM     31  C   UNL d   1      -1.716   3.223  -9.215  0.00  0.00     0.019 C 
ATOM     32  C   UNL d   1      -1.993   5.022  -7.482  0.00  0.00     0.019 C 
ENDBRANCH  26  29
ENDBRANCH  22  23
ENDBRANCH   1  22
TORSDOF 5
