REMARK  5 active torsions:
REMARK  status: ('A' for Active; 'I' for Inactive)
REMARK    1  A    between atoms: C_2  and  S_1 
REMARK    2  A    between atoms: C_18  and  S_1 
REMARK    3  A    between atoms: N_3  and  C_14 
REMARK    4  A    between atoms: C_7  and  C_4 
REMARK    5  A    between atoms: C_15  and  N_8 
ROOT
ATOM      1  C   UNL d   1       0.724  -1.401  -1.751  0.00  0.00     0.146 C 
ATOM      2  C   UNL d   1      -0.501  -1.861  -1.435  0.00  0.00     0.065 C 
ATOM      3  C   UNL d   1       0.942  -0.912  -3.066  0.00  0.00     0.112 C 
ATOM      4  N   UNL d   1       1.039  -0.533  -4.159  0.00  0.00    -0.191 NA
ENDROOT
BRANCH   1   5
ATOM      5  S   UNL d   1       2.049  -1.197  -0.659  0.00  0.00     0.216 S 
ATOM      6  O   UNL d   1       1.652  -0.339   0.437  0.00  0.00    -0.216 OA
ATOM      7  O   UNL d   1       3.240  -0.844  -1.414  0.00  0.00    -0.216 OA
BRANCH   5   8
ATOM      8  C   UNL d   1       2.440  -2.793   0.051  0.00  0.00     0.065 A 
ATOM      9  C   UNL d   1       3.178  -3.720  -0.694  0.00  0.00     0.024 A 
ATOM     10  C   UNL d   1       3.699  -4.854  -0.063  0.00  0.00     0.002 A 
ATOM     11  C   UNL d   1       3.489  -5.058   1.302  0.00  0.00     0.000 A 
ATOM     12  C   UNL d   1       2.744  -4.139   2.041  0.00  0.00     0.002 A 
ATOM     13  C   UNL d   1       2.226  -3.002   1.420  0.00  0.00     0.024 A 
ENDBRANCH   5   8
ENDBRANCH   1   5
BRANCH   2  14
ATOM     14  C   UNL d   1      -0.916  -2.382  -0.186  0.00  0.00     0.041 A 
ATOM     15  N   UNL d   1      -1.346  -1.589   0.885  0.00  0.00    -0.322 N 
ATOM     16  C   UNL d   1      -1.564  -2.444   1.955  0.00  0.00     0.097 A 
ATOM     17  C   UNL d   1      -1.391  -3.747   1.549  0.00  0.00     0.020 A 
ATOM     18  C   UNL d   1      -1.000  -3.709   0.199  0.00  0.00     0.031 A 
BRANCH  15  19
ATOM     19  C   UNL d   1      -1.508  -0.171   0.945  0.00  0.00     0.039 A 
ATOM     20  C   UNL d   1      -1.920   0.564  -0.173  0.00  0.00     0.032 A 
ATOM     21  C   UNL d   1      -1.947   1.964  -0.132  0.00  0.00     0.034 A 
ATOM     22  C   UNL d   1      -1.564   2.642   1.030  0.00  0.00     0.056 A 
ATOM     23  C   UNL d   1      -1.189   1.903   2.162  0.00  0.00     0.034 A 
ATOM     24  C   UNL d   1      -1.190   0.505   2.131  0.00  0.00     0.032 A 
BRANCH  22  25
ATOM     25  N   UNL d   1      -1.440   4.060   1.057  0.00  0.00    -0.261 N 
ATOM     26  N   UNL d   1      -0.503   4.620   1.871  0.00  0.00    -0.298 N 
ATOM     27  C   UNL d   1      -0.376   5.877   1.443  0.00  0.00     0.024 C 
ATOM     28  HN  UNL d   1      -0.006   4.174   2.642  1.00  0.00     0.187 HD
ATOM     29  C   UNL d   1       0.683   6.760   1.986  0.00  0.00     0.070 C 
ATOM     30  C   UNL d   1      -1.363   6.197   0.496  0.00  0.00     0.052 C 
ATOM     31  C   UNL d   1      -2.087   5.036   0.308  0.00  0.00     0.032 C 
ATOM     32  C   UNL d   1      -3.347   4.869  -0.459  0.00  0.00     0.070 C 
ENDBRANCH  22  25
ENDBRANCH  15  19
ENDBRANCH   2  14
TORSDOF 5
