REMARK  3 active torsions:
REMARK  status: ('A' for Active; 'I' for Inactive)
REMARK    1  A    between atoms: C_10  and  C_3 
REMARK    2  A    between atoms: C_9  and  C_7 
REMARK    3  A    between atoms: O_15  and  C_12 
ROOT
ATOM      1  C   UNL d   1      -2.054   0.413   0.160  0.00  0.00     0.027 C 
ATOM      2  C   UNL d   1      -1.600   1.756   0.630  0.00  0.00     0.194 C 
ATOM      3  C   UNL d   1      -0.940  -0.594   0.006  0.00  0.00     0.199 C 
ATOM      4  O   UNL d   1      -0.066  -0.601   1.154  0.00  0.00    -0.335 OA
ATOM      5  C   UNL d   1      -0.240   1.816   1.196  0.00  0.00     0.048 A 
ATOM      6  C   UNL d   1       0.450   0.633   1.448  0.00  0.00     0.084 A 
ATOM      7  C   UNL d   1      -3.322   0.125  -0.195  0.00  0.00     0.025 C 
ATOM      8  O   UNL d   1      -2.269   2.778   0.532  0.00  0.00    -0.287 OA
ATOM      9  C   UNL d   1       0.350   3.050   1.489  0.00  0.00     0.018 A 
ATOM     10  C   UNL d   1       1.716   0.672   2.029  0.00  0.00     0.038 A 
ATOM     11  C   UNL d   1       1.633   3.091   2.037  0.00  0.00     0.001 A 
ATOM     12  C   UNL d   1       2.312   1.903   2.312  0.00  0.00     0.003 A 
ENDROOT
BRANCH   3  13
ATOM     13  C   UNL d   1      -0.134  -0.481  -1.293  0.00  0.00    -0.024 A 
ATOM     14  C   UNL d   1      -0.434   0.460  -2.296  0.00  0.00     0.010 A 
ATOM     15  C   UNL d   1       0.342   0.548  -3.453  0.00  0.00     0.001 A 
ATOM     16  C   UNL d   1       1.421  -0.309  -3.635  0.00  0.00     0.000 A 
ATOM     17  C   UNL d   1       1.723  -1.261  -2.664  0.00  0.00     0.001 A 
ATOM     18  C   UNL d   1       0.951  -1.350  -1.504  0.00  0.00     0.010 A 
ENDBRANCH   3  13
BRANCH   7  19
ATOM     19  C   UNL d   1      -4.457   1.048  -0.220  0.00  0.00    -0.033 A 
ATOM     20  C   UNL d   1      -5.218   1.268   0.932  0.00  0.00     0.048 A 
ATOM     21  C   UNL d   1      -6.314   2.132   0.894  0.00  0.00     0.069 A 
ATOM     22  C   UNL d   1      -6.635   2.783  -0.301  0.00  0.00     0.037 A 
ATOM     23  C   UNL d   1      -5.874   2.573  -1.451  0.00  0.00     0.004 A 
ATOM     24  C   UNL d   1      -4.788   1.702  -1.412  0.00  0.00     0.011 A 
BRANCH  21  25
ATOM     25  O   UNL d   1      -7.146   2.418   1.944  0.00  0.00    -0.356 OA
ATOM     26  C   UNL d   1      -6.856   1.772   3.177  0.00  0.00     0.210 C 
ENDBRANCH  21  25
ENDBRANCH   7  19
TORSDOF 3
