REMARK  4 active torsions:
REMARK  status: ('A' for Active; 'I' for Inactive)
REMARK    1  A    between atoms: C_6  and  N_1 
REMARK    2  A    between atoms: C_7  and  C_6 
REMARK    3  A    between atoms: C_10  and  C_7 
REMARK    4  A    between atoms: O_19  and  C_14 
ROOT
ATOM      1  N   UNL d   1       1.849  -0.083  -0.131  0.00  0.00    -0.273 N 
ATOM      2  C   UNL d   1       1.001  -0.144  -1.204  0.00  0.00     0.262 A 
ATOM      3  C   UNL d   1       1.171  -0.230   1.048  0.00  0.00     0.262 A 
ATOM      4  C   UNL d   1      -0.351  -0.236  -0.671  0.00  0.00     0.048 A 
ATOM      5  C   UNL d   1      -0.252  -0.285   0.706  0.00  0.00     0.048 A 
ATOM      6  O   UNL d   1       1.265  -0.168  -2.393  0.00  0.00    -0.267 OA
ATOM      7  O   UNL d   1       1.603  -0.359   2.176  0.00  0.00    -0.267 OA
ATOM      8  C   UNL d   1      -1.368  -0.394   1.510  0.00  0.00     0.018 A 
ATOM      9  C   UNL d   1      -1.565  -0.289  -1.327  0.00  0.00     0.018 A 
ATOM     10  C   UNL d   1      -2.712  -0.392  -0.534  0.00  0.00     0.001 A 
ATOM     11  C   UNL d   1      -2.614  -0.445   0.872  0.00  0.00     0.001 A 
ENDROOT
BRANCH   1  12
ATOM     12  C   UNL d   1       3.292  -0.011  -0.245  0.00  0.00     0.219 C 
BRANCH  12  13
ATOM     13  C   UNL d   1       3.762   1.435  -0.106  0.00  0.00     0.177 C 
ATOM     14  O   UNL d   1       3.729   2.022   0.976  0.00  0.00    -0.291 OA
BRANCH  13  15
ATOM     15  C   UNL d   1       4.246   2.185  -1.303  0.00  0.00     0.011 A 
ATOM     16  C   UNL d   1       3.894   1.827  -2.608  0.00  0.00     0.018 A 
ATOM     17  C   UNL d   1       4.348   2.573  -3.700  0.00  0.00     0.037 A 
ATOM     18  C   UNL d   1       5.174   3.678  -3.499  0.00  0.00     0.068 A 
ATOM     19  C   UNL d   1       5.500   4.064  -2.201  0.00  0.00     0.037 A 
ATOM     20  C   UNL d   1       5.043   3.321  -1.106  0.00  0.00     0.018 A 
BRANCH  18  21
ATOM     21  O   UNL d   1       5.674   4.462  -4.502  0.00  0.00    -0.356 OA
ATOM     22  C   UNL d   1       5.961   3.769  -5.714  0.00  0.00     0.210 C 
ENDBRANCH  18  21
ENDBRANCH  13  15
ENDBRANCH  12  13
ENDBRANCH   1  12
TORSDOF 4
