REMARK  4 active torsions:
REMARK  status: ('A' for Active; 'I' for Inactive)
REMARK    1  A    between atoms: C_7  and  S_1 
REMARK    2  A    between atoms: C_11  and  S_1 
REMARK    3  A    between atoms: C_4  and  C_7 
REMARK    4  A    between atoms: C_6  and  C_5 
ROOT
ATOM      1  N   UNL d   1       0.359  -1.143   2.992  0.00  0.00    -0.322 N 
ATOM      2  HN  UNL d   1      -0.181  -1.806   2.437  1.00  0.00     0.169 HD
ATOM      3  C   UNL d   1       0.771   0.120   2.651  0.00  0.00     0.118 A 
ATOM      4  C   UNL d   1       0.832  -1.288   4.214  0.00  0.00     0.182 A 
ATOM      5  N   UNL d   1       1.466   0.753   3.605  0.00  0.00    -0.246 N 
ATOM      6  HN  UNL d   1       1.861   1.693   3.581  1.00  0.00     0.196 HD
ATOM      7  O   UNL d   1       1.518  -0.181   4.639  0.00  0.00    -0.217 OA
ENDROOT
BRANCH   3   8
ATOM      8  C   UNL d   1       0.378   0.782   1.395  0.00  0.00     0.225 C 
BRANCH   8   9
ATOM      9  S   UNL d   1       1.058  -0.000  -0.038  0.00  0.00     0.197 S 
ATOM     10  O   UNL d   1       2.497  -0.122   0.150  0.00  0.00    -0.221 OA
ATOM     11  O   UNL d   1       0.555   0.686  -1.214  0.00  0.00    -0.221 OA
BRANCH   9  12
ATOM     12  C   UNL d   1       0.377  -1.647  -0.045  0.00  0.00     0.128 A 
ATOM     13  N   UNL d   1      -0.981  -1.687  -0.079  0.00  0.00    -0.357 N 
ATOM     14  C   UNL d   1      -1.524  -2.921  -0.157  0.00  0.00     0.089 A 
ATOM     15  HN  UNL d   1      -1.551  -0.842  -0.047  1.00  0.00     0.166 HD
ATOM     16  C   UNL d   1      -0.781  -4.094  -0.186  0.00  0.00     0.017 A 
ATOM     17  C   UNL d   1       0.607  -4.007  -0.126  0.00  0.00     0.004 A 
ATOM     18  C   UNL d   1       1.210  -2.757  -0.057  0.00  0.00     0.042 A 
ENDBRANCH   9  12
ENDBRANCH   8   9
ENDBRANCH   3   8
BRANCH   4  19
ATOM     19  C   UNL d   1       0.621  -2.501   5.056  0.00  0.00     0.024 A 
ATOM     20  C   UNL d   1      -0.044  -3.620   4.605  0.00  0.00     0.065 A 
ATOM     21  S   UNL d   1      -0.144  -4.832   5.812  0.00  0.00    -0.113 SA
ATOM     22  C   UNL d   1       0.700  -3.859   6.939  0.00  0.00     0.050 A 
ATOM     23  C   UNL d   1       1.060  -2.641   6.405  0.00  0.00     0.023 A 
ENDBRANCH   4  19
TORSDOF 4
