REMARK  9 active torsions:
REMARK  status: ('A' for Active; 'I' for Inactive)
REMARK    1  A    between atoms: C_3  and  C_1 
REMARK    2  A    between atoms: C_4  and  C_1 
REMARK    3  A    between atoms: N_5  and  C_2 
REMARK    4  A    between atoms: O_11  and  C_3 
REMARK    5  A    between atoms: O_10  and  C_4 
REMARK    6  A    between atoms: C_6  and  N_5 
REMARK    7  A    between atoms: O_12  and  C_9 
REMARK    8  A    between atoms: C_16  and  O_10 
REMARK    9  A    between atoms: C_15  and  O_11 
ROOT
ATOM      1  C   UNL d   1       1.137   0.110  -0.193  0.00  0.00     0.124 C 
ATOM      2  C   UNL d   1       0.474   1.223   0.170  0.00  0.00     0.086 C 
ENDROOT
BRANCH   1   3
ATOM      3  C   UNL d   1       0.412  -1.020  -0.832  0.00  0.00     0.300 C 
ATOM      4  O   UNL d   1       0.786  -2.183  -0.794  0.00  0.00    -0.259 OA
BRANCH   3   5
ATOM      5  O   UNL d   1      -0.677  -0.573  -1.516  0.00  0.00    -0.318 OA
BRANCH   5   6
ATOM      6  C   UNL d   1      -1.298  -1.519  -2.402  0.00  0.00     0.174 C 
ATOM      7  C   UNL d   1      -0.761  -1.281  -3.801  0.00  0.00     0.034 C 
ENDBRANCH   5   6
ENDBRANCH   3   5
ENDBRANCH   1   3
BRANCH   1   8
ATOM      8  C   UNL d   1       2.597  -0.002   0.018  0.00  0.00     0.300 C 
ATOM      9  O   UNL d   1       3.228   0.517   0.925  0.00  0.00    -0.259 OA
BRANCH   8  10
ATOM     10  O   UNL d   1       3.127  -0.688  -1.026  0.00  0.00    -0.318 OA
BRANCH  10  11
ATOM     11  C   UNL d   1       4.537  -0.552  -1.234  0.00  0.00     0.174 C 
ATOM     12  C   UNL d   1       4.701   0.386  -2.414  0.00  0.00     0.034 C 
ENDBRANCH  10  11
ENDBRANCH   8  10
ENDBRANCH   1   8
BRANCH   2  13
ATOM     13  N   UNL d   1       0.900   2.412   0.747  0.00  0.00    -0.266 NA
ATOM     14  H   UNL d   1       0.147   2.883   1.246  0.00  0.00     0.133 HD
BRANCH  13  15
ATOM     15  C   UNL d   1       1.657   3.432   0.092  0.00  0.00     0.045 A 
ATOM     16  C   UNL d   1       2.128   4.571   0.788  0.00  0.00     0.089 A 
ATOM     17  C   UNL d   1       2.808   5.587   0.088  0.00  0.00     0.038 A 
ATOM     18  C   UNL d   1       3.042   5.493  -1.281  0.00  0.00     0.003 A 
ATOM     19  C   UNL d   1       2.600   4.377  -1.969  0.00  0.00     0.002 A 
ATOM     20  C   UNL d   1       1.924   3.353  -1.290  0.00  0.00     0.026 A 
BRANCH  16  21
ATOM     21  O   UNL d   1       1.992   4.898   2.111  0.00  0.00    -0.354 OA
ATOM     22  C   UNL d   1       1.642   3.911   3.065  0.00  0.00     0.210 C 
ENDBRANCH  16  21
ENDBRANCH  13  15
ENDBRANCH   2  13
TORSDOF 9
