REMARK  4 active torsions:
REMARK  status: ('A' for Active; 'I' for Inactive)
REMARK    1  A    between atoms: C_7  and  C_1 
REMARK    2  A    between atoms: C_2  and  C_10 
REMARK    3  A    between atoms: C_12  and  N_3 
REMARK    4  A    between atoms: O_16  and  C_6 
ROOT
ATOM      1  N   UNL d   1       0.727   4.226  -0.122  0.00  0.00    -0.365 N 
ATOM      2  HN  UNL d   1       0.815   3.669   0.727  1.00  0.00     0.165 HD
ATOM      3  C   UNL d   1       0.801   3.679  -1.294  0.00  0.00     0.102 C 
ENDROOT
BRANCH   1   4
ATOM      4  C   UNL d   1       0.522   5.623  -0.062  0.00  0.00     0.038 A 
ATOM      5  C   UNL d   1      -0.464   6.152   0.809  0.00  0.00    -0.027 A 
ATOM      6  C   UNL d   1      -0.598   7.556   0.874  0.00  0.00     0.010 A 
ATOM      7  C   UNL d   1       0.189   8.411   0.103  0.00  0.00     0.001 A 
ATOM      8  C   UNL d   1       1.155   7.883  -0.742  0.00  0.00     0.002 A 
ATOM      9  C   UNL d   1       1.330   6.501  -0.809  0.00  0.00     0.030 A 
BRANCH   5  10
ATOM     10  C   UNL d   1      -1.323   5.270   1.699  0.00  0.00     0.021 A 
ATOM     11  C   UNL d   1      -2.398   4.387   1.107  0.00  0.00     0.010 A 
ATOM     12  C   UNL d   1      -2.790   5.590   1.909  0.00  0.00     0.010 A 
ENDBRANCH   5  10
ENDBRANCH   1   4
BRANCH   3  13
ATOM     13  C   UNL d   1       0.948   2.219  -1.466  0.00  0.00     0.016 A 
ATOM     14  C   UNL d   1       0.802   1.649  -2.736  0.00  0.00     0.099 A 
ATOM     15  C   UNL d   1       0.853   0.257  -2.881  0.00  0.00     0.069 A 
ATOM     16 CL   UNL d   1       0.634  -0.463  -4.433  0.00  0.00    -0.081 Cl
ATOM     17  C   UNL d   1       1.068  -0.561  -1.775  0.00  0.00     0.050 A 
ATOM     18  C   UNL d   1       1.237   0.018  -0.516  0.00  0.00     0.036 A 
ATOM     19  C   UNL d   1       1.179   1.397  -0.355  0.00  0.00     0.039 A 
ATOM     20 CL   UNL d   1       1.508  -0.993   0.850  0.00  0.00    -0.084 Cl
BRANCH  14  21
ATOM     21  O   UNL d   1       0.589   2.454  -3.824  0.00  0.00    -0.358 OA
ATOM     22  H   UNL d   1       0.481   1.879  -4.606  0.00  0.00     0.217 HD
ENDBRANCH  14  21
ENDBRANCH   3  13
TORSDOF 4
