REMARK  1 active torsions:
REMARK  status: ('A' for Active; 'I' for Inactive)
REMARK    1  A    between atoms: C_13  and  C_7 
ROOT
ATOM      1  C   UNL d   1       0.467  -1.119   0.428  0.00  0.00    -0.017 C 
ATOM      2  C   UNL d   1      -0.356  -0.889  -0.755  0.00  0.00     0.001 C 
ATOM      3  C   UNL d   1      -0.849   0.372  -0.593  0.00  0.00     0.056 C 
ATOM      4  C   UNL d   1       1.470  -2.000   0.577  0.00  0.00     0.020 C 
ATOM      5  C   UNL d   1      -0.041  -0.257   1.468  0.00  0.00    -0.049 C 
ATOM      6  C   UNL d   1      -0.704   0.739   0.830  0.00  0.00     0.031 C 
ATOM      7  C   UNL d   1       1.906  -3.012  -0.378  0.00  0.00    -0.054 C 
ATOM      8  C   UNL d   1      -0.929  -1.983  -1.518  0.00  0.00    -0.049 C 
ATOM      9  C   UNL d   1      -1.754   1.065  -1.415  0.00  0.00     0.100 C 
ATOM     10  C   UNL d   1       1.061  -3.524  -1.302  0.00  0.00     0.008 C 
ATOM     11  C   UNL d   1      -0.299  -3.168  -1.647  0.00  0.00     0.008 C 
ATOM     12  N   UNL d   1      -2.487   1.641  -2.099  0.00  0.00    -0.191 NA
ATOM     13  C   UNL d   1      -0.407  -0.825   2.789  0.00  0.00     0.049 C 
ATOM     14  C   UNL d   1      -2.399  -1.887  -1.867  0.00  0.00     0.049 C 
ENDROOT
BRANCH   7  15
ATOM     15  C   UNL d   1       3.304  -3.654  -0.181  0.00  0.00     0.010 C 
ATOM     16  C   UNL d   1       3.989  -4.046  -1.508  0.00  0.00     0.015 C 
ATOM     17  C   UNL d   1       4.345  -2.847   0.621  0.00  0.00     0.015 C 
ENDBRANCH   7  15
TORSDOF 1
