REMARK  5 active torsions:
REMARK  status: ('A' for Active; 'I' for Inactive)
REMARK    1  A    between atoms: N_3  and  S_1 
REMARK    2  A    between atoms: C_5  and  S_1 
REMARK       I    between atoms: C_2  and  N_6 
REMARK    3  A    between atoms: O_8  and  C_2 
REMARK    4  A    between atoms: C_4  and  C_7 
REMARK    5  A    between atoms: C_15  and  O_8 
ROOT
ATOM      1  C   UNL d   1       2.079   3.685  -3.827  0.00  0.00     0.363 C 
ATOM      2  N   UNL d   1       0.740   0.978  -1.110  0.00  0.00    -0.205 NA
ATOM      3  N   UNL d   1       0.927   3.066  -3.353  0.00  0.00    -0.327 N 
ATOM      4  C   UNL d   1       1.196   2.402  -0.950  0.00  0.00     0.127 C 
ATOM      5  C   UNL d   1       0.524   3.327  -1.972  0.00  0.00     0.143 C 
ATOM      6  O   UNL d   1       2.790   4.377  -3.110  0.00  0.00    -0.238 OA
ATOM      7  C   UNL d   1       0.251   0.638  -3.528  0.00  0.00     0.035 C 
ATOM      8  C   UNL d   1       1.244   0.390  -2.397  0.00  0.00     0.109 C 
ATOM      9  C   UNL d   1       0.172   2.064  -4.089  0.00  0.00     0.129 C 
ENDROOT
BRANCH   2  10
ATOM     10  S   UNL d   1       1.110  -0.019   0.249  0.00  0.00     0.243 S 
ATOM     11  O   UNL d   1       2.494   0.230   0.601  0.00  0.00    -0.206 OA
ATOM     12  O   UNL d   1       0.634  -1.356  -0.028  0.00  0.00    -0.206 OA
BRANCH  10  13
ATOM     13  C   UNL d   1       0.074   0.613   1.552  0.00  0.00     0.075 A 
ATOM     14  C   UNL d   1      -1.316   0.489   1.433  0.00  0.00     0.041 A 
ATOM     15  C   UNL d   1      -2.151   0.875   2.495  0.00  0.00     0.049 A 
ATOM     16  C   UNL d   1      -1.567   1.385   3.667  0.00  0.00     0.016 A 
ATOM     17  C   UNL d   1      -0.179   1.507   3.780  0.00  0.00     0.002 A 
ATOM     18  C   UNL d   1       0.645   1.118   2.723  0.00  0.00     0.025 A 
BRANCH  15  19
ATOM     19  C   UNL d   1      -3.652   0.727   2.409  0.00  0.00     0.417 C 
ATOM     20  F   UNL d   1      -4.084   0.245   1.211  0.00  0.00    -0.166 F 
ATOM     21  F   UNL d   1      -4.147  -0.117   3.355  0.00  0.00    -0.166 F 
ATOM     22  F   UNL d   1      -4.300   1.912   2.589  0.00  0.00    -0.166 F 
ENDBRANCH  15  19
ENDBRANCH  10  13
ENDBRANCH   2  10
BRANCH   1  23
ATOM     23  O   UNL d   1       2.325   3.439  -5.142  0.00  0.00    -0.294 OA
BRANCH  23  24
ATOM     24  C   UNL d   1       3.513   3.996  -5.780  0.00  0.00     0.061 C 
ATOM     25  C   UNL d   1       4.787   3.455  -5.117  0.00  0.00     0.046 C 
ATOM     26  C   UNL d   1       3.472   3.508  -7.238  0.00  0.00     0.046 C 
ATOM     27  C   UNL d   1       3.489   5.530  -5.795  0.00  0.00     0.046 C 
ENDBRANCH  23  24
ENDBRANCH   1  23
TORSDOF 5
