REMARK  4 active torsions:
REMARK  status: ('A' for Active; 'I' for Inactive)
REMARK    1  A    between atoms: C_3  and  C_1 
REMARK       I    between atoms: N_4  and  C_1 
REMARK    2  A    between atoms: N_2  and  C_10 
REMARK    3  A    between atoms: C_10  and  C_3 
REMARK    4  A    between atoms: C_7  and  N_4 
ROOT
ATOM      1  C   UNL d   1       1.097   0.134  -0.023  0.00  0.00     0.223 C 
ATOM      2  N   UNL d   1       0.442   0.337   1.188  0.00  0.00    -0.327 N 
ATOM      3  O   UNL d   1       2.154   0.641  -0.370  0.00  0.00    -0.273 OA
ATOM      4  H   UNL d   1      -0.322  -0.288   1.411  0.00  0.00     0.169 HD
ENDROOT
BRANCH   1   5
ATOM      5  C   UNL d   1       0.329  -0.814  -0.926  0.00  0.00     0.133 C 
BRANCH   5   6
ATOM      6  C   UNL d   1       1.260  -1.610  -1.846  0.00  0.00     0.282 C 
BRANCH   6   7
ATOM      7  N   UNL d   1       0.527  -2.493  -2.779  0.00  0.00     0.093 N 
ATOM      8  C   UNL d   1      -0.320  -3.510  -2.119  0.00  0.00     0.298 C 
ATOM      9  C   UNL d   1       0.481  -4.620  -1.425  0.00  0.00     0.198 C 
ATOM     10  O   UNL d   1       1.330  -5.296  -2.360  0.00  0.00    -0.388 OA
ATOM     11  C   UNL d   1       2.221  -4.374  -3.003  0.00  0.00     0.198 C 
ATOM     12  C   UNL d   1       1.460  -3.216  -3.680  0.00  0.00     0.298 C 
ENDBRANCH   6   7
ENDBRANCH   5   6
ENDBRANCH   1   5
BRANCH   2  13
ATOM     13  C   UNL d   1       0.852   1.200   2.225  0.00  0.00     0.035 A 
ATOM     14  C   UNL d   1       1.774   2.231   2.039  0.00  0.00     0.037 A 
ATOM     15  C   UNL d   1       2.199   3.037   3.110  0.00  0.00    -0.043 A 
ATOM     16  C   UNL d   1       3.222   4.106   2.846  0.00  0.00     0.049 C 
ATOM     17  C   UNL d   1       1.665   2.796   4.384  0.00  0.00     0.017 A 
ATOM     18  C   UNL d   1       0.712   1.793   4.571  0.00  0.00     0.022 A 
ATOM     19 BR   UNL d   1       2.209   3.792   5.906  0.00  0.00    -0.051 Br
ATOM     20  C   UNL d   1       0.298   1.005   3.494  0.00  0.00     0.031 A 
ENDBRANCH   2  13
TORSDOF 4
