REMARK  3 active torsions:
REMARK  status: ('A' for Active; 'I' for Inactive)
REMARK    1  A    between atoms: C_3  and  C_1 
REMARK    2  A    between atoms: N_4  and  C_2 
REMARK    3  A    between atoms: C_6  and  N_5 
ROOT
ATOM      1  C   UNL d   1      -3.739   5.889   0.721  0.00  0.00     0.103 A 
ATOM      2  N   UNL d   1      -4.093   6.272   1.965  0.00  0.00    -0.351 N 
ATOM      3  HN  UNL d   1      -3.720   5.793   2.784  1.00  0.00     0.166 HD
ATOM      4  N   UNL d   1      -7.239   9.877   1.413  0.00  0.00    -0.191 NA
ATOM      5  C   UNL d   1      -6.462   9.033   1.247  0.00  0.00     0.101 C 
ATOM      6  C   UNL d   1      -5.516   7.987   1.032  0.00  0.00     0.060 A 
ATOM      7  C   UNL d   1      -4.246   6.547  -0.402  0.00  0.00     0.050 A 
ATOM      8  C   UNL d   1      -4.956   7.309   2.100  0.00  0.00     0.112 A 
ATOM      9  C   UNL d   1      -5.150   7.594  -0.248  0.00  0.00     0.028 A 
ENDROOT
BRANCH   1  10
ATOM     10  N   UNL d   1      -2.986   4.744   0.545  0.00  0.00    -0.365 N 
ATOM     11  C   UNL d   1      -2.859   3.837   1.700  0.00  0.00     0.139 C 
ATOM     12  C   UNL d   1      -2.575   2.416   1.158  0.00  0.00     0.117 C 
ATOM     13  N   UNL d   1      -1.329   2.459   0.352  0.00  0.00    -0.266 NA
ATOM     14  C   UNL d   1      -1.475   3.350  -0.819  0.00  0.00     0.117 C 
ATOM     15  C   UNL d   1      -1.783   4.784  -0.310  0.00  0.00     0.139 C 
BRANCH  13  16
ATOM     16  C   UNL d   1      -0.742   1.222   0.119  0.00  0.00     0.097 A 
ATOM     17  C   UNL d   1      -0.062   0.555   1.136  0.00  0.00     0.086 A 
ATOM     18  C   UNL d   1       0.521  -0.693   0.847  0.00  0.00     0.021 A 
ATOM     19  C   UNL d   1       0.440  -1.225  -0.434  0.00  0.00     0.018 A 
ATOM     20  C   UNL d   1      -0.226  -0.483  -1.384  0.00  0.00     0.089 A 
ATOM     21  N   UNL d   1      -0.808   0.713  -1.133  0.00  0.00    -0.356 N 
ATOM     22  HN  UNL d   1      -1.289   1.221  -1.874  1.00  0.00     0.166 HD
BRANCH  17  23
ATOM     23  C   UNL d   1       0.124   1.105   2.524  0.00  0.00     0.420 C 
ATOM     24  F   UNL d   1      -0.322   2.366   2.769  0.00  0.00    -0.166 F 
ATOM     25  F   UNL d   1      -0.497   0.321   3.457  0.00  0.00    -0.166 F 
ATOM     26  F   UNL d   1       1.440   1.120   2.893  0.00  0.00    -0.166 F 
ENDBRANCH  17  23
ENDBRANCH  13  16
ENDBRANCH   1  10
TORSDOF 3
