REMARK  6 active torsions:
REMARK  status: ('A' for Active; 'I' for Inactive)
REMARK       I    between atoms: N_3  and  C_1 
REMARK    1  A    between atoms: C_8  and  C_1 
REMARK    2  A    between atoms: O_5  and  C_2 
REMARK    3  A    between atoms: C_4  and  N_3 
REMARK    4  A    between atoms: C_12  and  O_5 
REMARK    5  A    between atoms: O_21  and  C_13 
REMARK    6  A    between atoms: C_24  and  C_16 
ROOT
ATOM      1  C   UNL d   1       0.317   1.786   3.064  0.00  0.00     0.175 A 
ATOM      2  C   UNL d   1       0.857   1.688   1.778  0.00  0.00     0.087 A 
ATOM      3  N   UNL d   1       0.971   2.409   4.086  0.00  0.00    -0.345 N 
ATOM      4  HN  UNL d   1       0.586   2.419   5.031  1.00  0.00     0.167 HD
ATOM      5  C   UNL d   1       2.087   2.300   1.532  0.00  0.00     0.035 A 
ATOM      6  C   UNL d   1       2.142   3.010   3.803  0.00  0.00     0.090 A 
ATOM      7  C   UNL d   1       2.729   2.998   2.552  0.00  0.00     0.019 A 
ENDROOT
BRANCH   2   8
ATOM      8  N   UNL d   1       0.265   0.947   0.730  0.00  0.00    -0.319 N 
ATOM      9  C   UNL d   1      -0.751   1.527  -0.021  0.00  0.00     0.256 C 
ATOM     10  O   UNL d   1      -1.272   2.612   0.200  0.00  0.00    -0.267 OA
ATOM     11  H   UNL d   1       0.917   0.441   0.146  0.00  0.00     0.169 HD
BRANCH   9  12
ATOM     12  C   UNL d   1      -1.125   0.752  -1.249  0.00  0.00     0.032 A 
ATOM     13  C   UNL d   1      -1.118  -0.647  -1.242  0.00  0.00     0.017 A 
ATOM     14  C   UNL d   1      -1.489  -1.355  -2.389  0.00  0.00     0.008 A 
ATOM     15  C   UNL d   1      -1.877  -0.675  -3.552  0.00  0.00    -0.059 A 
ATOM     16  C   UNL d   1      -1.860   0.727  -3.557  0.00  0.00     0.008 A 
ATOM     17  C   UNL d   1      -1.494   1.439  -2.409  0.00  0.00     0.017 A 
BRANCH  15  18
ATOM     18  C   UNL d   1      -2.322  -1.446  -4.771  0.00  0.00     0.034 C 
ATOM     19  C   UNL d   1      -1.171  -1.779  -5.707  0.00  0.00     0.010 C 
ENDBRANCH  15  18
ENDBRANCH   9  12
ENDBRANCH   2   8
BRANCH   1  20
ATOM     20  O   UNL d   1      -0.883   1.128   3.338  0.00  0.00    -0.292 OA
BRANCH  20  21
ATOM     21  C   UNL d   1      -1.545   1.492   4.495  0.00  0.00     0.078 A 
ATOM     22  C   UNL d   1      -1.799   2.829   4.814  0.00  0.00     0.040 A 
ATOM     23  C   UNL d   1      -2.430   3.162   6.016  0.00  0.00     0.039 A 
ATOM     24  C   UNL d   1      -2.845   2.159   6.891  0.00  0.00     0.068 A 
ATOM     25  C   UNL d   1      -2.659   0.820   6.533  0.00  0.00     0.039 A 
ATOM     26  C   UNL d   1      -2.008   0.481   5.336  0.00  0.00     0.040 A 
BRANCH  24  27
ATOM     27  O   UNL d   1      -3.441   2.360   8.107  0.00  0.00    -0.356 OA
ATOM     28  C   UNL d   1      -3.494   3.702   8.576  0.00  0.00     0.210 C 
ENDBRANCH  24  27
ENDBRANCH  20  21
ENDBRANCH   1  20
TORSDOF 6
