REMARK  3 active torsions:
REMARK  status: ('A' for Active; 'I' for Inactive)
REMARK    1  A    between atoms: C_4  and  C_1 
REMARK    2  A    between atoms: C_6  and  N_2 
REMARK    3  A    between atoms: N_3  and  C_5 
ROOT
ATOM      1  C   UNL d   1      -0.366  -7.315  -6.350  0.00  0.00     0.103 A 
ATOM      2  N   UNL d   1       0.549  -7.478  -7.330  0.00  0.00    -0.351 N 
ATOM      3  HN  UNL d   1       1.394  -6.907  -7.350  1.00  0.00     0.166 HD
ATOM      4  N   UNL d   1      -1.144 -10.925 -10.245  0.00  0.00    -0.191 NA
ATOM      5  C   UNL d   1      -0.986 -10.155  -9.390  0.00  0.00     0.101 C 
ATOM      6  C   UNL d   1      -0.802  -9.209  -8.339  0.00  0.00     0.060 A 
ATOM      7  C   UNL d   1      -1.527  -8.091  -6.345  0.00  0.00     0.050 A 
ATOM      8  C   UNL d   1       0.327  -8.414  -8.287  0.00  0.00     0.112 A 
ATOM      9  C   UNL d   1      -1.752  -9.040  -7.343  0.00  0.00     0.028 A 
ENDROOT
BRANCH   1  10
ATOM     10  N   UNL d   1      -0.167  -6.334  -5.415  0.00  0.00    -0.364 N 
ATOM     11  C   UNL d   1      -0.607  -6.437  -4.023  0.00  0.00     0.144 C 
ATOM     12  C   UNL d   1      -1.298  -5.122  -3.605  0.00  0.00     0.144 C 
ATOM     13  N   UNL d   1      -0.441  -3.964  -3.889  0.00  0.00    -0.364 N 
ATOM     14  C   UNL d   1       0.161  -3.904  -5.237  0.00  0.00     0.144 C 
ATOM     15  C   UNL d   1       0.802  -5.251  -5.649  0.00  0.00     0.144 C 
BRANCH  13  16
ATOM     16  C   UNL d   1      -0.121  -3.021  -2.945  0.00  0.00     0.103 A 
ATOM     17  C   UNL d   1      -0.974  -2.735  -1.879  0.00  0.00     0.049 A 
ATOM     18  C   UNL d   1      -0.616  -1.789  -0.920  0.00  0.00     0.021 A 
ATOM     19  C   UNL d   1       0.604  -1.127  -1.029  0.00  0.00     0.063 A 
ATOM     20  C   UNL d   1       1.392  -1.448  -2.118  0.00  0.00     0.106 A 
ATOM     21  N   UNL d   1       1.051  -2.360  -3.062  0.00  0.00    -0.352 N 
ATOM     22  HN  UNL d   1       1.672  -2.544  -3.850  1.00  0.00     0.166 HD
BRANCH  19  23
ATOM     23  C   UNL d   1       1.035  -0.111  -0.023  0.00  0.00     0.418 C 
ATOM     24  F   UNL d   1       2.272   0.405  -0.258  0.00  0.00    -0.166 F 
ATOM     25  F   UNL d   1       1.076  -0.616   1.242  0.00  0.00    -0.166 F 
ATOM     26  F   UNL d   1       0.190   0.956   0.033  0.00  0.00    -0.166 F 
ENDBRANCH  19  23
ENDBRANCH  13  16
ENDBRANCH   1  10
TORSDOF 3
