REMARK  5 active torsions:
REMARK  status: ('A' for Active; 'I' for Inactive)
REMARK    1  A    between atoms: C_5  and  C_1 
REMARK    2  A    between atoms: N_3  and  C_2 
REMARK    3  A    between atoms: N_4  and  C_7 
REMARK    4  A    between atoms: O_8  and  C_5 
REMARK    5  A    between atoms: C_9  and  O_8 
ROOT
ATOM      1  C   UNL d   1       2.812  -1.480  -1.030  0.00  0.00     0.072 A 
ATOM      2  C   UNL d   1       3.776  -1.728  -2.008  0.00  0.00     0.121 A 
ATOM      3  C   UNL d   1       3.996  -3.020  -2.519  0.00  0.00     0.073 A 
ATOM      4  C   UNL d   1       3.212  -4.082  -2.050  0.00  0.00     0.105 A 
ATOM      5  C   UNL d   1       2.030  -2.566  -0.583  0.00  0.00     0.022 A 
ATOM      6  C   UNL d   1       2.222  -3.857  -1.086  0.00  0.00     0.037 A 
ENDROOT
BRANCH   1   7
ATOM      7  C   UNL d   1       2.479  -0.150  -0.466  0.00  0.00     0.296 C 
ATOM      8  O   UNL d   1       1.322   0.079  -0.145  0.00  0.00    -0.259 OA
BRANCH   7   9
ATOM      9  O   UNL d   1       3.544   0.660  -0.234  0.00  0.00    -0.312 OA
BRANCH   9  10
ATOM     10  C   UNL d   1       3.145   1.841   0.496  0.00  0.00     0.136 C 
ATOM     11  C   UNL d   1       2.233   2.805  -0.299  0.00  0.00     0.015 C 
ATOM     12  C   UNL d   1       2.171   3.895   0.807  0.00  0.00     0.012 C 
ATOM     13  C   UNL d   1       1.937   3.591  -1.585  0.00  0.00     0.007 C 
ATOM     14  C   UNL d   1       3.640   4.258   0.824  0.00  0.00    -0.012 C 
ATOM     15  C   UNL d   1       4.296   2.827   0.923  0.00  0.00     0.037 C 
ATOM     16  C   UNL d   1       3.899   5.028  -0.513  0.00  0.00     0.005 C 
ATOM     17  C   UNL d   1       2.772   4.912  -1.603  0.00  0.00     0.001 C 
ENDBRANCH   9  10
ENDBRANCH   7   9
ENDBRANCH   1   7
BRANCH   2  18
ATOM     18  N   UNL d   1       4.502  -0.634  -2.607  0.00  0.00    -0.115 N 
ATOM     19  O   UNL d   1       3.836   0.210  -3.221  0.00  0.00    -0.532 OA
ATOM     20  O   UNL d   1       5.733  -0.669  -2.517  0.00  0.00    -0.532 OA
ENDBRANCH   2  18
BRANCH   4  21
ATOM     21  N   UNL d   1       3.403  -5.438  -2.585  0.00  0.00    -0.116 N 
ATOM     22  O   UNL d   1       4.290  -5.596  -3.434  0.00  0.00    -0.532 OA
ATOM     23  O   UNL d   1       2.668  -6.337  -2.155  0.00  0.00    -0.532 OA
ENDBRANCH   4  21
TORSDOF 5
