REMARK  6 active torsions:
REMARK  status: ('A' for Active; 'I' for Inactive)
REMARK    1  A    between atoms: C_10  and  N_1 
REMARK    2  A    between atoms: C_13  and  C_2 
REMARK    3  A    between atoms: S_11  and  C_5 
REMARK       I    between atoms: N_8  and  C_12 
REMARK       I    between atoms: C_9  and  N_8 
REMARK       I    between atoms: N_18  and  C_9 
REMARK    4  A    between atoms: C_20  and  C_10 
REMARK    5  A    between atoms: C_19  and  S_11 
REMARK    6  A    between atoms: C_12  and  C_19 
ROOT
ATOM      1  N   UNL d   1      -0.104  -1.291   0.060  0.00  0.00    -0.306 N 
ATOM      2  C   UNL d   1       1.136  -0.678  -0.051  0.00  0.00     0.135 A 
ATOM      3  N   UNL d   1       0.940   0.631  -0.014  0.00  0.00    -0.283 N 
ATOM      4  HN  UNL d   1       1.669   1.340  -0.091  1.00  0.00     0.188 HD
ATOM      5  C   UNL d   1      -1.008  -0.269   0.186  0.00  0.00     0.163 A 
ATOM      6  N   UNL d   1      -0.389   0.880   0.144  0.00  0.00    -0.278 N 
ATOM      7  HN  UNL d   1      -0.823   1.800   0.216  1.00  0.00     0.189 HD
ENDROOT
BRANCH   5   8
ATOM      8  S   UNL d   1      -2.712  -0.425   0.415  0.00  0.00    -0.083 SA
BRANCH   8   9
ATOM      9  C   UNL d   1      -2.953   0.532   1.941  0.00  0.00     0.185 C 
BRANCH   9  10
ATOM     10  C   UNL d   1      -3.141   2.032   1.743  0.00  0.00     0.235 C 
ATOM     11  N   UNL d   1      -2.097   2.696   1.125  0.00  0.00    -0.279 N 
ATOM     12  C   UNL d   1      -1.922   4.035   0.882  0.00  0.00     0.322 C 
ATOM     13  H   UNL d   1      -1.360   2.151   0.688  0.00  0.00     0.173 HD
ATOM     14  O   UNL d   1      -0.991   4.418   0.180  0.00  0.00    -0.247 OA
ATOM     15  N   UNL d   1      -2.813   4.875   1.480  0.00  0.00    -0.347 N 
ATOM     16  C   UNL d   1      -2.752   6.303   1.322  0.00  0.00     0.151 C 
ATOM     17  H   UNL d   1      -3.621   4.448   1.924  0.00  0.00     0.163 HD
ATOM     18  O   UNL d   1      -4.120   2.613   2.216  0.00  0.00    -0.272 OA
ENDBRANCH   9  10
ENDBRANCH   8   9
ENDBRANCH   5   8
BRANCH   1  19
ATOM     19  C   UNL d   1      -0.404  -2.710   0.031  0.00  0.00     0.171 C 
BRANCH  19  20
ATOM     20  C   UNL d   1      -0.398  -3.371   1.397  0.00  0.00    -0.040 A 
ATOM     21  C   UNL d   1      -0.144  -2.684   2.598  0.00  0.00     0.009 A 
ATOM     22  C   UNL d   1      -0.081  -3.366   3.814  0.00  0.00     0.001 A 
ATOM     23  C   UNL d   1      -0.281  -4.742   3.853  0.00  0.00     0.000 A 
ATOM     24  C   UNL d   1      -0.553  -5.437   2.679  0.00  0.00     0.001 A 
ATOM     25  C   UNL d   1      -0.612  -4.758   1.460  0.00  0.00     0.009 A 
ENDBRANCH  19  20
ENDBRANCH   1  19
BRANCH   2  26
ATOM     26  C   UNL d   1       2.471  -1.274  -0.194  0.00  0.00     0.012 A 
ATOM     27  C   UNL d   1       3.440  -0.560  -0.911  0.00  0.00     0.032 A 
ATOM     28  C   UNL d   1       4.724  -1.069  -1.007  0.00  0.00     0.088 A 
ATOM     29  N   UNL d   1       5.108  -2.232  -0.445  0.00  0.00    -0.375 N 
ATOM     30  C   UNL d   1       4.174  -2.898   0.260  0.00  0.00     0.088 A 
ATOM     31  HN  UNL d   1       6.058  -2.589  -0.549  1.00  0.00     0.164 HD
ATOM     32  C   UNL d   1       2.866  -2.464   0.417  0.00  0.00     0.032 A 
ENDBRANCH   2  26
TORSDOF 6
