REMARK  3 active torsions:
REMARK  status: ('A' for Active; 'I' for Inactive)
REMARK    1  A    between atoms: N_7  and  C_1 
REMARK    2  A    between atoms: N_6  and  C_10 
REMARK       I    between atoms: C_8  and  N_7 
REMARK    3  A    between atoms: C_12  and  C_8 
ROOT
ATOM      1  C   UNL d   1       2.456  -0.702   0.311  0.00  0.00     0.098 C 
ATOM      2  C   UNL d   1       1.964   0.580   0.076  0.00  0.00     0.085 C 
ATOM      3  C   UNL d   1       0.514   0.620   0.169  0.00  0.00    -0.021 C 
ATOM      4  C   UNL d   1       0.017  -0.647   0.402  0.00  0.00    -0.007 C 
ATOM      5  S   UNL d   1       1.212  -1.708   0.905  0.00  0.00    -0.075 SA
ATOM      6  C   UNL d   1       2.795   1.693  -0.316  0.00  0.00     0.103 C 
ATOM      7  N   UNL d   1       3.479   2.570  -0.644  0.00  0.00    -0.191 NA
ATOM      8  C   UNL d   1      -0.428   1.769  -0.075  0.00  0.00     0.042 C 
ATOM      9  C   UNL d   1      -1.400  -1.104   0.302  0.00  0.00     0.051 C 
ATOM     10  C   UNL d   1      -1.899   1.365   0.199  0.00  0.00     0.009 C 
ATOM     11  C   UNL d   1      -2.269  -0.025  -0.365  0.00  0.00    -0.014 C 
ATOM     12  C   UNL d   1      -2.161  -0.068  -1.894  0.00  0.00     0.010 C 
ENDROOT
BRANCH   1  13
ATOM     13  N   UNL d   1       3.741  -1.239   0.148  0.00  0.00    -0.316 N 
ATOM     14  C   UNL d   1       4.013  -2.603   0.240  0.00  0.00     0.256 C 
ATOM     15  O   UNL d   1       3.227  -3.500   0.542  0.00  0.00    -0.267 OA
ATOM     16  H   UNL d   1       4.469  -0.601  -0.150  0.00  0.00     0.169 HD
BRANCH  14  17
ATOM     17  C   UNL d   1       5.377  -3.091  -0.087  0.00  0.00     0.034 A 
ATOM     18  C   UNL d   1       6.210  -2.485  -1.027  0.00  0.00     0.053 A 
ATOM     19  C   UNL d   1       7.399  -3.140  -1.395  0.00  0.00     0.103 A 
ATOM     20  C   UNL d   1       7.763  -4.372  -0.827  0.00  0.00     0.036 A 
ATOM     21  C   UNL d   1       6.934  -4.963   0.120  0.00  0.00     0.003 A 
ATOM     22  C   UNL d   1       5.751  -4.326   0.483  0.00  0.00     0.017 A 
BRANCH  19  23
ATOM     23  N   UNL d   1       8.257  -2.552  -2.431  0.00  0.00    -0.116 N 
ATOM     24  O   UNL d   1       7.881  -1.492  -2.949  0.00  0.00    -0.532 OA
ATOM     25  O   UNL d   1       9.301  -3.150  -2.724  0.00  0.00    -0.532 OA
ENDBRANCH  19  23
ENDBRANCH  14  17
ENDBRANCH   1  13
TORSDOF 3
