REMARK  10 active torsions:
REMARK  status: ('A' for Active; 'I' for Inactive)
REMARK    1  A    between atoms: N_2  and  S_1 
REMARK    2  A    between atoms: C_7  and  S_1 
REMARK    3  A    between atoms: C_5  and  N_2 
REMARK    4  A    between atoms: C_11  and  N_2 
REMARK    5  A    between atoms: N_3  and  C_6 
REMARK    6  A    between atoms: C_4  and  C_5 
REMARK    7  A    between atoms: C_8  and  C_12 
REMARK    8  A    between atoms: O_21  and  C_8 
REMARK    9  A    between atoms: C_22  and  C_11 
REMARK   10  A    between atoms: C_28  and  O_21 
ROOT
ATOM      1  N   UNL d   1      -1.622   1.910   2.265  0.00  0.00    -0.198 NA
ENDROOT
BRANCH   1   2
ATOM      2  S   UNL d   1      -0.604   1.634   3.647  0.00  0.00     0.244 S 
ATOM      3  O   UNL d   1       0.191   0.454   3.401  0.00  0.00    -0.206 OA
ATOM      4  O   UNL d   1      -1.375   1.745   4.872  0.00  0.00    -0.206 OA
BRANCH   2   5
ATOM      5  C   UNL d   1       0.535   3.000   3.715  0.00  0.00     0.074 A 
ATOM      6  C   UNL d   1       0.562   4.016   2.759  0.00  0.00     0.026 A 
ATOM      7  C   UNL d   1       1.421   5.108   2.945  0.00  0.00     0.025 A 
ATOM      8  C   UNL d   1       2.224   5.185   4.085  0.00  0.00     0.034 A 
ATOM      9  C   UNL d   1       2.200   4.170   5.038  0.00  0.00     0.025 A 
ATOM     10 CL   UNL d   1       3.232   6.558   4.332  0.00  0.00    -0.084 Cl
ATOM     11  C   UNL d   1       1.359   3.074   4.854  0.00  0.00     0.026 A 
ENDBRANCH   2   5
ENDBRANCH   1   2
BRANCH   1  12
ATOM     12  C   UNL d   1      -0.994   1.311   1.035  0.00  0.00     0.148 C 
BRANCH  12  13
ATOM     13  C   UNL d   1      -1.736   1.391  -0.294  0.00  0.00    -0.018 A 
ATOM     14  C   UNL d   1      -2.265   0.310  -1.069  0.00  0.00     0.037 A 
ATOM     15  C   UNL d   1      -2.796   0.703  -2.331  0.00  0.00     0.030 A 
ATOM     16  C   UNL d   1      -2.889   2.027  -2.783  0.00  0.00     0.002 A 
ATOM     17  C   UNL d   1      -2.419   3.050  -1.995  0.00  0.00     0.001 A 
ATOM     18  C   UNL d   1      -1.842   2.732  -0.772  0.00  0.00     0.011 A 
BRANCH  14  19
ATOM     19  N   UNL d   1      -2.393  -1.037  -0.685  0.00  0.00    -0.380 N 
ATOM     20  C   UNL d   1      -3.178  -1.983  -1.537  0.00  0.00     0.124 C 
ATOM     21  C   UNL d   1      -3.896  -3.043  -0.697  0.00  0.00     0.034 C 
ATOM     22  C   UNL d   1      -3.025  -3.691   0.386  0.00  0.00     0.088 C 
ATOM     23  C   UNL d   1      -2.219  -2.623   1.127  0.00  0.00     0.034 C 
ATOM     24  C   UNL d   1      -1.423  -1.798   0.112  0.00  0.00     0.124 C 
BRANCH  22  25
ATOM     25  C   UNL d   1      -2.112  -4.763  -0.182  0.00  0.00     0.263 C 
ATOM     26  O   UNL d   1      -2.059  -5.094  -1.357  0.00  0.00    -0.265 OA
BRANCH  25  27
ATOM     27  O   UNL d   1      -1.417  -5.346   0.834  0.00  0.00    -0.322 OA
BRANCH  27  28
ATOM     28  C   UNL d   1      -0.712  -6.549   0.506  0.00  0.00     0.174 C 
ATOM     29  C   UNL d   1      -1.669  -7.716   0.661  0.00  0.00     0.034 C 
ENDBRANCH  27  28
ENDBRANCH  25  27
ENDBRANCH  22  25
ENDBRANCH  14  19
ENDBRANCH  12  13
ENDBRANCH   1  12
BRANCH   1  30
ATOM     30  C   UNL d   1      -3.014   1.380   2.445  0.00  0.00     0.146 C 
BRANCH  30  31
ATOM     31  C   UNL d   1      -3.849   2.119   3.466  0.00  0.00    -0.044 A 
ATOM     32  C   UNL d   1      -4.062   3.500   3.363  0.00  0.00     0.008 A 
ATOM     33  C   UNL d   1      -4.798   4.175   4.340  0.00  0.00     0.001 A 
ATOM     34  C   UNL d   1      -5.329   3.476   5.423  0.00  0.00     0.000 A 
ATOM     35  C   UNL d   1      -5.136   2.100   5.528  0.00  0.00     0.001 A 
ATOM     36  C   UNL d   1      -4.409   1.424   4.550  0.00  0.00     0.008 A 
ENDBRANCH  30  31
ENDBRANCH   1  30
TORSDOF 10
