REMARK  2 active torsions:
REMARK  status: ('A' for Active; 'I' for Inactive)
REMARK    1  A    between atoms: C_3  and  C_1 
REMARK       I    between atoms: N_7  and  C_3 
REMARK    2  A    between atoms: C_9  and  N_10 
ROOT
ATOM      1  C   UNL d   1      -1.333  -2.933  -0.057  0.00  0.00     0.256 C 
ATOM      2  N   UNL d   1      -0.089  -3.574  -0.100  0.00  0.00    -0.345 N 
ATOM      3  N   UNL d   1       2.421  -4.910  -0.457  0.00  0.00    -0.214 N 
ATOM      4  O   UNL d   1      -2.186  -3.109  -0.929  0.00  0.00    -0.267 OA
ATOM      5  C   UNL d   1       0.926  -3.571   0.967  0.00  0.00     0.146 C 
ATOM      6  C   UNL d   1       0.081  -4.635  -1.108  0.00  0.00     0.146 C 
ATOM      7  C   UNL d   1       1.530  -4.767  -1.611  0.00  0.00     0.161 C 
ATOM      8  C   UNL d   1       2.371  -3.783   0.474  0.00  0.00     0.161 C 
ENDROOT
BRANCH   1   9
ATOM      9  C   UNL d   1      -1.685  -2.028   1.058  0.00  0.00     0.061 A 
ATOM     10  C   UNL d   1      -2.339  -0.786   0.820  0.00  0.00     0.082 A 
ATOM     11  N   UNL d   1      -2.671  -0.229  -0.359  0.00  0.00    -0.310 N 
ATOM     12  C   UNL d   1      -2.734   0.096   1.989  0.00  0.00     0.068 A 
ATOM     13  S   UNL d   1      -3.470   1.184  -0.031  0.00  0.00     0.068 SA
ATOM     14  HN  UNL d   1      -2.468  -0.607  -1.284  1.00  0.00     0.176 HD
ATOM     15  N   UNL d   1      -3.360   1.224   1.624  0.00  0.00    -0.310 N 
ATOM     16  HN  UNL d   1      -3.701   1.961   2.241  1.00  0.00     0.176 HD
ATOM     17  C   UNL d   1      -2.448  -0.280   3.323  0.00  0.00     0.032 A 
ATOM     18  C   UNL d   1      -1.839  -1.531   3.498  0.00  0.00     0.003 A 
ATOM     19  C   UNL d   1      -1.507  -2.380   2.417  0.00  0.00     0.019 A 
ENDBRANCH   1   9
BRANCH   3  20
ATOM     20  C   UNL d   1       3.683  -5.431  -0.688  0.00  0.00     0.679 A 
ATOM     21  N   UNL d   1       3.980  -5.939  -1.896  0.00  0.00    -0.202 N 
ATOM     22  C   UNL d   1       5.186  -6.518  -2.053  0.00  0.00     0.107 A 
ATOM     23  HN  UNL d   1       3.315  -5.888  -2.668  1.00  0.00     0.183 HD
ATOM     24  C   UNL d   1       6.112  -6.629  -1.049  0.00  0.00     0.035 A 
ATOM     25  C   UNL d   1       5.730  -6.086   0.148  0.00  0.00     0.107 A 
ATOM     26  N   UNL d   1       4.545  -5.482   0.344  0.00  0.00    -0.202 N 
ATOM     27  HN  UNL d   1       4.305  -5.075   1.248  1.00  0.00     0.183 HD
ENDBRANCH   3  20
TORSDOF 2
