REMARK  5 active torsions:
REMARK  status: ('A' for Active; 'I' for Inactive)
REMARK    1  A    between atoms: C_11  and  C_3 
REMARK    2  A    between atoms: C_15  and  N_6 
REMARK    3  A    between atoms: C_14  and  C_11 
REMARK    4  A    between atoms: C_17  and  C_12 
REMARK    5  A    between atoms: C_25  and  C_17 
ROOT
ATOM      1  N   UNL d   1      -0.271   0.565   0.003  0.00  0.00    -0.062 N 
ATOM      2  C   UNL d   1       0.039  -0.793   0.062  0.00  0.00     0.730 A 
ATOM      3  C   UNL d   1      -1.660   0.690  -0.106  0.00  0.00     0.212 A 
ATOM      4  N   UNL d   1       1.200  -1.331   0.174  0.00  0.00    -0.151 N 
ATOM      5  HN  UNL d   1       1.359  -2.339   0.172  1.00  0.00     0.188 HD
ATOM      6  N   UNL d   1      -1.218  -1.395  -0.053  0.00  0.00    -0.083 N 
ATOM      7  N   UNL d   1      -2.273  -0.491  -0.171  0.00  0.00    -0.259 N 
ATOM      8  HN  UNL d   1      -3.268  -0.685  -0.280  1.00  0.00     0.190 HD
ATOM      9  N   UNL d   1       0.701   1.546  -0.062  0.00  0.00    -0.276 N 
ATOM     10  HN  UNL d   1       0.487   2.535  -0.196  1.00  0.00     0.188 HD
ATOM     11  C   UNL d   1       1.926   1.087   0.065  0.00  0.00     0.099 C 
ATOM     12  C   UNL d   1       2.201  -0.401   0.296  0.00  0.00     0.284 C 
ATOM     13  O   UNL d   1       3.336  -0.722   0.630  0.00  0.00    -0.265 OA
ENDROOT
BRANCH  11  14
ATOM     14  C   UNL d   1       3.146   1.971  -0.023  0.00  0.00     0.103 C 
BRANCH  14  15
ATOM     15  C   UNL d   1       3.695   2.057  -1.428  0.00  0.00    -0.052 A 
ATOM     16  C   UNL d   1       3.298   3.107  -2.263  0.00  0.00     0.008 A 
ATOM     17  C   UNL d   1       3.765   3.187  -3.576  0.00  0.00     0.007 A 
ATOM     18  C   UNL d   1       4.632   2.214  -4.085  0.00  0.00    -0.062 A 
ATOM     19  C   UNL d   1       5.043   1.170  -3.250  0.00  0.00     0.007 A 
ATOM     20  C   UNL d   1       5.082   2.293  -5.514  0.00  0.00     0.048 C 
ATOM     21  C   UNL d   1       4.580   1.091  -1.931  0.00  0.00     0.008 A 
ENDBRANCH  14  15
ENDBRANCH  11  14
BRANCH   3  22
ATOM     22  C   UNL d   1      -2.442   1.982  -0.049  0.00  0.00     0.236 C 
ATOM     23  O   UNL d   1      -1.980   2.885   0.642  0.00  0.00    -0.283 OA
BRANCH  22  24
ATOM     24  C   UNL d   1      -3.728   2.010  -0.731  0.00  0.00     0.059 A 
ATOM     25  S   UNL d   1      -4.954   3.061  -0.134  0.00  0.00    -0.098 SA
ATOM     26  C   UNL d   1      -6.087   2.529  -1.298  0.00  0.00     0.050 A 
ATOM     27  C   UNL d   1      -5.544   1.598  -2.153  0.00  0.00     0.009 A 
ATOM     28  C   UNL d   1      -4.186   1.299  -1.826  0.00  0.00     0.023 A 
ENDBRANCH  22  24
ENDBRANCH   3  22
BRANCH   6  29
ATOM     29  C   UNL d   1      -1.439  -2.790  -0.008  0.00  0.00     0.074 A 
ATOM     30  C   UNL d   1      -0.628  -3.608   0.800  0.00  0.00     0.034 A 
ATOM     31  C   UNL d   1      -0.699  -4.999   0.736  0.00  0.00     0.026 A 
ATOM     32  C   UNL d   1      -1.600  -5.593  -0.137  0.00  0.00     0.034 A 
ATOM     33  C   UNL d   1      -2.461  -4.806  -0.902  0.00  0.00     0.026 A 
ATOM     34 CL   UNL d   1      -1.630  -7.305  -0.286  0.00  0.00    -0.084 Cl
ATOM     35  C   UNL d   1      -2.395  -3.408  -0.823  0.00  0.00     0.034 A 
ENDBRANCH   6  29
TORSDOF 5
