REMARK  5 active torsions:
REMARK  status: ('A' for Active; 'I' for Inactive)
REMARK       I    between atoms: N_2  and  C_1 
REMARK    1  A    between atoms: C_3  and  C_1 
REMARK    2  A    between atoms: C_4  and  N_2 
REMARK    3  A    between atoms: C_5  and  N_2 
REMARK    4  A    between atoms: C_13  and  C_5 
REMARK    5  A    between atoms: O_21  and  C_15 
ROOT
ATOM      1  C   UNL d   1       0.915  -0.013  -0.016  0.00  0.00     0.258 C 
ATOM      2  N   UNL d   1       0.185  -1.202   0.104  0.00  0.00    -0.308 N 
ATOM      3  O   UNL d   1       2.150  -0.014  -0.040  0.00  0.00    -0.267 OA
ENDROOT
BRANCH   2   4
ATOM      4  C   UNL d   1      -1.221  -1.300   0.040  0.00  0.00     0.038 A 
ATOM      5  C   UNL d   1      -1.899  -1.182  -1.173  0.00  0.00     0.032 A 
ATOM      6  C   UNL d   1      -3.298  -1.235  -1.197  0.00  0.00     0.039 A 
ATOM      7  C   UNL d   1      -4.019  -1.382  -0.009  0.00  0.00     0.068 A 
ATOM      8  C   UNL d   1      -3.329  -1.511   1.200  0.00  0.00     0.039 A 
ATOM      9  C   UNL d   1      -1.935  -1.498   1.225  0.00  0.00     0.032 A 
BRANCH   7  10
ATOM     10  O   UNL d   1      -5.380  -1.401   0.112  0.00  0.00    -0.356 OA
ATOM     11  C   UNL d   1      -6.131  -1.458  -1.094  0.00  0.00     0.210 C 
ENDBRANCH   7  10
ENDBRANCH   2   4
BRANCH   2  12
ATOM     12  C   UNL d   1       0.916  -2.482   0.087  0.00  0.00     0.189 C 
BRANCH  12  13
ATOM     13  C   UNL d   1       1.090  -3.087  -1.299  0.00  0.00     0.027 A 
ATOM     14  N   UNL d   1       0.559  -4.321  -1.506  0.00  0.00    -0.368 N 
ATOM     15  C   UNL d   1       0.743  -4.886  -2.721  0.00  0.00     0.088 A 
ATOM     16  HN  UNL d   1       0.042  -4.804  -0.771  1.00  0.00     0.165 HD
ATOM     17  C   UNL d   1       1.425  -4.282  -3.760  0.00  0.00     0.017 A 
ATOM     18  C   UNL d   1       1.959  -3.019  -3.542  0.00  0.00     0.003 A 
ATOM     19  C   UNL d   1       1.797  -2.417  -2.296  0.00  0.00     0.027 A 
ENDBRANCH  12  13
ENDBRANCH   2  12
BRANCH   1  20
ATOM     20  C   UNL d   1       0.256   1.320  -0.163  0.00  0.00     0.032 A 
ATOM     21  C   UNL d   1      -0.903   1.711   0.519  0.00  0.00     0.020 A 
ATOM     22  C   UNL d   1      -1.465   2.973   0.296  0.00  0.00     0.043 A 
ATOM     23  C   UNL d   1      -0.839   3.864  -0.567  0.00  0.00     0.116 A 
ATOM     24  C   UNL d   1       0.345   3.522  -1.205  0.00  0.00     0.043 A 
ATOM     25  F   UNL d   1      -1.378   5.071  -0.775  0.00  0.00    -0.206 F 
ATOM     26  C   UNL d   1       0.892   2.253  -1.003  0.00  0.00     0.020 A 
ENDBRANCH   1  20
TORSDOF 5
