REMARK  4 active torsions:
REMARK  status: ('A' for Active; 'I' for Inactive)
REMARK    1  A    between atoms: C_3  and  C_1 
REMARK    2  A    between atoms: O_12  and  C_2 
REMARK       I    between atoms: N_6  and  C_3 
REMARK    3  A    between atoms: C_9  and  N_6 
REMARK    4  A    between atoms: C_8  and  O_12 
ROOT
ATOM      1  C   UNL d   1       0.045   1.269  -0.209  0.00  0.00     0.145 A 
ATOM      2  C   UNL d   1       0.197  -0.891   0.189  0.00  0.00     0.191 A 
ATOM      3  O   UNL d   1      -0.668   0.167   0.196  0.00  0.00    -0.282 OA
ATOM      4  C   UNL d   1       1.338   0.893  -0.522  0.00  0.00     0.048 A 
ATOM      5  C   UNL d   1       1.426  -0.499  -0.299  0.00  0.00     0.067 A 
ENDROOT
BRANCH   1   6
ATOM      6  C   UNL d   1      -0.562   2.585  -0.211  0.00  0.00     0.275 C 
ATOM      7  N   UNL d   1      -1.916   2.607   0.052  0.00  0.00    -0.350 N 
ATOM      8  H   UNL d   1      -2.346   1.715   0.271  0.00  0.00     0.163 HD
ATOM      9  O   UNL d   1       0.087   3.607  -0.413  0.00  0.00    -0.265 OA
BRANCH   7  10
ATOM     10  C   UNL d   1      -2.679   3.829   0.281  0.00  0.00     0.093 C 
ATOM     11  C   UNL d   1      -2.678   4.858  -0.879  0.00  0.00     0.064 C 
ATOM     12  C   UNL d   1      -2.933   6.142  -0.144  0.00  0.00    -0.050 A 
ATOM     13  C   UNL d   1      -3.288   7.371  -0.677  0.00  0.00     0.007 A 
ATOM     14  C   UNL d   1      -2.699   5.995   1.227  0.00  0.00    -0.050 A 
ATOM     15  C   UNL d   1      -3.420   8.459   0.190  0.00  0.00     0.001 A 
ATOM     16  C   UNL d   1      -3.187   8.310   1.565  0.00  0.00     0.001 A 
ATOM     17  C   UNL d   1      -2.818   7.071   2.092  0.00  0.00     0.007 A 
ATOM     18  C   UNL d   1      -2.261   4.601   1.555  0.00  0.00     0.064 C 
ENDBRANCH   7  10
ENDBRANCH   1   6
BRANCH   2  19
ATOM     19  O   UNL d   1      -0.314  -2.026   0.667  0.00  0.00    -0.288 OA
BRANCH  19  20
ATOM     20  C   UNL d   1       0.504  -2.940   1.299  0.00  0.00     0.081 A 
ATOM     21  C   UNL d   1       1.543  -2.553   2.152  0.00  0.00     0.061 A 
ATOM     22  C   UNL d   1       2.336  -3.521   2.764  0.00  0.00     0.038 A 
ATOM     23 CL   UNL d   1       3.644  -3.034   3.769  0.00  0.00    -0.084 Cl
ATOM     24  C   UNL d   1       2.079  -4.876   2.570  0.00  0.00     0.048 A 
ATOM     25  C   UNL d   1       1.012  -5.253   1.756  0.00  0.00     0.038 A 
ATOM     26  C   UNL d   1       0.221  -4.294   1.121  0.00  0.00     0.061 A 
ATOM     27 CL   UNL d   1       0.668  -6.926   1.540  0.00  0.00    -0.084 Cl
ENDBRANCH  19  20
ENDBRANCH   2  19
TORSDOF 4
