REMARK  3 active torsions:
REMARK  status: ('A' for Active; 'I' for Inactive)
REMARK       I    between atoms: N_2  and  C_1 
REMARK       I    between atoms: N_3  and  C_1 
REMARK    1  A    between atoms: C_7  and  N_2 
REMARK    2  A    between atoms: C_8  and  N_3 
REMARK    3  A    between atoms: C_5  and  C_6 
ROOT
ATOM      1  C   UNL d   1       0.506  -0.532   0.257  0.00  0.00     0.322 C 
ATOM      2  N   UNL d   1       1.916  -0.442   0.341  0.00  0.00    -0.334 N 
ATOM      3  N   UNL d   1       0.029  -1.671  -0.354  0.00  0.00    -0.309 N 
ATOM      4  O   UNL d   1      -0.246   0.353   0.655  0.00  0.00    -0.247 OA
ATOM      5  C   UNL d   1       2.788  -1.608   0.195  0.00  0.00     0.155 C 
ATOM      6  H   UNL d   1       0.515  -2.527  -0.167  0.00  0.00     0.170 HD
ENDROOT
BRANCH   3   7
ATOM      7  C   UNL d   1      -1.170  -1.812  -1.089  0.00  0.00     0.036 A 
ATOM      8  C   UNL d   1      -1.998  -0.752  -1.468  0.00  0.00     0.030 A 
ATOM      9  C   UNL d   1      -3.071  -0.970  -2.356  0.00  0.00     0.010 A 
ATOM     10  C   UNL d   1      -3.350  -2.244  -2.888  0.00  0.00    -0.051 A 
ATOM     11  C   UNL d   1      -2.541  -3.300  -2.445  0.00  0.00     0.010 A 
ATOM     12  C   UNL d   1      -1.474  -3.090  -1.566  0.00  0.00     0.030 A 
BRANCH  10  13
ATOM     13  C   UNL d   1      -4.396  -2.461  -3.999  0.00  0.00    -0.024 C 
ATOM     14  C   UNL d   1      -5.076  -3.850  -3.916  0.00  0.00     0.019 C 
ATOM     15  C   UNL d   1      -5.536  -1.418  -3.997  0.00  0.00     0.019 C 
ATOM     16  C   UNL d   1      -3.661  -2.364  -5.353  0.00  0.00     0.019 C 
ENDBRANCH  10  13
ENDBRANCH   3   7
BRANCH   2  17
ATOM     17  C   UNL d   1       2.518   0.793   0.947  0.00  0.00     0.088 C 
ATOM     18  C   UNL d   1       1.944   2.119   0.399  0.00  0.00     0.025 C 
ATOM     19  C   UNL d   1       2.275   2.278  -1.080  0.00  0.00     0.002 C 
ATOM     20  C   UNL d   1       3.777   2.440  -1.251  0.00  0.00     0.000 C 
ATOM     21  C   UNL d   1       4.564   1.311  -0.589  0.00  0.00     0.002 C 
ATOM     22  C   UNL d   1       4.064   0.922   0.815  0.00  0.00     0.025 C 
ENDBRANCH   2  17
TORSDOF 3
