REMARK  1 active torsions:
REMARK  status: ('A' for Active; 'I' for Inactive)
REMARK    1  A    between atoms: O_20  and  C_17 
ROOT
ATOM      1  C   UNL d   1      -0.584  -0.767  -0.310  0.00  0.00     0.021 C 
ATOM      2  C   UNL d   1      -0.253   0.264  -1.426  0.00  0.00     0.006 C 
ATOM      3  C   UNL d   1      -0.839  -0.122  -2.825  0.00  0.00    -0.000 C 
ATOM      4  C   UNL d   1      -0.254  -1.499  -3.283  0.00  0.00     0.024 C 
ATOM      5  C   UNL d   1      -1.117  -2.304  -4.243  0.00  0.00    -0.047 C 
ATOM      6  C   UNL d   1      -2.458  -1.981  -4.474  0.00  0.00    -0.049 C 
ATOM      7  C   UNL d   1      -1.818  -0.148   0.323  0.00  0.00     0.135 C 
ATOM      8  C   UNL d   1      -0.819  -2.170  -0.877  0.00  0.00     0.018 C 
ATOM      9  C   UNL d   1       0.106  -2.405  -2.071  0.00  0.00     0.011 C 
ATOM     10  C   UNL d   1      -0.732   1.608  -0.861  0.00  0.00     0.013 C 
ATOM     11  C   UNL d   1      -2.379  -0.048  -2.887  0.00  0.00     0.010 C 
ATOM     12  C   UNL d   1      -0.592  -3.484  -4.803  0.00  0.00     0.011 C 
ATOM     13  C   UNL d   1      -2.970  -0.607  -4.169  0.00  0.00     0.039 C 
ATOM     14  C   UNL d   1      -3.303  -2.938  -5.052  0.00  0.00     0.044 C 
ATOM     15  C   UNL d   1      -1.960   1.319  -0.002  0.00  0.00     0.079 C 
ATOM     16  O   UNL d   1      -2.608  -0.756   1.039  0.00  0.00    -0.297 OA
ATOM     17  C   UNL d   1      -2.796  -4.181  -5.427  0.00  0.00     0.068 C 
ATOM     18  C   UNL d   1      -1.431  -4.423  -5.394  0.00  0.00     0.037 C 
ATOM     19  C   UNL d   1       0.499  -0.812   0.780  0.00  0.00     0.024 C 
ENDROOT
BRANCH  17  20
ATOM     20  O   UNL d   1      -3.615  -5.198  -5.833  0.00  0.00    -0.356 OA
ATOM     21  C   UNL d   1      -4.448  -5.621  -4.747  0.00  0.00     0.210 C 
ENDBRANCH  17  20
TORSDOF 1
