REMARK  1 active torsions:
REMARK  status: ('A' for Active; 'I' for Inactive)
REMARK    1  A    between atoms: O_18  and  C_7 
ROOT
ATOM      1  C   UNL d   1       1.368   0.728   0.001  0.00  0.00     0.096 A 
ATOM      2  C   UNL d   1       0.739  -0.483   0.000  0.00  0.00     0.022 A 
ATOM      3  C   UNL d   1       1.598  -1.707  -0.001  0.00  0.00     0.107 A 
ATOM      4  C   UNL d   1       2.866   0.794   0.003  0.00  0.00     0.262 A 
ATOM      5  C   UNL d   1       0.650   2.029   0.001  0.00  0.00     0.158 A 
ATOM      6  N   UNL d   1       3.547  -0.386   0.004  0.00  0.00    -0.302 N 
ATOM      7  C   UNL d   1       2.942  -1.595   0.001  0.00  0.00     0.165 A 
ATOM      8  C   UNL d   1      -0.764  -0.450   0.000  0.00  0.00     0.013 A 
ATOM      9  O   UNL d   1      -0.719   1.995  -0.002  0.00  0.00    -0.292 OA
ATOM     10  C   UNL d   1      -1.419   0.785  -0.001  0.00  0.00     0.089 A 
ATOM     11  C   UNL d   1       1.080  -3.038  -0.005  0.00  0.00     0.104 C 
ATOM     12  N   UNL d   1       0.672  -4.125  -0.008  0.00  0.00    -0.191 NA
ATOM     13  N   UNL d   1       1.175   3.206   0.002  0.00  0.00    -0.379 N 
ATOM     14  HN  UNL d   1       0.647   4.079   0.001  1.00  0.00     0.158 HD
ATOM     15  O   UNL d   1       3.481   1.857   0.004  0.00  0.00    -0.267 OA
ATOM     16  C   UNL d   1      -1.614  -1.569   0.003  0.00  0.00     0.039 A 
ATOM     17  C   UNL d   1      -2.814   0.928  -0.000  0.00  0.00     0.040 A 
ATOM     18  C   UNL d   1      -3.014  -1.446   0.004  0.00  0.00     0.035 A 
ATOM     19  C   UNL d   1      -3.619  -0.199   0.002  0.00  0.00     0.026 A 
ATOM     20 CL   UNL d   1      -3.992  -2.863   0.007  0.00  0.00    -0.084 Cl
ATOM     21  H   UNL d   1       4.554  -0.287   0.005  0.00  0.00     0.171 HD
ATOM     22  H   UNL d   1       2.208   3.142   0.004  0.00  0.00     0.158 HD
ENDROOT
BRANCH   7  23
ATOM     23  O   UNL d   1       3.782  -2.675   0.001  0.00  0.00    -0.345 OA
ATOM     24  H   UNL d   1       4.700  -2.364   0.002  0.00  0.00     0.219 HD
ENDBRANCH   7  23
TORSDOF 1
