REMARK  2 active torsions:
REMARK  status: ('A' for Active; 'I' for Inactive)
REMARK       I    between atoms: C_2  and  N_1 
REMARK    1  A    between atoms: C_6  and  C_2 
REMARK    2  A    between atoms: N_5  and  C_6 
ROOT
ATOM      1  N   UNL d   1       1.508   1.984  -1.493  0.00  0.00    -0.316 N 
ATOM      2  C   UNL d   1       1.877   2.439  -0.237  0.00  0.00     0.252 C 
ATOM      3  C   UNL d   1       0.222   1.539  -1.863  0.00  0.00     0.043 A 
ATOM      4  C   UNL d   1       2.398   1.815  -2.655  0.00  0.00     0.137 C 
ATOM      5  C   UNL d   1       0.197   1.217  -3.222  0.00  0.00    -0.030 A 
ATOM      6  O   UNL d   1       1.108   2.524   0.725  0.00  0.00    -0.271 OA
ATOM      7  C   UNL d   1       1.514   1.499  -3.869  0.00  0.00     0.061 C 
ATOM      8  C   UNL d   1      -0.917   1.407  -1.088  0.00  0.00     0.030 A 
ATOM      9  C   UNL d   1      -0.963   0.762  -3.836  0.00  0.00     0.009 A 
ATOM     10  C   UNL d   1      -2.090   0.942  -1.693  0.00  0.00     0.002 A 
ATOM     11  C   UNL d   1      -2.111   0.621  -3.057  0.00  0.00     0.001 A 
ENDROOT
BRANCH   2  12
ATOM     12  C   UNL d   1       3.338   2.890  -0.060  0.00  0.00     0.375 C 
BRANCH  12  13
ATOM     13  N   UNL d   1       3.547   4.274  -0.539  0.00  0.00     0.100 N 
ATOM     14  C   UNL d   1       2.730   5.248   0.221  0.00  0.00     0.303 C 
ATOM     15  C   UNL d   1       2.970   6.696  -0.271  0.00  0.00     0.302 C 
ATOM     16  N   UNL d   1       4.378   7.140  -0.250  0.00  0.00     0.087 N 
ATOM     17  C   UNL d   1       5.225   6.112  -0.886  0.00  0.00     0.302 C 
ATOM     18  C   UNL d   1       4.823   7.454   1.105  0.00  0.00     0.310 C 
ATOM     19  C   UNL d   1       4.969   4.657  -0.417  0.00  0.00     0.303 C 
ENDBRANCH  12  13
ENDBRANCH   2  12
TORSDOF 2
