REMARK  2 active torsions:
REMARK  status: ('A' for Active; 'I' for Inactive)
REMARK    1  A    between atoms: O_6  and  C_1 
REMARK    2  A    between atoms: C_8  and  O_6 
ROOT
ATOM      1  C   UNL d   1       0.028  -1.104   0.155  0.00  0.00     0.269 A 
ATOM      2  C   UNL d   1       1.320  -0.404  -0.260  0.00  0.00     0.271 A 
ATOM      3  N   UNL d   1      -0.315   1.235  -0.107  0.00  0.00    -0.303 N 
ATOM      4  HN  UNL d   1      -0.754   2.155  -0.146  1.00  0.00     0.186 HD
ATOM      5  N   UNL d   1       0.999   0.942  -0.336  0.00  0.00    -0.268 N 
ATOM      6  C   UNL d   1      -0.893   0.103   0.171  0.00  0.00     0.038 A 
ATOM      7  O   UNL d   1       2.408  -0.906  -0.491  0.00  0.00    -0.268 OA
ATOM      8  C   UNL d   1      -2.358  -0.028   0.414  0.00  0.00     0.068 C 
ATOM      9  H   UNL d   1       1.660   1.667  -0.588  0.00  0.00     0.190 HD
ENDROOT
BRANCH   1  10
ATOM     10  O   UNL d   1      -0.007  -1.700   1.436  0.00  0.00    -0.329 OA
BRANCH  10  11
ATOM     11  C   UNL d   1       0.931  -2.675   1.661  0.00  0.00     0.092 A 
ATOM     12  C   UNL d   1       1.569  -2.706   2.912  0.00  0.00     0.069 A 
ATOM     13  C   UNL d   1       2.538  -3.672   3.194  0.00  0.00     0.050 A 
ATOM     14 CL   UNL d   1       1.199  -1.541   4.133  0.00  0.00    -0.081 Cl
ATOM     15  C   UNL d   1       2.863  -4.619   2.228  0.00  0.00     0.035 A 
ATOM     16  C   UNL d   1       2.218  -4.618   0.993  0.00  0.00     0.026 A 
ATOM     17 CL   UNL d   1       4.065  -5.804   2.559  0.00  0.00    -0.084 Cl
ATOM     18  C   UNL d   1       1.246  -3.653   0.712  0.00  0.00     0.040 A 
ENDBRANCH  10  11
ENDBRANCH   1  10
TORSDOF 2
