REMARK  3 active torsions:
REMARK  status: ('A' for Active; 'I' for Inactive)
REMARK       I    between atoms: C_6  and  N_1 
REMARK    1  A    between atoms: C_8  and  C_6 
REMARK    2  A    between atoms: C_12  and  C_7 
REMARK    3  A    between atoms: O_25  and  C_21 
ROOT
ATOM      1  N   UNL d   1      -3.023   1.121  -0.029  0.00  0.00    -0.246 N 
ATOM      2  N   UNL d   1      -1.716   1.550  -0.160  0.00  0.00    -0.298 N 
ATOM      3  HN  UNL d   1      -1.397   2.485  -0.411  1.00  0.00     0.187 HD
ATOM      4  C   UNL d   1      -0.981   0.514   0.104  0.00  0.00     0.043 C 
ATOM      5  C   UNL d   1      -1.725  -0.681   0.647  0.00  0.00     0.068 C 
ATOM      6  C   UNL d   1      -4.132   1.970   0.050  0.00  0.00     0.279 C 
ATOM      7  C   UNL d   1      -3.126  -0.350   0.109  0.00  0.00     0.154 C 
ATOM      8  C   UNL d   1       0.478   0.458   0.006  0.00  0.00    -0.005 A 
ATOM      9  C   UNL d   1      -1.025  -2.022   0.441  0.00  0.00     0.018 C 
ATOM     10  O   UNL d   1      -5.240   1.497   0.326  0.00  0.00    -0.265 OA
ATOM     11  C   UNL d   1       1.056  -0.798  -0.225  0.00  0.00    -0.046 A 
ATOM     12  C   UNL d   1       0.165  -1.976  -0.516  0.00  0.00     0.040 C 
ATOM     13  C   UNL d   1       1.260   1.601   0.162  0.00  0.00     0.014 A 
ATOM     14  C   UNL d   1       2.450  -0.904  -0.259  0.00  0.00     0.008 A 
ATOM     15  C   UNL d   1       2.649   1.482   0.131  0.00  0.00     0.001 A 
ATOM     16  C   UNL d   1       3.242   0.232  -0.066  0.00  0.00     0.001 A 
ENDROOT
BRANCH   7  17
ATOM     17  C   UNL d   1      -3.555  -1.042  -1.182  0.00  0.00    -0.033 A 
ATOM     18  C   UNL d   1      -3.887  -2.406  -1.166  0.00  0.00     0.012 A 
ATOM     19  C   UNL d   1      -4.255  -3.075  -2.338  0.00  0.00     0.037 A 
ATOM     20  C   UNL d   1      -4.361  -2.388  -3.546  0.00  0.00     0.068 A 
ATOM     21  C   UNL d   1      -4.114  -1.018  -3.564  0.00  0.00     0.037 A 
ATOM     22  C   UNL d   1      -3.698  -0.359  -2.400  0.00  0.00     0.012 A 
BRANCH  20  23
ATOM     23  O   UNL d   1      -4.711  -3.157  -4.620  0.00  0.00    -0.356 OA
ATOM     24  C   UNL d   1      -4.777  -2.501  -5.880  0.00  0.00     0.210 C 
ENDBRANCH  20  23
ENDBRANCH   7  17
BRANCH   6  25
ATOM     25  C   UNL d   1      -3.933   3.398  -0.199  0.00  0.00     0.074 A 
ATOM     26  S   UNL d   1      -5.041   4.512   0.508  0.00  0.00    -0.097 SA
ATOM     27  C   UNL d   1      -4.243   5.858  -0.176  0.00  0.00     0.050 A 
ATOM     28  C   UNL d   1      -3.170   5.482  -0.947  0.00  0.00     0.009 A 
ATOM     29  C   UNL d   1      -2.997   4.068  -0.969  0.00  0.00     0.025 A 
ENDBRANCH   6  25
TORSDOF 3
