REMARK  5 active torsions:
REMARK  status: ('A' for Active; 'I' for Inactive)
REMARK    1  A    between atoms: C_6  and  N_1 
REMARK    2  A    between atoms: N_7  and  C_14 
REMARK    3  A    between atoms: C_11  and  C_9 
REMARK    4  A    between atoms: O_16  and  C_10 
REMARK    5  A    between atoms: O_19  and  C_15 
ROOT
ATOM      1  C   UNL d   1       3.838   2.634   3.707  0.00  0.00     0.072 A 
ATOM      2  C   UNL d   1       4.247   1.629   2.794  0.00  0.00     0.059 A 
ATOM      3  C   UNL d   1       4.668   2.977   4.789  0.00  0.00     0.032 A 
ATOM      4  C   UNL d   1       5.538   1.100   2.925  0.00  0.00     0.032 A 
ATOM      5  C   UNL d   1       5.935   2.413   4.916  0.00  0.00     0.002 A 
ATOM      6  C   UNL d   1       6.376   1.489   3.976  0.00  0.00     0.002 A 
ENDROOT
BRANCH   2   7
ATOM      7  N   UNL d   1       3.375   1.251   1.761  0.00  0.00    -0.363 N 
ATOM      8  C   UNL d   1       3.172   0.071   1.266  0.00  0.00     0.102 C 
ATOM      9  HN  UNL d   1       2.828   2.006   1.345  1.00  0.00     0.165 HD
BRANCH   8  10
ATOM     10  C   UNL d   1       3.699  -1.268   1.598  0.00  0.00     0.015 A 
ATOM     11  C   UNL d   1       3.974  -2.159   0.537  0.00  0.00     0.110 A 
ATOM     12  C   UNL d   1       4.262  -3.503   0.803  0.00  0.00     0.102 A 
ATOM     13  C   UNL d   1       4.335  -3.924   2.138  0.00  0.00     0.040 A 
ATOM     14  C   UNL d   1       4.096  -3.034   3.189  0.00  0.00     0.004 A 
ATOM     15  C   UNL d   1       3.760  -1.707   2.921  0.00  0.00     0.016 A 
BRANCH  11  16
ATOM     16  O   UNL d   1       3.987  -1.705  -0.758  0.00  0.00    -0.357 OA
ATOM     17  H   UNL d   1       4.267  -0.772  -0.769  0.00  0.00     0.217 HD
ENDBRANCH  11  16
BRANCH  12  18
ATOM     18  O   UNL d   1       4.513  -4.511  -0.090  0.00  0.00    -0.353 OA
ATOM     19  C   UNL d   1       4.157  -4.304  -1.450  0.00  0.00     0.210 C 
ENDBRANCH  12  18
ENDBRANCH   8  10
ENDBRANCH   2   7
BRANCH   1  20
ATOM     20  N   UNL d   1       2.643   3.375   3.507  0.00  0.00    -0.241 N 
ATOM     21  C   UNL d   1       2.357   4.022   2.321  0.00  0.00     0.266 A 
ATOM     22  C   UNL d   1       1.183   4.855   2.579  0.00  0.00     0.048 A 
ATOM     23  O   UNL d   1       2.966   4.107   1.270  0.00  0.00    -0.267 OA
ATOM     24  C   UNL d   1       0.515   5.733   1.746  0.00  0.00     0.018 A 
ATOM     25  C   UNL d   1       0.860   4.731   3.915  0.00  0.00     0.048 A 
ATOM     26  C   UNL d   1      -0.526   6.483   2.303  0.00  0.00     0.001 A 
ATOM     27  C   UNL d   1      -0.868   6.341   3.663  0.00  0.00     0.001 A 
ATOM     28  C   UNL d   1      -0.167   5.456   4.489  0.00  0.00     0.018 A 
ATOM     29  C   UNL d   1       1.824   3.816   4.521  0.00  0.00     0.266 A 
ATOM     30  O   UNL d   1       1.830   3.573   5.715  0.00  0.00    -0.267 OA
ENDBRANCH   1  20
TORSDOF 5
