REMARK  2 active torsions:
REMARK  status: ('A' for Active; 'I' for Inactive)
REMARK    1  A    between atoms: O_10  and  C_6 
REMARK    2  A    between atoms: C_11  and  N_8 
ROOT
ATOM      1  C   UNL d   1       2.284   0.594   1.612  0.00  0.00     0.131 A 
ATOM      2  C   UNL d   1       1.969  -0.730   1.344  0.00  0.00     0.116 A 
ATOM      3  N   UNL d   1       1.359   0.011   3.698  0.00  0.00    -0.304 N 
ATOM      4  HN  UNL d   1       1.071   0.124   4.670  1.00  0.00     0.176 HD
ATOM      5  S   UNL d   1       1.188  -1.354   2.769  0.00  0.00     0.007 SA
ATOM      6  C   UNL d   1       1.938   0.924   2.940  0.00  0.00     0.170 A 
ATOM      7  C   UNL d   1       2.900   1.480   0.681  0.00  0.00     0.107 C 
ATOM      8  N   UNL d   1       2.135  -1.425   0.181  0.00  0.00    -0.348 N 
ATOM      9  N   UNL d   1       3.395   2.164  -0.114  0.00  0.00    -0.191 NA
ATOM     10  H   UNL d   1       2.364  -0.932  -0.681  0.00  0.00     0.166 HD
ENDROOT
BRANCH   6  11
ATOM     11  O   UNL d   1       2.130   2.091   3.563  0.00  0.00    -0.344 OA
ATOM     12  H   UNL d   1       1.787   1.964   4.466  0.00  0.00     0.219 HD
ENDBRANCH   6  11
BRANCH   8  13
ATOM     13  C   UNL d   1       2.357  -2.814   0.053  0.00  0.00     0.033 A 
ATOM     14  C   UNL d   1       1.866  -3.477  -1.080  0.00  0.00     0.029 A 
ATOM     15  C   UNL d   1       1.999  -4.862  -1.214  0.00  0.00     0.002 A 
ATOM     16  C   UNL d   1       2.635  -5.602  -0.221  0.00  0.00     0.000 A 
ATOM     17  C   UNL d   1       3.147  -4.958   0.900  0.00  0.00     0.002 A 
ATOM     18  C   UNL d   1       3.009  -3.574   1.035  0.00  0.00     0.029 A 
ENDBRANCH   8  13
TORSDOF 2
