REMARK  8 active torsions:
REMARK  status: ('A' for Active; 'I' for Inactive)
REMARK    1  A    between atoms: N_7  and  C_1 
REMARK    2  A    between atoms: O_21  and  C_2 
REMARK    3  A    between atoms: C_11  and  C_3 
REMARK    4  A    between atoms: C_17  and  N_4 
REMARK    5  A    between atoms: C_9  and  C_12 
REMARK    6  A    between atoms: C_10  and  C_13 
REMARK    7  A    between atoms: O_29  and  C_11 
REMARK    8  A    between atoms: C_18  and  N_14 
ROOT
ATOM      1  C   UNL d   1      -2.044  -3.245   0.228  0.00  0.00     0.135 C 
ATOM      2  C   UNL d   1      -2.264  -4.539   0.637  0.00  0.00     0.193 C 
ATOM      3  C   UNL d   1      -3.304  -2.706  -0.091  0.00  0.00     0.156 C 
ATOM      4  N   UNL d   1      -3.575  -4.826   0.258  0.00  0.00    -0.232 N 
ATOM      5  N   UNL d   1      -4.220  -3.692  -0.155  0.00  0.00    -0.284 N 
ATOM      6  HN  UNL d   1      -5.192  -3.610  -0.451  1.00  0.00     0.188 HD
ENDROOT
BRANCH   1   7
ATOM      7  N   UNL d   1      -0.796  -2.625   0.291  0.00  0.00    -0.294 N 
ATOM      8  N   UNL d   1      -0.217  -2.100  -0.690  0.00  0.00    -0.300 N 
ATOM      9  HN  UNL d   1       0.702  -1.691  -0.524  1.00  0.00     0.187 HD
ATOM     10  HN  UNL d   1      -0.323  -2.597   1.194  1.00  0.00     0.187 HD
BRANCH   8  11
ATOM     11  C   UNL d   1      -0.729  -2.028  -2.005  0.00  0.00     0.049 A 
ATOM     12  C   UNL d   1      -0.532  -0.820  -2.697  0.00  0.00     0.047 A 
ATOM     13  C   UNL d   1      -0.865  -0.670  -4.058  0.00  0.00     0.050 A 
ATOM     14  C   UNL d   1      -1.451  -1.751  -4.727  0.00  0.00     0.032 A 
ATOM     15  C   UNL d   1      -1.643  -2.977  -4.074  0.00  0.00     0.050 A 
ATOM     16  C   UNL d   1      -1.257  -3.108  -2.724  0.00  0.00     0.047 A 
BRANCH  13  17
ATOM     17  C   UNL d   1      -0.534   0.612  -4.789  0.00  0.00     0.417 C 
ATOM     18  F   UNL d   1      -0.799   0.559  -6.124  0.00  0.00    -0.166 F 
ATOM     19  F   UNL d   1      -1.219   1.683  -4.309  0.00  0.00    -0.166 F 
ATOM     20  F   UNL d   1       0.786   0.933  -4.688  0.00  0.00    -0.166 F 
ENDBRANCH  13  17
BRANCH  15  21
ATOM     21  C   UNL d   1      -2.214  -4.167  -4.813  0.00  0.00     0.417 C 
ATOM     22  F   UNL d   1      -2.362  -3.951  -6.150  0.00  0.00    -0.166 F 
ATOM     23  F   UNL d   1      -1.423  -5.268  -4.700  0.00  0.00    -0.166 F 
ATOM     24  F   UNL d   1      -3.440  -4.530  -4.352  0.00  0.00    -0.166 F 
ENDBRANCH  15  21
ENDBRANCH   8  11
ENDBRANCH   1   7
BRANCH   2  25
ATOM     25  O   UNL d   1      -1.435  -5.406   1.219  0.00  0.00    -0.343 OA
ATOM     26  H   UNL d   1      -0.630  -4.910   1.469  0.00  0.00     0.219 HD
ENDBRANCH   2  25
BRANCH   3  27
ATOM     27  C   UNL d   1      -3.638  -1.300  -0.321  0.00  0.00     0.313 C 
ATOM     28  O   UNL d   1      -4.680  -0.909  -0.843  0.00  0.00    -0.257 OA
BRANCH  27  29
ATOM     29  O   UNL d   1      -2.679  -0.456   0.163  0.00  0.00    -0.321 OA
ATOM     30  C   UNL d   1      -2.955   0.939   0.034  0.00  0.00     0.213 C 
ENDBRANCH  27  29
ENDBRANCH   3  27
BRANCH   4  31
ATOM     31  C   UNL d   1      -4.247  -6.090   0.214  0.00  0.00     0.059 A 
ATOM     32  C   UNL d   1      -3.687  -7.250   0.767  0.00  0.00     0.031 A 
ATOM     33  C   UNL d   1      -4.338  -8.483   0.642  0.00  0.00     0.002 A 
ATOM     34  C   UNL d   1      -5.549  -8.572  -0.039  0.00  0.00     0.000 A 
ATOM     35  C   UNL d   1      -6.122  -7.424  -0.581  0.00  0.00     0.002 A 
ATOM     36  C   UNL d   1      -5.483  -6.186  -0.447  0.00  0.00     0.031 A 
ENDBRANCH   4  31
TORSDOF 8
