REMARK  2 active torsions:
REMARK  status: ('A' for Active; 'I' for Inactive)
REMARK    1  A    between atoms: C_8  and  N_1 
REMARK    2  A    between atoms: C_9  and  N_5 
ROOT
ATOM      1  N   UNL d   1       0.761   1.003  -0.309  0.00  0.00    -0.341 N 
ATOM      2  C   UNL d   1       1.603   0.025   0.217  0.00  0.00     0.139 C 
ATOM      3  S   UNL d   1       0.979  -1.604   0.090  0.00  0.00    -0.070 SA
ATOM      4  C   UNL d   1      -0.623   1.038   0.112  0.00  0.00     0.400 C 
ATOM      5  N   UNL d   1      -1.322  -0.196  -0.228  0.00  0.00     0.114 N 
ATOM      6  C   UNL d   1      -0.733  -1.311   0.503  0.00  0.00     0.355 C 
ATOM      7  S   UNL d   1       3.160   0.262   0.798  0.00  0.00    -0.053 SA
ENDROOT
BRANCH   1   8
ATOM      8  C   UNL d   1       1.300   2.253  -0.862  0.00  0.00     0.121 C 
ATOM      9  C   UNL d   1       1.304   3.425   0.114  0.00  0.00     0.026 C 
ENDBRANCH   1   8
BRANCH   5  10
ATOM     10  C   UNL d   1      -2.749  -0.035   0.123  0.00  0.00     0.271 C 
ATOM     11  C   UNL d   1      -3.634  -1.209  -0.281  0.00  0.00     0.037 C 
ENDBRANCH   5  10
TORSDOF 2
