REMARK  4 active torsions:
REMARK  status: ('A' for Active; 'I' for Inactive)
REMARK    1  A    between atoms: C_2  and  S_1 
REMARK    2  A    between atoms: N_3  and  S_1 
REMARK    3  A    between atoms: C_13  and  N_3 
REMARK    4  A    between atoms: C_18  and  C_11 
ROOT
ATOM      1  C   UNL d   1       1.810  -0.046   3.115  0.00  0.00     0.101 A 
ATOM      2  C   UNL d   1       2.943   0.531   2.537  0.00  0.00     0.058 A 
ATOM      3  N   UNL d   1       6.369   0.378   5.989  0.00  0.00    -0.191 NA
ATOM      4  C   UNL d   1       1.857  -0.499   4.443  0.00  0.00     0.028 A 
ATOM      5  C   UNL d   1       5.386   0.298   5.373  0.00  0.00     0.099 C 
ATOM      6  C   UNL d   1       4.123   0.644   3.293  0.00  0.00     0.048 A 
ATOM      7  C   UNL d   1       4.173   0.186   4.614  0.00  0.00     0.046 A 
ATOM      8 CL   UNL d   1       3.013   1.107   0.911  0.00  0.00    -0.083 Cl
ATOM      9  C   UNL d   1       3.036  -0.385   5.188  0.00  0.00     0.024 A 
ENDROOT
BRANCH   1  10
ATOM     10  S   UNL d   1       0.269  -0.194   2.247  0.00  0.00     0.264 S 
ATOM     11  O   UNL d   1      -0.065   1.117   1.737  0.00  0.00    -0.200 OA
ATOM     12  O   UNL d   1      -0.662  -0.907   3.097  0.00  0.00    -0.200 OA
BRANCH  10  13
ATOM     13  N   UNL d   1       0.621  -1.158   0.933  0.00  0.00    -0.281 N 
ATOM     14  H   UNL d   1       0.320  -0.797   0.030  0.00  0.00     0.179 HD
BRANCH  13  15
ATOM     15  C   UNL d   1       0.955  -2.527   1.050  0.00  0.00     0.042 A 
ATOM     16  C   UNL d   1      -0.026  -3.503   1.190  0.00  0.00     0.030 A 
ATOM     17  C   UNL d   1       0.311  -4.856   1.046  0.00  0.00     0.010 A 
ATOM     18  C   UNL d   1       1.630  -5.242   0.754  0.00  0.00    -0.055 A 
ATOM     19  C   UNL d   1       2.613  -4.246   0.673  0.00  0.00     0.010 A 
ATOM     20  C   UNL d   1       2.276  -2.898   0.809  0.00  0.00     0.030 A 
BRANCH  18  21
ATOM     21  C   UNL d   1       2.003  -6.686   0.453  0.00  0.00     0.010 C 
ATOM     22  C   UNL d   1       1.736  -7.621   1.632  0.00  0.00     0.015 C 
ATOM     23  C   UNL d   1       1.295  -7.191  -0.809  0.00  0.00     0.015 C 
ENDBRANCH  18  21
ENDBRANCH  13  15
ENDBRANCH  10  13
ENDBRANCH   1  10
TORSDOF 4
