REMARK  0 active torsions:
REMARK  status: ('A' for Active; 'I' for Inactive)
ROOT
ATOM      1  N   UNL d   1       0.895   0.448   0.031  0.00  0.00    -0.249 N 
ATOM      2  C   UNL d   1       1.730  -0.610  -0.101  0.00  0.00     0.117 A 
ATOM      3  C   UNL d   1       1.718   1.545   0.158  0.00  0.00     0.347 A 
ATOM      4  N   UNL d   1       3.001  -0.317  -0.062  0.00  0.00    -0.284 N 
ATOM      5  HN  UNL d   1       3.797  -0.950  -0.145  1.00  0.00     0.188 HD
ATOM      6  N   UNL d   1       3.015   1.035   0.117  0.00  0.00    -0.249 N 
ATOM      7  C   UNL d   1      -0.514   0.398   0.020  0.00  0.00     0.062 A 
ATOM      8  S   UNL d   1      -0.296  -2.361   0.486  0.00  0.00    -0.120 SA
ATOM      9  C   UNL d   1      -1.175  -0.839   0.155  0.00  0.00     0.028 A 
ATOM     10  C   UNL d   1       1.232  -1.990  -0.393  0.00  0.00     0.158 C 
ATOM     11  O   UNL d   1       1.448   2.728   0.289  0.00  0.00    -0.245 OA
ATOM     12  C   UNL d   1      -1.288   1.559  -0.117  0.00  0.00     0.031 A 
ATOM     13  C   UNL d   1      -2.574  -0.901   0.117  0.00  0.00     0.021 A 
ATOM     14  C   UNL d   1      -2.684   1.488  -0.159  0.00  0.00     0.002 A 
ATOM     15  C   UNL d   1      -3.326   0.259  -0.052  0.00  0.00     0.002 A 
ATOM     16  H   UNL d   1       3.868   1.576   0.173  0.00  0.00     0.192 HD
ENDROOT
TORSDOF 0
