REMARK  4 active torsions:
REMARK  status: ('A' for Active; 'I' for Inactive)
REMARK    1  A    between atoms: C_2  and  S_1 
REMARK    2  A    between atoms: N_3  and  S_1 
REMARK    3  A    between atoms: C_9  and  N_3 
REMARK    4  A    between atoms: N_10  and  C_8 
ROOT
ATOM      1  C   UNL d   1       0.517  -1.534  -0.624  0.00  0.00     0.090 A 
ATOM      2  C   UNL d   1      -0.791  -1.743  -1.153  0.00  0.00    -0.001 A 
ATOM      3  C   UNL d   1      -1.230  -3.085  -1.363  0.00  0.00    -0.003 A 
ATOM      4  C   UNL d   1      -2.524  -3.336  -1.908  0.00  0.00     0.017 A 
ATOM      5  C   UNL d   1       1.360  -2.614  -0.314  0.00  0.00     0.026 A 
ATOM      6  C   UNL d   1      -1.702  -0.705  -1.470  0.00  0.00     0.014 A 
ATOM      7  C   UNL d   1      -0.353  -4.141  -1.014  0.00  0.00     0.014 A 
ATOM      8  C   UNL d   1       0.923  -3.913  -0.508  0.00  0.00     0.002 A 
ATOM      9  C   UNL d   1      -2.981  -0.959  -1.952  0.00  0.00     0.003 A 
ATOM     10  C   UNL d   1      -3.396  -2.267  -2.147  0.00  0.00     0.024 A 
ENDROOT
BRANCH   1  11
ATOM     11  S   UNL d   1       1.126   0.086  -0.188  0.00  0.00     0.260 S 
ATOM     12  O   UNL d   1       2.486  -0.043   0.285  0.00  0.00    -0.200 OA
ATOM     13  O   UNL d   1       0.120   0.712   0.646  0.00  0.00    -0.200 OA
BRANCH  11  14
ATOM     14  N   UNL d   1       1.135   0.967  -1.617  0.00  0.00    -0.307 N 
ATOM     15  H   UNL d   1       0.586   1.821  -1.513  0.00  0.00     0.173 HD
BRANCH  14  16
ATOM     16  C   UNL d   1       2.238   1.004  -2.602  0.00  0.00     0.029 C 
ATOM     17  C   UNL d   1       2.504  -0.380  -3.193  0.00  0.00     0.038 C 
ATOM     18  C   UNL d   1       1.772   1.942  -3.735  0.00  0.00     0.038 C 
ATOM     19  C   UNL d   1       3.512   1.603  -1.996  0.00  0.00     0.038 C 
ENDBRANCH  14  16
ENDBRANCH  11  14
ENDBRANCH   1  11
BRANCH   4  20
ATOM     20  N   UNL d   1      -3.060  -4.639  -2.015  0.00  0.00    -0.302 NA
ATOM     21  H   UNL d   1      -2.371  -5.353  -2.218  0.00  0.00     0.124 HD
ATOM     22  H   UNL d   1      -3.850  -4.699  -2.649  0.00  0.00     0.124 HD
ENDBRANCH   4  20
TORSDOF 4
