REMARK  5 active torsions:
REMARK  status: ('A' for Active; 'I' for Inactive)
REMARK    1  A    between atoms: C_2  and  N_1 
REMARK    2  A    between atoms: C_3  and  C_5 
REMARK    3  A    between atoms: N_12  and  C_4 
REMARK    4  A    between atoms: N_6  and  N_12 
REMARK    5  A    between atoms: C_18  and  C_17 
ROOT
ATOM      1  N   UNL d   1      -0.439  -0.810  -1.858  0.00  0.00    -0.309 N 
ATOM      2  HN  UNL d   1       0.520  -0.540  -1.639  1.00  0.00     0.186 HD
ATOM      3  C   UNL d   1      -0.957  -0.626  -3.030  0.00  0.00     0.118 C 
ENDROOT
BRANCH   1   4
ATOM      4  N   UNL d   1      -1.258  -1.387  -0.938  0.00  0.00    -0.284 N 
ATOM      5  H   UNL d   1      -2.242  -1.558  -1.155  0.00  0.00     0.188 HD
BRANCH   4   6
ATOM      6  C   UNL d   1      -0.713  -2.314  -0.016  0.00  0.00     0.153 A 
ATOM      7  C   UNL d   1      -1.475  -2.853   1.030  0.00  0.00     0.148 A 
ATOM      8  C   UNL d   1      -0.870  -3.690   1.985  0.00  0.00     0.041 A 
ATOM      9  C   UNL d   1       0.482  -3.985   1.872  0.00  0.00     0.020 A 
ATOM     10  C   UNL d   1       1.173  -3.437   0.810  0.00  0.00     0.090 A 
ATOM     11  N   UNL d   1       0.611  -2.620  -0.108  0.00  0.00    -0.349 N 
ATOM     12  HN  UNL d   1       1.175  -2.235  -0.865  1.00  0.00     0.167 HD
BRANCH   7  13
ATOM     13  N   UNL d   1      -2.912  -2.607   1.139  0.00  0.00    -0.112 N 
ATOM     14  O   UNL d   1      -3.485  -2.020   0.205  0.00  0.00    -0.532 OA
ATOM     15  O   UNL d   1      -3.497  -3.044   2.139  0.00  0.00    -0.532 OA
ENDBRANCH   7  13
ENDBRANCH   4   6
ENDBRANCH   1   4
BRANCH   3  16
ATOM     16  C   UNL d   1      -0.208   0.062  -4.099  0.00  0.00    -0.018 A 
ATOM     17  C   UNL d   1       0.860   0.906  -3.776  0.00  0.00     0.029 A 
ATOM     18  C   UNL d   1       1.537   1.610  -4.784  0.00  0.00     0.048 A 
ATOM     19  C   UNL d   1       1.143   1.426  -6.120  0.00  0.00     0.016 A 
ATOM     20  C   UNL d   1       0.086   0.571  -6.440  0.00  0.00     0.002 A 
ATOM     21  C   UNL d   1      -0.600  -0.104  -5.429  0.00  0.00     0.013 A 
BRANCH  18  22
ATOM     22  C   UNL d   1       2.655   2.565  -4.449  0.00  0.00     0.417 C 
ATOM     23  F   UNL d   1       2.906   2.676  -3.115  0.00  0.00    -0.166 F 
ATOM     24  F   UNL d   1       3.837   2.208  -5.024  0.00  0.00    -0.166 F 
ATOM     25  F   UNL d   1       2.397   3.831  -4.884  0.00  0.00    -0.166 F 
ENDBRANCH  18  22
ENDBRANCH   3  16
TORSDOF 5
