REMARK  4 active torsions:
REMARK  status: ('A' for Active; 'I' for Inactive)
REMARK    1  A    between atoms: C_6  and  C_1 
REMARK    2  A    between atoms: N_2  and  C_7 
REMARK    3  A    between atoms: N_4  and  C_3 
REMARK    4  A    between atoms: O_17  and  C_6 
ROOT
ATOM      1  C   UNL d   1       1.452  -0.241   0.157  0.00  0.00     0.069 A 
ATOM      2  C   UNL d   1       0.567  -1.332   0.013  0.00  0.00     0.054 A 
ATOM      3  C   UNL d   1       0.933   1.071   0.217  0.00  0.00     0.056 A 
ATOM      4  C   UNL d   1      -0.446   1.294   0.149  0.00  0.00     0.104 A 
ATOM      5  C   UNL d   1      -0.821  -1.079  -0.072  0.00  0.00     0.033 A 
ATOM      6  C   UNL d   1      -1.327   0.222   0.001  0.00  0.00     0.038 A 
ENDROOT
BRANCH   2   7
ATOM      7  N   UNL d   1       0.989  -2.698  -0.022  0.00  0.00    -0.332 N 
ATOM      8  C   UNL d   1       2.076  -3.262   0.614  0.00  0.00     0.096 A 
ATOM      9  C   UNL d   1       2.142  -4.603   0.302  0.00  0.00     0.019 A 
ATOM     10  C   UNL d   1       1.024  -4.901  -0.501  0.00  0.00     0.019 A 
ATOM     11  C   UNL d   1       0.315  -3.730  -0.655  0.00  0.00     0.096 A 
ENDBRANCH   2   7
BRANCH   1  12
ATOM     12  C   UNL d   1       2.935  -0.350   0.074  0.00  0.00     0.295 C 
ATOM     13  O   UNL d   1       3.534  -1.089  -0.685  0.00  0.00    -0.259 OA
BRANCH  12  14
ATOM     14  O   UNL d   1       3.486   0.524   0.953  0.00  0.00    -0.322 OA
ATOM     15  C   UNL d   1       4.916   0.591   0.948  0.00  0.00     0.213 C 
ENDBRANCH  12  14
ENDBRANCH   1  12
BRANCH   4  16
ATOM     16  N   UNL d   1      -0.968   2.663   0.218  0.00  0.00    -0.116 N 
ATOM     17  O   UNL d   1      -0.148   3.587   0.338  0.00  0.00    -0.532 OA
ATOM     18  O   UNL d   1      -2.194   2.818   0.151  0.00  0.00    -0.532 OA
ENDBRANCH   4  16
TORSDOF 4
