REMARK  9 active torsions:
REMARK  status: ('A' for Active; 'I' for Inactive)
REMARK    1  A    between atoms: C_1  and  O_4 
REMARK    2  A    between atoms: C_2  and  C_1 
REMARK    3  A    between atoms: C_3  and  C_1 
REMARK    4  A    between atoms: C_10  and  C_2 
REMARK    5  A    between atoms: C_2  and  O_5 
REMARK    6  A    between atoms: C_9  and  C_3 
REMARK    7  A    between atoms: C_3  and  O_6 
REMARK    8  A    between atoms: O_7  and  C_10 
REMARK    9  A    between atoms: O_8  and  C_9 
ROOT
ATOM      1  C   UNL d   1      -0.976  -2.258   1.695  0.00  0.00     0.179 C 
ENDROOT
BRANCH   1   2
ATOM      2  O   UNL d   1       0.164  -2.720   0.941  0.00  0.00    -0.390 OA
ATOM      3  H   UNL d   1       0.397  -3.603   1.307  0.00  0.00     0.210 HD
ENDBRANCH   1   2
BRANCH   1   4
ATOM      4  C   UNL d   1      -1.959  -3.426   1.964  0.00  0.00     0.173 C 
BRANCH   4   5
ATOM      5  C   UNL d   1      -1.322  -4.510   2.853  0.00  0.00     0.198 C 
BRANCH   5   6
ATOM      6  O   UNL d   1      -0.080  -4.963   2.321  0.00  0.00    -0.398 OA
ATOM      7  H   UNL d   1       0.229  -5.678   2.908  0.00  0.00     0.209 HD
ENDBRANCH   5   6
ENDBRANCH   4   5
BRANCH   4   8
ATOM      8  O   UNL d   1      -3.165  -2.986   2.593  0.00  0.00    -0.391 OA
ATOM      9  H   UNL d   1      -2.930  -2.424   3.352  0.00  0.00     0.210 HD
ENDBRANCH   4   8
ENDBRANCH   1   4
BRANCH   1  10
ATOM     10  C   UNL d   1      -1.619  -1.114   0.883  0.00  0.00     0.173 C 
BRANCH  10  11
ATOM     11  C   UNL d   1      -0.720   0.130   0.847  0.00  0.00     0.198 C 
BRANCH  11  12
ATOM     12  O   UNL d   1      -0.540   0.671   2.152  0.00  0.00    -0.398 OA
ATOM     13  H   UNL d   1       0.068   1.425   2.053  0.00  0.00     0.209 HD
ENDBRANCH  11  12
ENDBRANCH  10  11
BRANCH  10  14
ATOM     14  O   UNL d   1      -1.831  -1.556  -0.466  0.00  0.00    -0.391 OA
ATOM     15  H   UNL d   1      -1.020  -2.056  -0.692  0.00  0.00     0.210 HD
ENDBRANCH  10  14
ENDBRANCH   1  10
TORSDOF 9
