REMARK  5 active torsions:
REMARK  status: ('A' for Active; 'I' for Inactive)
REMARK    1  A    between atoms: C_8  and  N_1 
REMARK    2  A    between atoms: C_7  and  C_2 
REMARK    3  A    between atoms: N_12  and  C_9 
REMARK    4  A    between atoms: C_13  and  N_12 
REMARK    5  A    between atoms: O_23  and  C_15 
ROOT
ATOM      1  N   UNL d   1       3.732   0.717   0.015  0.00  0.00    -0.225 N 
ATOM      2  C   UNL d   1       3.667  -0.682  -0.047  0.00  0.00     0.139 C 
ATOM      3  N   UNL d   1       5.721  -0.044  -0.189  0.00  0.00    -0.007 NA
ATOM      4  N   UNL d   1       5.018   1.081  -0.210  0.00  0.00     0.001 NA
ATOM      5  N   UNL d   1       4.906  -1.136  -0.075  0.00  0.00    -0.270 N 
ATOM      6  HN  UNL d   1       5.199  -2.112  -0.022  1.00  0.00     0.185 HD
ENDROOT
BRANCH   2   7
ATOM      7  C   UNL d   1       2.435  -1.353  -0.210  0.00  0.00     0.068 C 
ATOM      8  C   UNL d   1       2.197  -2.620   0.151  0.00  0.00     0.092 C 
BRANCH   8   9
ATOM      9  N   UNL d   1       2.985  -3.567   0.754  0.00  0.00    -0.366 N 
ATOM     10  H   UNL d   1       3.966  -3.318   0.869  0.00  0.00     0.165 HD
BRANCH   9  11
ATOM     11  C   UNL d   1       2.649  -4.906   1.054  0.00  0.00     0.032 A 
ATOM     12  C   UNL d   1       1.413  -5.482   0.725  0.00  0.00     0.032 A 
ATOM     13  C   UNL d   1       1.096  -6.805   1.069  0.00  0.00     0.039 A 
ATOM     14  C   UNL d   1       2.003  -7.582   1.778  0.00  0.00     0.068 A 
ATOM     15  C   UNL d   1       3.229  -7.021   2.135  0.00  0.00     0.039 A 
ATOM     16  C   UNL d   1       3.548  -5.702   1.780  0.00  0.00     0.032 A 
BRANCH  14  17
ATOM     17  O   UNL d   1       1.805  -8.871   2.190  0.00  0.00    -0.356 OA
ATOM     18  C   UNL d   1       0.590  -9.499   1.792  0.00  0.00     0.210 C 
ENDBRANCH  14  17
ENDBRANCH   9  11
ENDBRANCH   8   9
ENDBRANCH   2   7
BRANCH   1  19
ATOM     19  C   UNL d   1       2.748   1.700   0.328  0.00  0.00     0.056 A 
ATOM     20  C   UNL d   1       1.608   1.373   1.081  0.00  0.00     0.034 A 
ATOM     21  C   UNL d   1       0.694   2.369   1.435  0.00  0.00     0.044 A 
ATOM     22  C   UNL d   1       0.913   3.682   1.038  0.00  0.00     0.116 A 
ATOM     23  C   UNL d   1       2.033   4.023   0.291  0.00  0.00     0.044 A 
ATOM     24  F   UNL d   1       0.041   4.633   1.397  0.00  0.00    -0.206 F 
ATOM     25  C   UNL d   1       2.961   3.035  -0.057  0.00  0.00     0.034 A 
ENDBRANCH   1  19
TORSDOF 5
