REMARK  1 active torsions:
REMARK  status: ('A' for Active; 'I' for Inactive)
REMARK    1  A    between atoms: C_10  and  C_2 
ROOT
ATOM      1  N   UNL d   1      -0.845   0.533   0.048  0.00  0.00    -0.282 N 
ATOM      2  C   UNL d   1      -1.667   1.646  -0.136  0.00  0.00     0.139 A 
ATOM      3  N   UNL d   1      -2.927   1.254  -0.018  0.00  0.00    -0.283 N 
ATOM      4  HN  UNL d   1      -3.742   1.868  -0.047  1.00  0.00     0.188 HD
ATOM      5  C   UNL d   1      -1.722  -0.531   0.161  0.00  0.00     0.114 A 
ATOM      6  N   UNL d   1      -2.963  -0.099   0.148  0.00  0.00    -0.286 N 
ATOM      7  HN  UNL d   1      -3.801  -0.672   0.246  1.00  0.00     0.188 HD
ATOM      8  C   UNL d   1       0.573   0.400   0.121  0.00  0.00     0.059 A 
ATOM      9  S   UNL d   1       0.208  -2.314  -0.552  0.00  0.00    -0.120 SA
ATOM     10  C   UNL d   1       1.155  -0.852  -0.154  0.00  0.00     0.028 A 
ATOM     11  C   UNL d   1      -1.286  -1.923   0.391  0.00  0.00     0.158 C 
ATOM     12  C   UNL d   1       1.393   1.481   0.466  0.00  0.00     0.031 A 
ATOM     13  C   UNL d   1       2.551  -0.972  -0.175  0.00  0.00     0.021 A 
ATOM     14  C   UNL d   1       2.782   1.346   0.442  0.00  0.00     0.002 A 
ATOM     15  C   UNL d   1       3.361   0.125   0.109  0.00  0.00     0.002 A 
ENDROOT
BRANCH   2  16
ATOM     16  C   UNL d   1      -1.302   3.033  -0.443  0.00  0.00     0.010 A 
ATOM     17  C   UNL d   1      -0.304   3.370  -1.369  0.00  0.00     0.017 A 
ATOM     18  C   UNL d   1       0.039   4.709  -1.590  0.00  0.00     0.025 A 
ATOM     19  C   UNL d   1      -0.653   5.723  -0.929  0.00  0.00     0.034 A 
ATOM     20  C   UNL d   1      -1.694   5.410  -0.064  0.00  0.00     0.025 A 
ATOM     21 CL   UNL d   1      -0.218   7.366  -1.189  0.00  0.00    -0.084 Cl
ATOM     22  C   UNL d   1      -2.017   4.072   0.176  0.00  0.00     0.017 A 
ENDBRANCH   2  16
TORSDOF 1
