REMARK  3 active torsions:
REMARK  status: ('A' for Active; 'I' for Inactive)
REMARK    1  A    between atoms: N_14  and  N_9 
REMARK    2  A    between atoms: C_20  and  C_19 
REMARK    3  A    between atoms: O_27  and  C_21 
ROOT
ATOM      1  C   UNL d   1       1.232   0.873   0.061  0.00  0.00     0.104 A 
ATOM      2  C   UNL d   1       0.749  -0.406   0.034  0.00  0.00     0.069 A 
ATOM      3  C   UNL d   1       2.635   1.194   0.092  0.00  0.00     0.286 A 
ATOM      4  S   UNL d   1      -0.009   2.023   0.052  0.00  0.00    -0.064 SA
ATOM      5  C   UNL d   1      -0.679  -0.492   0.014  0.00  0.00     0.032 A 
ATOM      6  C   UNL d   1      -1.207   0.801   0.021  0.00  0.00     0.088 A 
ATOM      7  N   UNL d   1       1.601  -1.518   0.030  0.00  0.00    -0.349 N 
ATOM      8  HN  UNL d   1       1.257  -2.478   0.007  1.00  0.00     0.167 HD
ATOM      9  N   UNL d   1       3.444   0.036   0.094  0.00  0.00    -0.215 N 
ATOM     10  C   UNL d   1       2.866  -1.224   0.057  0.00  0.00     0.211 A 
ATOM     11  N   UNL d   1      -2.510   1.146   0.009  0.00  0.00    -0.354 N 
ATOM     12  HN  UNL d   1      -2.822   2.117   0.014  1.00  0.00     0.166 HD
ATOM     13  C   UNL d   1      -1.608  -1.565  -0.009  0.00  0.00    -0.045 A 
ATOM     14  O   UNL d   1       3.074   2.342   0.113  0.00  0.00    -0.265 OA
ATOM     15  C   UNL d   1      -2.971  -1.225  -0.018  0.00  0.00     0.032 A 
ATOM     16  C   UNL d   1      -3.367   0.108  -0.009  0.00  0.00     0.006 A 
ATOM     17  C   UNL d   1      -1.251  -3.027  -0.015  0.00  0.00     0.049 C 
ATOM     18  C   UNL d   1      -4.832   0.438  -0.014  0.00  0.00     0.068 C 
ENDROOT
BRANCH   9  19
ATOM     19  N   UNL d   1       4.812   0.271   0.110  0.00  0.00    -0.301 N 
ATOM     20  C   UNL d   1       5.689  -0.676   0.134  0.00  0.00     0.119 C 
ATOM     21  HN  UNL d   1       5.140   1.237   0.103  1.00  0.00     0.186 HD
BRANCH  20  22
ATOM     22  C   UNL d   1       7.137  -0.370   0.126  0.00  0.00    -0.019 A 
ATOM     23  C   UNL d   1       7.592   0.951   0.148  0.00  0.00     0.015 A 
ATOM     24  C   UNL d   1       8.964   1.218   0.115  0.00  0.00     0.037 A 
ATOM     25  C   UNL d   1       9.880   0.167   0.057  0.00  0.00     0.068 A 
ATOM     26  C   UNL d   1       9.419  -1.153   0.063  0.00  0.00     0.037 A 
ATOM     27  C   UNL d   1       8.050  -1.426   0.090  0.00  0.00     0.015 A 
BRANCH  25  28
ATOM     28  O   UNL d   1      11.241   0.308   0.040  0.00  0.00    -0.356 OA
ATOM     29  C   UNL d   1      11.727   1.496  -0.577  0.00  0.00     0.210 C 
ENDBRANCH  25  28
ENDBRANCH  20  22
ENDBRANCH   9  19
TORSDOF 3
