REMARK  4 active torsions:
REMARK  status: ('A' for Active; 'I' for Inactive)
REMARK    1  A    between atoms: C_6  and  C_1 
REMARK    2  A    between atoms: N_4  and  C_2 
REMARK    3  A    between atoms: S_9  and  C_2 
REMARK    4  A    between atoms: C_12  and  N_4 
ROOT
ATOM      1  C   UNL d   1       0.965  -0.016  -0.049  0.00  0.00     0.099 C 
ATOM      2  C   UNL d   1       0.260  -1.179  -0.123  0.00  0.00     0.073 C 
ATOM      3  C   UNL d   1       0.293   1.249  -0.078  0.00  0.00     0.104 C 
ATOM      4  N   UNL d   1      -0.243   2.278  -0.103  0.00  0.00    -0.191 NA
ENDROOT
BRANCH   1   5
ATOM      5  C   UNL d   1       2.439   0.041   0.001  0.00  0.00     0.055 A 
ATOM      6  N   UNL d   1       2.998   0.024   1.236  0.00  0.00    -0.365 N 
ATOM      7  C   UNL d   1       4.350   0.068   1.301  0.00  0.00     0.088 A 
ATOM      8  HN  UNL d   1       2.426  -0.020   2.079  1.00  0.00     0.165 HD
ATOM      9  C   UNL d   1       5.178   0.132   0.193  0.00  0.00     0.017 A 
ATOM     10  C   UNL d   1       4.591   0.149  -1.065  0.00  0.00     0.004 A 
ATOM     11  C   UNL d   1       3.201   0.101  -1.168  0.00  0.00     0.031 A 
ENDBRANCH   1   5
BRANCH   2  12
ATOM     12  N   UNL d   1      -1.119  -1.245  -0.321  0.00  0.00    -0.252 NA
ATOM     13  H   UNL d   1      -1.346  -2.137  -0.765  0.00  0.00     0.134 HD
BRANCH  12  14
ATOM     14  C   UNL d   1      -2.127  -0.949   0.628  0.00  0.00     0.028 A 
ATOM     15  C   UNL d   1      -3.470  -1.104   0.263  0.00  0.00     0.111 A 
ATOM     16  N   UNL d   1      -4.533  -0.873   1.069  0.00  0.00    -0.374 N 
ATOM     17  C   UNL d   1      -4.254  -0.421   2.307  0.00  0.00     0.087 A 
ATOM     18  HN  UNL d   1      -5.491  -1.031   0.757  1.00  0.00     0.164 HD
ATOM     19  C   UNL d   1      -2.967  -0.189   2.764  0.00  0.00     0.019 A 
ATOM     20  C   UNL d   1      -1.893  -0.452   1.910  0.00  0.00     0.026 A 
ENDBRANCH  12  14
ENDBRANCH   2  12
BRANCH   2  21
ATOM     21  S   UNL d   1       1.120  -2.736  -0.191  0.00  0.00    -0.121 SA
ATOM     22  C   UNL d   1       1.083  -3.172   1.570  0.00  0.00     0.097 C 
ENDBRANCH   2  21
TORSDOF 4
