REMARK  5 active torsions:
REMARK  status: ('A' for Active; 'I' for Inactive)
REMARK    1  A    between atoms: O_17  and  C_5 
REMARK    2  A    between atoms: O_19  and  C_6 
REMARK    3  A    between atoms: O_18  and  C_7 
REMARK    4  A    between atoms: N_10  and  N_12 
REMARK    5  A    between atoms: C_15  and  C_16 
ROOT
ATOM      1  N   UNL d   1      -5.634  -1.957   0.730  0.00  0.00    -0.309 N 
ATOM      2  HN  UNL d   1      -6.485  -2.244   1.213  1.00  0.00     0.186 HD
ATOM      3  C   UNL d   1      -5.609  -0.894  -0.013  0.00  0.00     0.118 C 
ENDROOT
BRANCH   1   4
ATOM      4  N   UNL d   1      -4.489  -2.671   0.843  0.00  0.00    -0.280 N 
ATOM      5  C   UNL d   1      -4.391  -3.815   1.569  0.00  0.00     0.164 A 
ATOM      6  N   UNL d   1      -3.283  -4.516   1.644  0.00  0.00    -0.334 N 
ATOM      7  S   UNL d   1      -5.718  -4.466   2.468  0.00  0.00    -0.051 SA
ATOM      8  C   UNL d   1      -3.465  -5.629   2.449  0.00  0.00     0.051 A 
ATOM      9  HN  UNL d   1      -2.409  -4.274   1.176  1.00  0.00     0.168 HD
ATOM     10  C   UNL d   1      -2.491  -6.601   2.750  0.00  0.00     0.031 A 
ATOM     11  C   UNL d   1      -4.742  -5.774   2.995  0.00  0.00     0.035 A 
ATOM     12  C   UNL d   1      -2.812  -7.678   3.584  0.00  0.00     0.002 A 
ATOM     13  C   UNL d   1      -4.092  -7.799   4.117  0.00  0.00     0.002 A 
ATOM     14  C   UNL d   1      -5.078  -6.850   3.832  0.00  0.00     0.021 A 
ATOM     15  H   UNL d   1      -3.645  -2.391   0.350  0.00  0.00     0.189 HD
ENDBRANCH   1   4
BRANCH   3  16
ATOM     16  C   UNL d   1      -6.835  -0.095  -0.165  0.00  0.00    -0.014 A 
ATOM     17  C   UNL d   1      -8.010  -0.501   0.473  0.00  0.00     0.052 A 
ATOM     18  C   UNL d   1      -9.190   0.248   0.375  0.00  0.00     0.105 A 
ATOM     19  C   UNL d   1      -9.209   1.422  -0.411  0.00  0.00     0.135 A 
ATOM     20  C   UNL d   1      -8.018   1.803  -1.081  0.00  0.00     0.105 A 
ATOM     21  C   UNL d   1      -6.838   1.059  -0.937  0.00  0.00     0.052 A 
BRANCH  18  22
ATOM     22  O   UNL d   1     -10.334  -0.197   0.995  0.00  0.00    -0.353 OA
ATOM     23  C   UNL d   1     -10.133  -0.835   2.261  0.00  0.00     0.210 C 
ENDBRANCH  18  22
BRANCH  19  24
ATOM     24  O   UNL d   1     -10.270   2.274  -0.573  0.00  0.00    -0.351 OA
ATOM     25  C   UNL d   1     -11.427   2.136   0.237  0.00  0.00     0.210 C 
ENDBRANCH  19  24
BRANCH  20  26
ATOM     26  O   UNL d   1      -7.819   2.929  -1.842  0.00  0.00    -0.353 OA
ATOM     27  C   UNL d   1      -8.887   3.369  -2.671  0.00  0.00     0.210 C 
ENDBRANCH  20  26
ENDBRANCH   3  16
TORSDOF 5
