REMARK  2 active torsions:
REMARK  status: ('A' for Active; 'I' for Inactive)
REMARK    1  A    between atoms: C_8  and  C_4 
REMARK    2  A    between atoms: C_13  and  N_7 
ROOT
ATOM      1  N   UNL d   1       1.432  -0.551   0.064  0.00  0.00    -0.335 N 
ATOM      2  HN  UNL d   1       2.338  -1.019   0.095  1.00  0.00     0.168 HD
ATOM      3  C   UNL d   1       0.279  -1.176   0.033  0.00  0.00     0.149 A 
ATOM      4  C   UNL d   1       1.266   0.820   0.051  0.00  0.00     0.051 A 
ATOM      5  S   UNL d   1      -1.091  -0.129   0.115  0.00  0.00    -0.064 SA
ATOM      6  C   UNL d   1      -0.050   1.235   0.068  0.00  0.00     0.083 A 
ATOM      7  N   UNL d   1       0.110  -2.518  -0.048  0.00  0.00    -0.335 N 
ATOM      8  H   UNL d   1      -0.836  -2.870   0.024  0.00  0.00     0.168 HD
ENDROOT
BRANCH   7   9
ATOM      9  C   UNL d   1       1.017  -3.421  -0.637  0.00  0.00     0.049 A 
ATOM     10  C   UNL d   1       2.204  -3.055  -1.278  0.00  0.00     0.117 A 
ATOM     11  N   UNL d   1       3.099  -3.921  -1.827  0.00  0.00    -0.373 N 
ATOM     12  C   UNL d   1       2.815  -5.229  -1.711  0.00  0.00     0.088 A 
ATOM     13  HN  UNL d   1       3.940  -3.594  -2.303  1.00  0.00     0.164 HD
ATOM     14  C   UNL d   1       1.687  -5.713  -1.073  0.00  0.00     0.019 A 
ATOM     15  C   UNL d   1       0.785  -4.797  -0.527  0.00  0.00     0.032 A 
ENDBRANCH   7   9
BRANCH   4  16
ATOM     16  C   UNL d   1       2.423   1.705   0.037  0.00  0.00    -0.009 A 
ATOM     17  C   UNL d   1       2.380   2.967  -0.567  0.00  0.00     0.014 A 
ATOM     18  C   UNL d   1       3.508   3.795  -0.561  0.00  0.00     0.007 A 
ATOM     19  C   UNL d   1       4.697   3.376   0.046  0.00  0.00    -0.062 A 
ATOM     20  C   UNL d   1       4.750   2.108   0.632  0.00  0.00     0.007 A 
ATOM     21  C   UNL d   1       5.889   4.287   0.064  0.00  0.00     0.048 C 
ATOM     22  C   UNL d   1       3.624   1.279   0.622  0.00  0.00     0.014 A 
ENDBRANCH   4  16
TORSDOF 2
