REMARK  2 active torsions:
REMARK  status: ('A' for Active; 'I' for Inactive)
REMARK    1  A    between atoms: C_8  and  N_1 
REMARK    2  A    between atoms: C_11  and  C_8 
ROOT
ATOM      1  N   UNL d   1       1.678  -0.893  -0.032  0.00  0.00    -0.311 N 
ATOM      2  C   UNL d   1       1.184  -0.076   0.966  0.00  0.00     0.223 A 
ATOM      3  C   UNL d   1       1.718  -0.128  -1.185  0.00  0.00     0.073 A 
ATOM      4  O   UNL d   1       0.875   1.202   0.501  0.00  0.00    -0.282 OA
ATOM      5  C   UNL d   1       1.230   1.117  -0.835  0.00  0.00     0.105 A 
ATOM      6  C   UNL d   1       2.135  -0.413  -2.468  0.00  0.00     0.056 A 
ATOM      7  S   UNL d   1       0.912  -0.391   2.572  0.00  0.00    -0.032 SA
ATOM      8  C   UNL d   1       1.130   2.146  -1.748  0.00  0.00     0.041 A 
ATOM      9  C   UNL d   1       2.051   0.620  -3.405  0.00  0.00     0.036 A 
ATOM     10  C   UNL d   1       1.550   1.889  -3.055  0.00  0.00     0.026 A 
ATOM     11 CL   UNL d   1       2.573   0.336  -5.022  0.00  0.00    -0.084 Cl
ENDROOT
BRANCH   1  12
ATOM     12  C   UNL d   1       2.156  -2.263   0.064  0.00  0.00     0.170 C 
BRANCH  12  13
ATOM     13  C   UNL d   1       3.665  -2.354   0.073  0.00  0.00    -0.040 A 
ATOM     14  C   UNL d   1       4.405  -1.835   1.145  0.00  0.00     0.009 A 
ATOM     15  C   UNL d   1       5.801  -1.865   1.126  0.00  0.00     0.001 A 
ATOM     16  C   UNL d   1       6.471  -2.420   0.039  0.00  0.00     0.000 A 
ATOM     17  C   UNL d   1       5.748  -2.963  -1.020  0.00  0.00     0.001 A 
ATOM     18  C   UNL d   1       4.353  -2.937  -1.002  0.00  0.00     0.009 A 
ENDBRANCH  12  13
ENDBRANCH   1  12
TORSDOF 2
