REMARK  10 active torsions:
REMARK  status: ('A' for Active; 'I' for Inactive)
REMARK    1  A    between atoms: O_16  and  C_1 
REMARK    2  A    between atoms: C_5  and  C_2 
REMARK    3  A    between atoms: O_17  and  C_3 
REMARK    4  A    between atoms: O_18  and  C_4 
REMARK    5  A    between atoms: C_10  and  C_5 
REMARK    6  A    between atoms: C_11  and  C_5 
REMARK    7  A    between atoms: C_6  and  C_10 
REMARK    8  A    between atoms: C_14  and  C_6 
REMARK    9  A    between atoms: C_7  and  C_11 
REMARK   10  A    between atoms: C_15  and  C_7 
ROOT
ATOM      1  C   UNL d   1      -2.816   0.477  -0.194  0.00  0.00     0.033 C 
ENDROOT
BRANCH   1   2
ATOM      2  C   UNL d   1      -1.317   0.188  -0.093  0.00  0.00    -0.048 A 
ATOM      3  C   UNL d   1      -0.471   1.075   0.587  0.00  0.00     0.047 A 
ATOM      4  C   UNL d   1       0.926   0.907   0.606  0.00  0.00     0.104 A 
ATOM      5  C   UNL d   1       1.494  -0.204  -0.045  0.00  0.00     0.135 A 
ATOM      6  C   UNL d   1       0.643  -1.161  -0.637  0.00  0.00     0.104 A 
ATOM      7  C   UNL d   1      -0.732  -0.919  -0.715  0.00  0.00     0.047 A 
BRANCH   4   8
ATOM      8  O   UNL d   1       1.549   1.925   1.280  0.00  0.00    -0.353 OA
ATOM      9  C   UNL d   1       2.964   1.935   1.380  0.00  0.00     0.210 C 
ENDBRANCH   4   8
BRANCH   5  10
ATOM     10  O   UNL d   1       2.855  -0.382  -0.021  0.00  0.00    -0.351 OA
ATOM     11  C   UNL d   1       3.448  -0.611  -1.301  0.00  0.00     0.210 C 
ENDBRANCH   5  10
BRANCH   6  12
ATOM     12  O   UNL d   1       1.209  -2.311  -1.141  0.00  0.00    -0.353 OA
ATOM     13  C   UNL d   1       0.337  -3.432  -1.263  0.00  0.00     0.210 C 
ENDBRANCH   6  12
ENDBRANCH   1   2
BRANCH   1  14
ATOM     14  C   UNL d   1      -3.011   1.383  -1.435  0.00  0.00     0.093 C 
BRANCH  14  15
ATOM     15  C   UNL d   1      -4.437   1.855  -1.662  0.00  0.00     0.160 C 
ATOM     16  O   UNL d   1      -5.363   1.620  -0.891  0.00  0.00    -0.292 OA
BRANCH  15  17
ATOM     17  C   UNL d   1      -4.743   2.601  -2.912  0.00  0.00     0.010 A 
ATOM     18  C   UNL d   1      -5.994   2.412  -3.514  0.00  0.00     0.015 A 
ATOM     19  C   UNL d   1      -6.354   3.166  -4.631  0.00  0.00     0.001 A 
ATOM     20  C   UNL d   1      -5.470   4.115  -5.141  0.00  0.00     0.000 A 
ATOM     21  C   UNL d   1      -4.217   4.293  -4.554  0.00  0.00     0.001 A 
ATOM     22  C   UNL d   1      -3.845   3.531  -3.444  0.00  0.00     0.015 A 
ENDBRANCH  15  17
ENDBRANCH  14  15
ENDBRANCH   1  14
BRANCH   1  23
ATOM     23  C   UNL d   1      -3.699  -0.791  -0.276  0.00  0.00     0.093 C 
BRANCH  23  24
ATOM     24  C   UNL d   1      -3.656  -1.697   0.947  0.00  0.00     0.160 C 
ATOM     25  O   UNL d   1      -3.045  -1.403   1.973  0.00  0.00    -0.292 OA
BRANCH  24  26
ATOM     26  C   UNL d   1      -4.419  -2.982   0.885  0.00  0.00     0.010 A 
ATOM     27  C   UNL d   1      -5.234  -3.316  -0.210  0.00  0.00     0.015 A 
ATOM     28  C   UNL d   1      -5.931  -4.527  -0.228  0.00  0.00     0.001 A 
ATOM     29  C   UNL d   1      -5.824  -5.412   0.842  0.00  0.00     0.000 A 
ATOM     30  C   UNL d   1      -5.024  -5.087   1.935  0.00  0.00     0.001 A 
ATOM     31  C   UNL d   1      -4.324  -3.880   1.958  0.00  0.00     0.015 A 
ENDBRANCH  24  26
ENDBRANCH  23  24
ENDBRANCH   1  23
TORSDOF 10
