REMARK  5 active torsions:
REMARK  status: ('A' for Active; 'I' for Inactive)
REMARK       I    between atoms: N_2  and  C_1 
REMARK    1  A    between atoms: C_3  and  C_1 
REMARK    2  A    between atoms: C_10  and  N_2 
REMARK    3  A    between atoms: O_4  and  C_3 
REMARK    4  A    between atoms: C_11  and  O_4 
REMARK    5  A    between atoms: C_5  and  C_6 
ROOT
ATOM      1  C   UNL d   1      -0.555   0.278  -3.408  0.00  0.00     0.217 C 
ATOM      2  C   UNL d   1      -0.528  -1.233  -3.624  0.00  0.00     0.050 C 
ENDROOT
BRANCH   1   3
ATOM      3  C   UNL d   1      -1.959   0.718  -2.937  0.00  0.00     0.251 C 
ATOM      4  N   UNL d   1      -2.211   2.059  -3.211  0.00  0.00    -0.325 N 
ATOM      5  H   UNL d   1      -1.418   2.613  -3.511  0.00  0.00     0.169 HD
ATOM      6  O   UNL d   1      -2.753  -0.069  -2.429  0.00  0.00    -0.270 OA
BRANCH   4   7
ATOM      7  C   UNL d   1      -3.455   2.725  -3.152  0.00  0.00     0.034 A 
ATOM      8  C   UNL d   1      -4.648   2.119  -2.751  0.00  0.00     0.031 A 
ATOM      9  C   UNL d   1      -5.853   2.833  -2.761  0.00  0.00     0.021 A 
ATOM     10  C   UNL d   1      -5.869   4.160  -3.180  0.00  0.00     0.011 A 
ATOM     11  C   UNL d   1      -4.691   4.780  -3.583  0.00  0.00     0.021 A 
ATOM     12 BR   UNL d   1      -7.497   5.119  -3.206  0.00  0.00    -0.051 Br
ATOM     13  C   UNL d   1      -3.487   4.065  -3.565  0.00  0.00     0.031 A 
ENDBRANCH   4   7
ENDBRANCH   1   3
BRANCH   1  14
ATOM     14  O   UNL d   1       0.402   0.671  -2.415  0.00  0.00    -0.337 OA
BRANCH  14  15
ATOM     15  C   UNL d   1       1.702   0.714  -2.853  0.00  0.00     0.070 A 
ATOM     16  C   UNL d   1       2.096   1.417  -3.982  0.00  0.00     0.037 A 
ATOM     17  C   UNL d   1       3.442   1.435  -4.360  0.00  0.00     0.011 A 
ATOM     18  C   UNL d   1       4.435   0.773  -3.609  0.00  0.00    -0.050 A 
ATOM     19  C   UNL d   1       4.015   0.100  -2.452  0.00  0.00     0.011 A 
ATOM     20  C   UNL d   1       2.664   0.077  -2.071  0.00  0.00     0.037 A 
BRANCH  18  21
ATOM     21  C   UNL d   1       5.901   0.827  -4.074  0.00  0.00    -0.024 C 
ATOM     22  C   UNL d   1       6.888   0.088  -3.143  0.00  0.00     0.019 C 
ATOM     23  C   UNL d   1       6.023   0.180  -5.472  0.00  0.00     0.019 C 
ATOM     24  C   UNL d   1       6.369   2.297  -4.157  0.00  0.00     0.019 C 
ENDBRANCH  18  21
ENDBRANCH  14  15
ENDBRANCH   1  14
TORSDOF 5
