REMARK  8 active torsions:
REMARK  status: ('A' for Active; 'I' for Inactive)
REMARK    1  A    between atoms: C_2  and  N_1 
REMARK    2  A    between atoms: C_3  and  C_5 
REMARK    3  A    between atoms: N_18  and  C_6 
REMARK    4  A    between atoms: O_21  and  C_8 
REMARK    5  A    between atoms: O_22  and  C_10 
REMARK    6  A    between atoms: C_23  and  N_18 
REMARK    7  A    between atoms: C_19  and  C_24 
REMARK    8  A    between atoms: C_24  and  C_23 
ROOT
ATOM      1  N   UNL d   1      -0.192  -0.820  -1.396  0.00  0.00    -0.291 NA
ATOM      2  H   UNL d   1      -1.030  -0.540  -1.915  0.00  0.00     0.127 HD
ENDROOT
BRANCH   1   3
ATOM      3  C   UNL d   1       0.278   0.200  -0.545  0.00  0.00     0.041 A 
ATOM      4  C   UNL d   1       0.029   1.570  -0.774  0.00  0.00     0.124 A 
ATOM      5  C   UNL d   1       0.577   2.589   0.034  0.00  0.00     0.054 A 
ATOM      6  C   UNL d   1       1.420   2.258   1.101  0.00  0.00     0.050 A 
ATOM      7  C   UNL d   1       1.714   0.912   1.319  0.00  0.00     0.018 A 
ATOM      8  C   UNL d   1       1.170  -0.087   0.503  0.00  0.00     0.027 A 
BRANCH   4   9
ATOM      9  N   UNL d   1      -0.860   1.993  -1.850  0.00  0.00    -0.114 N 
ATOM     10  O   UNL d   1      -0.506   2.962  -2.535  0.00  0.00    -0.532 OA
ATOM     11  O   UNL d   1      -1.934   1.379  -1.976  0.00  0.00    -0.532 OA
ENDBRANCH   4   9
BRANCH   6  12
ATOM     12  C   UNL d   1       2.015   3.309   2.008  0.00  0.00     0.417 C 
ATOM     13  F   UNL d   1       1.650   4.577   1.688  0.00  0.00    -0.166 F 
ATOM     14  F   UNL d   1       1.649   3.128   3.308  0.00  0.00    -0.166 F 
ATOM     15  F   UNL d   1       3.376   3.289   1.998  0.00  0.00    -0.166 F 
ENDBRANCH   6  12
ENDBRANCH   1   3
BRANCH   1  16
ATOM     16  C   UNL d   1      -0.307  -2.185  -0.866  0.00  0.00     0.097 C 
BRANCH  16  17
ATOM     17  C   UNL d   1      -0.798  -3.185  -1.924  0.00  0.00     0.053 C 
BRANCH  17  18
ATOM     18  C   UNL d   1       0.156  -3.385  -3.081  0.00  0.00    -0.054 A 
ATOM     19  C   UNL d   1       1.483  -3.800  -2.865  0.00  0.00     0.046 A 
ATOM     20  C   UNL d   1       2.391  -3.945  -3.927  0.00  0.00     0.102 A 
ATOM     21  C   UNL d   1       1.939  -3.713  -5.236  0.00  0.00     0.101 A 
ATOM     22  C   UNL d   1       0.612  -3.318  -5.452  0.00  0.00     0.040 A 
ATOM     23  C   UNL d   1      -0.275  -3.161  -4.389  0.00  0.00     0.010 A 
BRANCH  20  24
ATOM     24  O   UNL d   1       3.710  -4.271  -3.749  0.00  0.00    -0.353 OA
ATOM     25  C   UNL d   1       4.190  -4.439  -2.423  0.00  0.00     0.210 C 
ENDBRANCH  20  24
BRANCH  21  26
ATOM     26  O   UNL d   1       2.672  -3.776  -6.395  0.00  0.00    -0.353 OA
ATOM     27  C   UNL d   1       3.736  -4.716  -6.431  0.00  0.00     0.210 C 
ENDBRANCH  21  26
ENDBRANCH  17  18
ENDBRANCH  16  17
ENDBRANCH   1  16
TORSDOF 8
