REMARK  4 active torsions:
REMARK  status: ('A' for Active; 'I' for Inactive)
REMARK    1  A    between atoms: C_3  and  C_1 
REMARK    2  A    between atoms: O_9  and  C_2 
REMARK       I    between atoms: N_6  and  C_3 
REMARK    3  A    between atoms: C_16  and  N_6 
REMARK    4  A    between atoms: C_8  and  O_9 
ROOT
ATOM      1  C   UNL d   1       0.009   1.172  -0.083  0.00  0.00     0.146 A 
ATOM      2  C   UNL d   1      -0.113  -1.023  -0.179  0.00  0.00     0.191 A 
ATOM      3  O   UNL d   1      -0.863   0.119  -0.208  0.00  0.00    -0.282 OA
ATOM      4  C   UNL d   1       1.296   0.689   0.077  0.00  0.00     0.048 A 
ATOM      5  C   UNL d   1       1.214  -0.719   0.038  0.00  0.00     0.067 A 
ENDROOT
BRANCH   1   6
ATOM      6  C   UNL d   1      -0.457   2.544  -0.152  0.00  0.00     0.280 C 
ATOM      7  N   UNL d   1      -1.835   2.682  -0.151  0.00  0.00    -0.321 N 
ATOM      8  H   UNL d   1      -2.359   1.823  -0.021  0.00  0.00     0.169 HD
ATOM      9  O   UNL d   1       0.344   3.475  -0.178  0.00  0.00    -0.265 OA
BRANCH   7  10
ATOM     10  C   UNL d   1      -2.566   3.888  -0.222  0.00  0.00     0.035 A 
ATOM     11  C   UNL d   1      -1.991   5.125  -0.533  0.00  0.00     0.029 A 
ATOM     12  C   UNL d   1      -2.768   6.287  -0.569  0.00  0.00     0.002 A 
ATOM     13  C   UNL d   1      -4.130   6.227  -0.293  0.00  0.00     0.000 A 
ATOM     14  C   UNL d   1      -4.718   5.000   0.003  0.00  0.00     0.002 A 
ATOM     15  C   UNL d   1      -3.942   3.835   0.029  0.00  0.00     0.029 A 
ENDBRANCH   7  10
ENDBRANCH   1   6
BRANCH   2  16
ATOM     16  O   UNL d   1      -0.810  -2.143  -0.368  0.00  0.00    -0.288 OA
BRANCH  16  17
ATOM     17  C   UNL d   1      -0.189  -3.267  -0.865  0.00  0.00     0.081 A 
ATOM     18  C   UNL d   1      -0.512  -4.494  -0.285  0.00  0.00     0.061 A 
ATOM     19  C   UNL d   1       0.060  -5.664  -0.786  0.00  0.00     0.038 A 
ATOM     20 CL   UNL d   1      -0.334  -7.180  -0.072  0.00  0.00    -0.084 Cl
ATOM     21  C   UNL d   1       0.945  -5.623  -1.862  0.00  0.00     0.048 A 
ATOM     22  C   UNL d   1       1.246  -4.396  -2.447  0.00  0.00     0.038 A 
ATOM     23  C   UNL d   1       0.675  -3.219  -1.964  0.00  0.00     0.061 A 
ATOM     24 CL   UNL d   1       2.329  -4.329  -3.782  0.00  0.00    -0.084 Cl
ENDBRANCH  16  17
ENDBRANCH   2  16
TORSDOF 4
