REMARK  6 active torsions:
REMARK  status: ('A' for Active; 'I' for Inactive)
REMARK    1  A    between atoms: C_2  and  C_1 
REMARK    2  A    between atoms: N_16  and  C_3 
REMARK    3  A    between atoms: C_14  and  C_4 
REMARK    4  A    between atoms: C_8  and  C_15 
REMARK    5  A    between atoms: N_10  and  N_16 
REMARK    6  A    between atoms: O_28  and  C_25 
ROOT
ATOM      1  N   UNL d   1      -4.564  -2.667   1.274  0.00  0.00    -0.310 N 
ATOM      2  HN  UNL d   1      -5.172  -2.579   2.089  1.00  0.00     0.186 HD
ATOM      3  C   UNL d   1      -4.861  -2.097   0.146  0.00  0.00     0.126 C 
ENDROOT
BRANCH   1   4
ATOM      4  N   UNL d   1      -3.425  -3.377   1.324  0.00  0.00    -0.299 N 
ATOM      5  H   UNL d   1      -2.912  -3.577   0.466  0.00  0.00     0.187 HD
BRANCH   4   6
ATOM      6  C   UNL d   1      -2.735  -3.524   2.552  0.00  0.00     0.085 A 
ATOM      7  C   UNL d   1      -1.331  -3.734   2.519  0.00  0.00     0.079 A 
ATOM      8  C   UNL d   1      -0.602  -3.868   3.721  0.00  0.00     0.042 A 
ATOM      9  C   UNL d   1      -1.237  -3.788   4.952  0.00  0.00     0.036 A 
ATOM     10  C   UNL d   1      -2.604  -3.569   5.012  0.00  0.00     0.050 A 
ATOM     11 CL   UNL d   1      -0.327  -3.965   6.399  0.00  0.00    -0.084 Cl
ATOM     12  C   UNL d   1      -3.349  -3.439   3.831  0.00  0.00     0.064 A 
ATOM     13 CL   UNL d   1      -5.056  -3.234   4.079  0.00  0.00    -0.082 Cl
BRANCH   7  14
ATOM     14  C   UNL d   1      -0.537  -3.807   1.238  0.00  0.00     0.419 C 
ATOM     15  F   UNL d   1      -1.278  -3.668   0.100  0.00  0.00    -0.166 F 
ATOM     16  F   UNL d   1       0.424  -2.845   1.168  0.00  0.00    -0.166 F 
ATOM     17  F   UNL d   1       0.114  -4.995   1.104  0.00  0.00    -0.166 F 
ENDBRANCH   7  14
ENDBRANCH   4   6
ENDBRANCH   1   4
BRANCH   3  18
ATOM     18  C   UNL d   1      -6.078  -1.341   0.003  0.00  0.00     0.022 A 
ATOM     19  S   UNL d   1      -7.444  -1.744   0.940  0.00  0.00    -0.088 SA
ATOM     20  C   UNL d   1      -8.392  -0.484   0.269  0.00  0.00     0.016 A 
ATOM     21  C   UNL d   1      -7.655   0.233  -0.660  0.00  0.00     0.021 A 
ATOM     22  C   UNL d   1      -6.331  -0.275  -0.833  0.00  0.00     0.021 A 
BRANCH  20  23
ATOM     23  C   UNL d   1      -9.771  -0.263   0.734  0.00  0.00    -0.019 A 
ATOM     24  C   UNL d   1     -10.295   1.037   0.773  0.00  0.00     0.015 A 
ATOM     25  C   UNL d   1     -11.599   1.279   1.222  0.00  0.00     0.037 A 
ATOM     26  C   UNL d   1     -12.403   0.220   1.636  0.00  0.00     0.068 A 
ATOM     27  C   UNL d   1     -11.905  -1.079   1.581  0.00  0.00     0.037 A 
ATOM     28  C   UNL d   1     -10.600  -1.321   1.141  0.00  0.00     0.015 A 
BRANCH  26  29
ATOM     29  O   UNL d   1     -13.696   0.334   2.064  0.00  0.00    -0.356 OA
ATOM     30  C   UNL d   1     -14.019   1.555   2.720  0.00  0.00     0.210 C 
ENDBRANCH  26  29
ENDBRANCH  20  23
ENDBRANCH   3  18
TORSDOF 6
