REMARK  4 active torsions:
REMARK  status: ('A' for Active; 'I' for Inactive)
REMARK    1  A    between atoms: N_7  and  C_2 
REMARK    2  A    between atoms: C_3  and  N_6 
REMARK    3  A    between atoms: N_9  and  C_3 
REMARK    4  A    between atoms: C_13  and  N_9 
ROOT
ATOM      1  N   UNL d   1       2.100  -5.537  -0.287  0.00  0.00    -0.356 N 
ATOM      2  N   UNL d   1       1.508  -2.757  -0.073  0.00  0.00    -0.265 NA
ATOM      3  C   UNL d   1       0.881  -4.979  -0.891  0.00  0.00     0.140 C 
ATOM      4  C   UNL d   1       2.745  -4.714   0.752  0.00  0.00     0.140 C 
ATOM      5  C   UNL d   1       2.845  -3.227   0.339  0.00  0.00     0.117 C 
ATOM      6  C   UNL d   1       1.019  -3.490  -1.260  0.00  0.00     0.117 C 
ENDROOT
BRANCH   1   7
ATOM      7  C   UNL d   1       2.594  -6.781  -0.601  0.00  0.00     0.174 C 
ATOM      8  S   UNL d   1       3.062  -7.206  -2.148  0.00  0.00    -0.041 SA
BRANCH   7   9
ATOM      9  N   UNL d   1       2.887  -7.608   0.448  0.00  0.00    -0.331 N 
ATOM     10  H   UNL d   1       3.663  -8.247   0.294  0.00  0.00     0.168 HD
BRANCH   9  11
ATOM     11  C   UNL d   1       1.983  -8.051   1.449  0.00  0.00     0.073 A 
ATOM     12  C   UNL d   1       2.497  -8.828   2.499  0.00  0.00     0.145 A 
ATOM     13  C   UNL d   1       1.673  -9.402   3.461  0.00  0.00     0.086 A 
ATOM     14  F   UNL d   1       3.822  -9.032   2.583  0.00  0.00    -0.204 F 
ATOM     15  C   UNL d   1       0.301  -9.225   3.357  0.00  0.00     0.119 A 
ATOM     16  C   UNL d   1      -0.244  -8.461   2.329  0.00  0.00     0.044 A 
ATOM     17  F   UNL d   1      -0.511  -9.814   4.244  0.00  0.00    -0.206 F 
ATOM     18  C   UNL d   1       0.604  -7.861   1.382  0.00  0.00     0.036 A 
ENDBRANCH   9  11
ENDBRANCH   7   9
ENDBRANCH   1   7
BRANCH   2  19
ATOM     19  C   UNL d   1       1.370  -1.371  -0.156  0.00  0.00     0.103 A 
ATOM     20  C   UNL d   1       0.130  -0.729   0.031  0.00  0.00     0.070 A 
ATOM     21  S   UNL d   1      -1.425  -1.406   0.348  0.00  0.00    -0.096 SA
ATOM     22  C   UNL d   1       0.063   0.662   0.016  0.00  0.00     0.060 A 
ATOM     23  C   UNL d   1      -2.162   0.127   0.430  0.00  0.00     0.059 A 
ATOM     24  C   UNL d   1      -1.268   1.161   0.238  0.00  0.00    -0.027 A 
ATOM     25  C   UNL d   1      -1.649   2.602   0.272  0.00  0.00     0.051 C 
ATOM     26  N   UNL d   1       1.159   1.438  -0.174  0.00  0.00    -0.351 N 
ATOM     27  C   UNL d   1       2.294   0.752  -0.319  0.00  0.00     0.182 A 
ATOM     28  HN  UNL d   1       1.119   2.457  -0.204  1.00  0.00     0.166 HD
ATOM     29  N   UNL d   1       2.457  -0.579  -0.313  0.00  0.00    -0.342 N 
ATOM     30  HN  UNL d   1       3.384  -0.988  -0.426  1.00  0.00     0.167 HD
ENDBRANCH   2  19
TORSDOF 4
