REMARK  7 active torsions:
REMARK  status: ('A' for Active; 'I' for Inactive)
REMARK    1  A    between atoms: C_2  and  C_1 
REMARK    2  A    between atoms: C_4  and  C_1 
REMARK    3  A    between atoms: S_5  and  C_1 
REMARK    4  A    between atoms: C_3  and  C_4 
REMARK    5  A    between atoms: C_6  and  C_3 
REMARK    6  A    between atoms: C_8  and  S_5 
REMARK    7  A    between atoms: N_17  and  C_14 
ROOT
ATOM      1  C   UNL d   1       1.144  -0.295  -0.237  0.00  0.00     0.096 C 
ENDROOT
BRANCH   1   2
ATOM      2  C   UNL d   1       0.294   0.937  -0.602  0.00  0.00    -0.000 A 
ATOM      3  C   UNL d   1      -0.753   1.347   0.259  0.00  0.00     0.043 A 
ATOM      4 CL   UNL d   1      -1.151   0.493   1.715  0.00  0.00    -0.084 Cl
ATOM      5  C   UNL d   1      -1.576   2.441  -0.043  0.00  0.00     0.024 A 
ATOM      6  C   UNL d   1      -1.385   3.163  -1.212  0.00  0.00     0.003 A 
ATOM      7  C   UNL d   1      -0.391   2.766  -2.096  0.00  0.00     0.024 A 
ATOM      8  C   UNL d   1       0.422   1.656  -1.813  0.00  0.00     0.043 A 
ATOM      9 CL   UNL d   1       1.501   1.210  -3.095  0.00  0.00    -0.084 Cl
ENDBRANCH   1   2
BRANCH   1  10
ATOM     10  C   UNL d   1       0.512  -1.538  -0.926  0.00  0.00     0.104 C 
BRANCH  10  11
ATOM     11  C   UNL d   1       1.170  -2.878  -0.651  0.00  0.00     0.161 C 
ATOM     12  O   UNL d   1       2.399  -2.977  -0.672  0.00  0.00    -0.292 OA
BRANCH  11  13
ATOM     13  C   UNL d   1       0.393  -4.151  -0.391  0.00  0.00     0.016 A 
ATOM     14  C   UNL d   1      -0.956  -4.453  -0.668  0.00  0.00    -0.048 A 
ATOM     15  C   UNL d   1      -1.451  -5.739  -0.314  0.00  0.00     0.014 A 
ATOM     16  C   UNL d   1      -1.973  -3.571  -1.336  0.00  0.00     0.049 C 
ATOM     17  C   UNL d   1      -0.641  -6.734   0.245  0.00  0.00    -0.061 A 
ATOM     18  C   UNL d   1       0.694  -6.443   0.479  0.00  0.00     0.007 A 
ATOM     19  C   UNL d   1      -1.206  -8.080   0.585  0.00  0.00     0.048 C 
ATOM     20  C   UNL d   1       1.192  -5.175   0.175  0.00  0.00     0.016 A 
ENDBRANCH  11  13
ENDBRANCH  10  11
ENDBRANCH   1  10
BRANCH   1  21
ATOM     21  S   UNL d   1       2.970  -0.051  -0.461  0.00  0.00    -0.118 SA
BRANCH  21  22
ATOM     22  C   UNL d   1       3.413   1.360   0.566  0.00  0.00     0.022 A 
ATOM     23  C   UNL d   1       4.560   2.114   0.210  0.00  0.00     0.022 A 
ATOM     24  C   UNL d   1       4.951   3.199   1.011  0.00  0.00     0.024 A 
ATOM     25  C   UNL d   1       4.192   3.577   2.117  0.00  0.00     0.002 A 
ATOM     26  C   UNL d   1       3.065   2.841   2.467  0.00  0.00     0.001 A 
ATOM     27  C   UNL d   1       2.687   1.733   1.706  0.00  0.00     0.020 A 
BRANCH  23  28
ATOM     28  N   UNL d   1       5.455   1.667  -0.785  0.00  0.00    -0.302 NA
ATOM     29  H   UNL d   1       5.004   1.012  -1.423  0.00  0.00     0.124 HD
ATOM     30  H   UNL d   1       5.965   2.405  -1.253  0.00  0.00     0.124 HD
ENDBRANCH  23  28
ENDBRANCH  21  22
ENDBRANCH   1  21
TORSDOF 7
