REMARK  4 active torsions:
REMARK  status: ('A' for Active; 'I' for Inactive)
REMARK    1  A    between atoms: C_12  and  N_2 
REMARK       I    between atoms: C_5  and  N_8 
REMARK       I    between atoms: N_6  and  C_5 
REMARK    2  A    between atoms: C_9  and  N_6 
REMARK    3  A    between atoms: N_8  and  C_15 
REMARK    4  A    between atoms: C_15  and  C_12 
ROOT
ATOM      1  C   UNL d   1      -3.974   4.075   1.274  0.00  0.00     0.320 C 
ATOM      2  N   UNL d   1      -4.361   5.293   1.789  0.00  0.00    -0.309 N 
ATOM      3  O   UNL d   1      -4.713   3.120   1.042  0.00  0.00    -0.247 OA
ATOM      4  N   UNL d   1      -2.609   3.977   1.074  0.00  0.00    -0.341 N 
ATOM      5  H   UNL d   1      -3.671   6.029   1.791  0.00  0.00     0.170 HD
ATOM      6  H   UNL d   1      -2.081   4.820   0.896  0.00  0.00     0.164 HD
ENDROOT
BRANCH   4   7
ATOM      7  C   UNL d   1      -2.098   2.735   0.484  0.00  0.00     0.144 C 
BRANCH   7   8
ATOM      8  C   UNL d   1      -0.583   2.693   0.277  0.00  0.00     0.143 C 
BRANCH   8   9
ATOM      9  N   UNL d   1      -0.136   3.754  -0.617  0.00  0.00    -0.368 N 
ATOM     10  C   UNL d   1       0.848   4.669  -0.332  0.00  0.00     0.071 C 
ATOM     11  N   UNL d   1       1.575   5.088  -1.334  0.00  0.00    -0.379 N 
ATOM     12  C   UNL d   1       1.071   5.245   1.035  0.00  0.00     0.088 C 
ATOM     13  C   UNL d   1       1.123   4.276  -2.496  0.00  0.00     0.141 C 
ATOM     14  HN  UNL d   1       2.294   5.812  -1.322  1.00  0.00     0.160 HD
ATOM     15  C   UNL d   1      -0.137   3.523  -2.053  0.00  0.00     0.143 C 
ENDBRANCH   8   9
ENDBRANCH   7   8
ENDBRANCH   4   7
BRANCH   2  16
ATOM     16  C   UNL d   1      -5.630   5.604   2.338  0.00  0.00     0.036 A 
ATOM     17  C   UNL d   1      -6.620   4.643   2.582  0.00  0.00     0.032 A 
ATOM     18  C   UNL d   1      -7.796   4.976   3.262  0.00  0.00     0.044 A 
ATOM     19  C   UNL d   1      -7.999   6.280   3.682  0.00  0.00     0.116 A 
ATOM     20  C   UNL d   1      -7.063   7.267   3.399  0.00  0.00     0.044 A 
ATOM     21  F   UNL d   1      -9.101   6.588   4.378  0.00  0.00    -0.206 F 
ATOM     22  C   UNL d   1      -5.879   6.930   2.728  0.00  0.00     0.032 A 
ENDBRANCH   2  16
TORSDOF 4
