REMARK  2 active torsions:
REMARK  status: ('A' for Active; 'I' for Inactive)
REMARK    1  A    between atoms: C_10  and  N_4 
REMARK    2  A    between atoms: C_13  and  C_10 
ROOT
ATOM      1  N   UNL d   1      -0.933   0.451  -0.023  0.00  0.00    -0.248 N 
ATOM      2  C   UNL d   1      -1.773  -0.602   0.108  0.00  0.00     0.117 A 
ATOM      3  C   UNL d   1      -1.749   1.561  -0.145  0.00  0.00     0.349 A 
ATOM      4  N   UNL d   1      -3.055   1.056  -0.091  0.00  0.00    -0.236 N 
ATOM      5  N   UNL d   1      -3.042  -0.307   0.076  0.00  0.00    -0.281 N 
ATOM      6  HN  UNL d   1      -3.839  -0.939   0.155  1.00  0.00     0.188 HD
ATOM      7  C   UNL d   1       0.477   0.388  -0.018  0.00  0.00     0.062 A 
ATOM      8  S   UNL d   1       0.237  -2.370  -0.484  0.00  0.00    -0.120 SA
ATOM      9  C   UNL d   1      -1.281  -1.984   0.403  0.00  0.00     0.158 C 
ATOM     10  C   UNL d   1       1.128  -0.853  -0.167  0.00  0.00     0.028 A 
ATOM     11  O   UNL d   1      -1.449   2.738  -0.272  0.00  0.00    -0.244 OA
ATOM     12  C   UNL d   1       1.264   1.540   0.126  0.00  0.00     0.031 A 
ATOM     13  C   UNL d   1       2.529  -0.924  -0.151  0.00  0.00     0.021 A 
ATOM     14  C   UNL d   1       2.659   1.460   0.152  0.00  0.00     0.002 A 
ATOM     15  C   UNL d   1       3.292   0.228   0.020  0.00  0.00     0.002 A 
ENDROOT
BRANCH   4  16
ATOM     16  C   UNL d   1      -4.272   1.827  -0.186  0.00  0.00     0.192 C 
BRANCH  16  17
ATOM     17  C   UNL d   1      -4.737   1.978  -1.615  0.00  0.00    -0.038 A 
ATOM     18  C   UNL d   1      -5.581   1.018  -2.195  0.00  0.00     0.012 A 
ATOM     19  C   UNL d   1      -5.979   1.141  -3.527  0.00  0.00     0.043 A 
ATOM     20  C   UNL d   1      -5.529   2.218  -4.281  0.00  0.00     0.116 A 
ATOM     21  C   UNL d   1      -4.692   3.179  -3.726  0.00  0.00     0.043 A 
ATOM     22  F   UNL d   1      -5.900   2.328  -5.563  0.00  0.00    -0.206 F 
ATOM     23  C   UNL d   1      -4.294   3.059  -2.394  0.00  0.00     0.012 A 
ENDBRANCH  16  17
ENDBRANCH   4  16
TORSDOF 2
