REMARK  3 active torsions:
REMARK  status: ('A' for Active; 'I' for Inactive)
REMARK    1  A    between atoms: C_3  and  C_1 
REMARK       I    between atoms: N_11  and  C_3 
REMARK    2  A    between atoms: N_10  and  C_14 
REMARK    3  A    between atoms: C_20  and  N_11 
ROOT
ATOM      1  C   UNL d   1      -0.493  -4.747  -0.926  0.00  0.00     0.258 C 
ATOM      2  N   UNL d   1      -0.171  -3.735  -0.035  0.00  0.00    -0.323 N 
ATOM      3  O   UNL d   1       0.312  -5.429  -1.553  0.00  0.00    -0.267 OA
ATOM      4  H   UNL d   1      -0.927  -3.318   0.502  0.00  0.00     0.169 HD
ENDROOT
BRANCH   2   5
ATOM      5  C   UNL d   1       1.129  -3.203   0.164  0.00  0.00     0.035 A 
ATOM      6  C   UNL d   1       2.211  -3.542  -0.646  0.00  0.00     0.032 A 
ATOM      7  C   UNL d   1       3.453  -2.933  -0.473  0.00  0.00     0.031 A 
ATOM      8  C   UNL d   1       3.678  -1.952   0.498  0.00  0.00     0.030 A 
ATOM      9  C   UNL d   1       2.611  -1.662   1.354  0.00  0.00     0.031 A 
ATOM     10  C   UNL d   1       1.346  -2.268   1.181  0.00  0.00     0.032 A 
BRANCH   8  11
ATOM     11  N   UNL d   1       4.933  -1.353   0.549  0.00  0.00    -0.378 N 
ATOM     12  C   UNL d   1       5.395  -0.629   1.743  0.00  0.00     0.153 C 
ATOM     13  C   UNL d   1       6.940  -0.459   1.675  0.00  0.00     0.291 C 
ATOM     14  N   UNL d   1       7.413   0.196   0.430  0.00  0.00     0.087 N 
ATOM     15  C   UNL d   1       6.878  -0.535  -0.741  0.00  0.00     0.291 C 
ATOM     16  C   UNL d   1       8.874   0.218   0.377  0.00  0.00     0.310 C 
ATOM     17  C   UNL d   1       5.342  -0.669  -0.702  0.00  0.00     0.153 C 
ENDBRANCH   8  11
ENDBRANCH   2   5
BRANCH   1  18
ATOM     18  C   UNL d   1      -1.919  -5.074  -1.153  0.00  0.00     0.061 A 
ATOM     19  C   UNL d   1      -3.019  -4.389  -0.579  0.00  0.00     0.082 A 
ATOM     20  N   UNL d   1      -2.992  -3.344   0.270  0.00  0.00    -0.310 N 
ATOM     21  C   UNL d   1      -4.435  -4.828  -0.913  0.00  0.00     0.068 A 
ATOM     22  S   UNL d   1      -4.576  -2.947   0.590  0.00  0.00     0.068 SA
ATOM     23  HN  UNL d   1      -2.162  -2.885   0.645  1.00  0.00     0.176 HD
ATOM     24  N   UNL d   1      -5.375  -4.090  -0.304  0.00  0.00    -0.310 N 
ATOM     25  HN  UNL d   1      -6.386  -4.210  -0.378  1.00  0.00     0.176 HD
ATOM     26  C   UNL d   1      -4.687  -5.912  -1.788  0.00  0.00     0.032 A 
ATOM     27  C   UNL d   1      -3.562  -6.542  -2.336  0.00  0.00     0.003 A 
ATOM     28  C   UNL d   1      -2.244  -6.137  -2.034  0.00  0.00     0.019 A 
ENDBRANCH   1  18
TORSDOF 3
