REMARK  2 active torsions:
REMARK  status: ('A' for Active; 'I' for Inactive)
REMARK       I    between atoms: N_2  and  C_1 
REMARK    1  A    between atoms: C_3  and  C_1 
REMARK    2  A    between atoms: C_5  and  N_2 
ROOT
ATOM      1  C   UNL d   1       0.990   0.025   0.116  0.00  0.00     0.257 C 
ATOM      2  N   UNL d   1       0.391  -0.499  -1.019  0.00  0.00    -0.322 N 
ATOM      3  O   UNL d   1       2.152  -0.149   0.459  0.00  0.00    -0.267 OA
ATOM      4  H   UNL d   1      -0.476  -0.071  -1.313  0.00  0.00     0.169 HD
ENDROOT
BRANCH   1   5
ATOM      5  C   UNL d   1       0.096   0.915   0.917  0.00  0.00     0.043 A 
ATOM      6  C   UNL d   1       0.519   2.185   1.405  0.00  0.00    -0.010 A 
ATOM      7  C   UNL d   1      -0.407   2.941   2.172  0.00  0.00    -0.025 A 
ATOM      8  C   UNL d   1       1.794   2.762   1.179  0.00  0.00     0.013 A 
ATOM      9  C   UNL d   1      -0.044   4.198   2.684  0.00  0.00     0.012 A 
ATOM     10  C   UNL d   1      -1.692   2.436   2.425  0.00  0.00     0.012 A 
ATOM     11  C   UNL d   1       1.224   4.727   2.455  0.00  0.00     0.001 A 
ATOM     12  C   UNL d   1       2.142   4.011   1.702  0.00  0.00     0.001 A 
ATOM     13  C   UNL d   1      -2.083   1.190   1.946  0.00  0.00     0.002 A 
ATOM     14  C   UNL d   1      -1.192   0.429   1.199  0.00  0.00     0.018 A 
ENDBRANCH   1   5
BRANCH   2  15
ATOM     15  C   UNL d   1       1.007  -1.384  -1.930  0.00  0.00     0.041 A 
ATOM     16  C   UNL d   1       0.686  -1.317  -3.300  0.00  0.00    -0.035 A 
ATOM     17  C   UNL d   1      -0.209  -0.265  -3.894  0.00  0.00     0.050 C 
ATOM     18  C   UNL d   1       1.279  -2.240  -4.186  0.00  0.00     0.009 A 
ATOM     19  C   UNL d   1       2.173  -3.200  -3.723  0.00  0.00     0.001 A 
ATOM     20  C   UNL d   1       2.486  -3.268  -2.374  0.00  0.00     0.002 A 
ATOM     21  C   UNL d   1       1.910  -2.359  -1.482  0.00  0.00     0.030 A 
ENDBRANCH   2  15
TORSDOF 2
