REMARK  3 active torsions:
REMARK  status: ('A' for Active; 'I' for Inactive)
REMARK    1  A    between atoms: C_6  and  C_1 
REMARK    2  A    between atoms: C_8  and  C_3 
REMARK    3  A    between atoms: C_7  and  C_4 
ROOT
ATOM      1  C   UNL d   1       0.141   1.231  -0.032  0.00  0.00     0.100 A 
ATOM      2  S   UNL d   1      -1.006  -0.053  -0.072  0.00  0.00    -0.081 SA
ATOM      3  C   UNL d   1       1.442   0.742  -0.072  0.00  0.00    -0.003 A 
ATOM      4  C   UNL d   1       0.195  -1.268  -0.079  0.00  0.00     0.051 A 
ATOM      5  C   UNL d   1       1.450  -0.701  -0.100  0.00  0.00     0.036 A 
ENDROOT
BRANCH   3   6
ATOM      6  C   UNL d   1       2.657   1.569  -0.044  0.00  0.00    -0.025 A 
ATOM      7  C   UNL d   1       3.761   1.143   0.713  0.00  0.00     0.012 A 
ATOM      8  C   UNL d   1       4.956   1.869   0.719  0.00  0.00     0.001 A 
ATOM      9  C   UNL d   1       5.058   3.044  -0.018  0.00  0.00     0.000 A 
ATOM     10  C   UNL d   1       3.973   3.483  -0.771  0.00  0.00     0.001 A 
ATOM     11  C   UNL d   1       2.786   2.741  -0.799  0.00  0.00     0.012 A 
ENDBRANCH   3   6
BRANCH   1  12
ATOM     12  C   UNL d   1      -0.381   2.633   0.041  0.00  0.00     0.424 C 
ATOM     13  F   UNL d   1      -1.705   2.706   0.347  0.00  0.00    -0.166 F 
ATOM     14  F   UNL d   1       0.262   3.374   0.981  0.00  0.00    -0.166 F 
ATOM     15  F   UNL d   1      -0.236   3.288  -1.143  0.00  0.00    -0.166 F 
ENDBRANCH   1  12
BRANCH   4  16
ATOM     16  C   UNL d   1      -0.221  -2.668  -0.070  0.00  0.00     0.162 C 
ATOM     17  O   UNL d   1      -1.403  -3.031  -0.088  0.00  0.00    -0.292 OA
ATOM     18  C   UNL d   1       0.845  -3.742  -0.025  0.00  0.00     0.097 C 
ENDBRANCH   4  16
TORSDOF 3
