REMARK  5 active torsions:
REMARK  status: ('A' for Active; 'I' for Inactive)
REMARK    1  A    between atoms: C_6  and  N_1 
REMARK    2  A    between atoms: C_4  and  C_2 
REMARK    3  A    between atoms: C_3  and  C_5 
REMARK       I    between atoms: N_12  and  C_4 
REMARK    4  A    between atoms: N_8  and  N_12 
REMARK    5  A    between atoms: C_21  and  C_20 
ROOT
ATOM      1  C   UNL d   1       2.236  -1.441  -0.096  0.00  0.00     0.287 C 
ATOM      2  N   UNL d   1       3.440  -0.753   0.054  0.00  0.00    -0.265 N 
ATOM      3  O   UNL d   1       2.189  -2.650  -0.322  0.00  0.00    -0.264 OA
ATOM      4  H   UNL d   1       3.455   0.236   0.268  0.00  0.00     0.190 HD
ENDROOT
BRANCH   2   5
ATOM      5  N   UNL d   1       4.603  -1.465  -0.003  0.00  0.00    -0.308 N 
ATOM      6  C   UNL d   1       5.722  -0.829   0.121  0.00  0.00     0.118 C 
ATOM      7  HN  UNL d   1       4.591  -2.475  -0.139  1.00  0.00     0.186 HD
BRANCH   6   8
ATOM      8  C   UNL d   1       7.008  -1.566   0.059  0.00  0.00    -0.018 A 
ATOM      9  C   UNL d   1       8.219  -0.872   0.164  0.00  0.00     0.029 A 
ATOM     10  C   UNL d   1       9.442  -1.565   0.076  0.00  0.00     0.048 A 
ATOM     11  C   UNL d   1       9.428  -2.959  -0.105  0.00  0.00     0.016 A 
ATOM     12  C   UNL d   1       8.220  -3.649  -0.200  0.00  0.00     0.002 A 
ATOM     13  C   UNL d   1       7.013  -2.954  -0.120  0.00  0.00     0.013 A 
BRANCH  10  14
ATOM     14  C   UNL d   1      10.765  -0.842   0.158  0.00  0.00     0.417 C 
ATOM     15  F   UNL d   1      10.635   0.505   0.316  0.00  0.00    -0.166 F 
ATOM     16  F   UNL d   1      11.530  -1.268   1.200  0.00  0.00    -0.166 F 
ATOM     17  F   UNL d   1      11.522  -1.014  -0.960  0.00  0.00    -0.166 F 
ENDBRANCH  10  14
ENDBRANCH   6   8
ENDBRANCH   2   5
BRANCH   1  18
ATOM     18  C   UNL d   1       1.037  -0.628   0.036  0.00  0.00     0.109 A 
ATOM     19  N   UNL d   1      -0.190  -1.075   0.542  0.00  0.00    -0.318 N 
ATOM     20  C   UNL d   1      -1.133  -0.089   0.287  0.00  0.00     0.098 A 
ATOM     21  C   UNL d   1      -0.524   0.990  -0.302  0.00  0.00     0.020 A 
ATOM     22  C   UNL d   1       0.838   0.660  -0.451  0.00  0.00     0.037 A 
BRANCH  19  23
ATOM     23  C   UNL d   1      -0.486  -2.281   1.253  0.00  0.00     0.039 A 
ATOM     24  C   UNL d   1       0.484  -2.908   2.048  0.00  0.00     0.033 A 
ATOM     25  C   UNL d   1       0.172  -4.075   2.750  0.00  0.00     0.044 A 
ATOM     26  C   UNL d   1      -1.105  -4.611   2.664  0.00  0.00     0.116 A 
ATOM     27  C   UNL d   1      -2.083  -4.001   1.890  0.00  0.00     0.044 A 
ATOM     28  F   UNL d   1      -1.401  -5.729   3.341  0.00  0.00    -0.206 F 
ATOM     29  C   UNL d   1      -1.779  -2.833   1.187  0.00  0.00     0.033 A 
ENDBRANCH  19  23
ENDBRANCH   1  18
TORSDOF 5
