REMARK  3 active torsions:
REMARK  status: ('A' for Active; 'I' for Inactive)
REMARK    1  A    between atoms: N_13  and  C_3 
REMARK    2  A    between atoms: C_14  and  C_9 
REMARK    3  A    between atoms: C_15  and  N_13 
ROOT
ATOM      1  N   UNL d   1       0.204  -0.738   0.066  0.00  0.00    -0.069 N 
ATOM      2  C   UNL d   1       0.210   0.659   0.040  0.00  0.00     0.706 A 
ATOM      3  C   UNL d   1      -0.994  -1.475   0.054  0.00  0.00     0.148 A 
ATOM      4  N   UNL d   1      -0.947   1.381   0.040  0.00  0.00    -0.189 N 
ATOM      5  HN  UNL d   1      -0.940   2.401   0.009  1.00  0.00     0.184 HD
ATOM      6  C   UNL d   1      -2.151  -0.788   0.081  0.00  0.00     0.082 A 
ATOM      7  N   UNL d   1       1.456   1.080   0.011  0.00  0.00    -0.184 N 
ATOM      8  HN  UNL d   1       1.797   2.041  -0.021  1.00  0.00     0.185 HD
ATOM      9  C   UNL d   1      -2.061   0.707   0.081  0.00  0.00     0.063 A 
ATOM     10  N   UNL d   1       1.485  -1.204   0.075  0.00  0.00    -0.273 N 
ATOM     11  HN  UNL d   1       1.821  -2.167   0.104  1.00  0.00     0.189 HD
ATOM     12  C   UNL d   1       2.184  -0.070   0.035  0.00  0.00     0.215 A 
ENDROOT
BRANCH   3  13
ATOM     13  N   UNL d   1      -0.891  -2.865   0.036  0.00  0.00    -0.340 N 
ATOM     14  H   UNL d   1       0.081  -3.171   0.154  0.00  0.00     0.167 HD
BRANCH  13  15
ATOM     15  C   UNL d   1      -1.573  -3.729  -0.853  0.00  0.00     0.033 A 
ATOM     16  C   UNL d   1      -2.281  -3.280  -1.975  0.00  0.00     0.030 A 
ATOM     17  C   UNL d   1      -2.955  -4.176  -2.809  0.00  0.00     0.009 A 
ATOM     18  C   UNL d   1      -2.935  -5.547  -2.539  0.00  0.00    -0.062 A 
ATOM     19  C   UNL d   1      -2.227  -6.007  -1.426  0.00  0.00     0.009 A 
ATOM     20  C   UNL d   1      -3.677  -6.492  -3.436  0.00  0.00     0.048 C 
ATOM     21  C   UNL d   1      -1.553  -5.105  -0.594  0.00  0.00     0.030 A 
ENDBRANCH  13  15
ENDBRANCH   3  13
BRANCH   9  22
ATOM     22  C   UNL d   1      -3.360   1.445   0.099  0.00  0.00    -0.009 A 
ATOM     23  C   UNL d   1      -4.484   0.949   0.772  0.00  0.00     0.014 A 
ATOM     24  C   UNL d   1      -5.684   1.665   0.760  0.00  0.00     0.001 A 
ATOM     25  C   UNL d   1      -5.763   2.882   0.086  0.00  0.00     0.000 A 
ATOM     26  C   UNL d   1      -4.644   3.391  -0.570  0.00  0.00     0.001 A 
ATOM     27  C   UNL d   1      -3.443   2.678  -0.561  0.00  0.00     0.014 A 
ENDBRANCH   9  22
TORSDOF 3
