REMARK  3 active torsions:
REMARK  status: ('A' for Active; 'I' for Inactive)
REMARK    1  A    between atoms: C_3  and  C_1 
REMARK    2  A    between atoms: C_11  and  C_2 
REMARK    3  A    between atoms: C_8  and  C_3 
ROOT
ATOM      1  C   UNL d   1      -2.319  -0.759  -0.200  0.00  0.00     0.042 A 
ATOM      2  C   UNL d   1      -1.107  -1.471  -0.097  0.00  0.00     0.002 A 
ATOM      3  C   UNL d   1      -2.272   0.625  -0.286  0.00  0.00     0.104 A 
ATOM      4  N   UNL d   1      -1.142   1.357  -0.216  0.00  0.00    -0.364 N 
ATOM      5  HN  UNL d   1      -1.170   2.374  -0.277  1.00  0.00     0.165 HD
ATOM      6  C   UNL d   1       0.105  -0.705   0.016  0.00  0.00     0.003 A 
ATOM      7  C   UNL d   1       0.014   0.706  -0.065  0.00  0.00     0.043 A 
ATOM      8  C   UNL d   1       1.396  -1.266   0.213  0.00  0.00     0.014 A 
ATOM      9  C   UNL d   1       1.167   1.475   0.008  0.00  0.00     0.030 A 
ATOM     10  C   UNL d   1       2.542  -0.472   0.283  0.00  0.00     0.001 A 
ATOM     11  C   UNL d   1       2.428   0.904   0.173  0.00  0.00     0.002 A 
ENDROOT
BRANCH   1  12
ATOM     12  C   UNL d   1      -3.661  -1.387  -0.280  0.00  0.00     0.194 C 
ATOM     13  O   UNL d   1      -3.873  -2.284  -1.087  0.00  0.00    -0.287 OA
BRANCH  12  14
ATOM     14  C   UNL d   1      -4.784  -0.866   0.556  0.00  0.00     0.015 A 
ATOM     15  C   UNL d   1      -4.569  -0.237   1.792  0.00  0.00     0.017 A 
ATOM     16  C   UNL d   1      -5.647   0.308   2.498  0.00  0.00     0.025 A 
ATOM     17  C   UNL d   1      -6.939   0.210   1.982  0.00  0.00     0.034 A 
ATOM     18  C   UNL d   1      -7.166  -0.444   0.773  0.00  0.00     0.025 A 
ATOM     19 CL   UNL d   1      -8.257   0.907   2.840  0.00  0.00    -0.084 Cl
ATOM     20  C   UNL d   1      -6.091  -0.986   0.064  0.00  0.00     0.017 A 
ENDBRANCH  12  14
ENDBRANCH   1  12
BRANCH   2  21
ATOM     21  C   UNL d   1      -1.062  -2.953  -0.140  0.00  0.00    -0.024 A 
ATOM     22  C   UNL d   1      -0.361  -3.610  -1.171  0.00  0.00     0.012 A 
ATOM     23  C   UNL d   1      -0.265  -5.004  -1.216  0.00  0.00     0.001 A 
ATOM     24  C   UNL d   1      -0.897  -5.772  -0.245  0.00  0.00     0.000 A 
ATOM     25  C   UNL d   1      -1.617  -5.146   0.771  0.00  0.00     0.001 A 
ATOM     26  C   UNL d   1      -1.691  -3.749   0.830  0.00  0.00     0.012 A 
ENDBRANCH   2  21
TORSDOF 3
