REMARK  3 active torsions:
REMARK  status: ('A' for Active; 'I' for Inactive)
REMARK       I    between atoms: N_4  and  C_1 
REMARK       I    between atoms: N_5  and  C_1 
REMARK    1  A    between atoms: C_8  and  N_4 
REMARK    2  A    between atoms: C_9  and  N_5 
REMARK    3  A    between atoms: C_11  and  C_9 
ROOT
ATOM      1  N   UNL d   1      -3.572  -0.920   6.996  0.00  0.00    -0.191 NA
ATOM      2  C   UNL d   1      -3.152  -0.949   5.914  0.00  0.00     0.099 C 
ATOM      3  C   UNL d   1      -2.632  -0.992   4.578  0.00  0.00     0.044 A 
ATOM      4  C   UNL d   1      -1.623  -1.076   1.953  0.00  0.00    -0.040 A 
ATOM      5  C   UNL d   1      -1.895   0.084   4.074  0.00  0.00     0.023 A 
ATOM      6  C   UNL d   1      -2.866  -2.109   3.771  0.00  0.00     0.023 A 
ATOM      7  C   UNL d   1      -1.396   0.043   2.769  0.00  0.00     0.010 A 
ATOM      8  C   UNL d   1      -2.365  -2.150   2.467  0.00  0.00     0.010 A 
ENDROOT
BRANCH   4   9
ATOM      9  C   UNL d   1      -1.129  -1.102   0.527  0.00  0.00     0.162 C 
BRANCH   9  10
ATOM     10  N   UNL d   1       0.315  -1.037   0.449  0.00  0.00    -0.339 N 
ATOM     11  C   UNL d   1       0.945   0.035  -0.142  0.00  0.00     0.320 C 
ATOM     12  N   UNL d   1       2.315  -0.125  -0.166  0.00  0.00    -0.309 N 
ATOM     13  O   UNL d   1       0.318   0.979  -0.605  0.00  0.00    -0.247 OA
ATOM     14  H   UNL d   1       2.656  -1.051   0.036  0.00  0.00     0.170 HD
ATOM     15  H   UNL d   1       0.848  -1.673   1.020  0.00  0.00     0.164 HD
BRANCH  12  16
ATOM     16  C   UNL d   1       3.254   0.800  -0.675  0.00  0.00     0.036 A 
ATOM     17  C   UNL d   1       2.935   2.129  -0.979  0.00  0.00     0.032 A 
ATOM     18  C   UNL d   1       3.900   2.989  -1.510  0.00  0.00     0.044 A 
ATOM     19  C   UNL d   1       5.187   2.523  -1.730  0.00  0.00     0.116 A 
ATOM     20  C   UNL d   1       5.532   1.215  -1.416  0.00  0.00     0.044 A 
ATOM     21  F   UNL d   1       6.107   3.344  -2.253  0.00  0.00    -0.206 F 
ATOM     22  C   UNL d   1       4.566   0.354  -0.879  0.00  0.00     0.032 A 
ENDBRANCH  12  16
ENDBRANCH   9  10
ENDBRANCH   4   9
TORSDOF 3
