REMARK  4 active torsions:
REMARK  status: ('A' for Active; 'I' for Inactive)
REMARK    1  A    between atoms: C_6  and  C_1 
REMARK    2  A    between atoms: C_2  and  N_12 
REMARK    3  A    between atoms: C_15  and  C_3 
REMARK       I    between atoms: N_12  and  C_13 
REMARK       I    between atoms: C_13  and  N_16 
REMARK    4  A    between atoms: N_16  and  C_15 
ROOT
ATOM      1  N   UNL d   1       3.120  -4.506  -0.696  0.00  0.00    -0.305 N 
ATOM      2  C   UNL d   1       1.929  -4.240  -0.068  0.00  0.00     0.321 C 
ATOM      3  N   UNL d   1       1.645  -2.884  -0.034  0.00  0.00    -0.339 N 
ATOM      4  O   UNL d   1       1.161  -5.061   0.415  0.00  0.00    -0.247 OA
ATOM      5  H   UNL d   1       3.720  -3.723  -0.903  0.00  0.00     0.171 HD
ATOM      6  H   UNL d   1       2.426  -2.260   0.094  0.00  0.00     0.164 HD
ENDROOT
BRANCH   3   7
ATOM      7  C   UNL d   1       0.384  -2.504   0.561  0.00  0.00     0.165 C 
BRANCH   7   8
ATOM      8  C   UNL d   1       0.235  -1.026   0.593  0.00  0.00     0.001 A 
ATOM      9  C   UNL d   1       0.085  -0.149  -0.472  0.00  0.00     0.167 A 
ATOM     10  O   UNL d   1      -0.088   1.127  -0.002  0.00  0.00    -0.310 OA
ATOM     11  C   UNL d   1      -0.070   1.070   1.356  0.00  0.00     0.050 A 
ATOM     12  C   UNL d   1      -0.291   2.338   2.081  0.00  0.00     0.076 C 
ATOM     13  C   UNL d   1       0.138  -0.225   1.770  0.00  0.00     0.044 A 
BRANCH   9  14
ATOM     14  C   UNL d   1       0.055  -0.313  -1.951  0.00  0.00     0.440 C 
ATOM     15  F   UNL d   1       0.153  -1.613  -2.332  0.00  0.00    -0.164 F 
ATOM     16  F   UNL d   1      -1.095   0.163  -2.498  0.00  0.00    -0.164 F 
ATOM     17  F   UNL d   1       1.081   0.344  -2.553  0.00  0.00    -0.164 F 
ENDBRANCH   9  14
ENDBRANCH   7   8
ENDBRANCH   3   7
BRANCH   1  18
ATOM     18  C   UNL d   1       3.633  -5.770  -0.979  0.00  0.00     0.092 A 
ATOM     19  C   UNL d   1       3.035  -7.016  -0.990  0.00  0.00     0.101 A 
ATOM     20  O   UNL d   1       3.968  -7.956  -1.317  0.00  0.00    -0.240 OA
ATOM     21  C   UNL d   1       1.684  -7.583  -0.796  0.00  0.00     0.081 C 
ATOM     22  N   UNL d   1       5.178  -7.353  -1.572  0.00  0.00    -0.263 N 
ATOM     23  C   UNL d   1       4.974  -6.045  -1.384  0.00  0.00     0.058 A 
ATOM     24  HN  UNL d   1       6.049  -7.808  -1.846  1.00  0.00     0.194 HD
ATOM     25  C   UNL d   1       6.099  -5.104  -1.588  0.00  0.00     0.072 C 
ENDBRANCH   1  18
TORSDOF 4
