REMARK  4 active torsions:
REMARK  status: ('A' for Active; 'I' for Inactive)
REMARK    1  A    between atoms: N_2  and  C_1 
REMARK    2  A    between atoms: C_9  and  C_1 
REMARK    3  A    between atoms: C_7  and  N_2 
REMARK    4  A    between atoms: O_14  and  N_5 
ROOT
ATOM      1  C   UNL d   1       1.027  -0.099  -0.133  0.00  0.00     0.135 C 
ATOM      2  N   UNL d   1       0.436   1.052  -0.319  0.00  0.00    -0.252 N 
ATOM      3  HN  UNL d   1       0.916   1.890  -0.648  1.00  0.00     0.196 HD
ENDROOT
BRANCH   1   4
ATOM      4  N   UNL d   1       0.399  -1.287   0.220  0.00  0.00    -0.340 N 
ATOM      5  H   UNL d   1       0.919  -1.947   0.779  0.00  0.00     0.167 HD
BRANCH   4   6
ATOM      6  C   UNL d   1      -0.693  -1.873  -0.458  0.00  0.00     0.035 A 
ATOM      7  C   UNL d   1      -1.464  -2.839   0.204  0.00  0.00     0.055 A 
ATOM      8  C   UNL d   1      -2.606  -3.388  -0.396  0.00  0.00     0.058 A 
ATOM      9 CL   UNL d   1      -3.504  -4.556   0.509  0.00  0.00    -0.082 Cl
ATOM     10  C   UNL d   1      -2.990  -2.978  -1.675  0.00  0.00     0.055 A 
ATOM     11  C   UNL d   1      -2.236  -2.013  -2.343  0.00  0.00     0.028 A 
ATOM     12 CL   UNL d   1      -4.382  -3.611  -2.477  0.00  0.00    -0.083 Cl
ATOM     13  C   UNL d   1      -1.105  -1.460  -1.733  0.00  0.00     0.031 A 
ENDBRANCH   4   6
ENDBRANCH   1   4
BRANCH   1  14
ATOM     14  C   UNL d   1       2.537  -0.094  -0.284  0.00  0.00     0.010 A 
ATOM     15  C   UNL d   1       3.299  -1.268  -0.218  0.00  0.00     0.015 A 
ATOM     16  C   UNL d   1       4.689  -1.219  -0.381  0.00  0.00     0.001 A 
ATOM     17  C   UNL d   1       5.328  -0.003  -0.620  0.00  0.00     0.000 A 
ATOM     18  C   UNL d   1       4.582   1.169  -0.692  0.00  0.00     0.001 A 
ATOM     19  C   UNL d   1       3.196   1.124  -0.522  0.00  0.00     0.015 A 
ENDBRANCH   1  14
BRANCH   2  20
ATOM     20  O   UNL d   1      -0.929   1.006  -0.014  0.00  0.00    -0.288 OA
ATOM     21  H   UNL d   1      -1.208   1.926  -0.161  0.00  0.00     0.244 HD
ENDBRANCH   2  20
TORSDOF 4
