REMARK  4 active torsions:
REMARK  status: ('A' for Active; 'I' for Inactive)
REMARK    1  A    between atoms: C_8  and  C_2 
REMARK       I    between atoms: C_5  and  N_10 
REMARK       I    between atoms: N_9  and  C_5 
REMARK    2  A    between atoms: C_14  and  N_9 
REMARK    3  A    between atoms: N_10  and  C_15 
REMARK    4  A    between atoms: C_15  and  C_17 
ROOT
ATOM      1  C   UNL d   1       6.268  -5.314  -2.534  0.00  0.00     0.320 C 
ATOM      2  N   UNL d   1       6.763  -4.208  -3.163  0.00  0.00    -0.309 N 
ATOM      3  N   UNL d   1       5.834  -5.152  -1.260  0.00  0.00    -0.339 N 
ATOM      4  O   UNL d   1       6.162  -6.440  -3.015  0.00  0.00    -0.247 OA
ATOM      5  H   UNL d   1       6.720  -3.340  -2.651  0.00  0.00     0.170 HD
ATOM      6  H   UNL d   1       5.437  -6.006  -0.887  0.00  0.00     0.164 HD
ENDROOT
BRANCH   3   7
ATOM      7  C   UNL d   1       5.898  -4.020  -0.361  0.00  0.00     0.162 C 
BRANCH   7   8
ATOM      8  C   UNL d   1       4.629  -3.202  -0.319  0.00  0.00    -0.040 A 
ATOM      9  C   UNL d   1       4.305  -2.517   0.861  0.00  0.00     0.010 A 
ATOM     10  C   UNL d   1       3.145  -1.740   0.945  0.00  0.00     0.014 A 
ATOM     11  C   UNL d   1       2.289  -1.611  -0.155  0.00  0.00    -0.008 A 
ATOM     12  C   UNL d   1       2.617  -2.280  -1.341  0.00  0.00     0.014 A 
ATOM     13  C   UNL d   1       3.777  -3.061  -1.423  0.00  0.00     0.010 A 
BRANCH  11  14
ATOM     14  C   UNL d   1       1.081  -0.805  -0.031  0.00  0.00     0.063 A 
ATOM     15  N   UNL d   1       0.452  -0.639   1.200  0.00  0.00    -0.292 N 
ATOM     16  N   UNL d   1      -0.618   0.133   1.111  0.00  0.00    -0.061 NA
ATOM     17  HN  UNL d   1       0.778  -1.064   2.068  1.00  0.00     0.183 HD
ATOM     18  S   UNL d   1      -0.887   0.692  -0.441  0.00  0.00    -0.010 SA
ATOM     19  C   UNL d   1       0.482  -0.125  -1.077  0.00  0.00     0.096 A 
ENDBRANCH  11  14
ENDBRANCH   7   8
ENDBRANCH   3   7
BRANCH   2  20
ATOM     20  C   UNL d   1       7.311  -4.133  -4.464  0.00  0.00     0.036 A 
ATOM     21  C   UNL d   1       7.448  -5.236  -5.313  0.00  0.00     0.031 A 
ATOM     22  C   UNL d   1       8.068  -5.105  -6.561  0.00  0.00     0.026 A 
ATOM     23  C   UNL d   1       8.548  -3.866  -6.971  0.00  0.00     0.034 A 
ATOM     24  C   UNL d   1       8.385  -2.750  -6.155  0.00  0.00     0.026 A 
ATOM     25 CL   UNL d   1       9.357  -3.717  -8.481  0.00  0.00    -0.084 Cl
ATOM     26  C   UNL d   1       7.767  -2.884  -4.906  0.00  0.00     0.031 A 
ENDBRANCH   2  20
TORSDOF 4
