REMARK  4 active torsions:
REMARK  status: ('A' for Active; 'I' for Inactive)
REMARK    1  A    between atoms: C_5  and  C_1 
REMARK    2  A    between atoms: C_10  and  C_4 
REMARK       I    between atoms: N_7  and  C_5 
REMARK    3  A    between atoms: C_6  and  N_7 
REMARK    4  A    between atoms: O_19  and  C_10 
ROOT
ATOM      1  C   UNL d   1       3.904  -0.072   0.518  0.00  0.00     0.264 C 
ATOM      2  N   UNL d   1       4.503  -1.208  -0.043  0.00  0.00    -0.320 N 
ATOM      3  O   UNL d   1       4.585   0.834   0.983  0.00  0.00    -0.267 OA
ATOM      4  H   UNL d   1       3.943  -1.613  -0.790  0.00  0.00     0.169 HD
ENDROOT
BRANCH   2   5
ATOM      5  C   UNL d   1       5.913  -1.282  -0.211  0.00  0.00     0.069 A 
ATOM      6  C   UNL d   1       6.830  -1.111   0.850  0.00  0.00     0.067 A 
ATOM      7  C   UNL d   1       8.210  -1.092   0.579  0.00  0.00     0.040 A 
ATOM      8  C   UNL d   1       8.675  -1.266  -0.721  0.00  0.00     0.013 A 
ATOM      9  C   UNL d   1       7.784  -1.500  -1.763  0.00  0.00     0.040 A 
ATOM     10 BR   UNL d   1      10.530  -1.210  -1.070  0.00  0.00    -0.051 Br
ATOM     11  C   UNL d   1       6.409  -1.522  -1.507  0.00  0.00     0.040 A 
ATOM     12 BR   UNL d   1       5.241  -1.816  -2.975  0.00  0.00    -0.049 Br
BRANCH   6  13
ATOM     13  C   UNL d   1       6.461  -1.055   2.294  0.00  0.00     0.178 C 
ATOM     14  O   UNL d   1       7.162  -0.507   3.128  0.00  0.00    -0.646 OA
BRANCH  13  15
ATOM     15  O   UNL d   1       5.384  -1.801   2.617  0.00  0.00    -0.773 OA
ATOM     16  H   UNL d   1       4.932  -2.211   1.858  0.00  0.00     0.167 HD
ENDBRANCH  13  15
ENDBRANCH   6  13
ENDBRANCH   2   5
BRANCH   1  17
ATOM     17  C   UNL d   1       2.446  -0.055   0.488  0.00  0.00     0.096 C 
ATOM     18  S   UNL d   1       1.550  -1.386  -0.111  0.00  0.00    -0.082 SA
ATOM     19  C   UNL d   1       0.046  -0.715   0.377  0.00  0.00     0.017 A 
ATOM     20  C   UNL d   1      -1.226  -1.308   0.251  0.00  0.00     0.020 A 
ATOM     21  C   UNL d   1       0.215   0.543   0.956  0.00  0.00     0.004 A 
ATOM     22  C   UNL d   1      -2.337  -0.642   0.773  0.00  0.00     0.001 A 
ATOM     23  C   UNL d   1      -2.193   0.590   1.392  0.00  0.00     0.001 A 
ATOM     24  C   UNL d   1      -0.936   1.195   1.469  0.00  0.00     0.014 A 
ATOM     25  C   UNL d   1       1.597   0.948   0.922  0.00  0.00     0.068 C 
ATOM     26 CL   UNL d   1       2.080   2.515   1.446  0.00  0.00    -0.082 Cl
ENDBRANCH   1  17
TORSDOF 4
