REMARK  4 active torsions:
REMARK  status: ('A' for Active; 'I' for Inactive)
REMARK    1  A    between atoms: C_12  and  N_1 
REMARK       I    between atoms: C_4  and  N_8 
REMARK    2  A    between atoms: C_9  and  C_4 
REMARK    3  A    between atoms: C_5  and  C_16 
REMARK       I    between atoms: N_10  and  C_5 
REMARK    4  A    between atoms: N_8  and  N_10 
ROOT
ATOM      1  C   UNL d   1       5.747  -3.810  -0.135  0.00  0.00     0.270 C 
ATOM      2  N   UNL d   1       6.819  -3.440   0.653  0.00  0.00    -0.263 N 
ATOM      3  O   UNL d   1       5.773  -4.823  -0.833  0.00  0.00    -0.266 OA
ATOM      4  H   UNL d   1       6.907  -2.563   1.160  0.00  0.00     0.190 HD
ENDROOT
BRANCH   1   5
ATOM      5  C   UNL d   1       4.536  -2.936  -0.109  0.00  0.00     0.033 A 
ATOM      6  C   UNL d   1       4.270  -2.031   0.925  0.00  0.00     0.019 A 
ATOM      7  C   UNL d   1       3.080  -1.285   0.926  0.00  0.00     0.031 A 
ATOM      8  C   UNL d   1       2.146  -1.418  -0.112  0.00  0.00     0.039 A 
ATOM      9  C   UNL d   1       2.418  -2.319  -1.148  0.00  0.00     0.031 A 
ATOM     10  C   UNL d   1       3.597  -3.079  -1.140  0.00  0.00     0.019 A 
BRANCH   8  11
ATOM     11  N   UNL d   1       0.935  -0.647  -0.109  0.00  0.00    -0.320 N 
ATOM     12  C   UNL d   1      -0.331  -1.079  -0.528  0.00  0.00     0.013 A 
ATOM     13  C   UNL d   1      -1.223  -0.032  -0.376  0.00  0.00     0.027 A 
ATOM     14  C   UNL d   1      -0.695  -2.456  -0.972  0.00  0.00     0.068 C 
ATOM     15  C   UNL d   1      -0.526   1.054   0.163  0.00  0.00     0.027 A 
ATOM     16  C   UNL d   1       0.798   0.681   0.310  0.00  0.00     0.013 A 
ATOM     17  C   UNL d   1       1.900   1.585   0.749  0.00  0.00     0.068 C 
ENDBRANCH   8  11
ENDBRANCH   1   5
BRANCH   2  18
ATOM     18  N   UNL d   1       7.931  -4.291   0.698  0.00  0.00    -0.263 N 
ATOM     19  C   UNL d   1       9.053  -3.866   1.380  0.00  0.00     0.270 C 
ATOM     20  O   UNL d   1       9.129  -2.739   1.867  0.00  0.00    -0.266 OA
ATOM     21  H   UNL d   1       7.850  -5.158   0.172  0.00  0.00     0.190 HD
BRANCH  19  22
ATOM     22  C   UNL d   1      10.180  -4.834   1.531  0.00  0.00     0.036 A 
ATOM     23  C   UNL d   1      11.425  -4.329   1.942  0.00  0.00     0.057 A 
ATOM     24  C   UNL d   1      12.446  -5.226   2.180  0.00  0.00     0.106 A 
ATOM     25  O   UNL d   1      13.697  -4.912   2.611  0.00  0.00    -0.323 OA
ATOM     26  C   UNL d   1      12.273  -6.579   2.015  0.00  0.00     0.105 A 
ATOM     27  C   UNL d   1      14.275  -6.227   2.751  0.00  0.00     0.352 A 
ATOM     28  O   UNL d   1      13.392  -7.286   2.327  0.00  0.00    -0.323 OA
ATOM     29  C   UNL d   1      11.074  -7.111   1.597  0.00  0.00     0.041 A 
ATOM     30  C   UNL d   1      10.010  -6.228   1.357  0.00  0.00     0.020 A 
ENDBRANCH  19  22
ENDBRANCH   2  18
TORSDOF 4
