REMARK  9 active torsions:
REMARK  status: ('A' for Active; 'I' for Inactive)
REMARK    1  A    between atoms: C_19  and  C_3 
REMARK    2  A    between atoms: C_14  and  C_6 
REMARK    3  A    between atoms: C_10  and  O_12 
REMARK    4  A    between atoms: C_11  and  C_23 
REMARK    5  A    between atoms: O_22  and  C_11 
REMARK    6  A    between atoms: O_12  and  C_14 
REMARK    7  A    between atoms: S_17  and  C_19 
REMARK    8  A    between atoms: C_23  and  S_17 
REMARK    9  A    between atoms: C_24  and  O_22 
ROOT
ATOM      1  N   UNL d   1       1.347   0.166   0.146  0.00  0.00    -0.324 N 
ATOM      2  HN  UNL d   1       2.360   0.275   0.186  1.00  0.00     0.169 HD
ATOM      3  C   UNL d   1       0.374   1.137   0.071  0.00  0.00     0.113 A 
ATOM      4  N   UNL d   1      -0.880   0.671  -0.004  0.00  0.00    -0.246 N 
ATOM      5  HN  UNL d   1      -1.748   1.201  -0.085  1.00  0.00     0.196 HD
ATOM      6  C   UNL d   1       0.631  -0.938   0.152  0.00  0.00     0.172 A 
ATOM      7  O   UNL d   1      -0.713  -0.712   0.056  0.00  0.00    -0.221 OA
ENDROOT
BRANCH   6   8
ATOM      8  C   UNL d   1       1.066  -2.354   0.107  0.00  0.00     0.262 C 
BRANCH   8   9
ATOM      9  O   UNL d   1       0.558  -3.021   1.265  0.00  0.00    -0.342 OA
BRANCH   9  10
ATOM     10  C   UNL d   1       0.799  -4.372   1.327  0.00  0.00     0.091 A 
ATOM     11  C   UNL d   1       0.930  -4.962   2.596  0.00  0.00     0.069 A 
ATOM     12  C   UNL d   1       1.147  -6.337   2.728  0.00  0.00     0.050 A 
ATOM     13 CL   UNL d   1       0.845  -4.015   4.040  0.00  0.00    -0.081 Cl
ATOM     14  C   UNL d   1       1.218  -7.133   1.589  0.00  0.00     0.035 A 
ATOM     15  C   UNL d   1       1.069  -6.569   0.326  0.00  0.00     0.026 A 
ATOM     16 CL   UNL d   1       1.479  -8.826   1.735  0.00  0.00    -0.084 Cl
ATOM     17  C   UNL d   1       0.855  -5.194   0.195  0.00  0.00     0.040 A 
ENDBRANCH   9  10
ENDBRANCH   8   9
ENDBRANCH   6   8
BRANCH   3  18
ATOM     18  C   UNL d   1       0.696   2.586   0.107  0.00  0.00     0.152 C 
BRANCH  18  19
ATOM     19  S   UNL d   1       0.702   3.240   1.819  0.00  0.00    -0.152 SA
BRANCH  19  20
ATOM     20  C   UNL d   1       2.084   2.267   2.521  0.00  0.00     0.185 C 
BRANCH  20  21
ATOM     21  C   UNL d   1       3.383   2.513   1.782  0.00  0.00     0.268 C 
ATOM     22  O   UNL d   1       3.696   3.559   1.230  0.00  0.00    -0.264 OA
BRANCH  21  23
ATOM     23  O   UNL d   1       4.174   1.400   1.831  0.00  0.00    -0.321 OA
BRANCH  23  24
ATOM     24  C   UNL d   1       5.417   1.509   1.120  0.00  0.00     0.174 C 
ATOM     25  C   UNL d   1       5.204   1.276  -0.366  0.00  0.00     0.034 C 
ENDBRANCH  23  24
ENDBRANCH  21  23
ENDBRANCH  20  21
ENDBRANCH  19  20
ENDBRANCH  18  19
ENDBRANCH   3  18
TORSDOF 9
