REMARK  2 active torsions:
REMARK  status: ('A' for Active; 'I' for Inactive)
REMARK    1  A    between atoms: C_3  and  C_1 
REMARK       I    between atoms: N_5  and  C_3 
REMARK    2  A    between atoms: C_7  and  N_5 
ROOT
ATOM      1  C   UNL d   1      -1.401  -2.916   0.613  0.00  0.00     0.259 C 
ATOM      2  N   UNL d   1      -2.355  -3.529  -0.170  0.00  0.00    -0.322 N 
ATOM      3  O   UNL d   1      -0.506  -3.506   1.219  0.00  0.00    -0.267 OA
ATOM      4  H   UNL d   1      -2.889  -2.937  -0.797  0.00  0.00     0.169 HD
ENDROOT
BRANCH   1   5
ATOM      5  C   UNL d   1      -1.447  -1.430   0.699  0.00  0.00     0.066 A 
ATOM      6  C   UNL d   1      -2.575  -0.664   0.423  0.00  0.00     0.092 A 
ATOM      7  O   UNL d   1      -3.760  -1.134  -0.082  0.00  0.00    -0.339 OA
ATOM      8  C   UNL d   1      -2.596   0.700   0.678  0.00  0.00    -0.021 A 
ATOM      9  C   UNL d   1      -4.651   0.018  -0.172  0.00  0.00     0.064 A 
ATOM     10  C   UNL d   1      -5.907  -0.314   0.637  0.00  0.00     0.046 C 
ATOM     11  C   UNL d   1      -5.015   0.213  -1.646  0.00  0.00     0.046 C 
ATOM     12  C   UNL d   1      -3.934   1.263   0.392  0.00  0.00     0.079 A 
ATOM     13  C   UNL d   1      -1.486   1.360   1.182  0.00  0.00     0.010 A 
ATOM     14  C   UNL d   1      -0.330   0.621   1.426  0.00  0.00     0.002 A 
ATOM     15  C   UNL d   1      -0.313  -0.762   1.194  0.00  0.00     0.020 A 
ENDBRANCH   1   5
BRANCH   2  16
ATOM     16  C   UNL d   1      -2.668  -4.905  -0.158  0.00  0.00     0.041 A 
ATOM     17  C   UNL d   1      -3.238  -5.503  -1.299  0.00  0.00    -0.025 A 
ATOM     18  C   UNL d   1      -3.700  -6.837  -1.226  0.00  0.00    -0.050 A 
ATOM     19  C   UNL d   1      -3.314  -4.739  -2.608  0.00  0.00     0.041 C 
ATOM     20  C   UNL d   1      -4.309  -7.542  -2.413  0.00  0.00     0.039 C 
ATOM     21  C   UNL d   1      -3.536  -7.564  -0.036  0.00  0.00     0.008 A 
ATOM     22  C   UNL d   1      -4.719  -6.591  -3.533  0.00  0.00     0.005 C 
ATOM     23  C   UNL d   1      -3.585  -5.620  -3.825  0.00  0.00     0.005 C 
ATOM     24  C   UNL d   1      -2.930  -6.983   1.068  0.00  0.00     0.003 A 
ATOM     25  C   UNL d   1      -2.495  -5.661   1.009  0.00  0.00     0.030 A 
ENDBRANCH   2  16
TORSDOF 2
