REMARK  2 active torsions:
REMARK  status: ('A' for Active; 'I' for Inactive)
REMARK    1  A    between atoms: C_7  and  N_1 
REMARK    2  A    between atoms: C_16  and  C_11 
ROOT
ATOM      1  N   UNL d   1       2.452  -0.589   0.091  0.00  0.00    -0.254 N 
ATOM      2  C   UNL d   1       2.420   0.810   0.024  0.00  0.00     0.186 C 
ATOM      3  C   UNL d   1       1.319  -1.391   0.311  0.00  0.00     0.267 C 
ATOM      4  C   UNL d   1       0.012  -0.703   0.259  0.00  0.00     0.060 A 
ATOM      5  N   UNL d   1       1.181   1.395   0.097  0.00  0.00    -0.332 N 
ATOM      6  C   UNL d   1      -0.012   0.681   0.152  0.00  0.00     0.050 A 
ATOM      7  S   UNL d   1       3.719   1.862  -0.166  0.00  0.00    -0.040 SA
ATOM      8  O   UNL d   1       1.335  -2.599   0.532  0.00  0.00    -0.267 OA
ATOM      9  C   UNL d   1      -1.185  -1.429   0.269  0.00  0.00     0.026 A 
ATOM     10  C   UNL d   1      -1.227   1.359   0.064  0.00  0.00     0.031 A 
ATOM     11  C   UNL d   1      -2.412  -0.762   0.145  0.00  0.00    -0.061 A 
ATOM     12  C   UNL d   1      -2.423   0.635   0.048  0.00  0.00     0.009 A 
ATOM     13  C   UNL d   1      -3.701  -1.526   0.072  0.00  0.00     0.048 C 
ATOM     14  H   UNL d   1       1.159   2.407   0.020  0.00  0.00     0.168 HD
ENDROOT
BRANCH   1  15
ATOM     15  C   UNL d   1       3.687  -1.284  -0.080  0.00  0.00     0.051 A 
ATOM     16  C   UNL d   1       4.093  -1.748  -1.351  0.00  0.00    -0.031 A 
ATOM     17  C   UNL d   1       5.346  -2.378  -1.456  0.00  0.00     0.009 A 
ATOM     18  C   UNL d   1       6.163  -2.548  -0.336  0.00  0.00     0.001 A 
ATOM     19  C   UNL d   1       5.745  -2.095   0.912  0.00  0.00     0.002 A 
ATOM     20  C   UNL d   1       4.508  -1.469   1.044  0.00  0.00     0.031 A 
BRANCH  16  21
ATOM     21  C   UNL d   1       3.276  -1.522  -2.605  0.00  0.00     0.036 C 
ATOM     22  C   UNL d   1       2.926  -2.800  -3.359  0.00  0.00     0.010 C 
ENDBRANCH  16  21
ENDBRANCH   1  15
TORSDOF 2
