REMARK  7 active torsions:
REMARK  status: ('A' for Active; 'I' for Inactive)
REMARK    1  A    between atoms: O_13  and  C_1 
REMARK    2  A    between atoms: O_14  and  C_2 
REMARK    3  A    between atoms: C_3  and  C_11 
REMARK    4  A    between atoms: C_12  and  C_4 
REMARK    5  A    between atoms: N_7  and  N_5 
REMARK    6  A    between atoms: O_15  and  C_9 
REMARK    7  A    between atoms: O_16  and  C_10 
ROOT
ATOM      1  N   UNL d   1       2.416   2.462   0.062  0.00  0.00    -0.311 N 
ATOM      2  HN  UNL d   1       2.962   1.634  -0.179  1.00  0.00     0.186 HD
ATOM      3  C   UNL d   1       1.140   2.442   0.293  0.00  0.00     0.121 C 
ENDROOT
BRANCH   1   4
ATOM      4  N   UNL d   1       2.948   3.719   0.179  0.00  0.00    -0.311 N 
ATOM      5  C   UNL d   1       4.236   3.697  -0.000  0.00  0.00     0.121 C 
ATOM      6  HN  UNL d   1       2.407   4.559   0.381  1.00  0.00     0.186 HD
BRANCH   5   7
ATOM      7  C   UNL d   1       5.033   4.933   0.121  0.00  0.00     0.017 A 
ATOM      8  C   UNL d   1       4.445   6.159   0.488  0.00  0.00     0.110 A 
ATOM      9  C   UNL d   1       5.240   7.304   0.597  0.00  0.00     0.102 A 
ATOM     10  C   UNL d   1       6.613   7.200   0.329  0.00  0.00     0.040 A 
ATOM     11  C   UNL d   1       7.195   5.983  -0.033  0.00  0.00     0.004 A 
ATOM     12  C   UNL d   1       6.406   4.843  -0.135  0.00  0.00     0.016 A 
BRANCH   8  13
ATOM     13  O   UNL d   1       3.098   6.234   0.743  0.00  0.00    -0.357 OA
ATOM     14  H   UNL d   1       2.706   5.347   0.592  0.00  0.00     0.217 HD
ENDBRANCH   8  13
BRANCH   9  15
ATOM     15  O   UNL d   1       4.856   8.573   0.941  0.00  0.00    -0.353 OA
ATOM     16  C   UNL d   1       3.487   8.799   1.248  0.00  0.00     0.210 C 
ENDBRANCH   9  15
ENDBRANCH   5   7
ENDBRANCH   1   4
BRANCH   3  17
ATOM     17  C   UNL d   1       0.403   1.162   0.266  0.00  0.00     0.017 A 
ATOM     18  C   UNL d   1       1.064  -0.061   0.022  0.00  0.00     0.110 A 
ATOM     19  C   UNL d   1       0.342  -1.258   0.047  0.00  0.00     0.102 A 
ATOM     20  C   UNL d   1      -1.036  -1.208   0.305  0.00  0.00     0.040 A 
ATOM     21  C   UNL d   1      -1.691   0.004   0.536  0.00  0.00     0.004 A 
ATOM     22  C   UNL d   1      -0.971   1.195   0.520  0.00  0.00     0.016 A 
BRANCH  18  23
ATOM     23  O   UNL d   1       2.412  -0.084  -0.235  0.00  0.00    -0.357 OA
ATOM     24  H   UNL d   1       2.747   0.837  -0.201  0.00  0.00     0.217 HD
ENDBRANCH  18  23
BRANCH  19  25
ATOM     25  O   UNL d   1       0.806  -2.532  -0.147  0.00  0.00    -0.353 OA
ATOM     26  C   UNL d   1       2.195  -2.709  -0.395  0.00  0.00     0.210 C 
ENDBRANCH  19  25
ENDBRANCH   3  17
TORSDOF 7
