REMARK  2 active torsions:
REMARK  status: ('A' for Active; 'I' for Inactive)
REMARK    1  A    between atoms: C_6  and  C_3 
REMARK    2  A    between atoms: C_5  and  C_4 
ROOT
ATOM      1  N   UNL d   1       1.377  -0.573  -0.055  0.00  0.00    -0.348 N 
ATOM      2  HN  UNL d   1       2.258  -1.086  -0.090  1.00  0.00     0.166 HD
ATOM      3  C   UNL d   1       0.180  -1.126  -0.058  0.00  0.00     0.085 A 
ATOM      4  C   UNL d   1       1.265   0.808   0.002  0.00  0.00     0.057 A 
ATOM      5  S   UNL d   1      -1.135  -0.019  -0.004  0.00  0.00    -0.081 SA
ATOM      6  C   UNL d   1      -0.028   1.285   0.055  0.00  0.00     0.082 A 
ENDROOT
BRANCH   4   7
ATOM      7  C   UNL d   1       2.481   1.686  -0.005  0.00  0.00     0.033 A 
ATOM      8  S   UNL d   1       2.461   3.393   0.133  0.00  0.00    -0.076 SA
ATOM      9  C   UNL d   1       4.145   3.474   0.015  0.00  0.00     0.075 A 
ATOM     10 CL   UNL d   1       4.932   4.998   0.077  0.00  0.00    -0.076 Cl
ATOM     11  C   UNL d   1       4.742   2.248  -0.130  0.00  0.00     0.033 A 
ATOM     12  C   UNL d   1       3.770   1.201  -0.134  0.00  0.00     0.023 A 
ENDBRANCH   4   7
BRANCH   3  13
ATOM     13  C   UNL d   1      -0.006  -2.619  -0.100  0.00  0.00     0.005 A 
ATOM     14  C   UNL d   1       1.063  -3.490  -0.056  0.00  0.00     0.063 A 
ATOM     15  S   UNL d   1       0.569  -5.128  -0.105  0.00  0.00    -0.113 SA
ATOM     16  C   UNL d   1      -1.081  -4.685  -0.196  0.00  0.00     0.050 A 
ATOM     17  C   UNL d   1      -1.251  -3.317  -0.182  0.00  0.00     0.022 A 
ENDBRANCH   3  13
TORSDOF 2
