REMARK  3 active torsions:
REMARK  status: ('A' for Active; 'I' for Inactive)
REMARK    1  A    between atoms: C_10  and  N_1 
REMARK    2  A    between atoms: N_6  and  C_8 
REMARK    3  A    between atoms: O_16  and  C_10 
ROOT
ATOM      1  N   UNL d   1       1.915   0.009   0.032  0.00  0.00    -0.258 N 
ATOM      2  C   UNL d   1       1.146   1.131  -0.088  0.00  0.00     0.263 C 
ATOM      3  C   UNL d   1       1.149  -1.123   0.011  0.00  0.00     0.263 C 
ATOM      4  C   UNL d   1      -0.249   0.699  -0.019  0.00  0.00     0.050 A 
ATOM      5  C   UNL d   1      -0.245  -0.684   0.031  0.00  0.00     0.048 A 
ATOM      6  C   UNL d   1      -1.421   1.433  -0.031  0.00  0.00     0.054 A 
ATOM      7  C   UNL d   1      -2.620   0.703   0.004  0.00  0.00     0.103 A 
ATOM      8  C   UNL d   1      -1.412  -1.424   0.055  0.00  0.00     0.020 A 
ATOM      9  O   UNL d   1       1.505   2.281  -0.266  0.00  0.00    -0.267 OA
ATOM     10  O   UNL d   1       1.491  -2.287  -0.072  0.00  0.00    -0.267 OA
ATOM     11  C   UNL d   1      -2.619  -0.716   0.044  0.00  0.00     0.037 A 
ENDROOT
BRANCH   1  12
ATOM     12  C   UNL d   1       3.339  -0.036  -0.149  0.00  0.00     0.302 C 
BRANCH  12  13
ATOM     13  O   UNL d   1       3.945   1.096   0.445  0.00  0.00    -0.382 OA
ATOM     14  H   UNL d   1       3.445   1.872   0.121  0.00  0.00     0.211 HD
ENDBRANCH  12  13
ENDBRANCH   1  12
BRANCH   7  15
ATOM     15  N   UNL d   1      -3.904   1.419  -0.010  0.00  0.00    -0.116 N 
ATOM     16  O   UNL d   1      -3.869   2.656  -0.046  0.00  0.00    -0.532 OA
ATOM     17  O   UNL d   1      -4.940   0.741   0.013  0.00  0.00    -0.532 OA
ENDBRANCH   7  15
TORSDOF 3
