REMARK  3 active torsions:
REMARK  status: ('A' for Active; 'I' for Inactive)
REMARK    1  A    between atoms: N_2  and  S_1 
REMARK    2  A    between atoms: C_4  and  S_1 
REMARK    3  A    between atoms: C_7  and  C_3 
ROOT
ATOM      1  N   UNL d   1       0.380   1.333  -0.410  0.00  0.00    -0.298 N 
ATOM      2  C   UNL d   1       1.162   2.589  -0.551  0.00  0.00     0.130 C 
ATOM      3  C   UNL d   1      -0.852   1.671   0.353  0.00  0.00     0.136 C 
ATOM      4  C   UNL d   1       0.889   3.297   0.779  0.00  0.00     0.033 C 
ATOM      5  C   UNL d   1      -0.580   3.008   1.035  0.00  0.00     0.023 C 
ENDROOT
BRANCH   1   6
ATOM      6  S   UNL d   1       1.063  -0.186  -0.130  0.00  0.00     0.261 S 
ATOM      7  O   UNL d   1       2.026  -0.468  -1.173  0.00  0.00    -0.200 OA
ATOM      8  O   UNL d   1      -0.023  -1.114   0.110  0.00  0.00    -0.200 OA
BRANCH   6   9
ATOM      9  C   UNL d   1       1.954  -0.029   1.407  0.00  0.00     0.079 A 
ATOM     10  C   UNL d   1       1.274  -0.111   2.626  0.00  0.00     0.026 A 
ATOM     11  C   UNL d   1       1.995  -0.106   3.825  0.00  0.00     0.008 A 
ATOM     12  C   UNL d   1       3.395  -0.045   3.813  0.00  0.00    -0.062 A 
ATOM     13  C   UNL d   1       4.065   0.038   2.587  0.00  0.00     0.008 A 
ATOM     14  C   UNL d   1       4.162  -0.122   5.102  0.00  0.00     0.048 C 
ATOM     15  C   UNL d   1       3.350   0.037   1.387  0.00  0.00     0.026 A 
ENDBRANCH   6   9
ENDBRANCH   1   6
BRANCH   2  16
ATOM     16  C   UNL d   1       2.586   2.572  -1.037  0.00  0.00    -0.019 A 
ATOM     17  C   UNL d   1       3.661   3.047  -0.288  0.00  0.00     0.096 A 
ATOM     18  N   UNL d   1       4.937   3.128  -0.734  0.00  0.00    -0.375 N 
ATOM     19  C   UNL d   1       5.167   2.720  -1.998  0.00  0.00     0.087 A 
ATOM     20  HN  UNL d   1       5.689   3.480  -0.141  1.00  0.00     0.164 HD
ATOM     21  C   UNL d   1       4.180   2.232  -2.834  0.00  0.00     0.018 A 
ATOM     22  C   UNL d   1       2.878   2.163  -2.345  0.00  0.00     0.012 A 
ENDBRANCH   2  16
TORSDOF 3
