REMARK  3 active torsions:
REMARK  status: ('A' for Active; 'I' for Inactive)
REMARK    1  A    between atoms: N_3  and  N_1 
REMARK    2  A    between atoms: C_7  and  C_5 
REMARK    3  A    between atoms: C_8  and  C_6 
ROOT
ATOM      1  N   UNL d   1       0.817  -0.172   0.289  0.00  0.00    -0.311 N 
ATOM      2  HN  UNL d   1       0.260   0.634   0.573  1.00  0.00     0.186 HD
ATOM      3  C   UNL d   1       2.082  -0.310   0.529  0.00  0.00     0.118 C 
ENDROOT
BRANCH   1   4
ATOM      4  N   UNL d   1       0.319  -1.267  -0.407  0.00  0.00    -0.311 N 
ATOM      5  C   UNL d   1      -0.946  -1.116  -0.642  0.00  0.00     0.118 C 
ATOM      6  HN  UNL d   1       0.872  -2.075  -0.693  1.00  0.00     0.186 HD
BRANCH   5   7
ATOM      7  C   UNL d   1      -1.741  -2.135  -1.351  0.00  0.00    -0.019 A 
ATOM      8  C   UNL d   1      -1.159  -3.335  -1.772  0.00  0.00     0.014 A 
ATOM      9  C   UNL d   1      -1.935  -4.289  -2.435  0.00  0.00     0.024 A 
ATOM     10  C   UNL d   1      -3.287  -4.038  -2.673  0.00  0.00     0.034 A 
ATOM     11  C   UNL d   1      -3.870  -2.841  -2.255  0.00  0.00     0.024 A 
ATOM     12 CL   UNL d   1      -4.242  -5.213  -3.489  0.00  0.00    -0.084 Cl
ATOM     13  C   UNL d   1      -3.096  -1.885  -1.590  0.00  0.00     0.014 A 
ENDBRANCH   5   7
ENDBRANCH   1   4
BRANCH   3  14
ATOM     14  C   UNL d   1       2.844   0.707   1.279  0.00  0.00    -0.019 A 
ATOM     15  C   UNL d   1       2.214   1.858   1.762  0.00  0.00     0.014 A 
ATOM     16  C   UNL d   1       2.946   2.800   2.488  0.00  0.00     0.024 A 
ATOM     17  C   UNL d   1       4.304   2.587   2.725  0.00  0.00     0.034 A 
ATOM     18  C   UNL d   1       4.937   1.442   2.240  0.00  0.00     0.024 A 
ATOM     19 CL   UNL d   1       5.204   3.743   3.627  0.00  0.00    -0.084 Cl
ATOM     20  C   UNL d   1       4.207   0.497   1.513  0.00  0.00     0.014 A 
ENDBRANCH   3  14
TORSDOF 3
