REMARK  5 active torsions:
REMARK  status: ('A' for Active; 'I' for Inactive)
REMARK    1  A    between atoms: S_9  and  C_3 
REMARK    2  A    between atoms: N_8  and  C_11 
REMARK    3  A    between atoms: C_16  and  S_9 
REMARK    4  A    between atoms: C_13  and  C_16 
REMARK    5  A    between atoms: C_15  and  C_13 
ROOT
ATOM      1  S   UNL d   1       2.635   2.378  -0.355  0.00  0.00    -0.084 SA
ENDROOT
BRANCH   1   2
ATOM      2  C   UNL d   1       1.889   0.829  -0.200  0.00  0.00     0.177 A 
ATOM      3  N   UNL d   1       0.548   0.624  -0.323  0.00  0.00    -0.159 N 
ATOM      4  C   UNL d   1       0.361  -0.730  -0.221  0.00  0.00     0.697 A 
ATOM      5  C   UNL d   1      -0.515   1.561  -0.609  0.00  0.00     0.151 C 
ATOM      6  N   UNL d   1       1.520  -1.307   0.003  0.00  0.00    -0.130 N 
ATOM      7  N   UNL d   1      -0.870  -1.269  -0.353  0.00  0.00    -0.225 N 
ATOM      8  N   UNL d   1       2.490  -0.320   0.014  0.00  0.00    -0.265 N 
ATOM      9  HN  UNL d   1       1.677  -2.305   0.144  1.00  0.00     0.205 HD
ATOM     10  HN  UNL d   1       3.490  -0.458   0.161  1.00  0.00     0.189 HD
ATOM     11  C   UNL d   1      -1.908  -0.487  -1.004  0.00  0.00     0.139 C 
ATOM     12  H   UNL d   1      -0.906  -2.275  -0.496  0.00  0.00     0.177 HD
ATOM     13  C   UNL d   1      -1.899   0.932  -0.439  0.00  0.00     0.041 C 
ENDBRANCH   1   2
BRANCH   1  14
ATOM     14  C   UNL d   1       4.387   1.940  -0.127  0.00  0.00     0.166 C 
BRANCH  14  15
ATOM     15  C   UNL d   1       5.300   3.154  -0.257  0.00  0.00     0.169 C 
ATOM     16  O   UNL d   1       4.902   4.290  -0.509  0.00  0.00    -0.291 OA
BRANCH  15  17
ATOM     17  C   UNL d   1       6.779   2.951  -0.088  0.00  0.00     0.011 A 
ATOM     18  C   UNL d   1       7.337   1.703   0.225  0.00  0.00     0.017 A 
ATOM     19  C   UNL d   1       8.727   1.554   0.326  0.00  0.00     0.037 A 
ATOM     20  C   UNL d   1       9.566   2.655   0.113  0.00  0.00     0.102 A 
ATOM     21  C   UNL d   1       9.022   3.912  -0.174  0.00  0.00     0.037 A 
ATOM     22  C   UNL d   1       7.632   4.053  -0.272  0.00  0.00     0.017 A 
BRANCH  20  23
ATOM     23  N   UNL d   1      11.026   2.485   0.174  0.00  0.00    -0.116 N 
ATOM     24  O   UNL d   1      11.461   1.352   0.425  0.00  0.00    -0.532 OA
ATOM     25  O   UNL d   1      11.730   3.479  -0.040  0.00  0.00    -0.532 OA
ENDBRANCH  20  23
ENDBRANCH  15  17
ENDBRANCH  14  15
ENDBRANCH   1  14
TORSDOF 5
