REMARK  2 active torsions:
REMARK  status: ('A' for Active; 'I' for Inactive)
REMARK    1  A    between atoms: C_2  and  C_1 
REMARK       I    between atoms: N_4  and  C_2 
REMARK    2  A    between atoms: C_11  and  C_7 
ROOT
ATOM      1  C   UNL d   1      -0.139  -1.073   0.049  0.00  0.00     0.097 C 
ATOM      2  S   UNL d   1       1.015  -0.234  -0.905  0.00  0.00    -0.064 SA
ATOM      3  N   UNL d   1      -0.579   1.174   0.523  0.00  0.00    -0.352 N 
ATOM      4  HN  UNL d   1      -1.033   1.964   0.982  1.00  0.00     0.166 HD
ATOM      5  C   UNL d   1       0.463   1.272  -0.278  0.00  0.00     0.085 C 
ATOM      6  C   UNL d   1      -0.974  -0.145   0.657  0.00  0.00     0.029 C 
ATOM      7  C   UNL d   1      -2.218  -0.424   1.427  0.00  0.00     0.070 C 
ENDROOT
BRANCH   1   8
ATOM      8  C   UNL d   1      -0.313  -2.521   0.035  0.00  0.00     0.267 C 
ATOM      9  N   UNL d   1       0.817  -3.383   0.065  0.00  0.00    -0.313 N 
ATOM     10  C   UNL d   1       0.687  -4.800  -0.192  0.00  0.00     0.043 A 
ATOM     11  C   UNL d   1       2.146  -2.933   0.504  0.00  0.00     0.133 C 
ATOM     12  C   UNL d   1       1.671  -5.704   0.260  0.00  0.00    -0.031 A 
ATOM     13  C   UNL d   1      -0.400  -5.326  -0.911  0.00  0.00     0.030 A 
ATOM     14  C   UNL d   1       1.529  -7.085   0.020  0.00  0.00     0.009 A 
ATOM     15  C   UNL d   1       2.906  -5.250   0.991  0.00  0.00     0.042 C 
ATOM     16  C   UNL d   1       0.424  -7.580  -0.664  0.00  0.00     0.001 A 
ATOM     17  C   UNL d   1      -0.537  -6.699  -1.137  0.00  0.00     0.002 A 
ATOM     18  C   UNL d   1       2.752  -3.851   1.550  0.00  0.00     0.025 C 
ATOM     19  O   UNL d   1      -1.461  -2.968   0.065  0.00  0.00    -0.266 OA
ENDBRANCH   1   8
BRANCH   5  20
ATOM     20  C   UNL d   1       1.116   2.553  -0.606  0.00  0.00    -0.002 A 
ATOM     21  C   UNL d   1       1.921   2.738  -1.742  0.00  0.00     0.014 A 
ATOM     22  C   UNL d   1       2.489   3.986  -2.021  0.00  0.00     0.001 A 
ATOM     23  C   UNL d   1       2.261   5.067  -1.173  0.00  0.00     0.000 A 
ATOM     24  C   UNL d   1       1.472   4.905  -0.041  0.00  0.00     0.001 A 
ATOM     25  C   UNL d   1       0.900   3.659   0.237  0.00  0.00     0.014 A 
ENDBRANCH   5  20
TORSDOF 2
