REMARK  3 active torsions:
REMARK  status: ('A' for Active; 'I' for Inactive)
REMARK       I    between atoms: N_2  and  C_1 
REMARK    1  A    between atoms: C_3  and  C_1 
REMARK       I    between atoms: C_4  and  N_2 
REMARK       I    between atoms: N_8  and  C_4 
REMARK       I    between atoms: C_5  and  N_7 
REMARK    2  A    between atoms: C_6  and  C_5 
REMARK    3  A    between atoms: N_7  and  N_8 
ROOT
ATOM      1  C   UNL d   1       0.919   0.101   0.064  0.00  0.00     0.261 C 
ATOM      2  N   UNL d   1       0.380   0.174  -1.207  0.00  0.00    -0.274 N 
ATOM      3  C   UNL d   1       1.018   0.133  -2.415  0.00  0.00     0.341 C 
ATOM      4  N   UNL d   1       2.383   0.104  -2.408  0.00  0.00    -0.248 N 
ATOM      5  O   UNL d   1       2.123   0.094   0.301  0.00  0.00    -0.267 OA
ATOM      6  O   UNL d   1       0.360   0.102  -3.459  0.00  0.00    -0.245 OA
ATOM      7  H   UNL d   1      -0.626   0.161  -1.310  0.00  0.00     0.173 HD
ATOM      8  H   UNL d   1       2.928   0.250  -1.554  0.00  0.00     0.192 HD
ENDROOT
BRANCH   4   9
ATOM      9  N   UNL d   1       3.047   0.093  -3.640  0.00  0.00    -0.262 N 
ATOM     10  C   UNL d   1       4.300   0.662  -3.736  0.00  0.00     0.271 C 
ATOM     11  O   UNL d   1       4.920   1.118  -2.781  0.00  0.00    -0.266 OA
ATOM     12  H   UNL d   1       2.439  -0.004  -4.452  0.00  0.00     0.190 HD
BRANCH  10  13
ATOM     13  C   UNL d   1       4.875   0.716  -5.101  0.00  0.00     0.049 A 
ATOM     14  C   UNL d   1       5.812   1.696  -5.401  0.00  0.00     0.104 A 
ATOM     15  N   UNL d   1       6.401   1.833  -6.617  0.00  0.00    -0.374 N 
ATOM     16  C   UNL d   1       6.052   0.938  -7.566  0.00  0.00     0.087 A 
ATOM     17  HN  UNL d   1       7.074   2.576  -6.804  1.00  0.00     0.164 HD
ATOM     18  C   UNL d   1       5.141  -0.086  -7.360  0.00  0.00     0.018 A 
ATOM     19  C   UNL d   1       4.543  -0.199  -6.105  0.00  0.00     0.020 A 
ENDBRANCH  10  13
ENDBRANCH   4   9
BRANCH   1  20
ATOM     20  C   UNL d   1      -0.061   0.149   1.185  0.00  0.00     0.054 A 
ATOM     21  C   UNL d   1      -1.298  -0.512   1.182  0.00  0.00     0.049 A 
ATOM     22 CL   UNL d   1      -1.792  -1.590  -0.075  0.00  0.00    -0.083 Cl
ATOM     23  C   UNL d   1      -2.191  -0.330   2.246  0.00  0.00     0.025 A 
ATOM     24  C   UNL d   1      -1.850   0.493   3.319  0.00  0.00     0.002 A 
ATOM     25  C   UNL d   1      -0.607   1.120   3.347  0.00  0.00     0.001 A 
ATOM     26  C   UNL d   1       0.287   0.944   2.289  0.00  0.00     0.019 A 
ENDBRANCH   1  20
TORSDOF 3
