REMARK  7 active torsions:
REMARK  status: ('A' for Active; 'I' for Inactive)
REMARK    1  A    between atoms: C_3  and  C_1 
REMARK    2  A    between atoms: C_12  and  N_2 
REMARK    3  A    between atoms: S_18  and  C_6 
REMARK       I    between atoms: N_16  and  C_17 
REMARK    4  A    between atoms: C_23  and  N_16 
REMARK    5  A    between atoms: C_24  and  N_16 
REMARK    6  A    between atoms: C_17  and  C_21 
REMARK    7  A    between atoms: C_21  and  S_18 
ROOT
ATOM      1  C   UNL d   1      10.914  -0.655   0.359  0.00  0.00     0.145 C 
ATOM      2  N   UNL d   1       9.867  -0.676  -0.549  0.00  0.00    -0.305 N 
ATOM      3  N   UNL d   1      10.437  -0.316   1.541  0.00  0.00    -0.282 N 
ATOM      4  HN  UNL d   1      10.954  -0.324   2.421  1.00  0.00     0.188 HD
ATOM      5  C   UNL d   1       8.804  -0.100   0.111  0.00  0.00     0.163 C 
ATOM      6  N   UNL d   1       9.121   0.049   1.380  0.00  0.00    -0.278 N 
ATOM      7  HN  UNL d   1       8.497   0.378   2.117  1.00  0.00     0.189 HD
ENDROOT
BRANCH   5   8
ATOM      8  S   UNL d   1       7.300   0.399  -0.593  0.00  0.00    -0.083 SA
BRANCH   8   9
ATOM      9  C   UNL d   1       6.475   1.150   0.840  0.00  0.00     0.185 C 
BRANCH   9  10
ATOM     10  C   UNL d   1       5.115   1.725   0.445  0.00  0.00     0.234 C 
ATOM     11  N   UNL d   1       5.027   3.051  -0.013  0.00  0.00    -0.313 N 
ATOM     12  O   UNL d   1       4.111   1.007   0.544  0.00  0.00    -0.272 OA
BRANCH  11  13
ATOM     13  C   UNL d   1       6.160   3.892  -0.067  0.00  0.00     0.037 A 
ATOM     14  C   UNL d   1       6.843   4.058  -1.275  0.00  0.00     0.030 A 
ATOM     15  C   UNL d   1       7.970   4.877  -1.335  0.00  0.00     0.002 A 
ATOM     16  C   UNL d   1       8.435   5.508  -0.183  0.00  0.00     0.000 A 
ATOM     17  C   UNL d   1       7.770   5.324   1.033  0.00  0.00     0.002 A 
ATOM     18  C   UNL d   1       6.632   4.520   1.089  0.00  0.00     0.030 A 
ENDBRANCH  11  13
BRANCH  11  19
ATOM     19  C   UNL d   1       3.673   3.610  -0.279  0.00  0.00     0.093 C 
ATOM     20  C   UNL d   1       3.023   3.006  -1.544  0.00  0.00     0.026 C 
ATOM     21  C   UNL d   1       3.444   3.696  -2.834  0.00  0.00     0.002 C 
ATOM     22  C   UNL d   1       3.170   5.193  -2.787  0.00  0.00     0.000 C 
ATOM     23  C   UNL d   1       3.821   5.859  -1.581  0.00  0.00     0.002 C 
ATOM     24  C   UNL d   1       3.500   5.149  -0.266  0.00  0.00     0.026 C 
ENDBRANCH  11  19
ENDBRANCH   9  10
ENDBRANCH   8   9
ENDBRANCH   5   8
BRANCH   2  25
ATOM     25  C   UNL d   1       9.978  -1.236  -1.888  0.00  0.00     0.094 A 
ATOM     26  C   UNL d   1       9.594  -0.431  -3.113  0.00  0.00     0.028 A 
ATOM     27  C   UNL d   1       8.845  -1.681  -2.786  0.00  0.00     0.028 A 
ENDBRANCH   2  25
BRANCH   1  28
ATOM     28  C   UNL d   1      12.311  -0.833   0.090  0.00  0.00     0.092 A 
ATOM     29  C   UNL d   1      13.319  -1.420   0.849  0.00  0.00     0.044 A 
ATOM     30  N   UNL d   1      14.584  -1.379   0.266  0.00  0.00    -0.298 N 
ATOM     31  C   UNL d   1      13.226  -2.073   2.179  0.00  0.00     0.071 C 
ATOM     32  N   UNL d   1      14.582  -0.734  -0.884  0.00  0.00    -0.269 N 
ATOM     33  HN  UNL d   1      15.416  -1.799   0.681  1.00  0.00     0.187 HD
ATOM     34  S   UNL d   1      13.083  -0.138  -1.287  0.00  0.00     0.007 SA
ATOM     35  HN  UNL d   1      15.412  -0.613  -1.465  1.00  0.00     0.195 HD
ENDBRANCH   1  28
TORSDOF 7
