REMARK  5 active torsions:
REMARK  status: ('A' for Active; 'I' for Inactive)
REMARK    1  A    between atoms: N_5  and  C_1 
REMARK    2  A    between atoms: C_13  and  N_2 
REMARK       I    between atoms: C_8  and  N_5 
REMARK    3  A    between atoms: C_6  and  C_8 
REMARK    4  A    between atoms: C_17  and  C_13 
REMARK    5  A    between atoms: C_18  and  C_13 
ROOT
ATOM      1  N   UNL d   1      -4.795  -4.221  -0.781  0.00  0.00     0.103 N 
ATOM      2  C   UNL d   1      -4.406  -2.399   0.272  0.00  0.00     0.135 A 
ATOM      3  C   UNL d   1      -4.896  -3.806   0.631  0.00  0.00     0.289 A 
ATOM      4  C   UNL d   1      -4.208  -2.913  -1.150  0.00  0.00     0.289 A 
ENDROOT
BRANCH   2   5
ATOM      5  C   UNL d   1      -5.205  -1.096   0.393  0.00  0.00     0.231 C 
ATOM      6  N   UNL d   1      -6.578  -1.166   0.225  0.00  0.00    -0.307 N 
ATOM      7  H   UNL d   1      -7.046  -2.062   0.224  0.00  0.00     0.171 HD
ATOM      8  O   UNL d   1      -4.595  -0.045   0.633  0.00  0.00    -0.273 OA
BRANCH   6   9
ATOM      9  C   UNL d   1      -7.428  -0.081   0.151  0.00  0.00     0.152 A 
ATOM     10  N   UNL d   1      -8.732  -0.200   0.270  0.00  0.00    -0.335 N 
ATOM     11  C   UNL d   1      -9.329   1.053   0.187  0.00  0.00     0.051 A 
ATOM     12  HN  UNL d   1      -9.231  -1.079   0.402  1.00  0.00     0.168 HD
ATOM     13  C   UNL d   1     -10.701   1.343   0.359  0.00  0.00     0.032 A 
ATOM     14  C   UNL d   1      -8.460   2.112  -0.088  0.00  0.00     0.036 A 
ATOM     15  C   UNL d   1     -11.157   2.666   0.256  0.00  0.00     0.026 A 
ATOM     16  C   UNL d   1     -10.265   3.694  -0.032  0.00  0.00     0.035 A 
ATOM     17  C   UNL d   1      -8.905   3.440  -0.216  0.00  0.00     0.045 A 
ATOM     18 CL   UNL d   1     -10.845   5.311  -0.154  0.00  0.00    -0.084 Cl
ATOM     19  S   UNL d   1      -6.867   1.489  -0.216  0.00  0.00    -0.052 SA
ENDBRANCH   6   9
ENDBRANCH   2   5
BRANCH   1  20
ATOM     20  C   UNL d   1      -3.776  -5.294  -1.009  0.00  0.00     0.289 C 
BRANCH  20  21
ATOM     21  C   UNL d   1      -4.228  -6.688  -0.556  0.00  0.00    -0.021 A 
ATOM     22  C   UNL d   1      -5.379  -7.293  -1.086  0.00  0.00     0.010 A 
ATOM     23  C   UNL d   1      -5.694  -8.621  -0.781  0.00  0.00     0.001 A 
ATOM     24  C   UNL d   1      -4.875  -9.359   0.070  0.00  0.00     0.000 A 
ATOM     25  C   UNL d   1      -3.744  -8.770   0.626  0.00  0.00     0.001 A 
ATOM     26  C   UNL d   1      -3.421  -7.443   0.316  0.00  0.00     0.010 A 
ENDBRANCH  20  21
BRANCH  20  27
ATOM     27  C   UNL d   1      -3.327  -5.346  -2.485  0.00  0.00    -0.021 A 
ATOM     28  C   UNL d   1      -2.007  -5.705  -2.809  0.00  0.00     0.010 A 
ATOM     29  C   UNL d   1      -1.562  -5.659  -4.130  0.00  0.00     0.001 A 
ATOM     30  C   UNL d   1      -2.430  -5.258  -5.148  0.00  0.00     0.000 A 
ATOM     31  C   UNL d   1      -3.751  -4.938  -4.850  0.00  0.00     0.001 A 
ATOM     32  C   UNL d   1      -4.202  -5.000  -3.533  0.00  0.00     0.010 A 
ENDBRANCH  20  27
ENDBRANCH   1  20
TORSDOF 5
