REMARK  3 active torsions:
REMARK  status: ('A' for Active; 'I' for Inactive)
REMARK    1  A    between atoms: N_6  and  N_1 
REMARK    2  A    between atoms: N_5  and  C_4 
REMARK    3  A    between atoms: C_12  and  C_13 
ROOT
ATOM      1  N   UNL d   1       1.967   0.079  -0.120  0.00  0.00    -0.182 N 
ATOM      2  C   UNL d   1       1.168   1.202  -0.081  0.00  0.00     0.280 A 
ATOM      3  C   UNL d   1       1.223  -1.085  -0.061  0.00  0.00     0.280 A 
ATOM      4  C   UNL d   1      -0.179  -0.664  -0.000  0.00  0.00     0.050 A 
ATOM      5  C   UNL d   1      -0.208   0.718  -0.017  0.00  0.00     0.050 A 
ATOM      6  O   UNL d   1       1.435   2.389  -0.102  0.00  0.00    -0.265 OA
ATOM      7  O   UNL d   1       1.565  -2.253  -0.072  0.00  0.00    -0.265 OA
ATOM      8  C   UNL d   1      -1.339  -1.414   0.029  0.00  0.00     0.018 A 
ATOM      9  C   UNL d   1      -1.394   1.428  -0.006  0.00  0.00     0.018 A 
ATOM     10  C   UNL d   1      -2.581   0.691   0.018  0.00  0.00     0.001 A 
ATOM     11  C   UNL d   1      -2.554  -0.719   0.038  0.00  0.00     0.001 A 
ENDROOT
BRANCH   1  12
ATOM     12  N   UNL d   1       3.332   0.009  -0.262  0.00  0.00    -0.298 N 
ATOM     13  C   UNL d   1       4.022   1.095  -0.397  0.00  0.00     0.126 C 
ATOM     14  HN  UNL d   1       3.801  -0.897  -0.262  1.00  0.00     0.186 HD
BRANCH  13  15
ATOM     15  C   UNL d   1       5.453   1.022  -0.589  0.00  0.00     0.024 A 
ATOM     16  S   UNL d   1       6.343   2.473  -0.775  0.00  0.00    -0.065 SA
ATOM     17  C   UNL d   1       7.808   1.627  -0.931  0.00  0.00     0.144 A 
ATOM     18  C   UNL d   1       7.642   0.260  -0.863  0.00  0.00     0.045 A 
ATOM     19  C   UNL d   1       6.271  -0.090  -0.663  0.00  0.00     0.023 A 
BRANCH  17  20
ATOM     20  N   UNL d   1       9.049   2.336  -1.106  0.00  0.00    -0.108 N 
ATOM     21  O   UNL d   1      10.069   1.641  -1.198  0.00  0.00    -0.531 OA
ATOM     22  O   UNL d   1       9.019   3.573  -1.151  0.00  0.00    -0.531 OA
ENDBRANCH  17  20
ENDBRANCH  13  15
ENDBRANCH   1  12
TORSDOF 3
