REMARK  2 active torsions:
REMARK  status: ('A' for Active; 'I' for Inactive)
REMARK       I    between atoms: N_2  and  C_1 
REMARK    1  A    between atoms: C_3  and  C_1 
REMARK    2  A    between atoms: C_5  and  N_2 
ROOT
ATOM      1  C   UNL d   1       1.061   0.012  -0.091  0.00  0.00     0.252 C 
ATOM      2  N   UNL d   1       0.366  -1.174   0.051  0.00  0.00    -0.352 N 
ATOM      3  O   UNL d   1       2.284   0.077  -0.111  0.00  0.00    -0.268 OA
ATOM      4  H   UNL d   1      -0.615  -1.136   0.293  0.00  0.00     0.163 HD
ENDROOT
BRANCH   1   5
ATOM      5  C   UNL d   1       0.252   1.256  -0.188  0.00  0.00     0.034 A 
ATOM      6  C   UNL d   1      -1.034   1.269  -0.742  0.00  0.00     0.056 A 
ATOM      7  C   UNL d   1      -1.736   2.475  -0.858  0.00  0.00     0.103 A 
ATOM      8  O   UNL d   1      -2.964   2.371  -1.465  0.00  0.00    -0.348 OA
ATOM      9  C   UNL d   1      -1.173   3.665  -0.374  0.00  0.00     0.102 A 
ATOM     10  C   UNL d   1      -3.269   3.482  -2.312  0.00  0.00     0.178 C 
ATOM     11  C   UNL d   1      -3.899   4.620  -1.527  0.00  0.00     0.053 C 
ATOM     12  C   UNL d   1      -3.186   4.862  -0.208  0.00  0.00     0.178 C 
ATOM     13  O   UNL d   1      -1.770   4.899  -0.386  0.00  0.00    -0.348 OA
ATOM     14  C   UNL d   1       0.121   3.650   0.153  0.00  0.00     0.040 A 
ATOM     15  C   UNL d   1       0.832   2.454   0.243  0.00  0.00     0.020 A 
ENDBRANCH   1   5
BRANCH   2  16
ATOM     16  C   UNL d   1       1.082  -2.425   0.255  0.00  0.00     0.093 C 
ATOM     17  C   UNL d   1       1.950  -2.842  -0.957  0.00  0.00     0.064 C 
ATOM     18  C   UNL d   1       2.021  -4.326  -0.769  0.00  0.00    -0.050 A 
ATOM     19  C   UNL d   1       2.923  -5.212  -1.333  0.00  0.00     0.007 A 
ATOM     20  C   UNL d   1       0.994  -4.773   0.070  0.00  0.00    -0.050 A 
ATOM     21  C   UNL d   1       2.791  -6.569  -1.034  0.00  0.00     0.001 A 
ATOM     22  C   UNL d   1       1.757  -7.019  -0.197  0.00  0.00     0.001 A 
ATOM     23  C   UNL d   1       0.844  -6.119   0.356  0.00  0.00     0.007 A 
ATOM     24  C   UNL d   1       0.146  -3.626   0.527  0.00  0.00     0.064 C 
ENDBRANCH   2  16
TORSDOF 2
