REMARK  6 active torsions:
REMARK  status: ('A' for Active; 'I' for Inactive)
REMARK    1  A    between atoms: C_8  and  C_1 
REMARK       I    between atoms: C_4  and  N_12 
REMARK    2  A    between atoms: C_9  and  C_4 
REMARK    3  A    between atoms: C_13  and  C_8 
REMARK    4  A    between atoms: C_11  and  C_10 
REMARK    5  A    between atoms: O_20  and  C_11 
REMARK    6  A    between atoms: N_12  and  C_17 
ROOT
ATOM      1  C   UNL d   1      -3.776   1.111  -0.190  0.00  0.00     0.015 A 
ATOM      2  C   UNL d   1      -6.186  -0.375  -0.097  0.00  0.00     0.035 A 
ATOM      3  C   UNL d   1      -3.970   0.112   0.775  0.00  0.00     0.018 A 
ATOM      4  C   UNL d   1      -4.782   1.342  -1.127  0.00  0.00     0.018 A 
ATOM      5  C   UNL d   1      -5.158  -0.630   0.815  0.00  0.00     0.030 A 
ATOM      6  C   UNL d   1      -5.985   0.619  -1.062  0.00  0.00     0.030 A 
ENDROOT
BRANCH   2   7
ATOM      7  N   UNL d   1      -7.357  -1.170   0.006  0.00  0.00    -0.323 N 
ATOM      8  C   UNL d   1      -8.512  -1.040  -0.746  0.00  0.00     0.257 C 
ATOM      9  O   UNL d   1      -8.690  -0.135  -1.558  0.00  0.00    -0.267 OA
ATOM     10  H   UNL d   1      -7.259  -1.983   0.607  0.00  0.00     0.169 HD
BRANCH   8  11
ATOM     11  C   UNL d   1      -9.660  -1.997  -0.562  0.00  0.00     0.049 A 
ATOM     12  C   UNL d   1      -9.658  -3.310  -0.056  0.00  0.00     0.053 A 
ATOM     13  C   UNL d   1     -10.838  -4.093  -0.134  0.00  0.00     0.019 A 
ATOM     14  C   UNL d   1     -12.027  -3.566  -0.630  0.00  0.00     0.001 A 
ATOM     15  C   UNL d   1     -12.063  -2.252  -1.065  0.00  0.00     0.001 A 
ATOM     16  C   UNL d   1     -10.897  -1.488  -1.036  0.00  0.00     0.018 A 
BRANCH  12  17
ATOM     17  C   UNL d   1      -8.465  -3.969   0.523  0.00  0.00     0.177 C 
ATOM     18  O   UNL d   1      -7.328  -3.773   0.137  0.00  0.00    -0.646 OA
BRANCH  17  19
ATOM     19  O   UNL d   1      -8.732  -4.747   1.594  0.00  0.00    -0.773 OA
ATOM     20  H   UNL d   1      -9.649  -4.739   1.927  0.00  0.00     0.167 HD
ENDBRANCH  17  19
ENDBRANCH  12  17
ENDBRANCH   8  11
ENDBRANCH   2   7
BRANCH   1  21
ATOM     21  C   UNL d   1      -2.501   1.886  -0.147  0.00  0.00     0.193 C 
ATOM     22  O   UNL d   1      -1.541   1.377   0.428  0.00  0.00    -0.287 OA
BRANCH  21  23
ATOM     23  C   UNL d   1      -2.331   3.266  -0.728  0.00  0.00     0.028 C 
ATOM     24  C   UNL d   1      -1.136   3.551  -1.449  0.00  0.00    -0.041 C 
ATOM     25  C   UNL d   1      -0.828   4.894  -1.792  0.00  0.00    -0.049 C 
ATOM     26  C   UNL d   1      -0.154   2.458  -1.814  0.00  0.00     0.050 C 
ATOM     27  C   UNL d   1       0.529   5.277  -2.350  0.00  0.00     0.049 C 
ATOM     28  C   UNL d   1      -1.793   5.914  -1.592  0.00  0.00    -0.049 C 
ATOM     29  C   UNL d   1      -3.038   5.601  -0.996  0.00  0.00    -0.049 C 
ATOM     30  C   UNL d   1      -1.444   7.337  -1.981  0.00  0.00     0.049 C 
ATOM     31  C   UNL d   1      -3.256   4.306  -0.450  0.00  0.00    -0.041 C 
ATOM     32  C   UNL d   1      -4.104   6.671  -0.894  0.00  0.00     0.049 C 
ATOM     33  C   UNL d   1      -4.457   4.101   0.444  0.00  0.00     0.050 C 
ENDBRANCH  21  23
ENDBRANCH   1  21
TORSDOF 6
