REMARK  7 active torsions:
REMARK  status: ('A' for Active; 'I' for Inactive)
REMARK    1  A    between atoms: N_2  and  S_1 
REMARK    2  A    between atoms: C_3  and  S_1 
REMARK    3  A    between atoms: C_8  and  N_2 
REMARK    4  A    between atoms: C_9  and  N_2 
REMARK    5  A    between atoms: C_15  and  C_9 
REMARK    6  A    between atoms: N_11  and  C_10 
REMARK    7  A    between atoms: O_14  and  C_15 
ROOT
ATOM      1  S   UNL d   1       1.004  -0.113  -0.154  0.00  0.00     0.244 S 
ATOM      2  O   UNL d   1       0.687  -1.423  -0.691  0.00  0.00    -0.206 OA
ATOM      3  O   UNL d   1       2.386   0.305  -0.055  0.00  0.00    -0.206 OA
ENDROOT
BRANCH   1   4
ATOM      4  N   UNL d   1       0.307  -0.013   1.430  0.00  0.00    -0.201 NA
BRANCH   4   5
ATOM      5  C   UNL d   1      -1.210   0.024   1.510  0.00  0.00     0.066 C 
ATOM      6  C   UNL d   1      -1.888  -1.258   1.028  0.00  0.00     0.027 C 
ATOM      7  C   UNL d   1      -1.705   0.373   2.920  0.00  0.00     0.027 C 
ENDBRANCH   4   5
BRANCH   4   8
ATOM      8  C   UNL d   1       0.915  -1.027   2.381  0.00  0.00     0.134 C 
BRANCH   8   9
ATOM      9  C   UNL d   1       2.428  -0.920   2.584  0.00  0.00     0.179 C 
BRANCH   9  10
ATOM     10  O   UNL d   1       2.826  -1.839   3.605  0.00  0.00    -0.400 OA
ATOM     11  H   UNL d   1       3.800  -1.835   3.616  0.00  0.00     0.209 HD
ENDBRANCH   9  10
ENDBRANCH   8   9
ENDBRANCH   4   8
ENDBRANCH   1   4
BRANCH   1  12
ATOM     12  C   UNL d   1       0.183   1.098  -1.165  0.00  0.00     0.074 A 
ATOM     13  C   UNL d   1       0.740   2.369  -1.317  0.00  0.00     0.026 A 
ATOM     14  C   UNL d   1       0.153   3.278  -2.206  0.00  0.00     0.025 A 
ATOM     15  C   UNL d   1      -0.960   2.916  -2.974  0.00  0.00     0.005 A 
ATOM     16  C   UNL d   1      -1.522   1.652  -2.788  0.00  0.00     0.025 A 
ATOM     17  C   UNL d   1      -0.928   0.729  -1.926  0.00  0.00     0.026 A 
BRANCH  15  18
ATOM     18  N   UNL d   1      -1.625   3.870  -3.750  0.00  0.00    -0.303 NA
ATOM     19  H   UNL d   1      -2.208   3.474  -4.480  0.00  0.00     0.124 HD
ATOM     20  H   UNL d   1      -1.022   4.608  -4.100  0.00  0.00     0.124 HD
ENDBRANCH  15  18
ENDBRANCH   1  12
TORSDOF 7
