REMARK  7 active torsions:
REMARK  status: ('A' for Active; 'I' for Inactive)
REMARK    1  A    between atoms: C_7  and  C_1 
REMARK    2  A    between atoms: S_10  and  C_7 
REMARK    3  A    between atoms: N_8  and  C_11 
REMARK       I    between atoms: C_9  and  N_8 
REMARK    4  A    between atoms: C_12  and  C_9 
REMARK    5  A    between atoms: C_15  and  S_10 
REMARK    6  A    between atoms: C_13  and  C_14 
REMARK    7  A    between atoms: O_18  and  C_13 
ROOT
ATOM      1  C   UNL d   1      -4.444   4.499  -2.855  0.00  0.00     0.051 A 
ATOM      2  C   UNL d   1      -4.156   3.670  -1.754  0.00  0.00     0.027 A 
ATOM      3  C   UNL d   1      -5.768   4.659  -3.288  0.00  0.00     0.031 A 
ATOM      4  C   UNL d   1      -5.226   3.047  -1.086  0.00  0.00     0.021 A 
ATOM      5  C   UNL d   1      -6.812   4.014  -2.627  0.00  0.00     0.002 A 
ATOM      6  C   UNL d   1      -6.540   3.212  -1.523  0.00  0.00     0.002 A 
ENDROOT
BRANCH   2   7
ATOM      7  S   UNL d   1      -2.451   3.350  -1.240  0.00  0.00    -0.123 SA
BRANCH   7   8
ATOM      8  C   UNL d   1      -2.517   1.540  -0.930  0.00  0.00     0.119 C 
BRANCH   8   9
ATOM      9  C   UNL d   1      -1.159   0.889  -0.677  0.00  0.00    -0.036 A 
ATOM     10  C   UNL d   1      -0.772   0.478   0.632  0.00  0.00    -0.048 A 
ATOM     11  C   UNL d   1       0.547  -0.009   0.866  0.00  0.00    -0.049 A 
ATOM     12  C   UNL d   1      -1.730   0.546   1.804  0.00  0.00     0.049 C 
ATOM     13  C   UNL d   1       1.016  -0.359   2.268  0.00  0.00     0.049 C 
ATOM     14  C   UNL d   1       1.450  -0.203  -0.217  0.00  0.00    -0.049 A 
ATOM     15  C   UNL d   1       1.026   0.082  -1.536  0.00  0.00    -0.049 A 
ATOM     16  C   UNL d   1       2.821  -0.773   0.089  0.00  0.00     0.049 C 
ATOM     17  C   UNL d   1      -0.270   0.643  -1.763  0.00  0.00    -0.048 A 
ATOM     18  C   UNL d   1       1.892  -0.223  -2.743  0.00  0.00     0.049 C 
ATOM     19  C   UNL d   1      -0.668   0.954  -3.195  0.00  0.00     0.049 C 
ENDBRANCH   8   9
ENDBRANCH   7   8
ENDBRANCH   2   7
BRANCH   1  20
ATOM     20  N   UNL d   1      -3.412   5.259  -3.449  0.00  0.00    -0.322 N 
ATOM     21  C   UNL d   1      -3.273   5.691  -4.738  0.00  0.00     0.245 C 
ATOM     22  O   UNL d   1      -2.598   6.677  -5.015  0.00  0.00    -0.268 OA
ATOM     23  H   UNL d   1      -2.674   5.571  -2.821  0.00  0.00     0.169 HD
BRANCH  21  24
ATOM     24  C   UNL d   1      -3.766   4.766  -5.790  0.00  0.00     0.081 C 
ATOM     25  C   UNL d   1      -3.311   4.916  -7.042  0.00  0.00     0.086 C 
BRANCH  25  26
ATOM     26  C   UNL d   1      -3.572   3.854  -8.015  0.00  0.00     0.165 C 
ATOM     27  O   UNL d   1      -4.273   2.871  -7.863  0.00  0.00    -0.647 OA
BRANCH  26  28
ATOM     28  O   UNL d   1      -2.858   4.063  -9.130  0.00  0.00    -0.773 OA
ATOM     29  H   UNL d   1      -3.040   3.275  -9.684  0.00  0.00     0.167 HD
ENDBRANCH  26  28
ENDBRANCH  25  26
ENDBRANCH  21  24
ENDBRANCH   1  20
TORSDOF 7
