REMARK  6 active torsions:
REMARK  status: ('A' for Active; 'I' for Inactive)
REMARK    1  A    between atoms: C_9  and  N_1 
REMARK    2  A    between atoms: C_7  and  C_2 
REMARK    3  A    between atoms: C_8  and  O_11 
REMARK    4  A    between atoms: N_14  and  C_10 
REMARK    5  A    between atoms: O_11  and  C_18 
REMARK    6  A    between atoms: C_19  and  N_14 
ROOT
ATOM      1  C   UNL d   1       2.439  -1.364  -0.340  0.00  0.00     0.063 C 
ATOM      2  C   UNL d   1       2.218  -2.620   0.074  0.00  0.00     0.066 C 
ENDROOT
BRANCH   1   3
ATOM      3  C   UNL d   1       3.632  -0.680  -0.036  0.00  0.00     0.139 C 
ATOM      4  N   UNL d   1       4.763  -0.682  -0.858  0.00  0.00    -0.225 N 
ATOM      5  N   UNL d   1       5.774  -0.099  -0.156  0.00  0.00     0.001 NA
ATOM      6  N   UNL d   1       5.234   0.371   0.955  0.00  0.00    -0.007 NA
ATOM      7  N   UNL d   1       3.914   0.034   1.041  0.00  0.00    -0.270 N 
ATOM      8  HN  UNL d   1       3.270   0.283   1.791  1.00  0.00     0.185 HD
BRANCH   4   9
ATOM      9  C   UNL d   1       4.976  -1.064  -2.213  0.00  0.00     0.056 A 
ATOM     10  C   UNL d   1       3.926  -1.173  -3.131  0.00  0.00     0.032 A 
ATOM     11  C   UNL d   1       4.196  -1.435  -4.480  0.00  0.00     0.009 A 
ATOM     12  C   UNL d   1       5.510  -1.601  -4.932  0.00  0.00    -0.062 A 
ATOM     13  C   UNL d   1       6.555  -1.530  -4.008  0.00  0.00     0.009 A 
ATOM     14  C   UNL d   1       5.783  -1.850  -6.386  0.00  0.00     0.048 C 
ATOM     15  C   UNL d   1       6.294  -1.249  -2.664  0.00  0.00     0.032 A 
ENDBRANCH   4   9
ENDBRANCH   1   3
BRANCH   2  16
ATOM     16  N   UNL d   1       3.037  -3.483   0.786  0.00  0.00    -0.270 NA
ATOM     17  H   UNL d   1       3.048  -4.397   0.333  0.00  0.00     0.133 HD
BRANCH  16  18
ATOM     18  C   UNL d   1       2.797  -3.727   2.176  0.00  0.00     0.012 A 
ATOM     19  C   UNL d   1       3.069  -4.996   2.705  0.00  0.00     0.026 A 
ATOM     20  C   UNL d   1       2.893  -5.253   4.070  0.00  0.00     0.039 A 
ATOM     21  C   UNL d   1       2.501  -4.240   4.946  0.00  0.00     0.078 A 
ATOM     22  C   UNL d   1       2.235  -2.973   4.437  0.00  0.00     0.039 A 
ATOM     23  C   UNL d   1       2.408  -2.715   3.064  0.00  0.00     0.026 A 
BRANCH  21  24
ATOM     24  O   UNL d   1       2.377  -4.635   6.242  0.00  0.00    -0.255 OA
BRANCH  24  25
ATOM     25  C   UNL d   1       2.618  -3.706   7.288  0.00  0.00     0.530 C 
ATOM     26  F   UNL d   1       3.185  -2.550   6.886  0.00  0.00    -0.144 F 
ATOM     27  F   UNL d   1       1.456  -3.428   7.918  0.00  0.00    -0.144 F 
ATOM     28  F   UNL d   1       3.451  -4.283   8.185  0.00  0.00    -0.144 F 
ENDBRANCH  24  25
ENDBRANCH  21  24
ENDBRANCH  16  18
ENDBRANCH   2  16
TORSDOF 6
