REMARK  5 active torsions:
REMARK  status: ('A' for Active; 'I' for Inactive)
REMARK    1  A    between atoms: N_3  and  S_1 
REMARK    2  A    between atoms: C_7  and  S_1 
REMARK    3  A    between atoms: C_2  and  N_3 
REMARK    4  A    between atoms: C_12  and  C_4 
REMARK    5  A    between atoms: S_16  and  C_8 
ROOT
ATOM      1  C   UNL d   1       0.782   2.047   1.627  0.00  0.00     0.124 A 
ATOM      2  C   UNL d   1       2.095   1.955   2.177  0.00  0.00     0.066 A 
ATOM      3  N   UNL d   1      -0.024   2.847   2.325  0.00  0.00    -0.288 N 
ATOM      4  HN  UNL d   1      -0.996   3.089   2.132  1.00  0.00     0.188 HD
ATOM      5  C   UNL d   1       2.023   2.777   3.289  0.00  0.00     0.100 A 
ATOM      6  N   UNL d   1       0.750   3.256   3.341  0.00  0.00    -0.292 N 
ATOM      7  H   UNL d   1       0.370   3.910   4.016  0.00  0.00     0.187 HD
ENDROOT
BRANCH   1   8
ATOM      8  N   UNL d   1       0.300   1.559   0.420  0.00  0.00    -0.164 NA
ATOM      9  H   UNL d   1      -0.475   2.135   0.087  0.00  0.00     0.147 HD
BRANCH   8  10
ATOM     10  S   UNL d   1      -0.172  -0.059   0.306  0.00  0.00     0.248 S 
ATOM     11  O   UNL d   1       0.857  -0.883   0.905  0.00  0.00    -0.205 OA
ATOM     12  O   UNL d   1      -0.589  -0.288  -1.062  0.00  0.00    -0.205 OA
BRANCH  10  13
ATOM     13  C   UNL d   1      -1.633  -0.192   1.306  0.00  0.00     0.096 A 
ATOM     14  C   UNL d   1      -2.735   0.646   1.117  0.00  0.00     0.056 A 
ATOM     15 CL   UNL d   1      -2.783   1.936  -0.031  0.00  0.00    -0.083 Cl
ATOM     16  C   UNL d   1      -3.891   0.446   1.883  0.00  0.00     0.025 A 
ATOM     17  C   UNL d   1      -3.954  -0.590   2.816  0.00  0.00     0.002 A 
ATOM     18  C   UNL d   1      -2.857  -1.426   3.001  0.00  0.00     0.002 A 
ATOM     19  C   UNL d   1      -1.694  -1.227   2.252  0.00  0.00     0.026 A 
ENDBRANCH  10  13
ENDBRANCH   8  10
ENDBRANCH   1   8
BRANCH   2  20
ATOM     20  C   UNL d   1       3.308   1.326   1.671  0.00  0.00     0.048 A 
ATOM     21  N   UNL d   1       4.200   0.891   2.594  0.00  0.00    -0.365 N 
ATOM     22  C   UNL d   1       5.350   0.341   2.141  0.00  0.00     0.088 A 
ATOM     23  HN  UNL d   1       4.011   0.974   3.592  1.00  0.00     0.165 HD
ATOM     24  C   UNL d   1       5.659   0.189   0.800  0.00  0.00     0.017 A 
ATOM     25  C   UNL d   1       4.734   0.632  -0.135  0.00  0.00     0.004 A 
ATOM     26  C   UNL d   1       3.544   1.211   0.303  0.00  0.00     0.030 A 
ENDBRANCH   2  20
BRANCH   5  27
ATOM     27  S   UNL d   1       3.153   3.386   4.454  0.00  0.00    -0.114 SA
ATOM     28  C   UNL d   1       3.090   2.079   5.700  0.00  0.00     0.097 C 
ENDBRANCH   5  27
TORSDOF 5
