REMARK  14 active torsions:
REMARK  status: ('A' for Active; 'I' for Inactive)
REMARK    1  A    between atoms: N_3  and  S_1 
REMARK    2  A    between atoms: C_7  and  S_1 
REMARK    3  A    between atoms: S_2  and  O_4 
REMARK    4  A    between atoms: C_8  and  S_2 
REMARK    5  A    between atoms: C_6  and  N_3 
REMARK    6  A    between atoms: C_13  and  N_3 
REMARK    7  A    between atoms: O_4  and  C_5 
REMARK    8  A    between atoms: C_17  and  C_6 
REMARK    9  A    between atoms: C_16  and  C_13 
REMARK   10  A    between atoms: O_30  and  C_14 
REMARK   11  A    between atoms: O_31  and  C_17 
REMARK   12  A    between atoms: O_32  and  C_17 
REMARK   13  A    between atoms: C_33  and  O_31 
REMARK   14  A    between atoms: C_34  and  O_32 
ROOT
ATOM      1  C   UNL d   1       1.274   0.113  -2.728  0.00  0.00     0.174 C 
ENDROOT
BRANCH   1   2
ATOM      2  N   UNL d   1       0.743  -0.606  -1.573  0.00  0.00    -0.298 N 
BRANCH   2   3
ATOM      3  S   UNL d   1       1.696  -0.988  -0.239  0.00  0.00     0.261 S 
ATOM      4  O   UNL d   1       2.757  -1.888  -0.677  0.00  0.00    -0.200 OA
ATOM      5  O   UNL d   1       0.808  -1.401   0.827  0.00  0.00    -0.200 OA
BRANCH   3   6
ATOM      6  C   UNL d   1       2.462   0.530   0.291  0.00  0.00     0.079 A 
ATOM      7  C   UNL d   1       1.663   1.550   0.812  0.00  0.00     0.026 A 
ATOM      8  C   UNL d   1       2.238   2.704   1.337  0.00  0.00     0.008 A 
ATOM      9  C   UNL d   1       3.626   2.843   1.388  0.00  0.00    -0.062 A 
ATOM     10  C   UNL d   1       4.432   1.831   0.849  0.00  0.00     0.008 A 
ATOM     11  C   UNL d   1       4.216   4.066   2.028  0.00  0.00     0.048 C 
ATOM     12  C   UNL d   1       3.853   0.676   0.305  0.00  0.00     0.026 A 
ENDBRANCH   3   6
ENDBRANCH   2   3
BRANCH   2  13
ATOM     13  C   UNL d   1      -0.742  -0.637  -1.476  0.00  0.00     0.196 C 
BRANCH  13  14
ATOM     14  C   UNL d   1      -1.417   0.567  -0.771  0.00  0.00     0.278 C 
BRANCH  14  15
ATOM     15  O   UNL d   1      -1.042   1.863  -1.261  0.00  0.00    -0.360 OA
BRANCH  15  16
ATOM     16  C   UNL d   1      -1.301   2.214  -2.615  0.00  0.00     0.166 C 
ATOM     17  C   UNL d   1      -2.752   2.356  -3.039  0.00  0.00     0.033 C 
ENDBRANCH  15  16
ENDBRANCH  14  15
BRANCH  14  18
ATOM     18  O   UNL d   1      -2.840   0.446  -0.746  0.00  0.00    -0.360 OA
BRANCH  18  19
ATOM     19  C   UNL d   1      -3.311  -0.569   0.136  0.00  0.00     0.166 C 
ATOM     20  C   UNL d   1      -4.817  -0.452   0.237  0.00  0.00     0.033 C 
ENDBRANCH  18  19
ENDBRANCH  14  18
ENDBRANCH  13  14
ENDBRANCH   2  13
ENDBRANCH   1   2
BRANCH   1  21
ATOM     21  C   UNL d   1       2.576  -0.373  -3.288  0.00  0.00    -0.037 A 
ATOM     22  C   UNL d   1       2.672  -1.627  -3.915  0.00  0.00     0.050 A 
ATOM     23  C   UNL d   1       3.908  -2.101  -4.368  0.00  0.00     0.123 A 
ATOM     24  C   UNL d   1       5.045  -1.289  -4.216  0.00  0.00     0.102 A 
ATOM     25  C   UNL d   1       4.937  -0.037  -3.604  0.00  0.00     0.040 A 
ATOM     26  C   UNL d   1       3.711   0.424  -3.151  0.00  0.00     0.012 A 
BRANCH  23  27
ATOM     27  O   UNL d   1       4.091  -3.389  -4.804  0.00  0.00    -0.226 OA
BRANCH  27  28
ATOM     28  S   UNL d   1       3.005  -4.247  -5.662  0.00  0.00     0.303 S 
ATOM     29  O   UNL d   1       2.042  -3.360  -6.291  0.00  0.00    -0.193 OA
ATOM     30  O   UNL d   1       3.751  -5.197  -6.465  0.00  0.00    -0.193 OA
BRANCH  28  31
ATOM     31  C   UNL d   1       2.097  -5.225  -4.480  0.00  0.00     0.086 A 
ATOM     32  C   UNL d   1       2.357  -5.140  -3.112  0.00  0.00     0.026 A 
ATOM     33  C   UNL d   1       1.590  -5.896  -2.221  0.00  0.00     0.008 A 
ATOM     34  C   UNL d   1       0.577  -6.746  -2.690  0.00  0.00    -0.062 A 
ATOM     35  C   UNL d   1       0.341  -6.836  -4.067  0.00  0.00     0.008 A 
ATOM     36  C   UNL d   1      -0.246  -7.535  -1.713  0.00  0.00     0.048 C 
ATOM     37  C   UNL d   1       1.097  -6.078  -4.964  0.00  0.00     0.026 A 
ENDBRANCH  28  31
ENDBRANCH  27  28
ENDBRANCH  23  27
BRANCH  24  38
ATOM     38  O   UNL d   1       6.336  -1.611  -4.538  0.00  0.00    -0.353 OA
ATOM     39  C   UNL d   1       6.525  -2.394  -5.708  0.00  0.00     0.210 C 
ENDBRANCH  24  38
ENDBRANCH   1  21
TORSDOF 14
