REMARK  6 active torsions:
REMARK  status: ('A' for Active; 'I' for Inactive)
REMARK    1  A    between atoms: N_9  and  C_2 
REMARK       I    between atoms: C_10  and  N_9 
REMARK    2  A    between atoms: C_16  and  C_10 
REMARK    3  A    between atoms: C_11  and  C_16 
REMARK    4  A    between atoms: C_18  and  C_11 
REMARK    5  A    between atoms: C_13  and  C_18 
REMARK    6  A    between atoms: O_20  and  C_13 
ROOT
ATOM      1  N   UNL d   1      -3.220  -5.009  -0.629  0.00  0.00    -0.325 N 
ATOM      2  C   UNL d   1      -4.009  -3.886  -0.805  0.00  0.00     0.223 C 
ATOM      3  O   UNL d   1      -5.035  -3.804  -1.466  0.00  0.00    -0.273 OA
ATOM      4  H   UNL d   1      -2.559  -4.956   0.141  0.00  0.00     0.169 HD
ENDROOT
BRANCH   2   5
ATOM      5  C   UNL d   1      -3.542  -2.755   0.119  0.00  0.00     0.113 C 
BRANCH   5   6
ATOM      6  C   UNL d   1      -4.125  -1.316  -0.047  0.00  0.00    -0.023 C 
ATOM      7  C   UNL d   1      -3.580  -0.484   1.154  0.00  0.00     0.010 C 
ATOM      8  C   UNL d   1      -3.939   0.998   1.101  0.00  0.00     0.001 C 
ATOM      9  C   UNL d   1      -3.542   1.650  -0.218  0.00  0.00     0.000 C 
ATOM     10  C   UNL d   1      -3.907   0.832  -1.456  0.00  0.00     0.001 C 
ATOM     11  C   UNL d   1      -3.566  -0.658  -1.334  0.00  0.00     0.010 C 
BRANCH   6  12
ATOM     12  C   UNL d   1      -5.677  -1.288  -0.080  0.00  0.00     0.119 C 
BRANCH  12  13
ATOM     13  C   UNL d   1      -6.333  -2.013   1.069  0.00  0.00     0.140 C 
ATOM     14  O   UNL d   1      -6.494  -1.523   2.178  0.00  0.00    -0.650 OA
BRANCH  13  15
ATOM     15  O   UNL d   1      -6.685  -3.281   0.777  0.00  0.00    -0.776 OA
ATOM     16  H   UNL d   1      -6.484  -3.542  -0.153  0.00  0.00     0.167 HD
ENDBRANCH  13  15
ENDBRANCH  12  13
ENDBRANCH   6  12
ENDBRANCH   5   6
ENDBRANCH   2   5
BRANCH   1  17
ATOM     17  C   UNL d   1      -3.286  -6.275  -1.257  0.00  0.00     0.066 A 
ATOM     18  C   UNL d   1      -3.990  -6.669  -2.425  0.00  0.00     0.112 A 
ATOM     19  C   UNL d   1      -3.912  -8.043  -2.940  0.00  0.00     0.087 A 
ATOM     20  N   UNL d   1      -4.769  -5.978  -3.269  0.00  0.00    -0.237 N 
ATOM     21  N   UNL d   1      -4.656  -8.130  -4.049  0.00  0.00    -0.239 N 
ATOM     22  C   UNL d   1      -3.150  -9.056  -2.327  0.00  0.00     0.034 A 
ATOM     23  O   UNL d   1      -5.182  -6.868  -4.243  0.00  0.00    -0.156 OA
ATOM     24  HN  UNL d   1      -4.804  -8.956  -4.629  1.00  0.00     0.197 HD
ATOM     25  C   UNL d   1      -2.456  -8.646  -1.181  0.00  0.00     0.005 A 
ATOM     26  C   UNL d   1      -2.518  -7.322  -0.679  0.00  0.00     0.032 A 
ATOM     27  HN  UNL d   1      -5.011  -4.989  -3.204  1.00  0.00     0.197 HD
ENDBRANCH   1  17
TORSDOF 6
