REMARK  4 active torsions:
REMARK  status: ('A' for Active; 'I' for Inactive)
REMARK    1  A    between atoms: N_22  and  C_7 
REMARK    2  A    between atoms: N_21  and  C_8 
REMARK    3  A    between atoms: C_20  and  C_11 
REMARK    4  A    between atoms: C_19  and  C_12 
ROOT
ATOM      1  C   UNL d   1       2.888   1.606  -0.011  0.00  0.00     0.080 C 
ATOM      2  C   UNL d   1      -0.379  -4.489  -0.059  0.00  0.00     0.080 C 
ATOM      3  C   UNL d   1       1.281  -0.657  -0.285  0.00  0.00     0.120 A 
ATOM      4  C   UNL d   1       0.623  -1.887  -0.314  0.00  0.00     0.120 A 
ATOM      5  C   UNL d   1      -0.766  -1.989  -0.242  0.00  0.00     0.004 A 
ATOM      6  C   UNL d   1       0.571   0.524  -0.083  0.00  0.00     0.004 A 
ATOM      7  C   UNL d   1       0.926  -4.194   0.080  0.00  0.00     0.138 C 
ATOM      8  C   UNL d   1       3.426   0.398  -0.253  0.00  0.00     0.138 C 
ATOM      9  O   UNL d   1       1.436  -2.990  -0.355  0.00  0.00    -0.294 OA
ATOM     10  O   UNL d   1       2.640  -0.718  -0.446  0.00  0.00    -0.294 OA
ATOM     11  C   UNL d   1       1.386   1.819   0.029  0.00  0.00     0.103 C 
ATOM     12  C   UNL d   1      -1.378  -3.393  -0.367  0.00  0.00     0.103 C 
ATOM     13  C   UNL d   1      -0.851   0.456   0.058  0.00  0.00    -0.015 A 
ATOM     14  C   UNL d   1      -1.523  -0.800  -0.046  0.00  0.00    -0.015 A 
ATOM     15  C   UNL d   1       3.727   2.728   0.244  0.00  0.00     0.100 C 
ATOM     16  C   UNL d   1      -0.864  -5.804   0.196  0.00  0.00     0.100 C 
ATOM     17  N   UNL d   1       4.417   3.644   0.442  0.00  0.00    -0.191 NA
ATOM     18  N   UNL d   1      -1.284  -6.870   0.382  0.00  0.00    -0.191 NA
ATOM     19  C   UNL d   1      -2.934  -0.823   0.069  0.00  0.00     0.013 A 
ATOM     20  C   UNL d   1      -1.655   1.598   0.307  0.00  0.00     0.013 A 
ATOM     21  C   UNL d   1      -3.689   0.334   0.249  0.00  0.00     0.001 A 
ATOM     22  C   UNL d   1      -3.047   1.545   0.380  0.00  0.00     0.001 A 
ENDROOT
BRANCH   8  23
ATOM     23  N   UNL d   1       4.770   0.112  -0.339  0.00  0.00    -0.282 NA
ATOM     24  H   UNL d   1       5.370   0.890  -0.608  0.00  0.00     0.126 HD
ATOM     25  H   UNL d   1       4.948  -0.727  -0.889  0.00  0.00     0.126 HD
ENDBRANCH   8  23
BRANCH  11  26
ATOM     26  C   UNL d   1       0.979   2.888  -0.988  0.00  0.00    -0.044 A 
ATOM     27  C   UNL d   1       0.607   4.169  -0.532  0.00  0.00     0.011 A 
ATOM     28  C   UNL d   1       0.185   5.146  -1.432  0.00  0.00     0.043 A 
ATOM     29  C   UNL d   1       0.169   4.861  -2.790  0.00  0.00     0.116 A 
ATOM     30  C   UNL d   1       0.574   3.619  -3.267  0.00  0.00     0.043 A 
ATOM     31  F   UNL d   1      -0.245   5.797  -3.653  0.00  0.00    -0.206 F 
ATOM     32  C   UNL d   1       0.980   2.630  -2.369  0.00  0.00     0.011 A 
ENDBRANCH  11  26
BRANCH  12  33
ATOM     33  C   UNL d   1      -2.160  -3.582  -1.669  0.00  0.00    -0.044 A 
ATOM     34  C   UNL d   1      -1.568  -3.393  -2.928  0.00  0.00     0.011 A 
ATOM     35  C   UNL d   1      -2.355  -3.391  -4.085  0.00  0.00     0.043 A 
ATOM     36  C   UNL d   1      -3.728  -3.585  -3.989  0.00  0.00     0.116 A 
ATOM     37  C   UNL d   1      -4.328  -3.830  -2.763  0.00  0.00     0.043 A 
ATOM     38  F   UNL d   1      -4.485  -3.523  -5.092  0.00  0.00    -0.206 F 
ATOM     39  C   UNL d   1      -3.544  -3.852  -1.610  0.00  0.00     0.011 A 
ENDBRANCH  12  33
BRANCH   7  40
ATOM     40  N   UNL d   1       1.889  -4.988   0.667  0.00  0.00    -0.282 NA
ATOM     41  H   UNL d   1       1.623  -5.213   1.628  0.00  0.00     0.126 HD
ATOM     42  H   UNL d   1       2.764  -4.464   0.707  0.00  0.00     0.126 HD
ENDBRANCH   7  40
TORSDOF 4
