REMARK  3 active torsions:
REMARK  status: ('A' for Active; 'I' for Inactive)
REMARK    1  A    between atoms: N_16  and  C_5 
REMARK    2  A    between atoms: C_19  and  N_15 
REMARK    3  A    between atoms: C_20  and  C_19 
ROOT
ATOM      1  C   UNL d   1      -0.587   0.056   0.126  0.00  0.00     0.037 C 
ATOM      2  C   UNL d   1       1.882  -0.398   0.042  0.00  0.00     0.173 A 
ATOM      3  C   UNL d   1       0.862   0.516   0.105  0.00  0.00     0.032 A 
ATOM      4  C   UNL d   1      -0.590  -1.508   0.343  0.00  0.00     0.081 C 
ATOM      5  C   UNL d   1       0.537  -2.270   0.238  0.00  0.00     0.140 C 
ATOM      6  O   UNL d   1       1.804  -1.719   0.030  0.00  0.00    -0.279 OA
ATOM      7  N   UNL d   1       3.046   0.293  -0.017  0.00  0.00    -0.279 N 
ATOM      8  N   UNL d   1       2.863   1.624   0.017  0.00  0.00    -0.303 N 
ATOM      9  HN  UNL d   1       3.575   2.354   0.003  1.00  0.00     0.186 HD
ATOM     10  C   UNL d   1       1.529   1.775   0.074  0.00  0.00     0.033 A 
ATOM     11  C   UNL d   1      -1.809  -2.189   0.656  0.00  0.00     0.100 C 
ATOM     12  C   UNL d   1      -1.374   0.820   1.213  0.00  0.00     0.050 C 
ATOM     13  C   UNL d   1      -1.210   0.409  -1.242  0.00  0.00     0.050 C 
ATOM     14  N   UNL d   1      -2.780  -2.757   0.939  0.00  0.00    -0.191 NA
ATOM     15  N   UNL d   1      -3.465   0.799  -0.229  0.00  0.00     0.092 N 
ATOM     16  C   UNL d   1      -2.707   0.145  -1.303  0.00  0.00     0.274 C 
ATOM     17  C   UNL d   1      -2.896   0.682   1.119  0.00  0.00     0.274 C 
ATOM     18  C   UNL d   1       0.964   3.150   0.087  0.00  0.00     0.070 C 
ATOM     19  H   UNL d   1       3.990  -0.071  -0.080  0.00  0.00     0.189 HD
ENDROOT
BRANCH   5  20
ATOM     20  N   UNL d   1       0.580  -3.644   0.338  0.00  0.00    -0.282 NA
ATOM     21  H   UNL d   1      -0.181  -4.085   0.847  0.00  0.00     0.126 HD
ATOM     22  H   UNL d   1       1.499  -3.984   0.608  0.00  0.00     0.126 HD
ENDBRANCH   5  20
BRANCH  15  23
ATOM     23  C   UNL d   1      -4.859   0.286  -0.201  0.00  0.00     0.311 C 
BRANCH  23  24
ATOM     24  C   UNL d   1      -5.604   0.480  -1.503  0.00  0.00    -0.030 A 
ATOM     25  C   UNL d   1      -6.028  -0.625  -2.260  0.00  0.00     0.009 A 
ATOM     26  C   UNL d   1      -6.655  -0.438  -3.490  0.00  0.00     0.001 A 
ATOM     27  C   UNL d   1      -6.867   0.852  -3.975  0.00  0.00     0.000 A 
ATOM     28  C   UNL d   1      -6.463   1.955  -3.225  0.00  0.00     0.001 A 
ATOM     29  C   UNL d   1      -5.837   1.772  -1.994  0.00  0.00     0.009 A 
ENDBRANCH  23  24
ENDBRANCH  15  23
TORSDOF 3
