REMARK  3 active torsions:
REMARK  status: ('A' for Active; 'I' for Inactive)
REMARK    1  A    between atoms: C_2  and  C_1 
REMARK    2  A    between atoms: S_5  and  C_2 
REMARK    3  A    between atoms: C_11  and  S_5 
ROOT
ATOM      1  C   UNL d   1      -1.619  -2.482   0.265  0.00  0.00     0.247 C 
ATOM      2  O   UNL d   1      -1.132  -1.929   1.244  0.00  0.00    -0.277 OA
ENDROOT
BRANCH   1   3
ATOM      3  C   UNL d   1      -3.018  -2.197  -0.193  0.00  0.00     0.136 A 
ATOM      4  O   UNL d   1      -3.631  -3.055  -1.141  0.00  0.00    -0.271 OA
ATOM      5  C   UNL d   1      -4.911  -2.835  -1.561  0.00  0.00     0.288 A 
ATOM      6  O   UNL d   1      -5.477  -3.569  -2.362  0.00  0.00    -0.260 OA
ATOM      7  C   UNL d   1      -5.607  -1.657  -1.012  0.00  0.00     0.082 A 
ATOM      8  C   UNL d   1      -5.006  -0.856  -0.127  0.00  0.00     0.009 A 
ATOM      9  C   UNL d   1      -3.667  -1.136   0.311  0.00  0.00     0.042 A 
ENDBRANCH   1   3
BRANCH   1  10
ATOM     10  S   UNL d   1      -0.773  -3.665  -0.718  0.00  0.00    -0.046 SA
BRANCH  10  11
ATOM     11  C   UNL d   1       0.957  -3.528  -0.316  0.00  0.00     0.008 A 
ATOM     12  C   UNL d   1       1.586  -2.350   0.097  0.00  0.00     0.019 A 
ATOM     13  C   UNL d   1       2.964  -2.322   0.338  0.00  0.00     0.001 A 
ATOM     14  C   UNL d   1       3.733  -3.467   0.146  0.00  0.00     0.000 A 
ATOM     15  C   UNL d   1       3.125  -4.643  -0.284  0.00  0.00     0.001 A 
ATOM     16  C   UNL d   1       1.747  -4.672  -0.512  0.00  0.00     0.019 A 
ENDBRANCH  10  11
ENDBRANCH   1  10
TORSDOF 3
