REMARK  5 active torsions:
REMARK  status: ('A' for Active; 'I' for Inactive)
REMARK    1  A    between atoms: S_2  and  C_1 
REMARK    2  A    between atoms: N_6  and  S_2 
REMARK    3  A    between atoms: C_14  and  C_3 
REMARK    4  A    between atoms: C_7  and  N_13 
REMARK    5  A    between atoms: O_22  and  C_14 
ROOT
ATOM      1  N   UNL d   1       1.592   3.162  -1.093  0.00  0.00    -0.303 N 
ATOM      2  N   UNL d   1      -0.583   2.370  -2.959  0.00  0.00     0.105 N 
ATOM      3  C   UNL d   1       0.388   4.004  -1.268  0.00  0.00     0.165 C 
ATOM      4  C   UNL d   1       1.909   2.345  -2.283  0.00  0.00     0.165 C 
ATOM      5  C   UNL d   1      -0.801   3.142  -1.719  0.00  0.00     0.294 C 
ATOM      6  C   UNL d   1       0.680   1.620  -2.881  0.00  0.00     0.294 C 
ENDROOT
BRANCH   1   7
ATOM      7  S   UNL d   1       1.872   2.519   0.440  0.00  0.00     0.264 S 
ATOM      8  O   UNL d   1       2.951   1.557   0.397  0.00  0.00    -0.200 OA
ATOM      9  O   UNL d   1       0.601   2.189   1.037  0.00  0.00    -0.200 OA
BRANCH   7  10
ATOM     10  C   UNL d   1       2.517   3.817   1.380  0.00  0.00     0.127 A 
ATOM     11  C   UNL d   1       3.790   4.451   1.171  0.00  0.00     0.094 A 
ATOM     12  C   UNL d   1       3.833   5.477   2.106  0.00  0.00     0.067 A 
ATOM     13  C   UNL d   1       4.796   6.559   2.413  0.00  0.00     0.078 C 
ATOM     14  O   UNL d   1       2.719   5.468   2.881  0.00  0.00    -0.318 OA
ATOM     15  C   UNL d   1       1.916   4.455   2.452  0.00  0.00     0.073 A 
ATOM     16  C   UNL d   1       0.663   4.319   3.225  0.00  0.00     0.078 C 
BRANCH  11  17
ATOM     17  C   UNL d   1       4.872   4.179   0.234  0.00  0.00     0.297 C 
ATOM     18  O   UNL d   1       6.012   4.596   0.397  0.00  0.00    -0.259 OA
BRANCH  17  19
ATOM     19  O   UNL d   1       4.496   3.455  -0.853  0.00  0.00    -0.322 OA
ATOM     20  C   UNL d   1       5.558   3.169  -1.765  0.00  0.00     0.213 C 
ENDBRANCH  17  19
ENDBRANCH  11  17
ENDBRANCH   7  10
ENDBRANCH   1   7
BRANCH   2  21
ATOM     21  C   UNL d   1      -0.873   3.049  -4.240  0.00  0.00     0.290 C 
ATOM     22  C   UNL d   1       0.078   4.171  -4.644  0.00  0.00    -0.009 C 
ATOM     23  C   UNL d   1      -0.571   5.421  -4.545  0.00  0.00    -0.017 C 
ATOM     24  C   UNL d   1       1.393   4.086  -5.080  0.00  0.00     0.010 C 
ATOM     25  C   UNL d   1       0.143   6.597  -4.709  0.00  0.00     0.013 C 
ATOM     26  C   UNL d   1      -1.975   5.198  -4.273  0.00  0.00    -0.017 A 
ATOM     27  C   UNL d   1       1.502   6.513  -5.027  0.00  0.00     0.001 C 
ATOM     28  C   UNL d   1       2.114   5.269  -5.243  0.00  0.00     0.001 C 
ATOM     29  C   UNL d   1      -2.204   3.808  -4.170  0.00  0.00    -0.009 A 
ATOM     30  C   UNL d   1      -3.018   6.093  -4.105  0.00  0.00     0.013 A 
ATOM     31  C   UNL d   1      -3.469   3.297  -3.909  0.00  0.00     0.010 A 
ATOM     32  C   UNL d   1      -4.515   4.202  -3.726  0.00  0.00     0.001 A 
ATOM     33  C   UNL d   1      -4.291   5.586  -3.820  0.00  0.00     0.001 A 
ENDBRANCH   2  21
TORSDOF 5
