REMARK  6 active torsions:
REMARK  status: ('A' for Active; 'I' for Inactive)
REMARK    1  A    between atoms: C_7  and  C_1 
REMARK    2  A    between atoms: C_2  and  C_6 
REMARK    3  A    between atoms: C_3  and  C_5 
REMARK       I    between atoms: N_9  and  C_3 
REMARK       I    between atoms: C_4  and  N_8 
REMARK    4  A    between atoms: C_5  and  C_4 
REMARK    5  A    between atoms: N_8  and  C_13 
REMARK    6  A    between atoms: C_12  and  N_9 
ROOT
ATOM      1  C   UNL d   1       3.536  -3.453  -0.304  0.00  0.00     0.206 C 
ENDROOT
BRANCH   1   2
ATOM      2  C   UNL d   1       2.474  -2.959   0.638  0.00  0.00     0.231 C 
ATOM      3  N   UNL d   1       2.714  -3.260   1.965  0.00  0.00    -0.327 N 
ATOM      4  H   UNL d   1       3.412  -3.966   2.169  0.00  0.00     0.169 HD
ATOM      5  O   UNL d   1       1.477  -2.391   0.198  0.00  0.00    -0.273 OA
BRANCH   3   6
ATOM      6  C   UNL d   1       1.952  -2.806   3.060  0.00  0.00     0.035 A 
ATOM      7  C   UNL d   1       1.111  -1.692   2.989  0.00  0.00     0.045 A 
ATOM      8  C   UNL d   1       0.386  -1.263   4.112  0.00  0.00     0.050 A 
ATOM      9  C   UNL d   1       0.491  -1.988   5.306  0.00  0.00     0.016 A 
ATOM     10  C   UNL d   1       1.336  -3.094   5.386  0.00  0.00     0.003 A 
ATOM     11  C   UNL d   1       2.080  -3.489   4.273  0.00  0.00     0.029 A 
BRANCH   8  12
ATOM     12  C   UNL d   1      -0.485  -0.033   4.043  0.00  0.00     0.417 C 
ATOM     13  F   UNL d   1      -0.373   0.657   2.874  0.00  0.00    -0.166 F 
ATOM     14  F   UNL d   1      -1.808  -0.322   4.183  0.00  0.00    -0.166 F 
ATOM     15  F   UNL d   1      -0.193   0.863   5.028  0.00  0.00    -0.166 F 
ENDBRANCH   8  12
ENDBRANCH   3   6
ENDBRANCH   1   2
BRANCH   1  16
ATOM     16  C   UNL d   1       3.074  -4.404  -1.382  0.00  0.00     0.231 C 
ATOM     17  N   UNL d   1       1.723  -4.414  -1.661  0.00  0.00    -0.327 N 
ATOM     18  H   UNL d   1       1.149  -3.712  -1.189  0.00  0.00     0.169 HD
ATOM     19  O   UNL d   1       3.928  -5.077  -1.959  0.00  0.00    -0.273 OA
BRANCH  17  20
ATOM     20  C   UNL d   1       1.054  -5.207  -2.617  0.00  0.00     0.035 A 
ATOM     21  C   UNL d   1       1.679  -6.206  -3.367  0.00  0.00     0.045 A 
ATOM     22  C   UNL d   1       0.980  -6.923  -4.353  0.00  0.00     0.050 A 
ATOM     23  C   UNL d   1      -0.377  -6.643  -4.562  0.00  0.00     0.016 A 
ATOM     24  C   UNL d   1      -1.021  -5.674  -3.794  0.00  0.00     0.003 A 
ATOM     25  C   UNL d   1      -0.309  -4.962  -2.825  0.00  0.00     0.029 A 
BRANCH  22  26
ATOM     26  C   UNL d   1       1.686  -7.952  -5.199  0.00  0.00     0.417 C 
ATOM     27  F   UNL d   1       2.958  -8.223  -4.795  0.00  0.00    -0.166 F 
ATOM     28  F   UNL d   1       1.783  -7.570  -6.503  0.00  0.00    -0.166 F 
ATOM     29  F   UNL d   1       1.039  -9.151  -5.210  0.00  0.00    -0.166 F 
ENDBRANCH  22  26
ENDBRANCH  17  20
ENDBRANCH   1  16
TORSDOF 6
