REMARK  4 active torsions:
REMARK  status: ('A' for Active; 'I' for Inactive)
REMARK    1  A    between atoms: N_7  and  C_5 
REMARK    2  A    between atoms: C_13  and  C_6 
REMARK    3  A    between atoms: O_21  and  C_13 
REMARK    4  A    between atoms: C_25  and  O_21 
ROOT
ATOM      1  C   UNL d   1       1.571  -0.847  -0.081  0.00  0.00     0.146 A 
ATOM      2  N   UNL d   1       0.946  -2.052  -0.049  0.00  0.00    -0.326 N 
ATOM      3  HN  UNL d   1       1.491  -2.914  -0.069  1.00  0.00     0.169 HD
ATOM      4  N   UNL d   1       0.876   0.345  -0.095  0.00  0.00    -0.238 N 
ATOM      5  C   UNL d   1      -0.364  -2.101   0.007  0.00  0.00     0.117 A 
ATOM      6  C   UNL d   1       2.909  -0.497  -0.085  0.00  0.00     0.102 A 
ATOM      7  N   UNL d   1       1.676   1.435  -0.092  0.00  0.00    -0.302 N 
ATOM      8  HN  UNL d   1       1.405   2.419  -0.100  1.00  0.00     0.186 HD
ATOM      9  C   UNL d   1      -1.192  -0.835  -0.010  0.00  0.00     0.037 A 
ATOM     10  C   UNL d   1      -0.522   0.395  -0.079  0.00  0.00     0.072 A 
ATOM     11  C   UNL d   1       2.906   0.915  -0.076  0.00  0.00     0.129 A 
ATOM     12  C   UNL d   1      -2.584  -0.822   0.107  0.00  0.00     0.017 A 
ATOM     13  C   UNL d   1      -1.210   1.611  -0.090  0.00  0.00     0.032 A 
ATOM     14  C   UNL d   1      -3.284   0.387   0.086  0.00  0.00     0.001 A 
ATOM     15  C   UNL d   1      -2.603   1.600  -0.018  0.00  0.00     0.002 A 
ENDROOT
BRANCH   5  16
ATOM     16  N   UNL d   1      -0.959  -3.347   0.186  0.00  0.00    -0.366 N 
ATOM     17  C   UNL d   1      -1.934  -3.913  -0.753  0.00  0.00     0.128 C 
ATOM     18  C   UNL d   1      -2.950  -4.739   0.061  0.00  0.00    -0.000 C 
ATOM     19  C   UNL d   1      -4.024  -5.353  -0.832  0.00  0.00     0.011 C 
ATOM     20  C   UNL d   1      -2.230  -5.830   0.879  0.00  0.00     0.011 C 
ATOM     21  C   UNL d   1      -1.105  -5.224   1.731  0.00  0.00    -0.000 C 
ATOM     22  C   UNL d   1      -0.164  -4.395   0.851  0.00  0.00     0.128 C 
ATOM     23  C   UNL d   1      -0.329  -6.297   2.487  0.00  0.00     0.011 C 
ENDBRANCH   5  16
BRANCH   6  24
ATOM     24  C   UNL d   1       4.062  -1.369  -0.130  0.00  0.00     0.298 C 
ATOM     25  O   UNL d   1       5.208  -0.944  -0.224  0.00  0.00    -0.259 OA
BRANCH  24  26
ATOM     26  O   UNL d   1       3.729  -2.690  -0.146  0.00  0.00    -0.318 OA
BRANCH  26  27
ATOM     27  C   UNL d   1       4.713  -3.587  -0.666  0.00  0.00     0.174 C 
ATOM     28  C   UNL d   1       4.573  -3.621  -2.178  0.00  0.00     0.034 C 
ENDBRANCH  26  27
ENDBRANCH  24  26
ENDBRANCH   6  24
TORSDOF 4
