REMARK  2 active torsions:
REMARK  status: ('A' for Active; 'I' for Inactive)
REMARK    1  A    between atoms: C_8  and  C_4 
REMARK    2  A    between atoms: O_12  and  C_10 
ROOT
ATOM      1  C   UNL d   1       1.861   0.516   0.121  0.00  0.00    -0.002 A 
ATOM      2  C   UNL d   1       0.802   1.566   0.267  0.00  0.00     0.189 A 
ATOM      3  C   UNL d   1      -0.456   0.855   0.544  0.00  0.00     0.021 A 
ATOM      4  C   UNL d   1       3.156   0.818  -0.035  0.00  0.00     0.023 C 
ATOM      5  C   UNL d   1      -0.219  -0.520   0.543  0.00  0.00    -0.040 A 
ATOM      6  C   UNL d   1       1.209  -0.840   0.226  0.00  0.00     0.082 A 
ATOM      7  O   UNL d   1       0.945   2.768   0.185  0.00  0.00    -0.287 OA
ATOM      8  C   UNL d   1      -1.705   1.391   0.799  0.00  0.00     0.016 A 
ATOM      9  C   UNL d   1      -1.246  -1.407   0.816  0.00  0.00     0.008 A 
ATOM     10  C   UNL d   1      -2.745   0.500   1.076  0.00  0.00     0.001 A 
ATOM     11  C   UNL d   1      -2.515  -0.888   1.088  0.00  0.00     0.001 A 
ENDROOT
BRANCH   4  12
ATOM     12  C   UNL d   1       4.174  -0.224  -0.178  0.00  0.00    -0.033 A 
ATOM     13  C   UNL d   1       4.487  -0.707  -1.455  0.00  0.00     0.048 A 
ATOM     14  C   UNL d   1       5.412  -1.741  -1.612  0.00  0.00     0.069 A 
ATOM     15  C   UNL d   1       6.033  -2.281  -0.483  0.00  0.00     0.037 A 
ATOM     16  C   UNL d   1       5.730  -1.800   0.792  0.00  0.00     0.004 A 
ATOM     17  C   UNL d   1       4.796  -0.775   0.946  0.00  0.00     0.011 A 
BRANCH  14  18
ATOM     18  O   UNL d   1       5.784  -2.303  -2.804  0.00  0.00    -0.356 OA
ATOM     19  C   UNL d   1       5.156  -1.782  -3.971  0.00  0.00     0.210 C 
ENDBRANCH  14  18
ENDBRANCH   4  12
TORSDOF 2
