REMARK  4 active torsions:
REMARK  status: ('A' for Active; 'I' for Inactive)
REMARK    1  A    between atoms: N_5  and  C_3 
REMARK    2  A    between atoms: C_11  and  C_4 
REMARK       I    between atoms: C_6  and  N_5 
REMARK       I    between atoms: N_12  and  C_6 
REMARK    3  A    between atoms: C_7  and  C_10 
REMARK    4  A    between atoms: C_21  and  N_12 
ROOT
ATOM      1  N   UNL d   1       1.244  -0.548   0.465  0.00  0.00    -0.336 N 
ATOM      2  HN  UNL d   1       2.081  -1.088   0.681  1.00  0.00     0.168 HD
ATOM      3  C   UNL d   1       1.204   0.825   0.337  0.00  0.00     0.116 A 
ATOM      4  C   UNL d   1       0.043  -1.065   0.269  0.00  0.00     0.086 A 
ATOM      5  S   UNL d   1      -1.198   0.100  -0.021  0.00  0.00    -0.080 SA
ATOM      6  C   UNL d   1      -0.040   1.353   0.071  0.00  0.00     0.100 A 
ENDROOT
BRANCH   4   7
ATOM      7  C   UNL d   1      -0.234  -2.514   0.205  0.00  0.00    -0.002 A 
ATOM      8  C   UNL d   1      -1.512  -3.067   0.383  0.00  0.00     0.015 A 
ATOM      9  C   UNL d   1      -1.725  -4.446   0.255  0.00  0.00     0.017 A 
ATOM     10  C   UNL d   1      -0.664  -5.309  -0.048  0.00  0.00     0.048 A 
ATOM     11  C   UNL d   1       0.620  -4.766  -0.201  0.00  0.00     0.017 A 
ATOM     12  C   UNL d   1       0.829  -3.390  -0.071  0.00  0.00     0.015 A 
BRANCH  10  13
ATOM     13  C   UNL d   1      -0.878  -6.793  -0.222  0.00  0.00     0.417 C 
ATOM     14  F   UNL d   1      -2.169  -7.183  -0.035  0.00  0.00    -0.166 F 
ATOM     15  F   UNL d   1      -0.535  -7.223  -1.468  0.00  0.00    -0.166 F 
ATOM     16  F   UNL d   1      -0.134  -7.533   0.647  0.00  0.00    -0.166 F 
ENDBRANCH  10  13
ENDBRANCH   4   7
BRANCH   3  17
ATOM     17  N   UNL d   1       2.335   1.605   0.435  0.00  0.00    -0.294 N 
ATOM     18  C   UNL d   1       3.619   1.237   0.698  0.00  0.00     0.322 C 
ATOM     19  N   UNL d   1       3.841  -0.064   1.019  0.00  0.00    -0.339 N 
ATOM     20  O   UNL d   1       4.501   2.093   0.650  0.00  0.00    -0.247 OA
ATOM     21  H   UNL d   1       3.025  -0.668   0.967  0.00  0.00     0.164 HD
ATOM     22  H   UNL d   1       2.241   2.593   0.253  0.00  0.00     0.172 HD
BRANCH  19  23
ATOM     23  C   UNL d   1       5.143  -0.656   1.282  0.00  0.00     0.078 C 
ATOM     24  C   UNL d   1       6.038  -0.639   0.045  0.00  0.00     0.032 C 
ATOM     25  C   UNL d   1       5.844  -0.024   2.484  0.00  0.00     0.032 C 
ENDBRANCH  19  23
ENDBRANCH   3  17
TORSDOF 4
