REMARK  5 active torsions:
REMARK  status: ('A' for Active; 'I' for Inactive)
REMARK    1  A    between atoms: C_2  and  N_1 
REMARK    2  A    between atoms: N_10  and  C_3 
REMARK    3  A    between atoms: C_15  and  N_10 
REMARK    4  A    between atoms: C_11  and  C_13 
REMARK    5  A    between atoms: C_13  and  C_15 
ROOT
ATOM      1  N   UNL d   1      -1.013  -1.030   1.553  0.00  0.00    -0.291 NA
ATOM      2  H   UNL d   1      -2.034  -1.161   1.550  0.00  0.00     0.127 HD
ENDROOT
BRANCH   1   3
ATOM      3  C   UNL d   1      -0.699   0.341   1.356  0.00  0.00     0.041 A 
ATOM      4  C   UNL d   1      -1.549   1.392   1.760  0.00  0.00     0.124 A 
ATOM      5  C   UNL d   1      -1.217   2.749   1.566  0.00  0.00     0.044 A 
ATOM      6  C   UNL d   1       0.007   3.092   0.989  0.00  0.00    -0.060 A 
ATOM      7  C   UNL d   1       0.903   2.073   0.671  0.00  0.00     0.009 A 
ATOM      8  C   UNL d   1       0.381   4.519   0.722  0.00  0.00     0.048 C 
ATOM      9  C   UNL d   1       0.561   0.729   0.870  0.00  0.00     0.026 A 
BRANCH   4  10
ATOM     10  N   UNL d   1      -2.841   1.113   2.382  0.00  0.00    -0.114 N 
ATOM     11  O   UNL d   1      -3.516   0.183   1.912  0.00  0.00    -0.532 OA
ATOM     12  O   UNL d   1      -3.191   1.841   3.322  0.00  0.00    -0.532 OA
ENDBRANCH   4  10
ENDBRANCH   1   3
BRANCH   1  13
ATOM     13  C   UNL d   1      -0.355  -1.976   0.633  0.00  0.00     0.098 C 
BRANCH  13  14
ATOM     14  C   UNL d   1      -0.875  -3.404   0.793  0.00  0.00     0.071 C 
BRANCH  14  15
ATOM     15  C   UNL d   1      -0.118  -4.307  -0.154  0.00  0.00     0.010 A 
ATOM     16  N   UNL d   1      -0.237  -4.033  -1.477  0.00  0.00    -0.369 N 
ATOM     17  C   UNL d   1       0.486  -4.780  -2.340  0.00  0.00     0.088 A 
ATOM     18  HN  UNL d   1      -0.852  -3.290  -1.809  1.00  0.00     0.165 HD
ATOM     19  C   UNL d   1       1.330  -5.802  -1.949  0.00  0.00     0.017 A 
ATOM     20  C   UNL d   1       1.435  -6.081  -0.592  0.00  0.00     0.003 A 
ATOM     21  C   UNL d   1       0.702  -5.326   0.323  0.00  0.00     0.025 A 
ENDBRANCH  14  15
ENDBRANCH  13  14
ENDBRANCH   1  13
TORSDOF 5
