REMARK  5 active torsions:
REMARK  status: ('A' for Active; 'I' for Inactive)
REMARK    1  A    between atoms: C_9  and  C_2 
REMARK    2  A    between atoms: C_5  and  O_8 
REMARK    3  A    between atoms: C_10  and  C_5 
REMARK    4  A    between atoms: O_8  and  C_16 
REMARK    5  A    between atoms: O_22  and  C_17 
ROOT
ATOM      1  C   UNL d   1       6.675  -3.481   3.803  0.00  0.00    -0.008 A 
ATOM      2  C   UNL d   1       7.417  -4.402   3.046  0.00  0.00     0.016 A 
ATOM      3  C   UNL d   1       5.613  -2.809   3.180  0.00  0.00     0.016 A 
ATOM      4  C   UNL d   1       6.021  -4.016   1.119  0.00  0.00     0.079 A 
ATOM      5  C   UNL d   1       7.094  -4.671   1.710  0.00  0.00     0.038 A 
ATOM      6  C   UNL d   1       5.288  -3.074   1.845  0.00  0.00     0.038 A 
ENDROOT
BRANCH   4   7
ATOM      7  O   UNL d   1       5.578  -4.218  -0.213  0.00  0.00    -0.275 OA
BRANCH   7   8
ATOM      8  C   UNL d   1       6.053  -5.178  -1.101  0.00  0.00     0.298 C 
ATOM      9  O   UNL d   1       6.946  -5.987  -0.906  0.00  0.00    -0.259 OA
BRANCH   8  10
ATOM     10  C   UNL d   1       5.308  -5.094  -2.390  0.00  0.00     0.040 A 
ATOM     11  C   UNL d   1       5.683  -5.963  -3.426  0.00  0.00     0.020 A 
ATOM     12  C   UNL d   1       5.051  -5.903  -4.675  0.00  0.00     0.038 A 
ATOM     13  C   UNL d   1       4.039  -4.972  -4.898  0.00  0.00     0.068 A 
ATOM     14  C   UNL d   1       3.627  -4.139  -3.856  0.00  0.00     0.038 A 
ATOM     15  C   UNL d   1       4.261  -4.189  -2.609  0.00  0.00     0.020 A 
BRANCH  13  16
ATOM     16  O   UNL d   1       3.360  -4.824  -6.076  0.00  0.00    -0.356 OA
ATOM     17  C   UNL d   1       4.136  -5.047  -7.251  0.00  0.00     0.210 C 
ENDBRANCH  13  16
ENDBRANCH   8  10
ENDBRANCH   7   8
ENDBRANCH   4   7
BRANCH   1  18
ATOM     18  C   UNL d   1       7.023  -3.246   5.200  0.00  0.00     0.063 A 
ATOM     19  N   UNL d   1       8.316  -3.462   5.670  0.00  0.00    -0.292 N 
ATOM     20  N   UNL d   1       8.426  -3.203   6.962  0.00  0.00    -0.061 NA
ATOM     21  HN  UNL d   1       9.088  -3.782   5.086  1.00  0.00     0.183 HD
ATOM     22  S   UNL d   1       6.984  -2.713   7.652  0.00  0.00    -0.010 SA
ATOM     23  C   UNL d   1       6.124  -2.832   6.170  0.00  0.00     0.096 A 
ENDBRANCH   1  18
TORSDOF 5
