REMARK  6 active torsions:
REMARK  status: ('A' for Active; 'I' for Inactive)
REMARK    1  A    between atoms: N_6  and  C_1 
REMARK       I    between atoms: C_8  and  N_7 
REMARK    2  A    between atoms: C_9  and  C_8 
REMARK    3  A    between atoms: C_10  and  C_9 
REMARK    4  A    between atoms: C_18  and  C_10 
REMARK    5  A    between atoms: C_11  and  C_18 
REMARK    6  A    between atoms: O_19  and  C_11 
ROOT
ATOM      1  N   UNL d   1       0.072   2.445   1.019  0.00  0.00     0.105 N 
ATOM      2  N   UNL d   1      -2.150   2.197   2.997  0.00  0.00    -0.349 N 
ATOM      3  C   UNL d   1      -3.329   1.859   3.664  0.00  0.00     0.220 C 
ATOM      4  C   UNL d   1       0.245   1.789   2.328  0.00  0.00     0.293 C 
ATOM      5  C   UNL d   1      -1.029   3.413   1.084  0.00  0.00     0.293 C 
ATOM      6  C   UNL d   1      -2.333   2.916   1.739  0.00  0.00     0.156 C 
ATOM      7  C   UNL d   1      -1.028   1.248   3.003  0.00  0.00     0.156 C 
ATOM      8  O   UNL d   1      -4.437   2.022   3.149  0.00  0.00    -0.273 OA
ENDROOT
BRANCH   1   9
ATOM      9  C   UNL d   1       0.128   1.608  -0.196  0.00  0.00     0.290 C 
ATOM     10  C   UNL d   1      -1.001   0.598  -0.393  0.00  0.00    -0.009 C 
ATOM     11  C   UNL d   1      -0.525  -0.714  -0.191  0.00  0.00    -0.017 C 
ATOM     12  C   UNL d   1      -2.315   0.819  -0.775  0.00  0.00     0.010 C 
ATOM     13  C   UNL d   1      -1.406  -1.781  -0.154  0.00  0.00     0.013 C 
ATOM     14  C   UNL d   1       0.921  -0.673  -0.104  0.00  0.00    -0.017 A 
ATOM     15  C   UNL d   1      -2.763  -1.535  -0.387  0.00  0.00     0.001 C 
ATOM     16  C   UNL d   1      -3.208  -0.252  -0.736  0.00  0.00     0.001 C 
ATOM     17  C   UNL d   1       1.343   0.675  -0.175  0.00  0.00    -0.009 A 
ATOM     18  C   UNL d   1       1.853  -1.694  -0.029  0.00  0.00     0.013 A 
ATOM     19  C   UNL d   1       2.688   1.017  -0.173  0.00  0.00     0.010 A 
ATOM     20  C   UNL d   1       3.624  -0.014  -0.096  0.00  0.00     0.001 A 
ATOM     21  C   UNL d   1       3.211  -1.355  -0.023  0.00  0.00     0.001 A 
ENDBRANCH   1   9
BRANCH   3  22
ATOM     22  C   UNL d   1      -3.180   1.247   5.052  0.00  0.00     0.112 C 
BRANCH  22  23
ATOM     23  C   UNL d   1      -4.498   0.993   5.843  0.00  0.00    -0.030 C 
ATOM     24  C   UNL d   1      -4.099   0.366   7.199  0.00  0.00     0.016 C 
ATOM     25  C   UNL d   1      -5.230   2.316   6.151  0.00  0.00     0.016 C 
BRANCH  23  26
ATOM     26  C   UNL d   1      -5.497   0.058   5.112  0.00  0.00     0.119 C 
BRANCH  26  27
ATOM     27  C   UNL d   1      -4.902  -1.241   4.627  0.00  0.00     0.140 C 
ATOM     28  O   UNL d   1      -4.794  -2.240   5.314  0.00  0.00    -0.650 OA
BRANCH  27  29
ATOM     29  O   UNL d   1      -4.455  -1.181   3.353  0.00  0.00    -0.776 OA
ATOM     30  H   UNL d   1      -4.619  -0.320   2.918  0.00  0.00     0.167 HD
ENDBRANCH  27  29
ENDBRANCH  26  27
ENDBRANCH  23  26
ENDBRANCH  22  23
ENDBRANCH   3  22
TORSDOF 6
