REMARK  1 active torsions:
REMARK  status: ('A' for Active; 'I' for Inactive)
REMARK    1  A    between atoms: C_7  and  C_2 
ROOT
ATOM      1  C   UNL d   1       0.050  -1.456   0.640  0.00  0.00     0.051 A 
ATOM      2  C   UNL d   1       1.247  -1.462   0.046  0.00  0.00     0.024 A 
ATOM      3  S   UNL d   1       1.832  -0.043  -0.741  0.00  0.00    -0.051 SA
ATOM      4  C   UNL d   1      -0.711  -0.192   0.554  0.00  0.00     0.080 A 
ATOM      5  S   UNL d   1       0.149   1.045  -0.352  0.00  0.00    -0.041 SA
ATOM      6  S   UNL d   1      -2.225   0.058   1.216  0.00  0.00    -0.072 SA
ENDROOT
BRANCH   2   7
ATOM      7  C   UNL d   1       2.104  -2.649   0.000  0.00  0.00    -0.018 A 
ATOM      8  C   UNL d   1       1.988  -3.554  -1.064  0.00  0.00     0.013 A 
ATOM      9  C   UNL d   1       2.821  -4.672  -1.135  0.00  0.00     0.001 A 
ATOM     10  C   UNL d   1       3.772  -4.897  -0.141  0.00  0.00     0.000 A 
ATOM     11  C   UNL d   1       3.884  -4.011   0.930  0.00  0.00     0.001 A 
ATOM     12  C   UNL d   1       3.050  -2.893   1.005  0.00  0.00     0.013 A 
ENDBRANCH   2   7
TORSDOF 1
