REMARK  1 active torsions:
REMARK  status: ('A' for Active; 'I' for Inactive)
REMARK    1  A    between atoms: C_4  and  N_1 
ROOT
ATOM      1  N   UNL d   1       2.180   0.729   0.256  0.00  0.00    -0.349 N 
ATOM      2  C   UNL d   1      -0.255   0.623  -0.044  0.00  0.00    -0.022 A 
ATOM      3  C   UNL d   1       0.967   1.507  -0.110  0.00  0.00     0.116 C 
ATOM      4  C   UNL d   1      -0.183  -0.754   0.066  0.00  0.00    -0.008 A 
ATOM      5  C   UNL d   1       2.267  -0.647  -0.282  0.00  0.00     0.131 C 
ATOM      6  S   UNL d   1      -1.708  -1.502   0.106  0.00  0.00    -0.106 SA
ATOM      7  C   UNL d   1       1.092  -1.523   0.185  0.00  0.00     0.066 C 
ATOM      8  C   UNL d   1      -1.616   1.060  -0.075  0.00  0.00     0.017 A 
ATOM      9  C   UNL d   1      -2.505   0.009  -0.004  0.00  0.00     0.051 A 
ATOM     10  C   UNL d   1       1.156   2.118  -1.502  0.00  0.00     0.037 C 
ENDROOT
BRANCH   1  11
ATOM     11  C   UNL d   1       3.051   1.152   1.235  0.00  0.00     0.170 C 
ATOM     12  S   UNL d   1       2.619   1.918   2.658  0.00  0.00    -0.041 SA
ATOM     13  N   UNL d   1       4.383   0.927   1.038  0.00  0.00    -0.371 N 
ATOM     14  C   UNL d   1       5.066   0.851  -0.239  0.00  0.00     0.148 C 
ATOM     15  H   UNL d   1       4.947   1.263   1.811  0.00  0.00     0.161 HD
ENDBRANCH   1  11
TORSDOF 1
