REMARK  4 active torsions:
REMARK  status: ('A' for Active; 'I' for Inactive)
REMARK    1  A    between atoms: N_14  and  C_3 
REMARK    2  A    between atoms: C_21  and  C_9 
REMARK    3  A    between atoms: N_15  and  N_14 
REMARK    4  A    between atoms: C_25  and  C_24 
ROOT
ATOM      1  N   UNL d   1       0.170  -0.841   0.074  0.00  0.00    -0.067 N 
ATOM      2  C   UNL d   1       0.190   0.555   0.021  0.00  0.00     0.706 A 
ATOM      3  C   UNL d   1      -1.031  -1.563   0.012  0.00  0.00     0.162 A 
ATOM      4  N   UNL d   1      -0.961   1.289  -0.006  0.00  0.00    -0.189 N 
ATOM      5  HN  UNL d   1      -0.945   2.309  -0.018  1.00  0.00     0.184 HD
ATOM      6  C   UNL d   1      -2.182  -0.871  -0.064  0.00  0.00     0.083 A 
ATOM      7  N   UNL d   1       1.440   0.963   0.003  0.00  0.00    -0.184 N 
ATOM      8  HN  UNL d   1       1.791   1.920  -0.045  1.00  0.00     0.185 HD
ATOM      9  C   UNL d   1      -2.081   0.623  -0.017  0.00  0.00     0.063 A 
ATOM     10  N   UNL d   1       1.446  -1.320   0.129  0.00  0.00    -0.273 N 
ATOM     11  HN  UNL d   1       1.771  -2.284   0.199  1.00  0.00     0.189 HD
ATOM     12  C   UNL d   1       2.156  -0.193   0.065  0.00  0.00     0.215 A 
ENDROOT
BRANCH   3  13
ATOM     13  N   UNL d   1      -0.946  -2.954  -0.023  0.00  0.00    -0.284 N 
ATOM     14  H   UNL d   1       0.035  -3.256   0.049  0.00  0.00     0.188 HD
BRANCH  13  15
ATOM     15  N   UNL d   1      -1.735  -3.638  -0.898  0.00  0.00    -0.309 N 
ATOM     16  C   UNL d   1      -1.546  -4.918  -0.935  0.00  0.00     0.118 C 
ATOM     17  HN  UNL d   1      -2.427  -3.173  -1.485  1.00  0.00     0.186 HD
BRANCH  16  18
ATOM     18  C   UNL d   1      -2.245  -5.752  -1.932  0.00  0.00    -0.017 A 
ATOM     19  C   UNL d   1      -2.169  -7.144  -1.833  0.00  0.00     0.052 A 
ATOM     20  C   UNL d   1      -2.837  -7.879  -2.792  0.00  0.00     0.105 A 
ATOM     21  O   UNL d   1      -2.896  -9.237  -2.850  0.00  0.00    -0.323 OA
ATOM     22  C   UNL d   1      -3.537  -7.281  -3.817  0.00  0.00     0.105 A 
ATOM     23  C   UNL d   1      -3.756  -9.423  -3.995  0.00  0.00     0.352 A 
ATOM     24  O   UNL d   1      -4.122  -8.188  -4.644  0.00  0.00    -0.323 OA
ATOM     25  C   UNL d   1      -3.611  -5.912  -3.947  0.00  0.00     0.040 A 
ATOM     26  C   UNL d   1      -2.958  -5.138  -2.986  0.00  0.00     0.016 A 
ENDBRANCH  16  18
ENDBRANCH  13  15
ENDBRANCH   3  13
BRANCH   9  27
ATOM     27  C   UNL d   1      -3.373   1.374   0.014  0.00  0.00    -0.009 A 
ATOM     28  C   UNL d   1      -4.505   0.858   0.663  0.00  0.00     0.014 A 
ATOM     29  C   UNL d   1      -5.692   1.594   0.698  0.00  0.00     0.001 A 
ATOM     30  C   UNL d   1      -5.753   2.849   0.094  0.00  0.00     0.000 A 
ATOM     31  C   UNL d   1      -4.627   3.374  -0.539  0.00  0.00     0.001 A 
ATOM     32  C   UNL d   1      -3.438   2.641  -0.576  0.00  0.00     0.014 A 
ENDBRANCH   9  27
TORSDOF 4
