REMARK  1 active torsions:
REMARK  status: ('A' for Active; 'I' for Inactive)
REMARK    1  A    between atoms: C_6  and  N_1 
ROOT
ATOM      1  N   UNL d   1       2.438  -0.592  -0.105  0.00  0.00    -0.252 N 
ATOM      2  C   UNL d   1       2.404   0.809  -0.127  0.00  0.00     0.186 A 
ATOM      3  C   UNL d   1       1.286  -1.393   0.027  0.00  0.00     0.267 A 
ATOM      4  C   UNL d   1      -0.015  -0.700   0.002  0.00  0.00     0.059 A 
ATOM      5  N   UNL d   1       1.167   1.395  -0.036  0.00  0.00    -0.332 N 
ATOM      6  C   UNL d   1      -0.032   0.687  -0.012  0.00  0.00     0.050 A 
ATOM      7  S   UNL d   1       3.696   1.870  -0.313  0.00  0.00    -0.040 SA
ATOM      8  O   UNL d   1       1.292  -2.612   0.206  0.00  0.00    -0.267 OA
ATOM      9  C   UNL d   1      -1.216  -1.419   0.000  0.00  0.00     0.019 A 
ATOM     10  C   UNL d   1      -1.246   1.375  -0.021  0.00  0.00     0.030 A 
ATOM     11  C   UNL d   1      -2.432  -0.735  -0.023  0.00  0.00     0.001 A 
ATOM     12  C   UNL d   1      -2.446   0.661  -0.032  0.00  0.00     0.002 A 
ATOM     13  H   UNL d   1       1.146   2.409  -0.071  0.00  0.00     0.168 HD
ENDROOT
BRANCH   1  14
ATOM     14  C   UNL d   1       3.682  -1.307  -0.155  0.00  0.00     0.067 A 
ATOM     15  C   UNL d   1       3.978  -2.197  -1.206  0.00  0.00     0.062 A 
ATOM     16  C   UNL d   1       5.156  -2.950  -1.187  0.00  0.00     0.045 A 
ATOM     17 CL   UNL d   1       2.969  -2.332  -2.608  0.00  0.00    -0.082 Cl
ATOM     18  C   UNL d   1       6.045  -2.811  -0.125  0.00  0.00     0.012 A 
ATOM     19  C   UNL d   1       5.780  -1.919   0.912  0.00  0.00     0.021 A 
ATOM     20 BR   UNL d   1       7.630  -3.842  -0.090  0.00  0.00    -0.051 Br
ATOM     21  C   UNL d   1       4.599  -1.172   0.900  0.00  0.00     0.033 A 
ENDBRANCH   1  14
TORSDOF 1
