REMARK  1 active torsions:
REMARK  status: ('A' for Active; 'I' for Inactive)
REMARK    1  A    between atoms: C_2  and  N_1 
ROOT
ATOM      1  C   UNL d   1      -0.000   2.345  -0.037  0.00  0.00     0.122 A 
ATOM      2  C   UNL d   1       0.691   3.046  -1.026  0.00  0.00     0.146 A 
ATOM      3  C   UNL d   1      -0.686   3.071   0.938  0.00  0.00     0.146 A 
ATOM      4  F   UNL d   1      -1.304   2.434   1.945  0.00  0.00    -0.204 F 
ATOM      5  F   UNL d   1       1.305   2.383  -2.018  0.00  0.00    -0.204 F 
ATOM      6  C   UNL d   1       0.010   5.152  -0.066  0.00  0.00     0.006 A 
ATOM      7  C   UNL d   1       0.684   4.439  -1.057  0.00  0.00     0.045 A 
ATOM      8  C   UNL d   1      -0.669   4.465   0.941  0.00  0.00     0.045 A 
ENDROOT
BRANCH   1   9
ATOM      9  N   UNL d   1      -0.003   0.946  -0.022  0.00  0.00    -0.239 N 
ATOM     10  C   UNL d   1      -1.130   0.177  -0.035  0.00  0.00     0.255 A 
ATOM     11  C   UNL d   1      -0.684  -1.225  -0.017  0.00  0.00     0.080 A 
ATOM     12  O   UNL d   1      -2.301   0.495  -0.132  0.00  0.00    -0.268 OA
ATOM     13  C   UNL d   1       0.648  -1.232   0.013  0.00  0.00     0.080 A 
ATOM     14  C   UNL d   1       1.110   0.165   0.004  0.00  0.00     0.255 A 
ATOM     15  O   UNL d   1       2.284   0.475   0.092  0.00  0.00    -0.268 OA
ENDBRANCH   1   9
TORSDOF 1
