REMARK  5 active torsions:
REMARK  status: ('A' for Active; 'I' for Inactive)
REMARK    1  A    between atoms: C_2  and  C_1 
REMARK       I    between atoms: N_5  and  C_2 
REMARK    2  A    between atoms: C_4  and  C_3 
REMARK    3  A    between atoms: C_6  and  N_5 
REMARK    4  A    between atoms: O_17  and  C_11 
REMARK    5  A    between atoms: C_22  and  O_17 
ROOT
ATOM      1  C   UNL d   1       0.604   1.325  -0.115  0.00  0.00     0.063 A 
ATOM      2  C   UNL d   1       1.414   0.169  -0.162  0.00  0.00     0.069 A 
ATOM      3  C   UNL d   1      -0.770   1.133  -0.096  0.00  0.00     0.108 A 
ATOM      4  N   UNL d   1      -1.381  -0.069  -0.162  0.00  0.00    -0.346 N 
ATOM      5  HN  UNL d   1      -2.396  -0.146  -0.228  1.00  0.00     0.167 HD
ATOM      6  C   UNL d   1      -0.595  -1.162  -0.137  0.00  0.00     0.148 A 
ATOM      7  C   UNL d   1       0.785  -1.095  -0.166  0.00  0.00     0.073 A 
ENDROOT
BRANCH   1   8
ATOM      8  C   UNL d   1       1.158   2.673   0.158  0.00  0.00     0.260 C 
ATOM      9  N   UNL d   1       0.623   3.847  -0.404  0.00  0.00    -0.318 N 
ATOM     10  C   UNL d   1      -0.510   3.981  -1.331  0.00  0.00     0.159 C 
ATOM     11  O   UNL d   1       2.065   2.681   0.985  0.00  0.00    -0.267 OA
BRANCH   9  12
ATOM     12  C   UNL d   1       1.263   5.082  -0.075  0.00  0.00     0.038 A 
ATOM     13  C   UNL d   1       0.546   6.117   0.532  0.00  0.00     0.055 A 
ATOM     14  C   UNL d   1       1.193   7.308   0.886  0.00  0.00     0.058 A 
ATOM     15 CL   UNL d   1       0.264   8.512   1.708  0.00  0.00    -0.082 Cl
ATOM     16  C   UNL d   1       2.549   7.485   0.587  0.00  0.00     0.055 A 
ATOM     17  C   UNL d   1       3.257   6.464  -0.051  0.00  0.00     0.028 A 
ATOM     18 CL   UNL d   1       3.406   8.931   0.983  0.00  0.00    -0.083 Cl
ATOM     19  C   UNL d   1       2.620   5.261  -0.366  0.00  0.00     0.031 A 
ENDBRANCH   9  12
ENDBRANCH   1   8
BRANCH   2  20
ATOM     20  C   UNL d   1       2.923   0.170  -0.118  0.00  0.00     0.418 C 
ATOM     21  F   UNL d   1       3.540   1.330  -0.453  0.00  0.00    -0.166 F 
ATOM     22  F   UNL d   1       3.404  -0.212   1.097  0.00  0.00    -0.166 F 
ATOM     23  F   UNL d   1       3.430  -0.747  -1.000  0.00  0.00    -0.166 F 
ENDBRANCH   2  20
BRANCH   6  24
ATOM     24  O   UNL d   1      -1.171  -2.421  -0.028  0.00  0.00    -0.294 OA
BRANCH  24  25
ATOM     25  C   UNL d   1      -2.385  -2.512   0.621  0.00  0.00     0.077 A 
ATOM     26  C   UNL d   1      -3.288  -3.461   0.136  0.00  0.00     0.039 A 
ATOM     27  C   UNL d   1      -4.544  -3.594   0.732  0.00  0.00     0.026 A 
ATOM     28  C   UNL d   1      -4.895  -2.786   1.811  0.00  0.00     0.034 A 
ATOM     29  C   UNL d   1      -3.987  -1.861   2.324  0.00  0.00     0.026 A 
ATOM     30 CL   UNL d   1      -6.456  -2.923   2.521  0.00  0.00    -0.084 Cl
ATOM     31  C   UNL d   1      -2.724  -1.743   1.745  0.00  0.00     0.039 A 
ENDBRANCH  24  25
ENDBRANCH   6  24
TORSDOF 5
