REMARK  3 active torsions:
REMARK  status: ('A' for Active; 'I' for Inactive)
REMARK       I    between atoms: N_2  and  C_1 
REMARK    1  A    between atoms: C_5  and  C_1 
REMARK    2  A    between atoms: C_6  and  N_2 
REMARK    3  A    between atoms: C_7  and  C_5 
ROOT
ATOM      1  C   UNL d   1       1.130  -0.041  -0.252  0.00  0.00     0.222 C 
ATOM      2  N   UNL d   1       0.242  -0.696  -1.093  0.00  0.00    -0.356 N 
ATOM      3  O   UNL d   1       2.349  -0.173  -0.328  0.00  0.00    -0.273 OA
ATOM      4  H   UNL d   1      -0.728  -0.738  -0.817  0.00  0.00     0.162 HD
ENDROOT
BRANCH   1   5
ATOM      5  C   UNL d   1       0.486   0.880   0.771  0.00  0.00     0.141 C 
BRANCH   5   6
ATOM      6  C   UNL d   1       0.080   0.209   2.061  0.00  0.00    -0.050 A 
ATOM      7  C   UNL d   1       0.826  -0.838   2.621  0.00  0.00     0.007 A 
ATOM      8  C   UNL d   1       0.419  -1.445   3.811  0.00  0.00     0.001 A 
ATOM      9  C   UNL d   1      -0.723  -0.995   4.471  0.00  0.00     0.000 A 
ATOM     10  C   UNL d   1      -1.440   0.082   3.957  0.00  0.00     0.001 A 
ATOM     11  C   UNL d   1      -1.038   0.686   2.765  0.00  0.00     0.007 A 
ENDBRANCH   5   6
ENDBRANCH   1   5
BRANCH   2  12
ATOM     12  C   UNL d   1       0.732  -1.609  -2.128  0.00  0.00     0.087 C 
ATOM     13  C   UNL d   1      -0.206  -1.659  -3.339  0.00  0.00     0.055 C 
ATOM     14  C   UNL d   1      -1.395  -2.595  -3.140  0.00  0.00     0.271 C 
ATOM     15  N   UNL d   1      -0.963  -3.922  -2.714  0.00  0.00     0.083 N 
ATOM     16  C   UNL d   1      -0.244  -3.855  -1.444  0.00  0.00     0.271 C 
ATOM     17  H   UNL d   1      -1.776  -4.532  -2.614  0.00  0.00     0.315 HD
ATOM     18  C   UNL d   1       1.019  -3.009  -1.576  0.00  0.00     0.055 C 
ENDBRANCH   2  12
TORSDOF 3
