REMARK  5 active torsions:
REMARK  status: ('A' for Active; 'I' for Inactive)
REMARK    1  A    between atoms: C_2  and  C_1 
REMARK       I    between atoms: N_3  and  C_1 
REMARK    2  A    between atoms: C_15  and  N_3 
REMARK    3  A    between atoms: O_13  and  C_7 
REMARK    4  A    between atoms: C_8  and  C_9 
REMARK    5  A    between atoms: C_19  and  O_13 
ROOT
ATOM      1  N   UNL d   1      -5.844  -3.052   1.651  0.00  0.00    -0.344 N 
ATOM      2  HN  UNL d   1      -6.737  -2.954   1.169  1.00  0.00     0.167 HD
ATOM      3  C   UNL d   1      -4.940  -2.052   1.664  0.00  0.00     0.148 A 
ATOM      4  C   UNL d   1      -4.333  -4.377   3.012  0.00  0.00     0.050 A 
ATOM      5  C   UNL d   1      -5.516  -4.190   2.304  0.00  0.00     0.119 A 
ATOM      6  C   UNL d   1      -3.747  -2.119   2.367  0.00  0.00     0.059 A 
ATOM      7  C   UNL d   1      -3.443  -3.300   3.053  0.00  0.00     0.035 A 
ENDROOT
BRANCH   3   8
ATOM      8  O   UNL d   1      -5.209  -0.887   0.957  0.00  0.00    -0.294 OA
BRANCH   8   9
ATOM      9  C   UNL d   1      -5.989  -1.005  -0.174  0.00  0.00     0.077 A 
ATOM     10  C   UNL d   1      -6.916   0.003  -0.425  0.00  0.00     0.038 A 
ATOM     11  C   UNL d   1      -7.715  -0.049  -1.577  0.00  0.00     0.011 A 
ATOM     12  C   UNL d   1      -7.600  -1.101  -2.509  0.00  0.00    -0.050 A 
ATOM     13  C   UNL d   1      -6.647  -2.095  -2.237  0.00  0.00     0.011 A 
ATOM     14  C   UNL d   1      -5.840  -2.038  -1.098  0.00  0.00     0.038 A 
BRANCH  12  15
ATOM     15  C   UNL d   1      -8.473  -1.128  -3.776  0.00  0.00    -0.024 C 
ATOM     16  C   UNL d   1      -8.215  -2.356  -4.681  0.00  0.00     0.019 C 
ATOM     17  C   UNL d   1      -9.968  -1.151  -3.396  0.00  0.00     0.019 C 
ATOM     18  C   UNL d   1      -8.183   0.129  -4.624  0.00  0.00     0.019 C 
ENDBRANCH  12  15
ENDBRANCH   8   9
ENDBRANCH   3   8
BRANCH   4  19
ATOM     19  N   UNL d   1      -3.999  -5.565   3.701  0.00  0.00    -0.321 N 
ATOM     20  C   UNL d   1      -4.681  -6.770   3.619  0.00  0.00     0.263 C 
ATOM     21  O   UNL d   1      -5.591  -6.981   2.820  0.00  0.00    -0.267 OA
ATOM     22  H   UNL d   1      -3.179  -5.551   4.293  0.00  0.00     0.169 HD
BRANCH  20  23
ATOM     23  C   UNL d   1      -4.249  -7.815   4.541  0.00  0.00     0.072 A 
ATOM     24  S   UNL d   1      -3.031  -7.581   5.721  0.00  0.00    -0.097 SA
ATOM     25  C   UNL d   1      -3.213  -9.173   6.322  0.00  0.00     0.050 A 
ATOM     26  C   UNL d   1      -4.174  -9.880   5.636  0.00  0.00     0.009 A 
ATOM     27  C   UNL d   1      -4.768  -9.098   4.609  0.00  0.00     0.025 A 
ENDBRANCH  20  23
ENDBRANCH   4  19
TORSDOF 5
