REMARK  6 active torsions:
REMARK  status: ('A' for Active; 'I' for Inactive)
REMARK    1  A    between atoms: N_3  and  S_1 
REMARK    2  A    between atoms: C_9  and  S_1 
REMARK    3  A    between atoms: C_2  and  N_3 
REMARK    4  A    between atoms: C_15  and  C_8 
REMARK    5  A    between atoms: O_19  and  C_13 
REMARK    6  A    between atoms: O_20  and  C_14 
ROOT
ATOM      1  N   UNL d   1       0.432   0.316  -1.507  0.00  0.00    -0.264 N 
ATOM      2  H   UNL d   1      -0.542   0.058  -1.529  0.00  0.00     0.180 HD
ENDROOT
BRANCH   1   3
ATOM      3  C   UNL d   1       0.851   1.373  -2.292  0.00  0.00     0.133 A 
ATOM      4  C   UNL d   1       0.164   2.554  -2.427  0.00  0.00     0.082 A 
ATOM      5  C   UNL d   1       1.046   3.417  -3.133  0.00  0.00     0.062 A 
ATOM      6  N   UNL d   1       2.152   2.757  -3.511  0.00  0.00    -0.296 N 
ATOM      7  N   UNL d   1       2.009   1.520  -3.004  0.00  0.00    -0.280 N 
ATOM      8  HN  UNL d   1       2.932   3.116  -4.063  1.00  0.00     0.187 HD
ATOM      9  C   UNL d   1       2.968   0.498  -3.353  0.00  0.00     0.179 C 
BRANCH   5  10
ATOM     10  C   UNL d   1       0.863   4.838  -3.415  0.00  0.00    -0.008 A 
ATOM     11  C   UNL d   1       0.212   5.673  -2.495  0.00  0.00     0.014 A 
ATOM     12  C   UNL d   1       0.060   7.036  -2.762  0.00  0.00     0.001 A 
ATOM     13  C   UNL d   1       0.552   7.574  -3.949  0.00  0.00     0.000 A 
ATOM     14  C   UNL d   1       1.201   6.753  -4.870  0.00  0.00     0.001 A 
ATOM     15  C   UNL d   1       1.360   5.392  -4.602  0.00  0.00     0.014 A 
ENDBRANCH   5  10
ENDBRANCH   1   3
BRANCH   1  16
ATOM     16  S   UNL d   1       1.115   0.061  -0.030  0.00  0.00     0.264 S 
ATOM     17  O   UNL d   1       2.557   0.137  -0.100  0.00  0.00    -0.200 OA
ATOM     18  O   UNL d   1       0.461  -1.062   0.606  0.00  0.00    -0.200 OA
BRANCH  16  19
ATOM     19  C   UNL d   1       0.539   1.526   0.834  0.00  0.00     0.082 A 
ATOM     20  C   UNL d   1       1.370   2.653   0.919  0.00  0.00     0.065 A 
ATOM     21  C   UNL d   1       0.858   3.871   1.391  0.00  0.00     0.102 A 
ATOM     22  C   UNL d   1      -0.484   3.927   1.815  0.00  0.00     0.101 A 
ATOM     23  C   UNL d   1      -1.286   2.776   1.761  0.00  0.00     0.041 A 
ATOM     24  C   UNL d   1      -0.782   1.571   1.276  0.00  0.00     0.028 A 
BRANCH  21  25
ATOM     25  O   UNL d   1       1.581   5.031   1.405  0.00  0.00    -0.353 OA
ATOM     26  C   UNL d   1       2.925   5.005   0.935  0.00  0.00     0.210 C 
ENDBRANCH  21  25
BRANCH  22  27
ATOM     27  O   UNL d   1      -1.185   5.029   2.231  0.00  0.00    -0.353 OA
ATOM     28  C   UNL d   1      -0.458   6.081   2.855  0.00  0.00     0.210 C 
ENDBRANCH  22  27
ENDBRANCH  16  19
ENDBRANCH   1  16
TORSDOF 6
