REMARK  3 active torsions:
REMARK  status: ('A' for Active; 'I' for Inactive)
REMARK    1  A    between atoms: N_2  and  S_1 
REMARK    2  A    between atoms: C_4  and  S_1 
REMARK    3  A    between atoms: C_3  and  N_2 
ROOT
ATOM      1  N   UNL d   1       0.598   1.646  -0.752  0.00  0.00    -0.280 N 
ATOM      2  H   UNL d   1       1.013   0.782  -0.407  0.00  0.00     0.179 HD
ENDROOT
BRANCH   1   3
ATOM      3  S   UNL d   1       0.754   1.787  -2.432  0.00  0.00     0.263 S 
ATOM      4  O   UNL d   1      -0.070   2.870  -2.920  0.00  0.00    -0.200 OA
ATOM      5  O   UNL d   1       0.617   0.445  -2.959  0.00  0.00    -0.200 OA
BRANCH   3   6
ATOM      6  C   UNL d   1       2.461   2.257  -2.652  0.00  0.00     0.080 A 
ATOM      7  C   UNL d   1       3.433   1.261  -2.812  0.00  0.00     0.028 A 
ATOM      8  C   UNL d   1       4.769   1.628  -2.988  0.00  0.00     0.044 A 
ATOM      9  C   UNL d   1       5.114   2.976  -3.010  0.00  0.00     0.116 A 
ATOM     10  C   UNL d   1       4.149   3.970  -2.872  0.00  0.00     0.044 A 
ATOM     11  F   UNL d   1       6.398   3.322  -3.169  0.00  0.00    -0.206 F 
ATOM     12  C   UNL d   1       2.809   3.613  -2.705  0.00  0.00     0.028 A 
ENDBRANCH   3   6
ENDBRANCH   1   3
BRANCH   1  13
ATOM     13  C   UNL d   1       0.787   2.814   0.055  0.00  0.00     0.053 A 
ATOM     14  C   UNL d   1      -0.285   3.705   0.322  0.00  0.00     0.001 A 
ATOM     15  C   UNL d   1      -0.014   4.872   1.077  0.00  0.00    -0.024 A 
ATOM     16  C   UNL d   1      -1.617   3.486  -0.099  0.00  0.00     0.014 A 
ATOM     17  C   UNL d   1      -1.050   5.773   1.374  0.00  0.00     0.012 A 
ATOM     18  C   UNL d   1       1.292   5.124   1.528  0.00  0.00     0.012 A 
ATOM     19  C   UNL d   1      -2.353   5.535   0.939  0.00  0.00     0.001 A 
ATOM     20  C   UNL d   1      -2.637   4.391   0.204  0.00  0.00     0.001 A 
ATOM     21  C   UNL d   1       2.328   4.234   1.260  0.00  0.00     0.003 A 
ATOM     22  C   UNL d   1       2.075   3.075   0.535  0.00  0.00     0.031 A 
ENDBRANCH   1  13
TORSDOF 3
