REMARK  2 active torsions:
REMARK  status: ('A' for Active; 'I' for Inactive)
REMARK    1  A    between atoms: C_6  and  N_1 
REMARK    2  A    between atoms: C_7  and  C_6 
ROOT
ATOM      1  N   UNL d   1       0.053  -1.583  -0.064  0.00  0.00    -0.341 N 
ATOM      2  C   UNL d   1      -1.109  -0.834  -0.029  0.00  0.00     0.046 A 
ATOM      3  C   UNL d   1       1.166  -0.759  -0.117  0.00  0.00     0.046 A 
ATOM      4  C   UNL d   1       0.701   0.553  -0.018  0.00  0.00     0.003 A 
ATOM      5  C   UNL d   1      -0.727   0.507   0.017  0.00  0.00     0.003 A 
ATOM      6  C   UNL d   1       2.534  -1.055  -0.237  0.00  0.00     0.030 A 
ATOM      7  C   UNL d   1      -2.460  -1.223  -0.023  0.00  0.00     0.030 A 
ATOM      8  C   UNL d   1       1.640   1.606   0.013  0.00  0.00     0.014 A 
ATOM      9  C   UNL d   1      -1.731   1.497   0.076  0.00  0.00     0.014 A 
ATOM     10  C   UNL d   1       3.442   0.008  -0.222  0.00  0.00     0.002 A 
ATOM     11  C   UNL d   1       3.005   1.321  -0.084  0.00  0.00     0.001 A 
ATOM     12  C   UNL d   1      -3.077   1.121   0.079  0.00  0.00     0.001 A 
ATOM     13  C   UNL d   1      -3.432  -0.223   0.029  0.00  0.00     0.002 A 
ENDROOT
BRANCH   1  14
ATOM     14  C   UNL d   1       0.099  -3.042   0.046  0.00  0.00     0.170 C 
BRANCH  14  15
ATOM     15  C   UNL d   1       0.081  -3.794  -1.270  0.00  0.00    -0.018 A 
ATOM     16  C   UNL d   1       0.042  -5.204  -1.264  0.00  0.00     0.043 A 
ATOM     17  C   UNL d   1       0.127  -5.938  -2.450  0.00  0.00     0.048 A 
ATOM     18 CL   UNL d   1      -0.100  -6.099   0.211  0.00  0.00    -0.084 Cl
ATOM     19  C   UNL d   1       0.245  -5.272  -3.664  0.00  0.00     0.035 A 
ATOM     20  C   UNL d   1       0.246  -3.882  -3.704  0.00  0.00     0.024 A 
ATOM     21 CL   UNL d   1       0.410  -6.171  -5.120  0.00  0.00    -0.084 Cl
ATOM     22  C   UNL d   1       0.162  -3.148  -2.517  0.00  0.00     0.012 A 
ENDBRANCH  14  15
ENDBRANCH   1  14
TORSDOF 2
