REMARK  2 active torsions:
REMARK  status: ('A' for Active; 'I' for Inactive)
REMARK    1  A    between atoms: C_13  and  C_2 
REMARK    2  A    between atoms: N_14  and  C_10 
ROOT
ATOM      1  N   UNL d   1       0.194  -0.650   0.013  0.00  0.00    -0.219 N 
ATOM      2  C   UNL d   1       1.512  -1.081   0.037  0.00  0.00     0.154 A 
ATOM      3  N   UNL d   1       2.295  -0.012   0.110  0.00  0.00    -0.282 N 
ATOM      4  HN  UNL d   1       3.315  -0.026   0.137  1.00  0.00     0.188 HD
ATOM      5  C   UNL d   1       0.259   0.728   0.074  0.00  0.00     0.143 A 
ATOM      6  N   UNL d   1      -0.947  -1.411  -0.078  0.00  0.00    -0.276 N 
ATOM      7  HN  UNL d   1      -0.931  -2.430  -0.117  1.00  0.00     0.189 HD
ATOM      8  N   UNL d   1       1.511   1.116   0.144  0.00  0.00    -0.282 N 
ATOM      9  HN  UNL d   1       1.841   2.079   0.210  1.00  0.00     0.188 HD
ATOM     10  C   UNL d   1      -2.051  -0.720  -0.110  0.00  0.00     0.114 A 
ATOM     11  C   UNL d   1      -0.953   1.444   0.039  0.00  0.00     0.056 A 
ATOM     12  C   UNL d   1      -2.105   0.769  -0.052  0.00  0.00     0.053 A 
ENDROOT
BRANCH   2  13
ATOM     13  C   UNL d   1       1.978  -2.469  -0.065  0.00  0.00     0.011 A 
ATOM     14  C   UNL d   1       3.256  -2.722  -0.588  0.00  0.00     0.015 A 
ATOM     15  C   UNL d   1       3.728  -4.029  -0.736  0.00  0.00     0.001 A 
ATOM     16  C   UNL d   1       2.931  -5.105  -0.353  0.00  0.00     0.000 A 
ATOM     17  C   UNL d   1       1.671  -4.872   0.190  0.00  0.00     0.001 A 
ATOM     18  C   UNL d   1       1.201  -3.564   0.339  0.00  0.00     0.015 A 
ENDBRANCH   2  13
BRANCH  10  19
ATOM     19  N   UNL d   1      -3.212  -1.433  -0.197  0.00  0.00    -0.384 N 
ATOM     20  H   UNL d   1      -3.088  -2.421  -0.000  0.00  0.00     0.157 HD
ATOM     21  H   UNL d   1      -4.045  -1.036   0.220  0.00  0.00     0.157 HD
ENDBRANCH  10  19
TORSDOF 2
