REMARK  2 active torsions:
REMARK  status: ('A' for Active; 'I' for Inactive)
REMARK    1  A    between atoms: C_10  and  C_7 
REMARK       I    between atoms: N_11  and  C_10 
REMARK    2  A    between atoms: C_13  and  N_11 
ROOT
ATOM      1  C   UNL d   1       3.582   0.724   0.412  0.00  0.00     0.259 C 
ATOM      2  N   UNL d   1       4.074   1.957   0.065  0.00  0.00    -0.343 N 
ATOM      3  O   UNL d   1       2.399   0.571   0.723  0.00  0.00    -0.267 OA
ATOM      4  H   UNL d   1       5.032   2.027  -0.269  0.00  0.00     0.163 HD
ENDROOT
BRANCH   1   5
ATOM      5  C   UNL d   1       4.528  -0.381   0.345  0.00  0.00     0.075 A 
ATOM      6  S   UNL d   1       6.204  -0.127  -0.103  0.00  0.00    -0.065 SA
ATOM      7  C   UNL d   1       6.477  -1.761  -0.046  0.00  0.00     0.104 A 
ATOM      8  C   UNL d   1       5.403  -2.474   0.307  0.00  0.00     0.024 A 
ATOM      9  N   UNL d   1       7.466  -2.653  -0.269  0.00  0.00    -0.289 N 
ATOM     10  C   UNL d   1       4.258  -1.734   0.573  0.00  0.00     0.041 A 
ATOM     11  C   UNL d   1       5.747  -3.819   0.278  0.00  0.00     0.035 A 
ATOM     12  C   UNL d   1       4.928  -5.024   0.532  0.00  0.00     0.070 C 
ATOM     13  N   UNL d   1       7.048  -3.939  -0.075  0.00  0.00    -0.302 N 
ATOM     14  HN  UNL d   1       7.593  -4.795  -0.174  1.00  0.00     0.187 HD
ATOM     15  C   UNL d   1       8.820  -2.400  -0.689  0.00  0.00     0.178 C 
ENDBRANCH   1   5
BRANCH   2  16
ATOM     16  C   UNL d   1       3.218   3.119  -0.155  0.00  0.00     0.177 C 
ATOM     17  C   UNL d   1       3.998   4.073  -1.073  0.00  0.00     0.240 C 
ATOM     18  N   UNL d   1       3.336   5.152  -1.582  0.00  0.00    -0.359 N 
ATOM     19  O   UNL d   1       5.188   3.905  -1.347  0.00  0.00    -0.271 OA
ATOM     20  C   UNL d   1       1.958   5.501  -1.325  0.00  0.00     0.122 C 
ATOM     21  H   UNL d   1       3.905   5.763  -2.156  0.00  0.00     0.162 HD
ATOM     22  C   UNL d   1       1.741   5.901   0.128  0.00  0.00     0.020 C 
ATOM     23  C   UNL d   1       1.630   4.712   1.085  0.00  0.00     0.004 C 
ATOM     24  C   UNL d   1       2.861   3.807   1.166  0.00  0.00     0.035 C 
ENDBRANCH   2  16
TORSDOF 2
