REMARK  4 active torsions:
REMARK  status: ('A' for Active; 'I' for Inactive)
REMARK    1  A    between atoms: C_7  and  C_1 
REMARK    2  A    between atoms: C_13  and  C_2 
REMARK    3  A    between atoms: C_8  and  C_7 
REMARK    4  A    between atoms: C_19  and  N_10 
ROOT
ATOM      1  C   UNL d   1      -0.008   1.291   0.057  0.00  0.00     0.086 C 
ATOM      2  C   UNL d   1       1.306   0.860  -0.011  0.00  0.00     0.066 C 
ATOM      3  C   UNL d   1       0.304  -1.135   0.032  0.00  0.00     0.150 C 
ATOM      4  N   UNL d   1       1.456  -0.514  -0.045  0.00  0.00    -0.335 N 
ATOM      5  HN  UNL d   1       2.356  -0.988  -0.122  1.00  0.00     0.168 HD
ATOM      6  S   UNL d   1      -1.032  -0.082   0.284  0.00  0.00    -0.048 SA
ATOM      7  N   UNL d   1       0.133  -2.475  -0.041  0.00  0.00    -0.337 N 
ATOM      8  H   UNL d   1      -0.765  -2.867   0.205  0.00  0.00     0.168 HD
ENDROOT
BRANCH   1   9
ATOM      9  C   UNL d   1      -0.550   2.634   0.090  0.00  0.00     0.201 C 
ATOM     10  O   UNL d   1      -0.055   3.530   0.773  0.00  0.00    -0.286 OA
BRANCH   9  11
ATOM     11  C   UNL d   1      -1.731   3.004  -0.758  0.00  0.00     0.018 A 
ATOM     12  C   UNL d   1      -2.132   2.248  -1.868  0.00  0.00     0.055 A 
ATOM     13  C   UNL d   1      -3.253   2.621  -2.618  0.00  0.00     0.102 A 
ATOM     14  O   UNL d   1      -3.538   1.787  -3.671  0.00  0.00    -0.348 OA
ATOM     15  C   UNL d   1      -3.993   3.754  -2.255  0.00  0.00     0.102 A 
ATOM     16  C   UNL d   1      -4.059   2.467  -4.813  0.00  0.00     0.178 C 
ATOM     17  C   UNL d   1      -5.563   2.653  -4.705  0.00  0.00     0.053 C 
ATOM     18  C   UNL d   1      -5.979   3.118  -3.321  0.00  0.00     0.178 C 
ATOM     19  O   UNL d   1      -5.144   4.183  -2.865  0.00  0.00    -0.348 OA
ATOM     20  C   UNL d   1      -3.551   4.553  -1.200  0.00  0.00     0.040 A 
ATOM     21  C   UNL d   1      -2.431   4.180  -0.453  0.00  0.00     0.018 A 
ENDBRANCH   9  11
ENDBRANCH   1   9
BRANCH   2  22
ATOM     22  C   UNL d   1       2.508   1.687  -0.075  0.00  0.00    -0.008 A 
ATOM     23  C   UNL d   1       3.661   1.245   0.597  0.00  0.00     0.014 A 
ATOM     24  C   UNL d   1       4.848   1.978   0.539  0.00  0.00     0.001 A 
ATOM     25  C   UNL d   1       4.896   3.159  -0.196  0.00  0.00     0.000 A 
ATOM     26  C   UNL d   1       3.763   3.601  -0.877  0.00  0.00     0.001 A 
ATOM     27  C   UNL d   1       2.576   2.866  -0.824  0.00  0.00     0.014 A 
ENDBRANCH   2  22
BRANCH   7  28
ATOM     28  C   UNL d   1       1.021  -3.379  -0.660  0.00  0.00     0.034 A 
ATOM     29  C   UNL d   1       1.042  -4.715  -0.237  0.00  0.00     0.029 A 
ATOM     30  C   UNL d   1       1.965  -5.623  -0.768  0.00  0.00     0.002 A 
ATOM     31  C   UNL d   1       2.878  -5.210  -1.736  0.00  0.00     0.000 A 
ATOM     32  C   UNL d   1       2.873  -3.889  -2.169  0.00  0.00     0.002 A 
ATOM     33  C   UNL d   1       1.960  -2.982  -1.625  0.00  0.00     0.029 A 
ENDBRANCH   7  28
TORSDOF 4
