REMARK  5 active torsions:
REMARK  status: ('A' for Active; 'I' for Inactive)
REMARK       I    between atoms: N_2  and  C_1 
REMARK    1  A    between atoms: C_6  and  C_1 
REMARK    2  A    between atoms: C_10  and  N_2 
REMARK    3  A    between atoms: O_3  and  C_6 
REMARK    4  A    between atoms: C_4  and  O_3 
REMARK    5  A    between atoms: O_20  and  C_13 
ROOT
ATOM      1  C   UNL d   1       0.888  -0.728   0.036  0.00  0.00     0.251 C 
ATOM      2  N   UNL d   1       0.479  -0.165  -1.170  0.00  0.00    -0.325 N 
ATOM      3  O   UNL d   1       1.658  -1.677   0.154  0.00  0.00    -0.270 OA
ATOM      4  H   UNL d   1      -0.243   0.541  -1.119  0.00  0.00     0.169 HD
ENDROOT
BRANCH   1   5
ATOM      5  C   UNL d   1       0.359   0.039   1.267  0.00  0.00     0.217 C 
ATOM      6  C   UNL d   1       0.901  -0.577   2.556  0.00  0.00     0.050 C 
BRANCH   5   7
ATOM      7  O   UNL d   1      -1.064  -0.004   1.349  0.00  0.00    -0.335 OA
BRANCH   7   8
ATOM      8  C   UNL d   1      -1.795   1.088   0.972  0.00  0.00     0.091 A 
ATOM      9  C   UNL d   1      -3.086   0.852   0.470  0.00  0.00     0.069 A 
ATOM     10  C   UNL d   1      -3.882   1.907   0.014  0.00  0.00     0.050 A 
ATOM     11 CL   UNL d   1      -3.735  -0.748   0.378  0.00  0.00    -0.081 Cl
ATOM     12  C   UNL d   1      -3.393   3.205   0.079  0.00  0.00     0.035 A 
ATOM     13  C   UNL d   1      -2.139   3.462   0.627  0.00  0.00     0.026 A 
ATOM     14 CL   UNL d   1      -4.342   4.509  -0.520  0.00  0.00    -0.084 Cl
ATOM     15  C   UNL d   1      -1.347   2.406   1.089  0.00  0.00     0.040 A 
ENDBRANCH   7   8
ENDBRANCH   5   7
ENDBRANCH   1   5
BRANCH   2  16
ATOM     16  C   UNL d   1       0.962  -0.476  -2.461  0.00  0.00     0.035 A 
ATOM     17  C   UNL d   1       1.964  -1.416  -2.705  0.00  0.00     0.032 A 
ATOM     18  C   UNL d   1       2.444  -1.635  -4.002  0.00  0.00     0.039 A 
ATOM     19  C   UNL d   1       1.931  -0.911  -5.072  0.00  0.00     0.068 A 
ATOM     20  C   UNL d   1       0.902   0.001  -4.844  0.00  0.00     0.039 A 
ATOM     21  C   UNL d   1       0.424   0.225  -3.546  0.00  0.00     0.032 A 
BRANCH  19  22
ATOM     22  O   UNL d   1       2.337  -1.041  -6.372  0.00  0.00    -0.356 OA
ATOM     23  C   UNL d   1       3.687  -1.463  -6.548  0.00  0.00     0.210 C 
ENDBRANCH  19  22
ENDBRANCH   2  16
TORSDOF 5
