REMARK  10 active torsions:
REMARK  status: ('A' for Active; 'I' for Inactive)
REMARK    1  A    between atoms: C_3  and  C_1 
REMARK    2  A    between atoms: C_4  and  C_1 
REMARK    3  A    between atoms: N_7  and  C_2 
REMARK    4  A    between atoms: O_13  and  C_3 
REMARK    5  A    between atoms: O_14  and  C_4 
REMARK    6  A    between atoms: C_5  and  C_6 
REMARK    7  A    between atoms: O_15  and  C_5 
REMARK    8  A    between atoms: C_12  and  N_7 
REMARK    9  A    between atoms: C_19  and  O_13 
REMARK   10  A    between atoms: C_20  and  O_14 
ROOT
ATOM      1  C   UNL d   1       1.110  -0.100   0.146  0.00  0.00     0.129 C 
ATOM      2  C   UNL d   1       0.431   0.713  -0.687  0.00  0.00     0.112 C 
ENDROOT
BRANCH   2   3
ATOM      3  N   UNL d   1       0.924   1.603  -1.619  0.00  0.00    -0.365 N 
ATOM      4  H   UNL d   1       1.944   1.703  -1.627  0.00  0.00     0.165 HD
BRANCH   3   5
ATOM      5  C   UNL d   1       0.221   2.446  -2.494  0.00  0.00     0.032 A 
ATOM      6  C   UNL d   1      -1.173   2.556  -2.485  0.00  0.00     0.047 A 
ATOM      7  C   UNL d   1      -1.851   3.369  -3.404  0.00  0.00     0.041 A 
ATOM      8  C   UNL d   1      -1.122   4.093  -4.351  0.00  0.00     0.018 A 
ATOM      9  C   UNL d   1       0.268   3.993  -4.381  0.00  0.00     0.003 A 
ATOM     10  C   UNL d   1       0.930   3.171  -3.463  0.00  0.00     0.029 A 
BRANCH   7  11
ATOM     11  C   UNL d   1      -3.335   3.466  -3.402  0.00  0.00     0.293 C 
ATOM     12  O   UNL d   1      -3.973   4.174  -4.166  0.00  0.00    -0.259 OA
BRANCH  11  13
ATOM     13  O   UNL d   1      -3.856   2.650  -2.451  0.00  0.00    -0.323 OA
ATOM     14  C   UNL d   1      -5.281   2.640  -2.387  0.00  0.00     0.213 C 
ENDBRANCH  11  13
ENDBRANCH   7  11
ENDBRANCH   3   5
ENDBRANCH   2   3
BRANCH   1  15
ATOM     15  C   UNL d   1       0.393  -1.061   1.017  0.00  0.00     0.300 C 
ATOM     16  O   UNL d   1       0.872  -1.582   2.012  0.00  0.00    -0.259 OA
BRANCH  15  17
ATOM     17  O   UNL d   1      -0.831  -1.351   0.496  0.00  0.00    -0.318 OA
BRANCH  17  18
ATOM     18  C   UNL d   1      -1.437  -2.571   0.949  0.00  0.00     0.174 C 
ATOM     19  C   UNL d   1      -1.020  -3.671  -0.011  0.00  0.00     0.034 C 
ENDBRANCH  17  18
ENDBRANCH  15  17
ENDBRANCH   1  15
BRANCH   1  20
ATOM     20  C   UNL d   1       2.585  -0.090   0.062  0.00  0.00     0.300 C 
ATOM     21  O   UNL d   1       3.236   0.826  -0.434  0.00  0.00    -0.259 OA
BRANCH  20  22
ATOM     22  O   UNL d   1       3.084  -1.299   0.412  0.00  0.00    -0.318 OA
BRANCH  22  23
ATOM     23  C   UNL d   1       4.390  -1.597  -0.097  0.00  0.00     0.174 C 
ATOM     24  C   UNL d   1       4.209  -2.276  -1.442  0.00  0.00     0.034 C 
ENDBRANCH  22  23
ENDBRANCH  20  22
ENDBRANCH   1  20
TORSDOF 10
