REMARK  2 active torsions:
REMARK  status: ('A' for Active; 'I' for Inactive)
REMARK    1  A    between atoms: C_7  and  C_2 
REMARK    2  A    between atoms: C_12  and  C_6 
ROOT
ATOM      1  C   UNL d   1      -0.468  -0.406   0.005  0.00  0.00     0.125 A 
ATOM      2  C   UNL d   1       0.280  -1.539  -0.015  0.00  0.00     0.026 A 
ATOM      3  C   UNL d   1       0.220   0.921   0.040  0.00  0.00     0.267 A 
ATOM      4  N   UNL d   1       1.589   0.905   0.084  0.00  0.00    -0.322 N 
ATOM      5  C   UNL d   1       1.741  -1.427   0.030  0.00  0.00     0.046 A 
ATOM      6  C   UNL d   1       2.344  -0.232   0.079  0.00  0.00     0.046 A 
ATOM      7  C   UNL d   1      -1.891  -0.372   0.025  0.00  0.00     0.106 C 
ATOM      8  N   UNL d   1      -3.053  -0.352   0.065  0.00  0.00    -0.191 NA
ATOM      9  O   UNL d   1      -0.390   1.986   0.026  0.00  0.00    -0.266 OA
ATOM     10  H   UNL d   1       2.045   1.811   0.103  0.00  0.00     0.169 HD
ENDROOT
BRANCH   2  11
ATOM     11  C   UNL d   1      -0.365  -2.823  -0.097  0.00  0.00     0.086 A 
ATOM     12  O   UNL d   1      -1.552  -3.039  -0.767  0.00  0.00    -0.322 OA
ATOM     13  C   UNL d   1      -1.879  -4.347  -0.675  0.00  0.00     0.142 A 
ATOM     14  C   UNL d   1      -0.920  -5.027   0.028  0.00  0.00     0.027 A 
ATOM     15  C   UNL d   1       0.045  -4.059   0.399  0.00  0.00     0.040 A 
ENDBRANCH   2  11
BRANCH   6  16
ATOM     16  C   UNL d   1       3.798  -0.079   0.104  0.00  0.00    -0.009 A 
ATOM     17  C   UNL d   1       4.511   0.032  -1.096  0.00  0.00     0.013 A 
ATOM     18  C   UNL d   1       5.888   0.255  -1.076  0.00  0.00     0.001 A 
ATOM     19  C   UNL d   1       6.557   0.374   0.141  0.00  0.00     0.000 A 
ATOM     20  C   UNL d   1       5.855   0.253   1.340  0.00  0.00     0.001 A 
ATOM     21  C   UNL d   1       4.479   0.019   1.323  0.00  0.00     0.013 A 
ENDBRANCH   6  16
TORSDOF 2
