REMARK  8 active torsions:
REMARK  status: ('A' for Active; 'I' for Inactive)
REMARK    1  A    between atoms: C_1  and  N_5 
REMARK    2  A    between atoms: C_2  and  N_4 
REMARK       I    between atoms: C_7  and  N_4 
REMARK       I    between atoms: C_6  and  N_5 
REMARK    3  A    between atoms: O_10  and  C_6 
REMARK    4  A    between atoms: O_11  and  C_7 
REMARK    5  A    between atoms: C_13  and  O_10 
REMARK    6  A    between atoms: C_12  and  O_11 
REMARK    7  A    between atoms: C_15  and  C_12 
REMARK    8  A    between atoms: C_14  and  C_13 
ROOT
ATOM      1  C   UNL d   1       0.032   1.032   0.031  0.00  0.00     0.111 A 
ATOM      2  C   UNL d   1       0.883  -0.217   0.068  0.00  0.00     0.111 A 
ATOM      3  C   UNL d   1      -0.610  -0.328   0.029  0.00  0.00     0.054 A 
ENDROOT
BRANCH   1   4
ATOM      4  N   UNL d   1       0.027   1.870  -1.124  0.00  0.00    -0.330 N 
ATOM      5  C   UNL d   1      -1.103   2.467  -1.612  0.00  0.00     0.361 C 
ATOM      6  O   UNL d   1      -2.217   2.363  -1.121  0.00  0.00    -0.238 OA
ATOM      7  H   UNL d   1       0.894   2.072  -1.604  0.00  0.00     0.165 HD
BRANCH   5   8
ATOM      8  O   UNL d   1      -0.804   3.138  -2.751  0.00  0.00    -0.299 OA
BRANCH   8   9
ATOM      9  C   UNL d   1      -1.934   3.515  -3.545  0.00  0.00     0.219 C 
BRANCH   9  10
ATOM     10  C   UNL d   1      -2.102   5.011  -3.619  0.00  0.00    -0.034 A 
ATOM     11  C   UNL d   1      -1.516   5.746  -4.659  0.00  0.00     0.009 A 
ATOM     12  C   UNL d   1      -1.756   7.117  -4.781  0.00  0.00     0.001 A 
ATOM     13  C   UNL d   1      -2.571   7.767  -3.857  0.00  0.00     0.000 A 
ATOM     14  C   UNL d   1      -3.131   7.053  -2.799  0.00  0.00     0.001 A 
ATOM     15  C   UNL d   1      -2.892   5.682  -2.676  0.00  0.00     0.009 A 
ENDBRANCH   9  10
ENDBRANCH   8   9
ENDBRANCH   5   8
ENDBRANCH   1   4
BRANCH   2  16
ATOM     16  N   UNL d   1       1.637  -0.541   1.235  0.00  0.00    -0.330 N 
ATOM     17  C   UNL d   1       2.819   0.086   1.524  0.00  0.00     0.361 C 
ATOM     18  O   UNL d   1       3.269   1.036   0.894  0.00  0.00    -0.238 OA
ATOM     19  H   UNL d   1       1.434  -1.379   1.764  0.00  0.00     0.165 HD
BRANCH  17  20
ATOM     20  O   UNL d   1       3.438  -0.543   2.550  0.00  0.00    -0.299 OA
BRANCH  20  21
ATOM     21  C   UNL d   1       4.797  -0.151   2.767  0.00  0.00     0.219 C 
BRANCH  21  22
ATOM     22  C   UNL d   1       4.965   0.572   4.078  0.00  0.00    -0.034 A 
ATOM     23  C   UNL d   1       5.266  -0.135   5.250  0.00  0.00     0.009 A 
ATOM     24  C   UNL d   1       5.509   0.544   6.445  0.00  0.00     0.001 A 
ATOM     25  C   UNL d   1       5.440   1.936   6.483  0.00  0.00     0.000 A 
ATOM     26  C   UNL d   1       5.108   2.648   5.332  0.00  0.00     0.001 A 
ATOM     27  C   UNL d   1       4.864   1.970   4.135  0.00  0.00     0.009 A 
ENDBRANCH  21  22
ENDBRANCH  20  21
ENDBRANCH  17  20
ENDBRANCH   2  16
TORSDOF 8
