REMARK  7 active torsions:
REMARK  status: ('A' for Active; 'I' for Inactive)
REMARK    1  A    between atoms: C_2  and  S_1 
REMARK    2  A    between atoms: N_6  and  S_1 
REMARK    3  A    between atoms: C_8  and  C_3 
REMARK    4  A    between atoms: C_11  and  N_6 
REMARK    5  A    between atoms: C_13  and  N_6 
REMARK    6  A    between atoms: O_14  and  C_8 
REMARK    7  A    between atoms: C_17  and  C_11 
ROOT
ATOM      1  S   UNL d   1       1.065  -0.263  -0.094  0.00  0.00     0.265 S 
ATOM      2  O   UNL d   1       2.129  -1.082   0.452  0.00  0.00    -0.200 OA
ATOM      3  O   UNL d   1      -0.157  -0.885  -0.547  0.00  0.00    -0.200 OA
ENDROOT
BRANCH   1   4
ATOM      4  C   UNL d   1       1.770   0.240  -1.594  0.00  0.00     0.127 A 
ATOM      5  C   UNL d   1       1.979   1.506  -2.246  0.00  0.00     0.094 A 
ATOM      6  C   UNL d   1       2.572   1.184  -3.470  0.00  0.00     0.067 A 
ATOM      7  C   UNL d   1       3.087   1.950  -4.633  0.00  0.00     0.078 C 
ATOM      8  O   UNL d   1       2.696  -0.156  -3.612  0.00  0.00    -0.318 OA
ATOM      9  C   UNL d   1       2.196  -0.729  -2.495  0.00  0.00     0.073 A 
ATOM     10  C   UNL d   1       2.193  -2.210  -2.510  0.00  0.00     0.078 C 
BRANCH   5  11
ATOM     11  C   UNL d   1       1.682   2.883  -1.894  0.00  0.00     0.297 C 
ATOM     12  O   UNL d   1       1.532   3.761  -2.737  0.00  0.00    -0.259 OA
BRANCH  11  13
ATOM     13  O   UNL d   1       1.614   3.120  -0.559  0.00  0.00    -0.322 OA
ATOM     14  C   UNL d   1       1.355   4.490  -0.228  0.00  0.00     0.213 C 
ENDBRANCH  11  13
ENDBRANCH   5  11
ENDBRANCH   1   4
BRANCH   1  15
ATOM     15  N   UNL d   1       0.688   0.969   1.031  0.00  0.00    -0.298 N 
BRANCH  15  16
ATOM     16  C   UNL d   1      -0.667   1.580   0.824  0.00  0.00     0.174 C 
BRANCH  16  17
ATOM     17  C   UNL d   1      -1.907   0.744   1.103  0.00  0.00    -0.040 A 
ATOM     18  C   UNL d   1      -2.183   0.153   2.346  0.00  0.00     0.009 A 
ATOM     19  C   UNL d   1      -3.340  -0.602   2.548  0.00  0.00     0.001 A 
ATOM     20  C   UNL d   1      -4.255  -0.774   1.516  0.00  0.00     0.000 A 
ATOM     21  C   UNL d   1      -4.013  -0.184   0.280  0.00  0.00     0.001 A 
ATOM     22  C   UNL d   1      -2.854   0.571   0.078  0.00  0.00     0.009 A 
ENDBRANCH  16  17
ENDBRANCH  15  16
BRANCH  15  23
ATOM     23  C   UNL d   1       1.126   0.768   2.470  0.00  0.00     0.088 C 
ATOM     24  C   UNL d   1       2.652   0.653   2.617  0.00  0.00     0.032 C 
ATOM     25  C   UNL d   1       0.724   1.944   3.378  0.00  0.00     0.032 C 
ENDBRANCH  15  23
ENDBRANCH   1  15
TORSDOF 7
