REMARK  5 active torsions:
REMARK  status: ('A' for Active; 'I' for Inactive)
REMARK    1  A    between atoms: C_5  and  C_1 
REMARK    2  A    between atoms: C_7  and  C_2 
REMARK       I    between atoms: N_11  and  C_7 
REMARK    3  A    between atoms: C_8  and  C_13 
REMARK       I    between atoms: C_10  and  N_12 
REMARK    4  A    between atoms: C_16  and  C_10 
REMARK    5  A    between atoms: N_12  and  N_11 
ROOT
ATOM      1  C   UNL d   1       0.472  -2.611   0.028  0.00  0.00     0.275 C 
ATOM      2  N   UNL d   1      -0.388  -3.695   0.004  0.00  0.00    -0.263 N 
ATOM      3  O   UNL d   1       1.695  -2.727   0.003  0.00  0.00    -0.266 OA
ATOM      4  H   UNL d   1      -1.376  -3.599   0.246  0.00  0.00     0.190 HD
ENDROOT
BRANCH   1   5
ATOM      5  C   UNL d   1      -0.204  -1.326   0.073  0.00  0.00     0.094 A 
ATOM      6  C   UNL d   1       0.104  -0.136   0.819  0.00  0.00     0.088 A 
ATOM      7  N   UNL d   1      -0.824   0.805   0.572  0.00  0.00    -0.259 N 
ATOM      8  O   UNL d   1      -1.668   0.301  -0.377  0.00  0.00    -0.241 OA
ATOM      9  HN  UNL d   1      -0.886   1.724   1.010  1.00  0.00     0.195 HD
ATOM     10  C   UNL d   1      -1.307  -0.967  -0.683  0.00  0.00     0.090 A 
ATOM     11  C   UNL d   1      -2.130  -1.597  -1.736  0.00  0.00     0.080 C 
BRANCH   6  12
ATOM     12  C   UNL d   1       1.147   0.140   1.813  0.00  0.00     0.054 A 
ATOM     13  C   UNL d   1       1.464  -0.827   2.776  0.00  0.00     0.130 A 
ATOM     14  F   UNL d   1       0.851  -2.021   2.772  0.00  0.00    -0.205 F 
ATOM     15  C   UNL d   1       2.378  -0.579   3.803  0.00  0.00     0.043 A 
ATOM     16  C   UNL d   1       2.988   0.666   3.907  0.00  0.00     0.005 A 
ATOM     17  C   UNL d   1       2.696   1.649   2.965  0.00  0.00     0.025 A 
ATOM     18  C   UNL d   1       1.797   1.389   1.917  0.00  0.00     0.049 A 
ATOM     19 CL   UNL d   1       1.583   2.681   0.780  0.00  0.00    -0.083 Cl
ENDBRANCH   6  12
ENDBRANCH   1   5
BRANCH   2  20
ATOM     20  N   UNL d   1       0.084  -5.017  -0.058  0.00  0.00    -0.263 N 
ATOM     21  C   UNL d   1      -0.814  -6.003   0.293  0.00  0.00     0.270 C 
ATOM     22  O   UNL d   1      -1.945  -5.739   0.693  0.00  0.00    -0.266 OA
ATOM     23  H   UNL d   1       1.077  -5.161  -0.237  0.00  0.00     0.190 HD
BRANCH  21  24
ATOM     24  C   UNL d   1      -0.398  -7.425   0.165  0.00  0.00     0.033 A 
ATOM     25  C   UNL d   1      -0.954  -8.353   1.054  0.00  0.00     0.018 A 
ATOM     26  C   UNL d   1      -0.720  -9.723   0.893  0.00  0.00     0.017 A 
ATOM     27  C   UNL d   1       0.059 -10.189  -0.173  0.00  0.00     0.048 A 
ATOM     28  C   UNL d   1       0.635  -9.250  -1.050  0.00  0.00     0.017 A 
ATOM     29  C   UNL d   1       0.411  -7.877  -0.883  0.00  0.00     0.018 A 
BRANCH  27  30
ATOM     30  C   UNL d   1       0.239 -11.673  -0.413  0.00  0.00     0.417 C 
ATOM     31  F   UNL d   1      -0.362 -12.454   0.527  0.00  0.00    -0.166 F 
ATOM     32  F   UNL d   1      -0.278 -12.068  -1.609  0.00  0.00    -0.166 F 
ATOM     33  F   UNL d   1       1.547 -12.046  -0.429  0.00  0.00    -0.166 F 
ENDBRANCH  27  30
ENDBRANCH  21  24
ENDBRANCH   2  20
TORSDOF 5
