REMARK  6 active torsions:
REMARK  status: ('A' for Active; 'I' for Inactive)
REMARK    1  A    between atoms: C_2  and  C_1 
REMARK    2  A    between atoms: C_3  and  C_1 
REMARK    3  A    between atoms: C_4  and  C_1 
REMARK    4  A    between atoms: C_11  and  C_2 
REMARK    5  A    between atoms: C_5  and  C_3 
REMARK    6  A    between atoms: C_7  and  C_5 
ROOT
ATOM      1  C   UNL d   1       1.181  -0.057   0.137  0.00  0.00     0.107 C 
ENDROOT
BRANCH   1   2
ATOM      2  C   UNL d   1       1.037  -0.640   1.547  0.00  0.00     0.169 C 
ATOM      3  O   UNL d   1       0.936   0.086   2.539  0.00  0.00    -0.292 OA
BRANCH   2   4
ATOM      4  C   UNL d   1       1.032  -2.124   1.732  0.00  0.00     0.010 A 
ATOM      5  C   UNL d   1       1.577  -3.008   0.791  0.00  0.00     0.015 A 
ATOM      6  C   UNL d   1       1.526  -4.389   1.007  0.00  0.00     0.001 A 
ATOM      7  C   UNL d   1       0.931  -4.894   2.160  0.00  0.00     0.000 A 
ATOM      8  C   UNL d   1       0.406  -4.022   3.113  0.00  0.00     0.001 A 
ATOM      9  C   UNL d   1       0.463  -2.642   2.903  0.00  0.00     0.015 A 
ENDBRANCH   2   4
ENDBRANCH   1   2
BRANCH   1  10
ATOM     10  C   UNL d   1       0.524   1.330   0.041  0.00  0.00     0.101 C 
BRANCH  10  11
ATOM     11  C   UNL d   1      -0.949   1.294   0.420  0.00  0.00     0.160 C 
ATOM     12  O   UNL d   1      -1.618   0.267   0.345  0.00  0.00    -0.292 OA
BRANCH  11  13
ATOM     13  C   UNL d   1      -1.591   2.567   0.867  0.00  0.00     0.010 A 
ATOM     14  C   UNL d   1      -1.080   3.820   0.506  0.00  0.00     0.017 A 
ATOM     15  C   UNL d   1      -1.717   4.991   0.932  0.00  0.00     0.025 A 
ATOM     16  C   UNL d   1      -2.865   4.910   1.719  0.00  0.00     0.034 A 
ATOM     17  C   UNL d   1      -3.381   3.669   2.085  0.00  0.00     0.025 A 
ATOM     18 CL   UNL d   1      -3.649   6.353   2.231  0.00  0.00    -0.084 Cl
ATOM     19  C   UNL d   1      -2.749   2.498   1.657  0.00  0.00     0.017 A 
ENDBRANCH  11  13
ENDBRANCH  10  11
ENDBRANCH   1  10
BRANCH   1  20
ATOM     20  C   UNL d   1       2.658   0.046  -0.191  0.00  0.00    -0.006 A 
ATOM     21  S   UNL d   1       3.215  -0.330  -1.772  0.00  0.00    -0.106 SA
ATOM     22  C   UNL d   1       4.849  -0.124  -1.315  0.00  0.00     0.050 A 
ATOM     23  C   UNL d   1       4.973   0.285  -0.007  0.00  0.00     0.008 A 
ATOM     24  C   UNL d   1       3.708   0.412   0.633  0.00  0.00     0.016 A 
ENDBRANCH   1  20
TORSDOF 6
