REMARK  4 active torsions:
REMARK  status: ('A' for Active; 'I' for Inactive)
REMARK    1  A    between atoms: C_3  and  C_1 
REMARK       I    between atoms: N_10  and  C_3 
REMARK    2  A    between atoms: C_17  and  N_10 
REMARK    3  A    between atoms: C_19  and  C_18 
REMARK    4  A    between atoms: C_24  and  C_19 
ROOT
ATOM      1  C   UNL d   1      -1.475  -3.031   0.423  0.00  0.00     0.258 C 
ATOM      2  N   UNL d   1      -0.306  -3.590  -0.061  0.00  0.00    -0.323 N 
ATOM      3  O   UNL d   1      -1.555  -2.139   1.265  0.00  0.00    -0.267 OA
ATOM      4  H   UNL d   1      -0.398  -4.300  -0.785  0.00  0.00     0.169 HD
ENDROOT
BRANCH   2   5
ATOM      5  C   UNL d   1       1.006  -3.139   0.219  0.00  0.00     0.035 A 
ATOM      6  C   UNL d   1       1.299  -2.215   1.223  0.00  0.00     0.030 A 
ATOM      7  C   UNL d   1       2.583  -1.685   1.356  0.00  0.00     0.010 A 
ATOM      8  C   UNL d   1       3.606  -2.075   0.488  0.00  0.00    -0.054 A 
ATOM      9  C   UNL d   1       3.338  -3.068  -0.462  0.00  0.00     0.010 A 
ATOM     10  C   UNL d   1       2.050  -3.607  -0.586  0.00  0.00     0.030 A 
BRANCH   8  11
ATOM     11  C   UNL d   1       4.930  -1.346   0.513  0.00  0.00     0.077 C 
BRANCH  11  12
ATOM     12  C   UNL d   1       4.899  -0.090  -0.332  0.00  0.00    -0.051 A 
ATOM     13  C   UNL d   1       4.472   1.129   0.204  0.00  0.00     0.024 A 
ATOM     14  C   UNL d   1       4.391   2.234  -0.630  0.00  0.00     0.088 A 
ATOM     15  N   UNL d   1       4.707   2.211  -1.942  0.00  0.00    -0.375 N 
ATOM     16  C   UNL d   1       5.110   1.024  -2.443  0.00  0.00     0.088 A 
ATOM     17  HN  UNL d   1       4.643   3.046  -2.525  1.00  0.00     0.164 HD
ATOM     18  C   UNL d   1       5.221  -0.136  -1.692  0.00  0.00     0.024 A 
ENDBRANCH  11  12
ENDBRANCH   8  11
ENDBRANCH   2   5
BRANCH   1  19
ATOM     19  C   UNL d   1      -2.754  -3.502  -0.151  0.00  0.00     0.061 A 
ATOM     20  C   UNL d   1      -2.897  -4.626  -1.003  0.00  0.00     0.082 A 
ATOM     21  N   UNL d   1      -1.929  -5.449  -1.450  0.00  0.00    -0.310 N 
ATOM     22  C   UNL d   1      -4.268  -5.012  -1.522  0.00  0.00     0.068 A 
ATOM     23  S   UNL d   1      -2.674  -6.598  -2.393  0.00  0.00     0.068 SA
ATOM     24  HN  UNL d   1      -0.931  -5.381  -1.249  1.00  0.00     0.176 HD
ATOM     25  N   UNL d   1      -4.253  -6.099  -2.305  0.00  0.00    -0.310 N 
ATOM     26  HN  UNL d   1      -5.055  -6.534  -2.759  1.00  0.00     0.176 HD
ATOM     27  C   UNL d   1      -5.422  -4.262  -1.184  0.00  0.00     0.032 A 
ATOM     28  C   UNL d   1      -5.221  -3.154  -0.351  0.00  0.00     0.003 A 
ATOM     29  C   UNL d   1      -3.948  -2.793   0.143  0.00  0.00     0.019 A 
ENDBRANCH   1  19
TORSDOF 4
