REMARK  6 active torsions:
REMARK  status: ('A' for Active; 'I' for Inactive)
REMARK    1  A    between atoms: C_4  and  C_1 
REMARK    2  A    between atoms: N_2  and  C_4 
REMARK    3  A    between atoms: C_11  and  C_5 
REMARK    4  A    between atoms: N_12  and  C_7 
REMARK    5  A    between atoms: O_13  and  C_11 
REMARK    6  A    between atoms: C_14  and  O_13 
ROOT
ATOM      1  C   UNL d   1       0.112   1.319  -0.127  0.00  0.00     0.051 A 
ATOM      2  C   UNL d   1       1.412   0.810  -0.005  0.00  0.00    -0.013 A 
ATOM      3  S   UNL d   1      -1.052   0.042  -0.016  0.00  0.00    -0.098 SA
ATOM      4  C   UNL d   1       0.144  -1.161   0.103  0.00  0.00     0.051 A 
ATOM      5  C   UNL d   1       1.409  -0.627   0.101  0.00  0.00     0.018 A 
ENDROOT
BRANCH   2   6
ATOM      6  C   UNL d   1       2.703   1.592   0.034  0.00  0.00     0.215 C 
BRANCH   6   7
ATOM      7  O   UNL d   1       3.247   1.817  -1.270  0.00  0.00    -0.347 OA
BRANCH   7   8
ATOM      8  C   UNL d   1       4.039   0.860  -1.831  0.00  0.00     0.069 A 
ATOM      9  C   UNL d   1       3.984   0.794  -3.227  0.00  0.00     0.038 A 
ATOM     10  C   UNL d   1       4.785  -0.108  -3.931  0.00  0.00     0.026 A 
ATOM     11  C   UNL d   1       5.655  -0.941  -3.235  0.00  0.00     0.034 A 
ATOM     12  C   UNL d   1       5.728  -0.875  -1.844  0.00  0.00     0.026 A 
ATOM     13 CL   UNL d   1       6.657  -2.044  -4.093  0.00  0.00    -0.084 Cl
ATOM     14  C   UNL d   1       4.925   0.031  -1.142  0.00  0.00     0.038 A 
ENDBRANCH   7   8
ENDBRANCH   6   7
ENDBRANCH   2   6
BRANCH   1  15
ATOM     15  C   UNL d   1      -0.386   2.685  -0.350  0.00  0.00     0.119 C 
ATOM     16  S   UNL d   1       0.443   3.710  -1.405  0.00  0.00    -0.059 SA
BRANCH  15  17
ATOM     17  N   UNL d   1      -1.508   3.006   0.396  0.00  0.00    -0.342 N 
ATOM     18  C   UNL d   1      -2.474   3.593  -0.231  0.00  0.00     0.178 C 
ATOM     19  HN  UNL d   1      -1.570   2.789   1.391  1.00  0.00     0.167 HD
BRANCH  18  20
ATOM     20  N   UNL d   1      -3.653   4.073   0.295  0.00  0.00    -0.386 N 
ATOM     21  C   UNL d   1      -4.709   4.596  -0.559  0.00  0.00     0.149 C 
ATOM     22  C   UNL d   1      -4.006   3.887   1.693  0.00  0.00     0.149 C 
ENDBRANCH  18  20
ENDBRANCH  15  17
ENDBRANCH   1  15
TORSDOF 6
