REMARK  4 active torsions:
REMARK  status: ('A' for Active; 'I' for Inactive)
REMARK    1  A    between atoms: C_6  and  C_1 
REMARK    2  A    between atoms: C_14  and  N_2 
REMARK    3  A    between atoms: O_13  and  C_4 
REMARK    4  A    between atoms: C_15  and  C_14 
ROOT
ATOM      1  N   UNL d   1      -4.092  -2.401  -0.040  0.00  0.00    -0.394 N 
ATOM      2  HN  UNL d   1      -4.604  -1.523  -0.132  1.00  0.00     0.159 HD
ATOM      3  C   UNL d   1      -2.805  -2.434   0.018  0.00  0.00     0.097 C 
ENDROOT
BRANCH   1   4
ATOM      4  C   UNL d   1      -4.781  -3.696   0.034  0.00  0.00     0.157 C 
BRANCH   4   5
ATOM      5  C   UNL d   1      -5.682  -3.797   1.243  0.00  0.00    -0.038 A 
ATOM      6  C   UNL d   1      -6.272  -2.667   1.821  0.00  0.00     0.025 A 
ATOM      7  C   UNL d   1      -7.111  -2.831   2.913  0.00  0.00     0.088 A 
ATOM      8  N   UNL d   1      -7.413  -4.029   3.454  0.00  0.00    -0.375 N 
ATOM      9  C   UNL d   1      -6.853  -5.111   2.873  0.00  0.00     0.088 A 
ATOM     10  HN  UNL d   1      -8.032  -4.113   4.261  1.00  0.00     0.164 HD
ATOM     11  C   UNL d   1      -5.999  -5.048   1.781  0.00  0.00     0.025 A 
ENDBRANCH   4   5
ENDBRANCH   1   4
BRANCH   3  12
ATOM     12  C   UNL d   1      -2.028  -1.175   0.002  0.00  0.00     0.013 A 
ATOM     13  C   UNL d   1      -2.665   0.074  -0.021  0.00  0.00     0.077 A 
ATOM     14  C   UNL d   1      -1.921   1.250  -0.013  0.00  0.00     0.039 A 
ATOM     15  C   UNL d   1      -0.529   1.185   0.015  0.00  0.00     0.022 A 
ATOM     16  C   UNL d   1       0.107  -0.058   0.034  0.00  0.00     0.011 A 
ATOM     17  C   UNL d   1      -0.632  -1.243   0.029  0.00  0.00     0.034 A 
ATOM     18 BR   UNL d   1       1.997  -0.135   0.067  0.00  0.00    -0.051 Br
BRANCH  13  19
ATOM     19  O   UNL d   1      -4.027   0.211  -0.050  0.00  0.00    -0.360 OA
ATOM     20  H   UNL d   1      -4.399  -0.701  -0.081  0.00  0.00     0.217 HD
ENDBRANCH  13  19
ENDBRANCH   3  12
TORSDOF 4
