REMARK  7 active torsions:
REMARK  status: ('A' for Active; 'I' for Inactive)
REMARK    1  A    between atoms: C_3  and  S_1 
REMARK    2  A    between atoms: C_6  and  S_1 
REMARK    3  A    between atoms: C_2  and  C_9 
REMARK    4  A    between atoms: C_4  and  C_3 
REMARK    5  A    between atoms: C_5  and  C_4 
REMARK    6  A    between atoms: O_10  and  C_5 
REMARK    7  A    between atoms: C_19  and  O_10 
ROOT
ATOM      1  C   UNL d   1      -1.149  -1.218  -1.372  0.00  0.00     0.131 C 
ENDROOT
BRANCH   1   2
ATOM      2  C   UNL d   1       0.192  -0.477  -1.462  0.00  0.00     0.118 C 
ATOM      3  C   UNL d   1       0.446   0.406  -0.248  0.00  0.00     0.027 C 
BRANCH   2   4
ATOM      4  S   UNL d   1       1.533  -1.616  -1.803  0.00  0.00     0.179 S 
ATOM      5  O   UNL d   1       1.300  -2.174  -3.120  0.00  0.00    -0.222 OA
ATOM      6  O   UNL d   1       1.712  -2.491  -0.662  0.00  0.00    -0.222 OA
BRANCH   4   7
ATOM      7  C   UNL d   1       3.013  -0.630  -1.914  0.00  0.00     0.059 A 
ATOM      8  C   UNL d   1       3.821  -0.480  -0.780  0.00  0.00     0.025 A 
ATOM      9  C   UNL d   1       5.038   0.195  -0.884  0.00  0.00     0.025 A 
ATOM     10  C   UNL d   1       5.448   0.700  -2.117  0.00  0.00     0.034 A 
ATOM     11  C   UNL d   1       4.646   0.543  -3.249  0.00  0.00     0.025 A 
ATOM     12 CL   UNL d   1       6.965   1.500  -2.249  0.00  0.00    -0.084 Cl
ATOM     13  C   UNL d   1       3.425  -0.130  -3.153  0.00  0.00     0.025 A 
ENDBRANCH   4   7
ENDBRANCH   2   4
ENDBRANCH   1   2
BRANCH   1  14
ATOM     14  C   UNL d   1      -1.146  -2.398  -0.420  0.00  0.00     0.265 C 
ATOM     15  O   UNL d   1      -1.137  -2.303   0.797  0.00  0.00    -0.265 OA
BRANCH  14  16
ATOM     16  O   UNL d   1      -1.136  -3.567  -1.186  0.00  0.00    -0.279 OA
BRANCH  16  17
ATOM     17  C   UNL d   1      -0.981  -4.895  -0.730  0.00  0.00     0.079 A 
ATOM     18  C   UNL d   1      -1.145  -5.310   0.587  0.00  0.00     0.038 A 
ATOM     19  C   UNL d   1      -0.944  -6.658   0.906  0.00  0.00     0.019 A 
ATOM     20  C   UNL d   1      -0.581  -7.590  -0.084  0.00  0.00     0.048 A 
ATOM     21  C   UNL d   1      -0.442  -7.149  -1.409  0.00  0.00     0.019 A 
ATOM     22  C   UNL d   1      -0.642  -5.808  -1.730  0.00  0.00     0.038 A 
BRANCH  20  23
ATOM     23  C   UNL d   1      -0.346  -9.043   0.246  0.00  0.00     0.417 C 
ATOM     24  F   UNL d   1      -0.360  -9.313   1.581  0.00  0.00    -0.166 F 
ATOM     25  F   UNL d   1      -1.285  -9.860  -0.309  0.00  0.00    -0.166 F 
ATOM     26  F   UNL d   1       0.855  -9.496  -0.212  0.00  0.00    -0.166 F 
ENDBRANCH  20  23
ENDBRANCH  16  17
ENDBRANCH  14  16
ENDBRANCH   1  14
TORSDOF 7
