REMARK  5 active torsions:
REMARK  status: ('A' for Active; 'I' for Inactive)
REMARK    1  A    between atoms: S_10  and  C_3 
REMARK    2  A    between atoms: C_9  and  N_8 
REMARK    3  A    between atoms: C_13  and  S_10 
REMARK    4  A    between atoms: O_15  and  N_11 
REMARK    5  A    between atoms: C_14  and  C_13 
ROOT
ATOM      1  S   UNL d   1      -1.220  -0.263   0.634  0.00  0.00    -0.026 SA
ATOM      2  C   UNL d   1      -0.391   1.159   0.109  0.00  0.00     0.166 A 
ATOM      3  C   UNL d   1       0.069  -1.187  -0.009  0.00  0.00     0.130 A 
ATOM      4  N   UNL d   1       0.748   0.884  -0.498  0.00  0.00    -0.278 N 
ATOM      5  HN  UNL d   1       1.367   1.599  -0.881  1.00  0.00     0.189 HD
ATOM      6  N   UNL d   1       1.019  -0.470  -0.563  0.00  0.00    -0.286 N 
ATOM      7  HN  UNL d   1       1.857  -0.865  -0.990  1.00  0.00     0.188 HD
ATOM      8  N   UNL d   1      -0.838   2.424   0.288  0.00  0.00    -0.330 N 
ATOM      9  H   UNL d   1      -0.247   3.155  -0.091  0.00  0.00     0.168 HD
ENDROOT
BRANCH   3  10
ATOM     10  S   UNL d   1       0.098  -2.934   0.052  0.00  0.00    -0.099 SA
BRANCH  10  11
ATOM     11  C   UNL d   1       1.885  -3.248  -0.035  0.00  0.00     0.120 C 
BRANCH  11  12
ATOM     12  C   UNL d   1       2.197  -4.727   0.002  0.00  0.00    -0.049 A 
ATOM     13  C   UNL d   1       2.323  -5.459  -1.186  0.00  0.00     0.008 A 
ATOM     14  C   UNL d   1       2.620  -6.825  -1.154  0.00  0.00     0.007 A 
ATOM     15  C   UNL d   1       2.791  -7.489   0.065  0.00  0.00    -0.062 A 
ATOM     16  C   UNL d   1       2.651  -6.766   1.254  0.00  0.00     0.007 A 
ATOM     17  C   UNL d   1       3.118  -8.954   0.082  0.00  0.00     0.048 C 
ATOM     18  C   UNL d   1       2.354  -5.399   1.223  0.00  0.00     0.008 A 
ENDBRANCH  11  12
ENDBRANCH  10  11
ENDBRANCH   3  10
BRANCH   8  19
ATOM     19  C   UNL d   1      -1.948   2.893   0.918  0.00  0.00     0.206 C 
ATOM     20  N   UNL d   1      -2.239   4.148   1.027  0.00  0.00    -0.265 N 
ATOM     21  HN  UNL d   1      -1.684   4.920   0.657  1.00  0.00     0.194 HD
BRANCH  20  22
ATOM     22  O   UNL d   1      -3.441   4.275   1.735  0.00  0.00    -0.289 OA
ATOM     23  H   UNL d   1      -3.569   5.242   1.765  0.00  0.00     0.244 HD
ENDBRANCH  20  22
ENDBRANCH   8  19
TORSDOF 5
