REMARK  4 active torsions:
REMARK  status: ('A' for Active; 'I' for Inactive)
REMARK    1  A    between atoms: N_2  and  S_1 
REMARK    2  A    between atoms: C_3  and  S_1 
REMARK    3  A    between atoms: C_5  and  N_2 
REMARK       I    between atoms: C_10  and  N_11 
REMARK    4  A    between atoms: N_11  and  C_15 
ROOT
ATOM      1  N   UNL d   1      -3.072  -1.611   1.322  0.00  0.00    -0.191 NA
ATOM      2  C   UNL d   1      -1.642   0.988  -0.626  0.00  0.00     0.063 A 
ATOM      3  C   UNL d   1      -2.924  -0.577   0.809  0.00  0.00     0.102 C 
ATOM      4  C   UNL d   1      -2.750   0.696   0.184  0.00  0.00     0.071 A 
ATOM      5  C   UNL d   1      -3.726   1.677   0.408  0.00  0.00     0.025 A 
ATOM      6  C   UNL d   1      -1.528   2.259  -1.201  0.00  0.00     0.031 A 
ATOM      7  C   UNL d   1      -3.603   2.941  -0.167  0.00  0.00     0.002 A 
ATOM      8  C   UNL d   1      -2.507   3.230  -0.974  0.00  0.00     0.002 A 
ENDROOT
BRANCH   2   9
ATOM      9  N   UNL d   1      -0.581   0.056  -0.855  0.00  0.00    -0.279 N 
ATOM     10  H   UNL d   1      -0.806  -0.909  -1.095  0.00  0.00     0.179 HD
BRANCH   9  11
ATOM     11  S   UNL d   1       0.845   0.191   0.044  0.00  0.00     0.263 S 
ATOM     12  O   UNL d   1       1.317   1.557  -0.018  0.00  0.00    -0.200 OA
ATOM     13  O   UNL d   1       1.687  -0.914  -0.362  0.00  0.00    -0.200 OA
BRANCH  11  14
ATOM     14  C   UNL d   1       0.317  -0.135   1.710  0.00  0.00     0.080 A 
ATOM     15  C   UNL d   1       0.279  -1.443   2.202  0.00  0.00     0.027 A 
ATOM     16  C   UNL d   1      -0.089  -1.673   3.538  0.00  0.00     0.031 A 
ATOM     17  C   UNL d   1      -0.403  -0.600   4.386  0.00  0.00     0.034 A 
ATOM     18  C   UNL d   1      -0.351   0.698   3.870  0.00  0.00     0.031 A 
ATOM     19  C   UNL d   1       0.008   0.936   2.543  0.00  0.00     0.027 A 
BRANCH  17  20
ATOM     20  N   UNL d   1      -0.745  -0.879   5.731  0.00  0.00    -0.328 N 
ATOM     21  C   UNL d   1      -1.078   0.050   6.703  0.00  0.00     0.218 C 
ATOM     22  O   UNL d   1      -1.149   1.268   6.561  0.00  0.00    -0.274 OA
ATOM     23  C   UNL d   1      -1.375  -0.546   8.053  0.00  0.00     0.117 C 
ATOM     24  H   UNL d   1      -0.742  -1.856   6.000  0.00  0.00     0.169 HD
ENDBRANCH  17  20
ENDBRANCH  11  14
ENDBRANCH   9  11
ENDBRANCH   2   9
TORSDOF 4
