REMARK  6 active torsions:
REMARK  status: ('A' for Active; 'I' for Inactive)
REMARK       I    between atoms: C_14  and  N_1 
REMARK    1  A    between atoms: C_17  and  C_7 
REMARK    2  A    between atoms: C_22  and  C_10 
REMARK    3  A    between atoms: C_11  and  S_18 
REMARK    4  A    between atoms: C_19  and  C_14 
REMARK    5  A    between atoms: S_18  and  C_19 
REMARK    6  A    between atoms: O_32  and  C_28 
ROOT
ATOM      1  N   UNL d   1      -2.994   1.025  -0.216  0.00  0.00    -0.250 N 
ATOM      2  N   UNL d   1      -1.689   1.456  -0.287  0.00  0.00    -0.298 N 
ATOM      3  HN  UNL d   1      -1.359   2.364  -0.613  1.00  0.00     0.187 HD
ATOM      4  C   UNL d   1      -0.965   0.471   0.145  0.00  0.00     0.043 C 
ATOM      5  C   UNL d   1      -1.717  -0.678   0.766  0.00  0.00     0.068 C 
ATOM      6  C   UNL d   1      -3.113  -0.384   0.192  0.00  0.00     0.154 C 
ATOM      7  C   UNL d   1      -4.074   1.887  -0.344  0.00  0.00     0.248 C 
ATOM      8  C   UNL d   1       0.494   0.414   0.101  0.00  0.00    -0.005 A 
ATOM      9  C   UNL d   1      -1.041  -2.041   0.597  0.00  0.00     0.018 C 
ATOM     10  C   UNL d   1       1.066  -0.849  -0.100  0.00  0.00    -0.046 A 
ATOM     11  O   UNL d   1      -5.237   1.493  -0.226  0.00  0.00    -0.271 OA
ATOM     12  C   UNL d   1       0.172  -2.038  -0.341  0.00  0.00     0.040 C 
ATOM     13  C   UNL d   1       1.274   1.563   0.220  0.00  0.00     0.014 A 
ATOM     14  C   UNL d   1       2.458  -0.950  -0.177  0.00  0.00     0.008 A 
ATOM     15  C   UNL d   1       2.662   1.445   0.162  0.00  0.00     0.001 A 
ATOM     16  C   UNL d   1       3.251   0.193  -0.035  0.00  0.00     0.001 A 
ENDROOT
BRANCH   6  17
ATOM     17  C   UNL d   1      -3.563  -1.327  -0.909  0.00  0.00    -0.033 A 
ATOM     18  C   UNL d   1      -4.607  -2.224  -0.642  0.00  0.00     0.012 A 
ATOM     19  C   UNL d   1      -4.914  -3.248  -1.542  0.00  0.00     0.037 A 
ATOM     20  C   UNL d   1      -4.200  -3.400  -2.726  0.00  0.00     0.068 A 
ATOM     21  C   UNL d   1      -3.191  -2.485  -3.027  0.00  0.00     0.037 A 
ATOM     22  C   UNL d   1      -2.892  -1.440  -2.136  0.00  0.00     0.012 A 
BRANCH  20  23
ATOM     23  O   UNL d   1      -4.517  -4.521  -3.438  0.00  0.00    -0.356 OA
ATOM     24  C   UNL d   1      -4.306  -4.518  -4.842  0.00  0.00     0.210 C 
ENDBRANCH  20  23
ENDBRANCH   6  17
BRANCH   7  25
ATOM     25  C   UNL d   1      -3.726   3.362  -0.521  0.00  0.00     0.187 C 
BRANCH  25  26
ATOM     26  S   UNL d   1      -4.847   4.212  -1.666  0.00  0.00    -0.075 SA
BRANCH  26  27
ATOM     27  C   UNL d   1      -4.167   3.663  -3.161  0.00  0.00     0.204 A 
ATOM     28  O   UNL d   1      -4.293   2.378  -3.603  0.00  0.00    -0.267 OA
ATOM     29  C   UNL d   1      -3.616   2.412  -4.791  0.00  0.00     0.175 A 
ATOM     30  N   UNL d   1      -3.103   3.601  -5.047  0.00  0.00    -0.277 N 
ATOM     31  N   UNL d   1      -3.469   4.413  -3.988  0.00  0.00    -0.272 N 
ATOM     32  HN  UNL d   1      -2.547   3.867  -5.860  1.00  0.00     0.189 HD
ATOM     33  HN  UNL d   1      -3.243   5.401  -3.871  1.00  0.00     0.189 HD
BRANCH  29  34
ATOM     34  C   UNL d   1      -3.572   1.177  -5.549  0.00  0.00     0.019 A 
ATOM     35  C   UNL d   1      -4.347   0.085  -5.164  0.00  0.00     0.033 A 
ATOM     36  C   UNL d   1      -4.280  -1.068  -5.920  0.00  0.00     0.088 A 
ATOM     37  N   UNL d   1      -3.479  -1.227  -6.990  0.00  0.00    -0.375 N 
ATOM     38  C   UNL d   1      -2.741  -0.155  -7.352  0.00  0.00     0.088 A 
ATOM     39  HN  UNL d   1      -3.432  -2.110  -7.500  1.00  0.00     0.164 HD
ATOM     40  C   UNL d   1      -2.763   1.055  -6.682  0.00  0.00     0.033 A 
ENDBRANCH  29  34
ENDBRANCH  26  27
ENDBRANCH  25  26
ENDBRANCH   7  25
TORSDOF 6
