REMARK  5 active torsions:
REMARK  status: ('A' for Active; 'I' for Inactive)
REMARK    1  A    between atoms: C_7  and  C_1 
REMARK    2  A    between atoms: C_10  and  C_2 
REMARK    3  A    between atoms: C_9  and  C_7 
REMARK    4  A    between atoms: C_18  and  N_8 
REMARK    5  A    between atoms: N_13  and  C_11 
ROOT
ATOM      1  C   UNL d   1       0.017   1.286   0.018  0.00  0.00     0.086 C 
ATOM      2  C   UNL d   1       1.329   0.845  -0.015  0.00  0.00     0.066 C 
ATOM      3  C   UNL d   1       0.315  -1.143   0.049  0.00  0.00     0.150 C 
ATOM      4  N   UNL d   1       1.473  -0.532  -0.027  0.00  0.00    -0.335 N 
ATOM      5  HN  UNL d   1       2.370  -1.013  -0.087  1.00  0.00     0.168 HD
ATOM      6  S   UNL d   1      -1.020  -0.077   0.248  0.00  0.00    -0.048 SA
ATOM      7  N   UNL d   1       0.133  -2.483   0.012  0.00  0.00    -0.337 N 
ATOM      8  H   UNL d   1      -0.788  -2.853   0.210  0.00  0.00     0.168 HD
ENDROOT
BRANCH   7   9
ATOM      9  C   UNL d   1       0.992  -3.407  -0.614  0.00  0.00     0.034 A 
ATOM     10  C   UNL d   1       1.028  -4.728  -0.167  0.00  0.00     0.032 A 
ATOM     11  C   UNL d   1       1.906  -5.667  -0.739  0.00  0.00     0.031 A 
ATOM     12  C   UNL d   1       2.775  -5.341  -1.792  0.00  0.00     0.029 A 
ATOM     13  C   UNL d   1       2.721  -4.009  -2.225  0.00  0.00     0.031 A 
ATOM     14  C   UNL d   1       1.871  -3.058  -1.639  0.00  0.00     0.032 A 
BRANCH  12  15
ATOM     15  N   UNL d   1       3.599  -6.271  -2.414  0.00  0.00    -0.390 N 
ATOM     16  C   UNL d   1       4.893  -5.872  -2.969  0.00  0.00     0.149 C 
ATOM     17  C   UNL d   1       3.464  -7.705  -2.179  0.00  0.00     0.149 C 
ENDBRANCH  12  15
ENDBRANCH   7   9
BRANCH   1  18
ATOM     18  C   UNL d   1      -0.517   2.635   0.022  0.00  0.00     0.201 C 
ATOM     19  O   UNL d   1      -0.020   3.541   0.684  0.00  0.00    -0.286 OA
BRANCH  18  20
ATOM     20  C   UNL d   1      -1.698   2.995  -0.836  0.00  0.00     0.016 A 
ATOM     21  C   UNL d   1      -2.100   2.228  -1.942  0.00  0.00     0.018 A 
ATOM     22  C   UNL d   1      -3.229   2.596  -2.682  0.00  0.00     0.043 A 
ATOM     23  C   UNL d   1      -3.930   3.746  -2.343  0.00  0.00     0.116 A 
ATOM     24  C   UNL d   1      -3.518   4.548  -1.286  0.00  0.00     0.043 A 
ATOM     25  F   UNL d   1      -5.013   4.091  -3.051  0.00  0.00    -0.206 F 
ATOM     26  C   UNL d   1      -2.402   4.173  -0.534  0.00  0.00     0.018 A 
ENDBRANCH  18  20
ENDBRANCH   1  18
BRANCH   2  27
ATOM     27  C   UNL d   1       2.534   1.667  -0.073  0.00  0.00    -0.008 A 
ATOM     28  C   UNL d   1       3.678   1.236   0.620  0.00  0.00     0.014 A 
ATOM     29  C   UNL d   1       4.868   1.965   0.563  0.00  0.00     0.001 A 
ATOM     30  C   UNL d   1       4.928   3.134  -0.191  0.00  0.00     0.000 A 
ATOM     31  C   UNL d   1       3.803   3.569  -0.889  0.00  0.00     0.001 A 
ATOM     32  C   UNL d   1       2.615   2.835  -0.838  0.00  0.00     0.014 A 
ENDBRANCH   2  27
TORSDOF 5
