REMARK  5 active torsions:
REMARK  status: ('A' for Active; 'I' for Inactive)
REMARK    1  A    between atoms: N_7  and  C_1 
REMARK       I    between atoms: C_8  and  N_7 
REMARK       I    between atoms: N_10  and  C_8 
REMARK    2  A    between atoms: C_15  and  N_10 
REMARK    3  A    between atoms: C_12  and  O_14 
REMARK    4  A    between atoms: O_14  and  C_16 
REMARK    5  A    between atoms: C_16  and  C_15 
ROOT
ATOM      1  N   UNL d   1       0.227   2.554   0.043  0.00  0.00    -0.305 N 
ATOM      2  C   UNL d   1       1.388   3.288   0.093  0.00  0.00     0.320 C 
ATOM      3  O   UNL d   1       2.509   2.838   0.309  0.00  0.00    -0.247 OA
ATOM      4  N   UNL d   1       1.185   4.635  -0.140  0.00  0.00    -0.341 N 
ATOM      5  H   UNL d   1      -0.631   3.041   0.250  0.00  0.00     0.171 HD
ATOM      6  H   UNL d   1       0.276   5.010   0.078  0.00  0.00     0.164 HD
ENDROOT
BRANCH   1   7
ATOM      7  C   UNL d   1       0.170   1.161   0.066  0.00  0.00     0.092 A 
ATOM      8  C   UNL d   1       1.103   0.215  -0.319  0.00  0.00     0.101 A 
ATOM      9  O   UNL d   1       0.584  -1.029  -0.119  0.00  0.00    -0.240 OA
ATOM     10  C   UNL d   1       2.453   0.189  -0.919  0.00  0.00     0.081 C 
ATOM     11  N   UNL d   1      -0.695  -0.935   0.375  0.00  0.00    -0.263 N 
ATOM     12  C   UNL d   1      -0.947   0.373   0.479  0.00  0.00     0.058 A 
ATOM     13  HN  UNL d   1      -1.322  -1.704   0.612  1.00  0.00     0.194 HD
ATOM     14  C   UNL d   1      -2.254   0.808   1.021  0.00  0.00     0.072 C 
ENDBRANCH   1   7
BRANCH   4  15
ATOM     15  C   UNL d   1       2.332   5.531  -0.040  0.00  0.00     0.151 C 
BRANCH  15  16
ATOM     16  C   UNL d   1       2.122   6.893  -0.698  0.00  0.00     0.195 C 
BRANCH  16  17
ATOM     17  O   UNL d   1       3.349   7.622  -0.617  0.00  0.00    -0.350 OA
BRANCH  17  18
ATOM     18  C   UNL d   1       3.377   8.865  -1.188  0.00  0.00     0.068 A 
ATOM     19  C   UNL d   1       2.304   9.496  -1.819  0.00  0.00     0.037 A 
ATOM     20  C   UNL d   1       2.458  10.777  -2.357  0.00  0.00     0.003 A 
ATOM     21  C   UNL d   1       3.684  11.434  -2.268  0.00  0.00     0.000 A 
ATOM     22  C   UNL d   1       4.760  10.809  -1.643  0.00  0.00     0.003 A 
ATOM     23  C   UNL d   1       4.605   9.529  -1.106  0.00  0.00     0.037 A 
ENDBRANCH  17  18
ENDBRANCH  16  17
ENDBRANCH  15  16
ENDBRANCH   4  15
TORSDOF 5
