REMARK  7 active torsions:
REMARK  status: ('A' for Active; 'I' for Inactive)
REMARK    1  A    between atoms: C1*_3  and  N_1 
REMARK    2  A    between atoms: C2*_9  and  O2*_27 
REMARK    3  A    between atoms: N_13  and  N_18 
REMARK    4  A    between atoms: C3*_16  and  O3*_29 
REMARK    5  A    between atoms: C4*_17  and  C5*_30 
REMARK    6  A    between atoms: N_28  and  C_22 
REMARK    7  A    between atoms: O5*_33  and  C5*_30 
ROOT
ATOM      1  N   UNL d   1       1.377   1.265  -0.397  0.00  0.00    -0.134 N 
ATOM      2  C   UNL d   1       2.084   2.356  -0.887  0.00  0.00     0.703 C 
ATOM      3  C   UNL d   1       0.075   1.679  -0.247  0.00  0.00     0.158 A 
ATOM      4  N   UNL d   1       1.352   3.451  -0.825  0.00  0.00    -0.182 N 
ATOM      5  HN  UNL d   1       1.651   4.404  -1.034  1.00  0.00     0.184 HD
ATOM      6  C   UNL d   1       0.111   3.046  -0.423  0.00  0.00     0.137 A 
ATOM      7  N   UNL d   1       3.398   2.304  -1.240  0.00  0.00    -0.131 N 
ATOM      8  N   UNL d   1      -1.004   0.950   0.072  0.00  0.00    -0.336 N 
ATOM      9  HN  UNL d   1      -1.000  -0.063   0.187  1.00  0.00     0.168 HD
ATOM     10  C   UNL d   1      -1.061   3.767  -0.158  0.00  0.00     0.131 A 
ATOM     11  N   UNL d   1      -2.184   3.076   0.135  0.00  0.00    -0.337 N 
ATOM     12  HN  UNL d   1      -3.071   3.556   0.286  1.00  0.00     0.168 HD
ATOM     13  C   UNL d   1      -2.095   1.732   0.223  0.00  0.00     0.183 A 
ATOM     14  H   UNL d   1       3.901   1.412  -1.238  0.00  0.00     0.205 HD
ENDROOT
BRANCH   1  15
ATOM     15  C1* UNL d   1       1.966   0.056   0.134  0.00  0.00     0.279 C 
ATOM     16  C2* UNL d   1       1.089  -1.186   0.339  0.00  0.00     0.199 C 
ATOM     17  C3* UNL d   1       0.684  -1.108   1.804  0.00  0.00     0.182 C 
ATOM     18  C4* UNL d   1       1.890  -0.429   2.446  0.00  0.00     0.179 C 
ATOM     19  O4* UNL d   1       2.535   0.375   1.432  0.00  0.00    -0.353 OA
BRANCH  16  20
ATOM     20  O2* UNL d   1       1.857  -2.400   0.142  0.00  0.00    -0.388 OA
ATOM     21  H2* UNL d   1       2.677  -2.334   0.670  0.00  0.00     0.210 HD
ENDBRANCH  16  20
BRANCH  17  22
ATOM     22  O3* UNL d   1       0.469  -2.402   2.372  0.00  0.00    -0.390 OA
ATOM     23  H3* UNL d   1       0.584  -3.049   1.647  0.00  0.00     0.210 HD
ENDBRANCH  17  22
BRANCH  18  24
ATOM     24  C5* UNL d   1       1.519   0.445   3.652  0.00  0.00     0.198 C 
BRANCH  24  25
ATOM     25  O5* UNL d   1       0.645   1.506   3.275  0.00  0.00    -0.398 OA
ATOM     26  H5* UNL d   1       1.147   2.074   2.654  0.00  0.00     0.209 HD
ENDBRANCH  24  25
ENDBRANCH  18  24
ENDBRANCH   1  15
BRANCH   7  27
ATOM     27  N   UNL d   1       4.127   3.420  -0.944  0.00  0.00    -0.281 N 
ATOM     28  C   UNL d   1       5.246   3.232  -0.333  0.00  0.00     0.129 C 
ATOM     29  C   UNL d   1       6.006   1.931  -0.081  0.00  0.00     0.275 C 
ATOM     30  C   UNL d   1       5.838   4.228   0.546  0.00  0.00     0.024 A 
ATOM     31  N   UNL d   1       6.890   2.214   0.936  0.00  0.00    -0.321 N 
ATOM     32  O   UNL d   1       5.776   0.880  -0.643  0.00  0.00    -0.266 OA
ATOM     33  C   UNL d   1       6.731   3.534   1.355  0.00  0.00     0.047 A 
ATOM     34  H   UNL d   1       7.462   1.514   1.380  0.00  0.00     0.169 HD
ATOM     35  C   UNL d   1       7.230   4.108   2.508  0.00  0.00     0.030 A 
ATOM     36  C   UNL d   1       6.772   5.394   2.832  0.00  0.00     0.002 A 
ATOM     37  C   UNL d   1       5.876   6.091   1.995  0.00  0.00     0.001 A 
ATOM     38  C   UNL d   1       5.394   5.503   0.825  0.00  0.00     0.016 A 
ATOM     39  HN  UNL d   1       3.802   4.354  -1.194  1.00  0.00     0.188 HD
ENDBRANCH   7  27
BRANCH  10  40
ATOM     40  N   UNL d   1      -1.111   5.154  -0.179  0.00  0.00    -0.383 N 
ATOM     41  H   UNL d   1      -0.331   5.578  -0.671  0.00  0.00     0.157 HD
ATOM     42  H   UNL d   1      -2.038   5.516  -0.340  0.00  0.00     0.157 HD
ENDBRANCH  10  40
TORSDOF 7
