REMARK  4 active torsions:
REMARK  status: ('A' for Active; 'I' for Inactive)
REMARK    1  A    between atoms: N_2  and  S_1 
REMARK    2  A    between atoms: C_9  and  S_1 
REMARK    3  A    between atoms: C_3  and  C_5 
REMARK    4  A    between atoms: C_6  and  N_4 
ROOT
ATOM      1  C   UNL d   1       1.326   1.216   1.252  0.00  0.00     0.074 A 
ATOM      2  N   UNL d   1       1.583   4.988   5.089  0.00  0.00    -0.191 NA
ATOM      3  C   UNL d   1       1.527   4.160   4.278  0.00  0.00     0.099 C 
ATOM      4  C   UNL d   1       2.571   1.666   1.693  0.00  0.00     0.026 A 
ATOM      5  C   UNL d   1       0.144   1.710   1.820  0.00  0.00     0.026 A 
ATOM      6  C   UNL d   1       1.458   3.141   3.270  0.00  0.00     0.044 A 
ATOM      7  C   UNL d   1       0.213   2.672   2.833  0.00  0.00     0.024 A 
ATOM      8  C   UNL d   1       2.635   2.630   2.705  0.00  0.00     0.024 A 
ENDROOT
BRANCH   1   9
ATOM      9  S   UNL d   1       1.205   0.087  -0.121  0.00  0.00     0.243 S 
ATOM     10  O   UNL d   1       0.321   0.713  -1.077  0.00  0.00    -0.206 OA
ATOM     11  O   UNL d   1       2.546  -0.329  -0.480  0.00  0.00    -0.206 OA
BRANCH   9  12
ATOM     12  N   UNL d   1       0.413  -1.235   0.587  0.00  0.00    -0.203 NA
ATOM     13  C   UNL d   1       1.282  -2.235   1.298  0.00  0.00     0.127 C 
ATOM     14  C   UNL d   1       1.835  -3.328   0.344  0.00  0.00     0.140 C 
ATOM     15  N   UNL d   1       0.716  -3.917  -0.412  0.00  0.00    -0.365 N 
ATOM     16  C   UNL d   1      -0.006  -2.930  -1.228  0.00  0.00     0.140 C 
ATOM     17  C   UNL d   1      -0.627  -1.904  -0.263  0.00  0.00     0.127 C 
BRANCH  15  18
ATOM     18  C   UNL d   1       0.875  -5.184  -0.956  0.00  0.00     0.102 A 
ATOM     19  N   UNL d   1       0.619  -5.392  -2.265  0.00  0.00    -0.352 N 
ATOM     20  C   UNL d   1       0.627  -6.664  -2.737  0.00  0.00     0.106 A 
ATOM     21  HN  UNL d   1       0.423  -4.608  -2.887  1.00  0.00     0.166 HD
ATOM     22  C   UNL d   1       0.861  -7.782  -1.956  0.00  0.00     0.063 A 
ATOM     23  C   UNL d   1       1.137  -7.562  -0.608  0.00  0.00     0.021 A 
ATOM     24  C   UNL d   1       1.152  -6.260  -0.112  0.00  0.00     0.049 A 
BRANCH  22  25
ATOM     25  C   UNL d   1       0.771  -9.162  -2.522  0.00  0.00     0.418 C 
ATOM     26  F   UNL d   1       0.592  -9.193  -3.872  0.00  0.00    -0.166 F 
ATOM     27  F   UNL d   1       1.888  -9.902  -2.278  0.00  0.00    -0.166 F 
ATOM     28  F   UNL d   1      -0.266  -9.872  -1.995  0.00  0.00    -0.166 F 
ENDBRANCH  22  25
ENDBRANCH  15  18
ENDBRANCH   9  12
ENDBRANCH   1   9
TORSDOF 4
