REMARK  4 active torsions:
REMARK  status: ('A' for Active; 'I' for Inactive)
REMARK    1  A    between atoms: C_6  and  C_1 
REMARK    2  A    between atoms: C_2  and  C_5 
REMARK    3  A    between atoms: C_20  and  N_3 
REMARK    4  A    between atoms: C_21  and  N_4 
ROOT
ATOM      1  C   UNL d   1       0.001  -4.820   1.060  0.00  0.00     0.178 A 
ATOM      2  C   UNL d   1      -0.227  -2.840   0.280  0.00  0.00     0.178 A 
ATOM      3  O   UNL d   1       0.366  -3.519   1.317  0.00  0.00    -0.272 OA
ATOM      4  N   UNL d   1      -0.701  -4.921  -0.050  0.00  0.00    -0.277 N 
ATOM      5  HN  UNL d   1      -1.043  -5.783  -0.476  1.00  0.00     0.189 HD
ATOM      6  N   UNL d   1      -0.883  -3.652  -0.524  0.00  0.00    -0.277 N 
ATOM      7  HN  UNL d   1      -1.426  -3.384  -1.345  1.00  0.00     0.189 HD
ENDROOT
BRANCH   1   8
ATOM      8  C   UNL d   1       0.282  -5.984   1.940  0.00  0.00     0.065 A 
ATOM      9  C   UNL d   1      -0.024  -7.305   1.655  0.00  0.00     0.047 A 
ATOM     10  N   UNL d   1       0.329  -8.023   2.792  0.00  0.00    -0.260 N 
ATOM     11  C   UNL d   1      -0.693  -7.874   0.450  0.00  0.00     0.071 C 
ATOM     12  N   UNL d   1       0.787  -7.203   3.776  0.00  0.00    -0.297 N 
ATOM     13  C   UNL d   1       0.833  -5.982   3.234  0.00  0.00     0.039 A 
ATOM     14  HN  UNL d   1       1.043  -7.465   4.729  1.00  0.00     0.187 HD
ATOM     15  C   UNL d   1       1.354  -4.836   4.017  0.00  0.00     0.071 C 
BRANCH  10  16
ATOM     16  C   UNL d   1       0.205  -9.417   3.037  0.00  0.00     0.056 A 
ATOM     17  C   UNL d   1       0.379 -10.356   2.012  0.00  0.00     0.031 A 
ATOM     18  C   UNL d   1       0.146 -11.710   2.257  0.00  0.00     0.002 A 
ATOM     19  C   UNL d   1      -0.253 -12.131   3.524  0.00  0.00     0.000 A 
ATOM     20  C   UNL d   1      -0.379 -11.206   4.561  0.00  0.00     0.002 A 
ATOM     21  C   UNL d   1      -0.133  -9.852   4.325  0.00  0.00     0.031 A 
ENDBRANCH  10  16
ENDBRANCH   1   8
BRANCH   2  22
ATOM     22  C   UNL d   1      -0.147  -1.377   0.047  0.00  0.00     0.065 A 
ATOM     23  C   UNL d   1      -0.875  -0.676  -0.900  0.00  0.00     0.047 A 
ATOM     24  N   UNL d   1      -0.454   0.643  -0.791  0.00  0.00    -0.260 N 
ATOM     25  C   UNL d   1      -1.846  -1.191  -1.908  0.00  0.00     0.071 C 
ATOM     26  N   UNL d   1       0.557   0.773   0.107  0.00  0.00    -0.297 N 
ATOM     27  C   UNL d   1       0.682  -0.430   0.677  0.00  0.00     0.039 A 
ATOM     28  HN  UNL d   1       1.104   1.611   0.306  1.00  0.00     0.187 HD
ATOM     29  C   UNL d   1       1.656  -0.641   1.776  0.00  0.00     0.071 C 
BRANCH  24  30
ATOM     30  C   UNL d   1      -0.918   1.780  -1.507  0.00  0.00     0.056 A 
ATOM     31  C   UNL d   1      -2.260   1.900  -1.893  0.00  0.00     0.031 A 
ATOM     32  C   UNL d   1      -2.667   2.971  -2.688  0.00  0.00     0.002 A 
ATOM     33  C   UNL d   1      -1.740   3.931  -3.092  0.00  0.00     0.000 A 
ATOM     34  C   UNL d   1      -0.414   3.844  -2.668  0.00  0.00     0.002 A 
ATOM     35  C   UNL d   1      -0.004   2.782  -1.858  0.00  0.00     0.031 A 
ENDBRANCH  24  30
ENDBRANCH   2  22
TORSDOF 4
