REMARK  4 active torsions:
REMARK  status: ('A' for Active; 'I' for Inactive)
REMARK    1  A    between atoms: C_12  and  C_3 
REMARK    2  A    between atoms: C_8  and  C_9 
REMARK    3  A    between atoms: C_11  and  N_10 
REMARK    4  A    between atoms: N_19  and  C_18 
ROOT
ATOM      1  S   UNL d   1       1.118  -0.029   0.275  0.00  0.00    -0.033 SA
ATOM      2  C   UNL d   1      -0.104   1.171   0.079  0.00  0.00     0.166 A 
ATOM      3  C   UNL d   1      -0.103  -1.225   0.071  0.00  0.00     0.102 A 
ATOM      4  N   UNL d   1      -1.294  -0.718  -0.176  0.00  0.00    -0.291 N 
ATOM      5  HN  UNL d   1      -2.123  -1.282  -0.364  1.00  0.00     0.187 HD
ATOM      6  N   UNL d   1      -1.295   0.657  -0.153  0.00  0.00    -0.279 N 
ATOM      7  HN  UNL d   1      -2.132   1.222  -0.301  1.00  0.00     0.189 HD
ATOM      8  N   UNL d   1       0.202   2.493   0.148  0.00  0.00    -0.335 N 
ATOM      9  H   UNL d   1       1.181   2.754   0.149  0.00  0.00     0.168 HD
ENDROOT
BRANCH   8  10
ATOM     10  C   UNL d   1      -0.687   3.520   0.535  0.00  0.00     0.049 A 
ATOM     11  C   UNL d   1      -0.563   4.831   0.036  0.00  0.00     0.074 A 
ATOM     12  C   UNL d   1      -1.485   5.820   0.452  0.00  0.00     0.018 A 
ATOM     13  C   UNL d   1      -2.518   5.520   1.335  0.00  0.00     0.001 A 
ATOM     14  C   UNL d   1      -2.659   4.225   1.808  0.00  0.00     0.002 A 
ATOM     15  C   UNL d   1      -1.761   3.237   1.405  0.00  0.00     0.030 A 
BRANCH  11  16
ATOM     16  C   UNL d   1       0.478   5.247  -0.973  0.00  0.00     0.419 C 
ATOM     17  F   UNL d   1       1.400   4.289  -1.276  0.00  0.00    -0.166 F 
ATOM     18  F   UNL d   1      -0.066   5.634  -2.160  0.00  0.00    -0.166 F 
ATOM     19  F   UNL d   1       1.209   6.317  -0.540  0.00  0.00    -0.166 F 
ENDBRANCH  11  16
ENDBRANCH   8  10
BRANCH   3  20
ATOM     20  C   UNL d   1       0.185  -2.664   0.118  0.00  0.00    -0.001 A 
ATOM     21  C   UNL d   1       1.137  -3.220   0.984  0.00  0.00     0.016 A 
ATOM     22  C   UNL d   1       1.349  -4.605   1.015  0.00  0.00     0.024 A 
ATOM     23  C   UNL d   1       0.650  -5.456   0.156  0.00  0.00     0.005 A 
ATOM     24  C   UNL d   1      -0.340  -4.915  -0.660  0.00  0.00     0.024 A 
ATOM     25  C   UNL d   1      -0.560  -3.532  -0.690  0.00  0.00     0.016 A 
BRANCH  23  26
ATOM     26  N   UNL d   1       0.774  -6.844   0.288  0.00  0.00    -0.303 NA
ATOM     27  H   UNL d   1       0.488  -7.363  -0.537  0.00  0.00     0.124 HD
ATOM     28  H   UNL d   1       1.676  -7.150   0.639  0.00  0.00     0.124 HD
ENDBRANCH  23  26
ENDBRANCH   3  20
TORSDOF 4
