REMARK  4 active torsions:
REMARK  status: ('A' for Active; 'I' for Inactive)
REMARK    1  A    between atoms: C_8  and  C_1 
REMARK    2  A    between atoms: C_9  and  C_5 
REMARK    3  A    between atoms: C_7  and  C_8 
REMARK    4  A    between atoms: N_12  and  C_10 
ROOT
ATOM      1  C   UNL d   1      -0.157  -1.057  -0.029  0.00  0.00     0.079 A 
ATOM      2  S   UNL d   1       1.357  -0.255  -0.046  0.00  0.00    -0.066 SA
ATOM      3  N   UNL d   1      -0.732   1.220  -0.036  0.00  0.00    -0.352 N 
ATOM      4  HN  UNL d   1      -1.348   2.032  -0.062  1.00  0.00     0.166 HD
ATOM      5  C   UNL d   1       0.582   1.279  -0.010  0.00  0.00     0.085 A 
ATOM      6  C   UNL d   1      -1.167  -0.102  -0.025  0.00  0.00     0.027 A 
ATOM      7  C   UNL d   1      -2.636  -0.349  -0.005  0.00  0.00     0.070 C 
ENDROOT
BRANCH   1   8
ATOM      8  C   UNL d   1      -0.303  -2.512  -0.019  0.00  0.00     0.192 C 
ATOM      9  O   UNL d   1      -1.412  -3.049   0.012  0.00  0.00    -0.287 OA
BRANCH   8  10
ATOM     10  C   UNL d   1       0.916  -3.388  -0.044  0.00  0.00     0.073 C 
ATOM     11  C   UNL d   1       0.811  -4.726  -0.028  0.00  0.00     0.088 C 
BRANCH  11  12
ATOM     12  N   UNL d   1       1.804  -5.698  -0.047  0.00  0.00    -0.398 N 
ATOM     13  C   UNL d   1       3.240  -5.429  -0.087  0.00  0.00     0.148 C 
ATOM     14  C   UNL d   1       1.474  -7.127  -0.023  0.00  0.00     0.148 C 
ENDBRANCH  11  12
ENDBRANCH   8  10
ENDBRANCH   1   8
BRANCH   5  15
ATOM     15  C   UNL d   1       1.365   2.530   0.006  0.00  0.00    -0.002 A 
ATOM     16  C   UNL d   1       0.829   3.693  -0.573  0.00  0.00     0.016 A 
ATOM     17  C   UNL d   1       1.547   4.895  -0.576  0.00  0.00     0.024 A 
ATOM     18  C   UNL d   1       2.809   4.949   0.010  0.00  0.00     0.034 A 
ATOM     19  C   UNL d   1       3.353   3.815   0.605  0.00  0.00     0.024 A 
ATOM     20 CL   UNL d   1       3.697   6.422   0.007  0.00  0.00    -0.084 Cl
ATOM     21  C   UNL d   1       2.634   2.615   0.605  0.00  0.00     0.016 A 
ENDBRANCH   5  15
TORSDOF 4
