REMARK  4 active torsions:
REMARK  status: ('A' for Active; 'I' for Inactive)
REMARK    1  A    between atoms: N_2  and  S_1 
REMARK    2  A    between atoms: C_3  and  S_1 
REMARK    3  A    between atoms: C_7  and  C_10 
REMARK    4  A    between atoms: O_16  and  C_11 
ROOT
ATOM      1  N   UNL d   1       0.378   0.358  -1.678  0.00  0.00    -0.307 N 
ATOM      2  C   UNL d   1       0.517   1.800  -1.974  0.00  0.00     0.136 C 
ATOM      3  C   UNL d   1       0.825  -0.636  -2.682  0.00  0.00     0.136 C 
ATOM      4  C   UNL d   1       1.100   1.175  -4.438  0.00  0.00     0.024 C 
ATOM      5  C   UNL d   1       0.537   2.197  -3.446  0.00  0.00     0.030 C 
ATOM      6  C   UNL d   1       0.521  -0.202  -4.107  0.00  0.00     0.030 C 
ENDROOT
BRANCH   1   7
ATOM      7  S   UNL d   1       0.631  -0.094  -0.039  0.00  0.00     0.260 S 
ATOM      8  O   UNL d   1       0.057  -1.408   0.146  0.00  0.00    -0.200 OA
ATOM      9  O   UNL d   1       0.247   1.021   0.807  0.00  0.00    -0.200 OA
BRANCH   7  10
ATOM     10  C   UNL d   1       2.405  -0.270   0.105  0.00  0.00     0.081 A 
ATOM     11  C   UNL d   1       3.225   0.861   0.149  0.00  0.00     0.044 A 
ATOM     12  C   UNL d   1       4.609   0.701   0.194  0.00  0.00     0.012 A 
ATOM     13 BR   UNL d   1       5.730   2.225   0.169  0.00  0.00    -0.051 Br
ATOM     14  C   UNL d   1       5.179  -0.572   0.240  0.00  0.00     0.019 A 
ATOM     15  C   UNL d   1       4.354  -1.698   0.271  0.00  0.00     0.003 A 
ATOM     16  C   UNL d   1       2.966  -1.550   0.206  0.00  0.00     0.025 A 
ENDBRANCH   7  10
ENDBRANCH   1   7
BRANCH   4  17
ATOM     17  C   UNL d   1       2.619   1.156  -4.624  0.00  0.00    -0.021 A 
ATOM     18  C   UNL d   1       3.196   0.993  -5.901  0.00  0.00     0.074 A 
ATOM     19  C   UNL d   1       4.587   0.873  -6.048  0.00  0.00     0.037 A 
ATOM     20  C   UNL d   1       5.425   0.962  -4.942  0.00  0.00     0.003 A 
ATOM     21  C   UNL d   1       4.879   1.170  -3.686  0.00  0.00     0.001 A 
ATOM     22  C   UNL d   1       3.495   1.266  -3.532  0.00  0.00     0.010 A 
BRANCH  18  23
ATOM     23  O   UNL d   1       2.342   0.923  -6.976  0.00  0.00    -0.355 OA
ATOM     24  C   UNL d   1       2.868   1.447  -8.193  0.00  0.00     0.210 C 
ENDBRANCH  18  23
ENDBRANCH   4  17
TORSDOF 4
