REMARK  3 active torsions:
REMARK  status: ('A' for Active; 'I' for Inactive)
REMARK    1  A    between atoms: C_13  and  N_3 
REMARK    2  A    between atoms: C_14  and  N_12 
REMARK    3  A    between atoms: C_25  and  C_13 
ROOT
ATOM      1  C   UNL d   1      -0.345  -0.927  -0.087  0.00  0.00     0.160 A 
ATOM      2  C   UNL d   1      -0.562   0.415  -0.181  0.00  0.00     0.164 A 
ATOM      3  N   UNL d   1       1.769   0.784  -0.051  0.00  0.00    -0.260 N 
ATOM      4  N   UNL d   1      -1.505  -1.636  -0.043  0.00  0.00    -0.174 N 
ATOM      5  HN  UNL d   1      -1.609  -2.649   0.013  1.00  0.00     0.186 HD
ATOM      6  N   UNL d   1       0.920  -1.449   0.013  0.00  0.00    -0.287 N 
ATOM      7  C   UNL d   1      -2.467  -0.737  -0.087  0.00  0.00     0.684 A 
ATOM      8  C   UNL d   1       2.015  -0.590   0.096  0.00  0.00     0.333 A 
ATOM      9  C   UNL d   1       0.502   1.367  -0.206  0.00  0.00     0.283 A 
ATOM     10  N   UNL d   1      -1.930   0.544  -0.173  0.00  0.00    -0.178 N 
ATOM     11  N   UNL d   1      -3.793  -0.945   0.113  0.00  0.00    -0.214 N 
ATOM     12  N   UNL d   1      -5.796  -2.868  -0.711  0.00  0.00    -0.364 N 
ATOM     13  O   UNL d   1       3.149  -1.031   0.302  0.00  0.00    -0.246 OA
ATOM     14  O   UNL d   1       0.325   2.574  -0.339  0.00  0.00    -0.265 OA
ATOM     15  C   UNL d   1      -4.190  -2.071   0.994  0.00  0.00     0.161 C 
ATOM     16  C   UNL d   1      -4.767  -0.625  -0.949  0.00  0.00     0.161 C 
ATOM     17  C   UNL d   1      -4.742  -3.291   0.230  0.00  0.00     0.145 C 
ATOM     18  C   UNL d   1      -5.330  -1.872  -1.677  0.00  0.00     0.145 C 
ATOM     19  C   UNL d   1       1.154  -2.876   0.102  0.00  0.00     0.163 C 
ATOM     20  C   UNL d   1      -2.681   1.771  -0.064  0.00  0.00     0.176 C 
ENDROOT
BRANCH  12  21
ATOM     21  C   UNL d   1      -7.002  -3.529  -0.733  0.00  0.00     0.102 A 
ATOM     22  N   UNL d   1      -7.269  -4.402   0.266  0.00  0.00    -0.352 N 
ATOM     23  C   UNL d   1      -8.460  -5.046   0.295  0.00  0.00     0.089 A 
ATOM     24  HN  UNL d   1      -6.575  -4.575   0.993  1.00  0.00     0.166 HD
ATOM     25  C   UNL d   1      -9.453  -4.871  -0.644  0.00  0.00     0.017 A 
ATOM     26  C   UNL d   1      -9.198  -3.985  -1.674  0.00  0.00     0.005 A 
ATOM     27  C   UNL d   1      -7.971  -3.314  -1.716  0.00  0.00     0.048 A 
ENDBRANCH  12  21
BRANCH   3  28
ATOM     28  C   UNL d   1       2.923   1.676   0.003  0.00  0.00     0.175 C 
BRANCH  28  29
ATOM     29  C   UNL d   1       3.621   1.812  -1.337  0.00  0.00    -0.040 A 
ATOM     30  C   UNL d   1       3.265   2.835  -2.228  0.00  0.00     0.010 A 
ATOM     31  C   UNL d   1       3.895   2.942  -3.472  0.00  0.00     0.024 A 
ATOM     32  C   UNL d   1       4.876   2.022  -3.837  0.00  0.00     0.034 A 
ATOM     33  C   UNL d   1       5.244   1.004  -2.964  0.00  0.00     0.024 A 
ATOM     34 CL   UNL d   1       5.634   2.143  -5.377  0.00  0.00    -0.084 Cl
ATOM     35  C   UNL d   1       4.621   0.902  -1.718  0.00  0.00     0.010 A 
ENDBRANCH  28  29
ENDBRANCH   3  28
TORSDOF 3
