REMARK  5 active torsions:
REMARK  status: ('A' for Active; 'I' for Inactive)
REMARK    1  A    between atoms: C_9  and  N_1 
REMARK    2  A    between atoms: C_12  and  C_6 
REMARK    3  A    between atoms: C_19  and  C_12 
REMARK    4  A    between atoms: N_20  and  N_14 
REMARK    5  A    between atoms: C_18  and  N_20 
ROOT
ATOM      1  N   UNL d   1      -0.495  -0.903  -1.065  0.00  0.00    -0.227 N 
ATOM      2  N   UNL d   1       0.686  -0.358   0.655  0.00  0.00    -0.226 N 
ATOM      3  HN  UNL d   1       1.484  -0.197   1.270  1.00  0.00     0.210 HD
ATOM      4  N   UNL d   1       0.764  -0.894  -0.548  0.00  0.00    -0.220 N 
ATOM      5  HN  UNL d   1       1.609  -1.238  -1.005  1.00  0.00     0.210 HD
ATOM      6  C   UNL d   1      -1.338  -0.390  -0.077  0.00  0.00     0.125 A 
ATOM      7  N   UNL d   1      -0.600  -0.048   0.964  0.00  0.00    -0.271 N 
ATOM      8  HN  UNL d   1      -0.932   0.370   1.833  1.00  0.00     0.190 HD
ENDROOT
BRANCH   6   9
ATOM      9  C   UNL d   1      -2.814  -0.274  -0.081  0.00  0.00     0.126 C 
BRANCH   9  10
ATOM     10  C   UNL d   1      -3.409  -1.638   0.123  0.00  0.00     0.087 C 
ATOM     11  N   UNL d   1      -4.263  -2.128  -0.721  0.00  0.00    -0.315 N 
ATOM     12  HN  UNL d   1      -4.572  -1.625  -1.552  1.00  0.00     0.185 HD
BRANCH  11  13
ATOM     13  N   UNL d   1      -4.709  -3.369  -0.399  0.00  0.00    -0.301 N 
ATOM     14  H   UNL d   1      -4.711  -3.669   0.576  0.00  0.00     0.187 HD
BRANCH  13  15
ATOM     15  C   UNL d   1      -5.737  -3.951  -1.171  0.00  0.00     0.049 A 
ATOM     16  C   UNL d   1      -6.121  -3.450  -2.421  0.00  0.00     0.056 A 
ATOM     17  C   UNL d   1      -7.099  -4.097  -3.188  0.00  0.00     0.058 A 
ATOM     18 CL   UNL d   1      -7.519  -3.400  -4.714  0.00  0.00    -0.082 Cl
ATOM     19  C   UNL d   1      -7.695  -5.270  -2.716  0.00  0.00     0.055 A 
ATOM     20  C   UNL d   1      -7.304  -5.794  -1.483  0.00  0.00     0.028 A 
ATOM     21 CL   UNL d   1      -8.904  -6.126  -3.605  0.00  0.00    -0.083 Cl
ATOM     22  C   UNL d   1      -6.326  -5.144  -0.725  0.00  0.00     0.033 A 
ENDBRANCH  13  15
ENDBRANCH  11  13
ENDBRANCH   9  10
ENDBRANCH   6   9
BRANCH   1  23
ATOM     23  C   UNL d   1      -0.707  -1.382  -2.390  0.00  0.00     0.059 A 
ATOM     24  C   UNL d   1       0.380  -1.945  -3.086  0.00  0.00     0.032 A 
ATOM     25  C   UNL d   1       0.232  -2.412  -4.396  0.00  0.00     0.009 A 
ATOM     26  C   UNL d   1      -1.002  -2.322  -5.044  0.00  0.00    -0.062 A 
ATOM     27  C   UNL d   1      -2.083  -1.771  -4.355  0.00  0.00     0.009 A 
ATOM     28  C   UNL d   1      -1.154  -2.811  -6.453  0.00  0.00     0.048 C 
ATOM     29  C   UNL d   1      -1.939  -1.303  -3.043  0.00  0.00     0.032 A 
ENDBRANCH   1  23
TORSDOF 5
