REMARK  5 active torsions:
REMARK  status: ('A' for Active; 'I' for Inactive)
REMARK       I    between atoms: N_3  and  C_1 
REMARK    1  A    between atoms: C_8  and  C_1 
REMARK    2  A    between atoms: O_5  and  C_2 
REMARK    3  A    between atoms: C_4  and  N_3 
REMARK    4  A    between atoms: C_12  and  O_5 
REMARK    5  A    between atoms: C_24  and  C_16 
ROOT
ATOM      1  C   UNL d   1       1.139   0.599  -3.716  0.00  0.00     0.175 A 
ATOM      2  C   UNL d   1       1.248   0.827  -2.341  0.00  0.00     0.087 A 
ATOM      3  N   UNL d   1       1.798   1.331  -4.655  0.00  0.00    -0.345 N 
ATOM      4  HN  UNL d   1       1.735   1.101  -5.647  1.00  0.00     0.167 HD
ATOM      5  C   UNL d   1       1.993   1.943  -1.948  0.00  0.00     0.035 A 
ATOM      6  C   UNL d   1       2.536   2.372  -4.223  0.00  0.00     0.090 A 
ATOM      7  C   UNL d   1       2.644   2.729  -2.895  0.00  0.00     0.019 A 
ENDROOT
BRANCH   2   8
ATOM      8  N   UNL d   1       0.609  -0.021  -1.395  0.00  0.00    -0.319 N 
ATOM      9  C   UNL d   1       1.048  -0.165  -0.087  0.00  0.00     0.256 C 
ATOM     10  O   UNL d   1       2.108   0.300   0.332  0.00  0.00    -0.267 OA
ATOM     11  H   UNL d   1      -0.063  -0.677  -1.771  0.00  0.00     0.169 HD
BRANCH   9  12
ATOM     12  C   UNL d   1       0.208  -0.938   0.877  0.00  0.00     0.032 A 
ATOM     13  C   UNL d   1      -0.989  -1.582   0.554  0.00  0.00     0.017 A 
ATOM     14  C   UNL d   1      -1.731  -2.229   1.553  0.00  0.00     0.008 A 
ATOM     15  C   UNL d   1      -1.290  -2.243   2.885  0.00  0.00    -0.059 A 
ATOM     16  C   UNL d   1      -0.091  -1.603   3.206  0.00  0.00     0.008 A 
ATOM     17  C   UNL d   1       0.649  -0.966   2.211  0.00  0.00     0.017 A 
BRANCH  15  18
ATOM     18  C   UNL d   1      -2.106  -2.895   3.970  0.00  0.00     0.034 C 
ATOM     19  C   UNL d   1      -3.092  -1.920   4.597  0.00  0.00     0.010 C 
ENDBRANCH  15  18
ENDBRANCH   9  12
ENDBRANCH   2   8
BRANCH   1  20
ATOM     20  O   UNL d   1       0.340  -0.467  -4.137  0.00  0.00    -0.292 OA
BRANCH  20  21
ATOM     21  C   UNL d   1      -0.029  -0.479  -5.467  0.00  0.00     0.078 A 
ATOM     22  C   UNL d   1       0.162  -1.659  -6.185  0.00  0.00     0.039 A 
ATOM     23  C   UNL d   1      -0.169  -1.708  -7.543  0.00  0.00     0.026 A 
ATOM     24  C   UNL d   1      -0.699  -0.579  -8.171  0.00  0.00     0.034 A 
ATOM     25  C   UNL d   1      -0.930   0.589  -7.446  0.00  0.00     0.026 A 
ATOM     26 CL   UNL d   1      -1.067  -0.625  -9.850  0.00  0.00    -0.084 Cl
ATOM     27  C   UNL d   1      -0.615   0.632  -6.086  0.00  0.00     0.039 A 
ENDBRANCH  20  21
ENDBRANCH   1  20
TORSDOF 5
