REMARK  9 active torsions:
REMARK  status: ('A' for Active; 'I' for Inactive)
REMARK    1  A    between atoms: N_10  and  C_1 
REMARK    2  A    between atoms: C_13  and  C_2 
REMARK    3  A    between atoms: C_6  and  S_19 
REMARK       I    between atoms: C_11  and  N_9 
REMARK       I    between atoms: C_18  and  N_10 
REMARK    4  A    between atoms: O_25  and  C_11 
REMARK    5  A    between atoms: O_26  and  C_13 
REMARK    6  A    between atoms: C_24  and  C_18 
REMARK    7  A    between atoms: S_19  and  C_24 
REMARK    8  A    between atoms: C_29  and  O_25 
REMARK    9  A    between atoms: C_30  and  O_26 
ROOT
ATOM      1  C   UNL d   1       2.164   1.055  -0.087  0.00  0.00     0.094 C 
ATOM      2  C   UNL d   1       1.052   1.882  -0.159  0.00  0.00     0.080 C 
ATOM      3  C   UNL d   1       0.130  -0.292  -0.080  0.00  0.00     0.010 C 
ATOM      4  C   UNL d   1      -0.148   1.066  -0.090  0.00  0.00    -0.023 C 
ATOM      5  S   UNL d   1       1.797  -0.603  -0.148  0.00  0.00    -0.074 SA
ATOM      6  N   UNL d   1      -2.204  -0.852  -0.307  0.00  0.00    -0.323 N 
ATOM      7  C   UNL d   1      -2.972  -1.408  -1.304  0.00  0.00     0.363 C 
ATOM      8  C   UNL d   1      -0.879  -1.407  -0.037  0.00  0.00     0.174 C 
ATOM      9  C   UNL d   1      -1.577   1.543  -0.103  0.00  0.00     0.061 C 
ATOM     10  C   UNL d   1      -2.529   0.421   0.356  0.00  0.00     0.133 C 
ATOM     11  O   UNL d   1      -2.660  -2.413  -1.937  0.00  0.00    -0.238 OA
ENDROOT
BRANCH   1  12
ATOM     12  N   UNL d   1       3.522   1.301  -0.071  0.00  0.00    -0.320 N 
ATOM     13  C   UNL d   1       4.068   2.047   0.966  0.00  0.00     0.232 C 
ATOM     14  O   UNL d   1       3.437   2.524   1.909  0.00  0.00    -0.272 OA
ATOM     15  H   UNL d   1       4.111   0.534  -0.391  0.00  0.00     0.169 HD
BRANCH  13  16
ATOM     16  C   UNL d   1       5.577   2.200   0.860  0.00  0.00     0.186 C 
BRANCH  16  17
ATOM     17  S   UNL d   1       6.427   0.950   1.864  0.00  0.00    -0.077 SA
BRANCH  17  18
ATOM     18  C   UNL d   1       5.990  -0.501   1.012  0.00  0.00     0.188 A 
ATOM     19  N   UNL d   1       5.678  -0.514  -0.275  0.00  0.00    -0.329 N 
ATOM     20  C   UNL d   1       5.353  -1.826  -0.518  0.00  0.00     0.068 A 
ATOM     21  HN  UNL d   1       5.679   0.267  -0.931  1.00  0.00     0.168 HD
ATOM     22  C   UNL d   1       4.941  -2.470  -1.691  0.00  0.00     0.032 A 
ATOM     23  C   UNL d   1       5.441  -2.554   0.656  0.00  0.00     0.105 A 
ATOM     24  C   UNL d   1       4.613  -3.832  -1.612  0.00  0.00     0.002 A 
ATOM     25  C   UNL d   1       4.699  -4.529  -0.400  0.00  0.00     0.003 A 
ATOM     26  C   UNL d   1       5.124  -3.900   0.777  0.00  0.00     0.040 A 
ATOM     27  O   UNL d   1       5.867  -1.711   1.637  0.00  0.00    -0.285 OA
ENDBRANCH  17  18
ENDBRANCH  16  17
ENDBRANCH  13  16
ENDBRANCH   1  12
BRANCH   2  28
ATOM     28  C   UNL d   1       1.079   3.335  -0.393  0.00  0.00     0.296 C 
ATOM     29  O   UNL d   1       0.087   3.964  -0.774  0.00  0.00    -0.259 OA
BRANCH  28  30
ATOM     30  O   UNL d   1       2.319   3.882  -0.279  0.00  0.00    -0.318 OA
BRANCH  30  31
ATOM     31  C   UNL d   1       2.552   5.174  -0.847  0.00  0.00     0.174 C 
ATOM     32  C   UNL d   1       2.468   6.272   0.192  0.00  0.00     0.034 C 
ENDBRANCH  30  31
ENDBRANCH  28  30
ENDBRANCH   2  28
BRANCH   7  33
ATOM     33  O   UNL d   1      -4.105  -0.693  -1.538  0.00  0.00    -0.304 OA
BRANCH  33  34
ATOM     34  C   UNL d   1      -4.784  -0.972  -2.769  0.00  0.00     0.176 C 
ATOM     35  C   UNL d   1      -4.185  -0.085  -3.845  0.00  0.00     0.034 C 
ENDBRANCH  33  34
ENDBRANCH   7  33
TORSDOF 9
