REMARK  5 active torsions:
REMARK  status: ('A' for Active; 'I' for Inactive)
REMARK    1  A    between atoms: C_5  and  C_1 
REMARK    2  A    between atoms: N_2  and  C_11 
REMARK    3  A    between atoms: O_16  and  C_5 
REMARK    4  A    between atoms: C_13  and  C_6 
REMARK    5  A    between atoms: C_21  and  O_16 
ROOT
ATOM      1  C   UNL d   1       1.311  -0.935  -1.758  0.00  0.00     0.120 C 
ATOM      2  C   UNL d   1       0.436  -0.790  -0.737  0.00  0.00     0.040 C 
ATOM      3  C   UNL d   1       2.723  -0.895  -1.510  0.00  0.00     0.105 C 
ATOM      4  N   UNL d   1       3.866  -0.850  -1.274  0.00  0.00    -0.191 NA
ENDROOT
BRANCH   1   5
ATOM      5  C   UNL d   1       0.812  -1.165  -3.144  0.00  0.00     0.303 C 
ATOM      6  O   UNL d   1      -0.279  -0.827  -3.573  0.00  0.00    -0.258 OA
BRANCH   5   7
ATOM      7  O   UNL d   1       1.720  -1.903  -3.838  0.00  0.00    -0.317 OA
BRANCH   7   8
ATOM      8  C   UNL d   1       1.212  -2.536  -5.021  0.00  0.00     0.174 C 
ATOM      9  C   UNL d   1       0.682  -3.900  -4.619  0.00  0.00     0.034 C 
ENDBRANCH   7   8
ENDBRANCH   5   7
ENDBRANCH   1   5
BRANCH   2  10
ATOM     10  C   UNL d   1      -1.037  -0.842  -0.812  0.00  0.00    -0.035 A 
ATOM     11  C   UNL d   1      -1.716  -2.061  -0.722  0.00  0.00     0.013 A 
ATOM     12  C   UNL d   1      -3.117  -2.109  -0.815  0.00  0.00     0.031 A 
ATOM     13  C   UNL d   1      -3.867  -0.932  -0.947  0.00  0.00     0.039 A 
ATOM     14  C   UNL d   1      -3.185   0.289  -1.026  0.00  0.00     0.031 A 
ATOM     15  C   UNL d   1      -1.782   0.330  -0.980  0.00  0.00     0.013 A 
BRANCH  13  16
ATOM     16  N   UNL d   1      -5.301  -0.976  -0.990  0.00  0.00    -0.320 N 
ATOM     17  C   UNL d   1      -6.142  -0.143  -1.743  0.00  0.00     0.013 A 
ATOM     18  C   UNL d   1      -7.454  -0.486  -1.474  0.00  0.00     0.027 A 
ATOM     19  C   UNL d   1      -5.724   0.882  -2.744  0.00  0.00     0.068 C 
ATOM     20  C   UNL d   1      -7.446  -1.559  -0.578  0.00  0.00     0.027 A 
ATOM     21  C   UNL d   1      -6.130  -1.851  -0.271  0.00  0.00     0.013 A 
ATOM     22  C   UNL d   1      -5.706  -2.865   0.739  0.00  0.00     0.068 C 
ENDBRANCH  13  16
ENDBRANCH   2  10
TORSDOF 5
