REMARK  2 active torsions:
REMARK  status: ('A' for Active; 'I' for Inactive)
REMARK       I    between atoms: N_2  and  C_1 
REMARK       I    between atoms: N_5  and  C_1 
REMARK    1  A    between atoms: C_3  and  N_4 
REMARK    2  A    between atoms: C_15  and  N_5 
ROOT
ATOM      1  C   UNL d   1       1.003   0.183   0.045  0.00  0.00     0.323 C 
ATOM      2  N   UNL d   1       0.331   0.447   1.228  0.00  0.00    -0.331 N 
ATOM      3  N   UNL d   1      -0.066   0.578   4.039  0.00  0.00    -0.214 N 
ATOM      4  N   UNL d   1       0.643  -0.969  -0.611  0.00  0.00    -0.309 N 
ATOM      5  O   UNL d   1       1.865   0.963  -0.362  0.00  0.00    -0.247 OA
ATOM      6  C   UNL d   1       0.685   1.673   1.967  0.00  0.00     0.148 C 
ATOM      7  C   UNL d   1      -0.768  -0.309   1.855  0.00  0.00     0.148 C 
ATOM      8  C   UNL d   1       1.004   1.377   3.444  0.00  0.00     0.161 C 
ATOM      9  C   UNL d   1      -0.453  -0.636   3.327  0.00  0.00     0.161 C 
ATOM     10  H   UNL d   1      -0.063  -1.544  -0.193  0.00  0.00     0.170 HD
ENDROOT
BRANCH   4  11
ATOM     11  C   UNL d   1       1.126  -1.438  -1.855  0.00  0.00     0.036 A 
ATOM     12  C   UNL d   1       2.135  -0.811  -2.590  0.00  0.00     0.029 A 
ATOM     13  C   UNL d   1       2.525  -1.310  -3.836  0.00  0.00     0.002 A 
ATOM     14  C   UNL d   1       1.914  -2.446  -4.358  0.00  0.00     0.000 A 
ATOM     15  C   UNL d   1       0.921  -3.092  -3.627  0.00  0.00     0.002 A 
ATOM     16  C   UNL d   1       0.533  -2.594  -2.380  0.00  0.00     0.029 A 
ENDBRANCH   4  11
BRANCH   3  17
ATOM     17  C   UNL d   1      -0.755   1.010   5.140  0.00  0.00     0.679 A 
ATOM     18  N   UNL d   1      -1.778   0.266   5.596  0.00  0.00    -0.202 N 
ATOM     19  C   UNL d   1      -2.427   0.692   6.695  0.00  0.00     0.107 A 
ATOM     20  HN  UNL d   1      -2.054  -0.594   5.123  1.00  0.00     0.183 HD
ATOM     21  C   UNL d   1      -2.104   1.840   7.367  0.00  0.00     0.035 A 
ATOM     22  C   UNL d   1      -1.058   2.544   6.833  0.00  0.00     0.107 A 
ATOM     23  N   UNL d   1      -0.382   2.154   5.736  0.00  0.00    -0.202 N 
ATOM     24  HN  UNL d   1       0.389   2.711   5.368  1.00  0.00     0.183 HD
ENDBRANCH   3  17
TORSDOF 2
