REMARK  4 active torsions:
REMARK  status: ('A' for Active; 'I' for Inactive)
REMARK    1  A    between atoms: C_10  and  N_1 
REMARK    2  A    between atoms: C_3  and  C_12 
REMARK    3  A    between atoms: O_20  and  C_8 
REMARK    4  A    between atoms: O_21  and  C_11 
ROOT
ATOM      1  C   UNL d   1      -2.693   3.730  -4.021  0.00  0.00     0.000 A 
ATOM      2  C   UNL d   1      -1.990   3.951  -2.709  0.00  0.00     0.049 C 
ATOM      3  C   UNL d   1      -2.398   2.687  -4.909  0.00  0.00     0.054 A 
ATOM      4  N   UNL d   1      -2.042   5.084  -2.079  0.00  0.00    -0.388 N 
ATOM      5  HN  UNL d   1      -1.577   5.198  -1.178  1.00  0.00     0.159 HD
ATOM      6  C   UNL d   1      -3.693   4.651  -4.364  0.00  0.00    -0.041 A 
ATOM      7  C   UNL d   1      -3.118   2.538  -6.106  0.00  0.00     0.102 A 
ATOM      8  C   UNL d   1      -4.374   4.530  -5.582  0.00  0.00     0.047 A 
ATOM      9  C   UNL d   1      -4.101   3.468  -6.454  0.00  0.00     0.102 A 
ATOM     10  C   UNL d   1      -2.779   6.197  -2.683  0.00  0.00     0.124 C 
ATOM     11  C   UNL d   1      -4.046   5.730  -3.380  0.00  0.00     0.059 C 
ENDROOT
BRANCH   2  12
ATOM     12  C   UNL d   1      -1.181   2.870  -2.054  0.00  0.00    -0.009 A 
ATOM     13  C   UNL d   1      -0.040   3.247  -1.323  0.00  0.00     0.016 A 
ATOM     14  C   UNL d   1       0.751   2.284  -0.689  0.00  0.00     0.037 A 
ATOM     15  C   UNL d   1       0.398   0.935  -0.786  0.00  0.00     0.102 A 
ATOM     16  C   UNL d   1      -0.755   0.550  -1.486  0.00  0.00     0.037 A 
ATOM     17  C   UNL d   1      -1.552   1.524  -2.097  0.00  0.00     0.016 A 
BRANCH  15  18
ATOM     18  N   UNL d   1       1.237  -0.089  -0.146  0.00  0.00    -0.116 N 
ATOM     19  O   UNL d   1       0.922  -1.274  -0.310  0.00  0.00    -0.532 OA
ATOM     20  O   UNL d   1       2.212   0.297   0.513  0.00  0.00    -0.532 OA
ENDBRANCH  15  18
ENDBRANCH   2  12
BRANCH   7  21
ATOM     21  O   UNL d   1      -2.880   1.377  -6.793  0.00  0.00    -0.353 OA
ATOM     22  C   UNL d   1      -2.253   1.566  -8.057  0.00  0.00     0.210 C 
ENDBRANCH   7  21
BRANCH   9  23
ATOM     23  O   UNL d   1      -4.802   3.515  -7.626  0.00  0.00    -0.353 OA
ATOM     24  C   UNL d   1      -5.421   2.303  -8.037  0.00  0.00     0.210 C 
ENDBRANCH   9  23
TORSDOF 4
