REMARK  7 active torsions:
REMARK  status: ('A' for Active; 'I' for Inactive)
REMARK    1  A    between atoms: C_2  and  C_1 
REMARK    2  A    between atoms: O_5  and  C_2 
REMARK    3  A    between atoms: S_4  and  C_3 
REMARK    4  A    between atoms: C_13  and  S_4 
REMARK    5  A    between atoms: C_9  and  O_5 
REMARK    6  A    between atoms: C_6  and  C_9 
REMARK    7  A    between atoms: C_7  and  C_6 
ROOT
ATOM      1  C   UNL d   1       1.301  -0.128  -0.189  0.00  0.00     0.056 A 
ATOM      2  C   UNL d   1       0.556  -1.319  -0.040  0.00  0.00     0.021 A 
ATOM      3  C   UNL d   1       0.631   1.113  -0.158  0.00  0.00     0.019 A 
ATOM      4  C   UNL d   1      -0.844  -1.229   0.086  0.00  0.00     0.020 A 
ATOM      5  C   UNL d   1      -0.755   1.177  -0.009  0.00  0.00     0.001 A 
ATOM      6  C   UNL d   1      -1.493   0.006   0.104  0.00  0.00     0.001 A 
ENDROOT
BRANCH   1   7
ATOM      7  C   UNL d   1       2.768  -0.134  -0.466  0.00  0.00     0.295 C 
ATOM      8  O   UNL d   1       3.369  -1.063  -0.982  0.00  0.00    -0.259 OA
BRANCH   7   9
ATOM      9  O   UNL d   1       3.345   1.033  -0.067  0.00  0.00    -0.310 OA
BRANCH   9  10
ATOM     10  C   UNL d   1       4.761   1.109  -0.250  0.00  0.00     0.263 C 
BRANCH  10  11
ATOM     11  C   UNL d   1       5.233   2.333  -1.035  0.00  0.00     0.183 C 
ATOM     12  O   UNL d   1       4.471   3.226  -1.400  0.00  0.00    -0.290 OA
BRANCH  11  13
ATOM     13  C   UNL d   1       6.697   2.428  -1.358  0.00  0.00     0.012 A 
ATOM     14  C   UNL d   1       7.620   1.473  -0.907  0.00  0.00     0.016 A 
ATOM     15  C   UNL d   1       8.976   1.582  -1.236  0.00  0.00     0.020 A 
ATOM     16  C   UNL d   1       9.417   2.650  -2.012  0.00  0.00     0.011 A 
ATOM     17  C   UNL d   1       8.516   3.610  -2.464  0.00  0.00     0.020 A 
ATOM     18 BR   UNL d   1      11.251   2.791  -2.449  0.00  0.00    -0.051 Br
ATOM     19  C   UNL d   1       7.158   3.501  -2.139  0.00  0.00     0.016 A 
ENDBRANCH  11  13
ENDBRANCH  10  11
ENDBRANCH   9  10
ENDBRANCH   7   9
ENDBRANCH   1   7
BRANCH   2  20
ATOM     20  S   UNL d   1       1.214  -2.984  -0.102  0.00  0.00    -0.090 SA
BRANCH  20  21
ATOM     21  C   UNL d   1       1.542  -3.443   1.594  0.00  0.00     0.005 A 
ATOM     22  C   UNL d   1       0.886  -2.899   2.704  0.00  0.00     0.019 A 
ATOM     23  C   UNL d   1       1.202  -3.327   4.000  0.00  0.00     0.001 A 
ATOM     24  C   UNL d   1       2.170  -4.309   4.201  0.00  0.00     0.000 A 
ATOM     25  C   UNL d   1       2.806  -4.883   3.105  0.00  0.00     0.001 A 
ATOM     26  C   UNL d   1       2.490  -4.455   1.811  0.00  0.00     0.019 A 
ENDBRANCH  20  21
ENDBRANCH   2  20
TORSDOF 7
