REMARK  2 active torsions:
REMARK  status: ('A' for Active; 'I' for Inactive)
REMARK    1  A    between atoms: N_7  and  C_3 
REMARK    2  A    between atoms: C_14  and  C_6 
ROOT
ATOM      1  C   UNL d   1       0.238   0.974  -0.008  0.00  0.00     0.038 A 
ATOM      2  C   UNL d   1      -0.028  -0.382  -0.018  0.00  0.00     0.089 A 
ATOM      3  C   UNL d   1       1.600   1.352   0.007  0.00  0.00     0.096 A 
ATOM      4  C   UNL d   1      -0.987   1.726  -0.040  0.00  0.00     0.037 A 
ATOM      5  S   UNL d   1      -1.691  -0.726  -0.013  0.00  0.00    -0.071 SA
ATOM      6  C   UNL d   1      -2.123   0.938  -0.035  0.00  0.00     0.018 A 
ATOM      7  N   UNL d   1       2.534   0.376  -0.034  0.00  0.00    -0.342 N 
ATOM      8  HN  UNL d   1       3.527   0.608  -0.060  1.00  0.00     0.167 HD
ATOM      9  N   UNL d   1       0.878  -1.373  -0.024  0.00  0.00    -0.346 N 
ATOM     10  HN  UNL d   1       0.639  -2.364  -0.018  1.00  0.00     0.167 HD
ATOM     11  C   UNL d   1       2.130  -0.907  -0.039  0.00  0.00     0.182 A 
ENDROOT
BRANCH   3  12
ATOM     12  N   UNL d   1       1.966   2.704   0.014  0.00  0.00    -0.265 NA
ATOM     13  C   UNL d   1       3.305   2.990  -0.538  0.00  0.00     0.127 C 
ATOM     14  C   UNL d   1       3.469   4.527  -0.666  0.00  0.00     0.286 C 
ATOM     15  N   UNL d   1       3.277   5.234   0.624  0.00  0.00     0.086 N 
ATOM     16  C   UNL d   1       1.971   4.856   1.208  0.00  0.00     0.286 C 
ATOM     17  C   UNL d   1       3.355   6.681   0.440  0.00  0.00     0.310 C 
ATOM     18  C   UNL d   1       1.800   3.324   1.344  0.00  0.00     0.127 C 
ENDBRANCH   3  12
BRANCH   6  19
ATOM     19  C   UNL d   1      -3.537   1.355   0.001  0.00  0.00    -0.019 A 
ATOM     20  C   UNL d   1      -4.549   0.612  -0.627  0.00  0.00     0.013 A 
ATOM     21  C   UNL d   1      -5.889   1.003  -0.539  0.00  0.00     0.001 A 
ATOM     22  C   UNL d   1      -6.237   2.150   0.168  0.00  0.00     0.000 A 
ATOM     23  C   UNL d   1      -5.246   2.916   0.774  0.00  0.00     0.001 A 
ATOM     24  C   UNL d   1      -3.907   2.523   0.688  0.00  0.00     0.013 A 
ENDBRANCH   6  19
TORSDOF 2
