REMARK  2 active torsions:
REMARK  status: ('A' for Active; 'I' for Inactive)
REMARK    1  A    between atoms: C_8  and  C_6 
REMARK    2  A    between atoms: C_11  and  C_9 
ROOT
ATOM      1  C   UNL d   1       1.315   0.744   0.052  0.00  0.00     0.302 A 
ATOM      2  N   UNL d   1       0.413  -1.897   0.018  0.00  0.00    -0.336 N 
ATOM      3  HN  UNL d   1       0.124  -2.875   0.008  1.00  0.00     0.168 HD
ATOM      4  O   UNL d   1       2.162  -0.314   0.057  0.00  0.00    -0.257 OA
ATOM      5  C   UNL d   1      -0.126   0.463   0.028  0.00  0.00     0.066 A 
ATOM      6  C   UNL d   1       1.661  -1.566   0.036  0.00  0.00     0.152 A 
ATOM      7  C   UNL d   1      -0.519  -0.866   0.013  0.00  0.00     0.050 A 
ATOM      8  O   UNL d   1       1.726   1.898   0.065  0.00  0.00    -0.259 OA
ATOM      9  C   UNL d   1      -1.073   1.494   0.016  0.00  0.00     0.020 A 
ATOM     10  C   UNL d   1      -1.880  -1.174  -0.016  0.00  0.00     0.030 A 
ATOM     11  C   UNL d   1      -2.432   1.180  -0.011  0.00  0.00     0.001 A 
ATOM     12  C   UNL d   1      -2.836  -0.156  -0.027  0.00  0.00     0.002 A 
ENDROOT
BRANCH   6  13
ATOM     13  C   UNL d   1       2.717  -2.599   0.014  0.00  0.00     0.057 C 
ATOM     14  C   UNL d   1       4.036  -2.357  -0.014  0.00  0.00     0.015 C 
BRANCH  14  15
ATOM     15  C   UNL d   1       5.049  -3.423  -0.101  0.00  0.00    -0.036 A 
ATOM     16  C   UNL d   1       4.812  -4.624  -0.787  0.00  0.00     0.011 A 
ATOM     17  C   UNL d   1       5.807  -5.598  -0.890  0.00  0.00     0.001 A 
ATOM     18  C   UNL d   1       7.059  -5.378  -0.322  0.00  0.00     0.000 A 
ATOM     19  C   UNL d   1       7.315  -4.184   0.347  0.00  0.00     0.001 A 
ATOM     20  C   UNL d   1       6.318  -3.209   0.453  0.00  0.00     0.011 A 
ENDBRANCH  14  15
ENDBRANCH   6  13
TORSDOF 2
