REMARK  5 active torsions:
REMARK  status: ('A' for Active; 'I' for Inactive)
REMARK    1  A    between atoms: N_7  and  C_1 
REMARK    2  A    between atoms: N_10  and  C_1 
REMARK    3  A    between atoms: C_2  and  N_8 
REMARK    4  A    between atoms: C_3  and  C_4 
REMARK    5  A    between atoms: C_16  and  N_10 
ROOT
ATOM      1  N   UNL d   1       0.279   1.162  -0.600  0.00  0.00    -0.355 N 
ATOM      2  N   UNL d   1      -0.230   3.916  -1.183  0.00  0.00    -0.363 N 
ATOM      3  C   UNL d   1       0.533   1.668  -1.958  0.00  0.00     0.145 C 
ATOM      4  C   UNL d   1      -0.747   1.894   0.144  0.00  0.00     0.145 C 
ATOM      5  C   UNL d   1       0.791   3.190  -1.955  0.00  0.00     0.144 C 
ATOM      6  C   UNL d   1      -0.513   3.409   0.162  0.00  0.00     0.144 C 
ENDROOT
BRANCH   1   7
ATOM      7  C   UNL d   1       0.895   0.030  -0.112  0.00  0.00     0.174 C 
ATOM      8  S   UNL d   1       1.623  -0.052   1.393  0.00  0.00    -0.041 SA
BRANCH   7   9
ATOM      9  N   UNL d   1       1.011  -1.034  -0.967  0.00  0.00    -0.333 N 
ATOM     10  H   UNL d   1       1.766  -1.673  -0.750  0.00  0.00     0.168 HD
BRANCH   9  11
ATOM     11  C   UNL d   1      -0.051  -1.608  -1.715  0.00  0.00     0.035 A 
ATOM     12  C   UNL d   1       0.267  -2.590  -2.653  0.00  0.00     0.053 A 
ATOM     13  C   UNL d   1      -0.751  -3.229  -3.377  0.00  0.00     0.042 A 
ATOM     14 CL   UNL d   1      -0.284  -4.401  -4.557  0.00  0.00    -0.084 Cl
ATOM     15  C   UNL d   1      -2.102  -2.926  -3.143  0.00  0.00    -0.040 A 
ATOM     16  C   UNL d   1      -2.407  -1.950  -2.189  0.00  0.00     0.011 A 
ATOM     17  C   UNL d   1      -3.217  -3.624  -3.870  0.00  0.00     0.050 C 
ATOM     18  C   UNL d   1      -1.391  -1.299  -1.484  0.00  0.00     0.030 A 
ENDBRANCH   9  11
ENDBRANCH   7   9
ENDBRANCH   1   7
BRANCH   2  19
ATOM     19  C   UNL d   1      -0.877   4.995  -1.742  0.00  0.00     0.125 A 
ATOM     20  N   UNL d   1      -1.140   4.907  -3.074  0.00  0.00    -0.350 N 
ATOM     21  C   UNL d   1      -1.828   5.902  -3.689  0.00  0.00     0.106 A 
ATOM     22  HN  UNL d   1      -0.821   4.099  -3.608  1.00  0.00     0.166 HD
ATOM     23  C   UNL d   1      -2.293   7.033  -3.046  0.00  0.00     0.065 A 
ATOM     24  C   UNL d   1      -2.003   7.149  -1.689  0.00  0.00     0.045 A 
ATOM     25  C   UNL d   1      -1.286   6.142  -1.033  0.00  0.00     0.078 A 
ATOM     26 CL   UNL d   1      -0.860   6.474   0.613  0.00  0.00    -0.080 Cl
BRANCH  23  27
ATOM     27  C   UNL d   1      -3.052   8.077  -3.801  0.00  0.00     0.418 C 
ATOM     28  F   UNL d   1      -3.466   9.113  -3.020  0.00  0.00    -0.166 F 
ATOM     29  F   UNL d   1      -2.318   8.634  -4.801  0.00  0.00    -0.166 F 
ATOM     30  F   UNL d   1      -4.175   7.583  -4.389  0.00  0.00    -0.166 F 
ENDBRANCH  23  27
ENDBRANCH   2  19
TORSDOF 5
