REMARK  5 active torsions:
REMARK  status: ('A' for Active; 'I' for Inactive)
REMARK    1  A    between atoms: C_3  and  S_1 
REMARK    2  A    between atoms: N_12  and  S_1 
REMARK    3  A    between atoms: C_10  and  C_2 
REMARK    4  A    between atoms: C_8  and  C_11 
REMARK    5  A    between atoms: C_13  and  N_12 
ROOT
ATOM      1  C   UNL d   1       0.602  -1.764  -0.348  0.00  0.00     0.116 A 
ATOM      2  S   UNL d   1       1.137  -2.851   0.862  0.00  0.00    -0.075 SA
ATOM      3  C   UNL d   1       0.566  -4.208  -0.004  0.00  0.00     0.034 A 
ATOM      4  C   UNL d   1      -0.093  -2.421  -1.345  0.00  0.00     0.034 A 
ATOM      5  C   UNL d   1      -0.104  -3.834  -1.151  0.00  0.00     0.023 A 
ENDROOT
BRANCH   1   6
ATOM      6  S   UNL d   1       1.019  -0.050  -0.108  0.00  0.00     0.248 S 
ATOM      7  O   UNL d   1       0.292   0.663  -1.137  0.00  0.00    -0.205 OA
ATOM      8  O   UNL d   1       2.461  -0.013  -0.028  0.00  0.00    -0.205 OA
BRANCH   6   9
ATOM      9  N   UNL d   1       0.430   0.423   1.387  0.00  0.00    -0.202 NA
ATOM     10  H   UNL d   1       1.166   0.831   1.975  0.00  0.00     0.141 HD
BRANCH   9  11
ATOM     11  C   UNL d   1      -0.842   1.191   1.437  0.00  0.00     0.163 C 
ATOM     12  C   UNL d   1      -0.964   1.767   2.860  0.00  0.00     0.236 C 
ATOM     13  N   UNL d   1      -2.089   2.474   3.181  0.00  0.00    -0.360 N 
ATOM     14  O   UNL d   1      -0.077   1.641   3.705  0.00  0.00    -0.272 OA
ATOM     15  C   UNL d   1      -3.081   2.978   2.257  0.00  0.00     0.122 C 
ATOM     16  H   UNL d   1      -2.079   2.840   4.127  0.00  0.00     0.162 HD
ATOM     17  C   UNL d   1      -3.950   1.881   1.657  0.00  0.00     0.020 C 
ATOM     18  C   UNL d   1      -3.239   1.050   0.594  0.00  0.00     0.004 C 
ATOM     19  C   UNL d   1      -2.028   0.280   1.115  0.00  0.00     0.030 C 
ENDBRANCH   9  11
ENDBRANCH   6   9
ENDBRANCH   1   6
BRANCH   3  20
ATOM     20  C   UNL d   1       0.786  -5.638   0.403  0.00  0.00     0.067 A 
ATOM     21  C   UNL d   1       1.376  -6.102   1.599  0.00  0.00     0.068 A 
ATOM     22  C   UNL d   1       1.406  -7.480   1.483  0.00  0.00     0.136 A 
ATOM     23  N   UNL d   1       0.881  -7.754   0.251  0.00  0.00    -0.292 N 
ATOM     24  N   UNL d   1       0.449  -6.655  -0.396  0.00  0.00    -0.297 N 
ATOM     25  C   UNL d   1       0.793  -9.030  -0.426  0.00  0.00     0.178 C 
ATOM     26  HN  UNL d   1      -0.029  -6.609  -1.296  1.00  0.00     0.187 HD
BRANCH  22  27
ATOM     27  C   UNL d   1       1.903  -8.506   2.420  0.00  0.00     0.434 C 
ATOM     28  F   UNL d   1       1.760  -9.774   1.960  0.00  0.00    -0.165 F 
ATOM     29  F   UNL d   1       3.222  -8.337   2.687  0.00  0.00    -0.165 F 
ATOM     30  F   UNL d   1       1.250  -8.450   3.607  0.00  0.00    -0.165 F 
ENDBRANCH  22  27
ENDBRANCH   3  20
TORSDOF 5
