REMARK  4 active torsions:
REMARK  status: ('A' for Active; 'I' for Inactive)
REMARK    1  A    between atoms: C_7  and  C_1 
REMARK    2  A    between atoms: C_12  and  C_2 
REMARK    3  A    between atoms: N_5  and  C_9 
REMARK       I    between atoms: N_15  and  C_7 
REMARK    4  A    between atoms: N_17  and  N_15 
ROOT
ATOM      1  C   UNL d   1      -2.443  -0.129  -0.139  0.00  0.00     0.114 A 
ATOM      2  C   UNL d   1      -1.627  -1.256  -0.050  0.00  0.00     0.019 A 
ATOM      3  N   UNL d   1      -1.611   0.971  -0.096  0.00  0.00    -0.350 N 
ATOM      4  C   UNL d   1      -0.262  -0.790   0.012  0.00  0.00     0.006 A 
ATOM      5  C   UNL d   1      -0.290   0.602  -0.032  0.00  0.00     0.044 A 
ATOM      6  C   UNL d   1       0.999  -1.426   0.094  0.00  0.00     0.050 A 
ATOM      7  C   UNL d   1       2.166  -0.644   0.068  0.00  0.00     0.103 A 
ATOM      8  C   UNL d   1       0.863   1.398  -0.022  0.00  0.00     0.033 A 
ATOM      9  C   UNL d   1       2.101   0.751   0.016  0.00  0.00     0.038 A 
ATOM     10  H   UNL d   1      -1.925   1.928  -0.180  0.00  0.00     0.166 HD
ENDROOT
BRANCH   1  11
ATOM     11  C   UNL d   1      -3.878  -0.007  -0.320  0.00  0.00     0.283 C 
ATOM     12  O   UNL d   1      -4.562  -0.760  -1.007  0.00  0.00    -0.265 OA
ATOM     13  N   UNL d   1      -4.450   1.062   0.374  0.00  0.00    -0.288 N 
ATOM     14  H   UNL d   1      -3.932   1.485   1.138  0.00  0.00     0.183 HD
BRANCH  13  15
ATOM     15  N   UNL d   1      -5.864   1.195   0.391  0.00  0.00    -0.247 NA
ATOM     16  H   UNL d   1      -6.250   0.278   0.117  0.00  0.00     0.143 HD
ATOM     17  H   UNL d   1      -6.129   1.800  -0.392  0.00  0.00     0.143 HD
ENDBRANCH  13  15
ENDBRANCH   1  11
BRANCH   2  18
ATOM     18  C   UNL d   1      -2.103  -2.644  -0.035  0.00  0.00    -0.023 A 
ATOM     19  C   UNL d   1      -1.393  -3.642  -0.719  0.00  0.00     0.012 A 
ATOM     20  C   UNL d   1      -1.786  -4.982  -0.653  0.00  0.00     0.001 A 
ATOM     21  C   UNL d   1      -2.921  -5.339   0.069  0.00  0.00     0.000 A 
ATOM     22  C   UNL d   1      -3.654  -4.359   0.731  0.00  0.00     0.001 A 
ATOM     23  C   UNL d   1      -3.239  -3.024   0.694  0.00  0.00     0.012 A 
ENDBRANCH   2  18
BRANCH   7  24
ATOM     24  N   UNL d   1       3.475  -1.311   0.070  0.00  0.00    -0.116 N 
ATOM     25  O   UNL d   1       3.494  -2.550   0.051  0.00  0.00    -0.532 OA
ATOM     26  O   UNL d   1       4.487  -0.595   0.081  0.00  0.00    -0.532 OA
ENDBRANCH   7  24
TORSDOF 4
