REMARK  5 active torsions:
REMARK  status: ('A' for Active; 'I' for Inactive)
REMARK    1  A    between atoms: N_5  and  C_1 
REMARK    2  A    between atoms: C_2  and  C_7 
REMARK       I    between atoms: C_3  and  N_5 
REMARK       I    between atoms: N_9  and  C_3 
REMARK    3  A    between atoms: N_6  and  C_4 
REMARK    4  A    between atoms: C_20  and  N_9 
REMARK    5  A    between atoms: C_11  and  C_12 
ROOT
ATOM      1  C   UNL d   1       3.025  -1.418   1.426  0.00  0.00     0.303 C 
ATOM      2  N   UNL d   1       3.391  -0.245   0.842  0.00  0.00    -0.208 NA
ATOM      3  N   UNL d   1       3.850  -1.849   2.437  0.00  0.00    -0.313 N 
ATOM      4  O   UNL d   1       2.064  -2.106   1.081  0.00  0.00    -0.253 OA
ATOM      5  H   UNL d   1       4.380  -0.336   0.628  0.00  0.00     0.138 HD
ATOM      6  H   UNL d   1       3.590  -2.778   2.753  0.00  0.00     0.170 HD
ENDROOT
BRANCH   2   7
ATOM      7  C   UNL d   1       2.678   0.416  -0.176  0.00  0.00     0.044 A 
ATOM      8  C   UNL d   1       1.812   1.503   0.132  0.00  0.00     0.052 A 
ATOM      9  C   UNL d   1       1.627   2.448  -0.896  0.00  0.00     0.032 A 
ATOM     10  C   UNL d   1       2.189   2.291  -2.171  0.00  0.00     0.018 A 
ATOM     11  C   UNL d   1       2.948   1.159  -2.480  0.00  0.00     0.049 A 
ATOM     12  C   UNL d   1       3.198   0.237  -1.465  0.00  0.00     0.042 A 
BRANCH   8  13
ATOM     13  N   UNL d   1       1.246   1.684   1.395  0.00  0.00    -0.379 N 
ATOM     14  C   UNL d   1       0.658   2.954   1.822  0.00  0.00     0.123 C 
ATOM     15  C   UNL d   1       0.023   2.597   3.161  0.00  0.00     0.021 C 
ATOM     16  C   UNL d   1      -0.585   1.236   2.870  0.00  0.00     0.021 C 
ATOM     17  C   UNL d   1       0.410   0.579   1.904  0.00  0.00     0.123 C 
ENDBRANCH   8  13
BRANCH  11  18
ATOM     18  C   UNL d   1       3.586   0.986  -3.833  0.00  0.00     0.417 C 
ATOM     19  F   UNL d   1       3.838  -0.318  -4.142  0.00  0.00    -0.166 F 
ATOM     20  F   UNL d   1       2.826   1.471  -4.851  0.00  0.00    -0.166 F 
ATOM     21  F   UNL d   1       4.785   1.625  -3.918  0.00  0.00    -0.166 F 
ENDBRANCH  11  18
ENDBRANCH   2   7
BRANCH   3  22
ATOM     22  C   UNL d   1       4.771  -1.143   3.248  0.00  0.00     0.035 A 
ATOM     23  C   UNL d   1       5.103   0.206   3.112  0.00  0.00     0.030 A 
ATOM     24  C   UNL d   1       5.872   0.868   4.077  0.00  0.00     0.010 A 
ATOM     25  C   UNL d   1       6.312   0.215   5.234  0.00  0.00    -0.051 A 
ATOM     26  C   UNL d   1       6.058  -1.164   5.319  0.00  0.00     0.010 A 
ATOM     27  C   UNL d   1       5.312  -1.833   4.336  0.00  0.00     0.030 A 
BRANCH  25  28
ATOM     28  C   UNL d   1       6.857   1.014   6.430  0.00  0.00    -0.024 C 
ATOM     29  C   UNL d   1       7.884   0.223   7.266  0.00  0.00     0.019 C 
ATOM     30  C   UNL d   1       7.538   2.343   6.029  0.00  0.00     0.019 C 
ATOM     31  C   UNL d   1       5.640   1.350   7.319  0.00  0.00     0.019 C 
ENDBRANCH  25  28
ENDBRANCH   3  22
TORSDOF 5
