REMARK  7 active torsions:
REMARK  status: ('A' for Active; 'I' for Inactive)
REMARK    1  A    between atoms: C_3  and  C_1 
REMARK    2  A    between atoms: C_4  and  C_2 
REMARK    3  A    between atoms: O_10  and  C_2 
REMARK    4  A    between atoms: C_5  and  C_3 
REMARK    5  A    between atoms: O_11  and  C_4 
REMARK    6  A    between atoms: C_16  and  O_11 
REMARK    7  A    between atoms: O_15  and  C_12 
ROOT
ATOM      1  C   UNL d   1       0.233  -1.137  -0.419  0.00  0.00     0.184 C 
ATOM      2  O   UNL d   1      -0.980  -1.106  -0.622  0.00  0.00    -0.287 OA
ENDROOT
BRANCH   1   3
ATOM      3  C   UNL d   1       0.951   0.094  -0.018  0.00  0.00     0.098 C 
ATOM      4  C   UNL d   1       0.277   1.237   0.213  0.00  0.00     0.145 C 
BRANCH   4   5
ATOM      5  C   UNL d   1       1.073   2.407   0.697  0.00  0.00     0.316 C 
ATOM      6  O   UNL d   1       2.279   2.382   0.900  0.00  0.00    -0.257 OA
BRANCH   5   7
ATOM      7  O   UNL d   1       0.235   3.441   0.957  0.00  0.00    -0.316 OA
BRANCH   7   8
ATOM      8  C   UNL d   1       0.781   4.511   1.735  0.00  0.00     0.175 C 
ATOM      9  C   UNL d   1       0.575   4.191   3.205  0.00  0.00     0.034 C 
ENDBRANCH   7   8
ENDBRANCH   5   7
ENDBRANCH   4   5
BRANCH   4  10
ATOM     10  O   UNL d   1      -1.099   1.360   0.086  0.00  0.00    -0.355 OA
ATOM     11  H   UNL d   1      -1.452   0.496  -0.218  0.00  0.00     0.218 HD
ENDBRANCH   4  10
ENDBRANCH   1   3
BRANCH   1  12
ATOM     12  C   UNL d   1       0.990  -2.405  -0.596  0.00  0.00     0.014 A 
ATOM     13  C   UNL d   1       2.219  -2.665   0.022  0.00  0.00     0.018 A 
ATOM     14  C   UNL d   1       2.874  -3.885  -0.196  0.00  0.00     0.037 A 
ATOM     15  C   UNL d   1       2.304  -4.851  -1.026  0.00  0.00     0.068 A 
ATOM     16  C   UNL d   1       1.062  -4.608  -1.611  0.00  0.00     0.037 A 
ATOM     17  C   UNL d   1       0.409  -3.392  -1.401  0.00  0.00     0.018 A 
BRANCH  15  18
ATOM     18  O   UNL d   1       2.842  -6.076  -1.306  0.00  0.00    -0.356 OA
ATOM     19  C   UNL d   1       4.258  -6.174  -1.198  0.00  0.00     0.210 C 
ENDBRANCH  15  18
ENDBRANCH   1  12
TORSDOF 7
