REMARK  4 active torsions:
REMARK  status: ('A' for Active; 'I' for Inactive)
REMARK    1  A    between atoms: C_14  and  C_1 
REMARK    2  A    between atoms: C_4  and  C_2 
REMARK    3  A    between atoms: C_3  and  C_4 
REMARK    4  A    between atoms: O_21  and  C_14 
ROOT
ATOM      1  C   UNL d   1       2.076   3.039  -2.292  0.00  0.00     0.077 A 
ATOM      2  C   UNL d   1       2.277   3.250  -0.904  0.00  0.00     0.057 A 
ATOM      3  C   UNL d   1       3.172   2.987  -3.175  0.00  0.00     0.075 A 
ATOM      4  C   UNL d   1       3.589   3.327  -0.401  0.00  0.00     0.072 A 
ATOM      5  C   UNL d   1       4.470   3.152  -2.676  0.00  0.00     0.080 A 
ATOM      6  C   UNL d   1       4.682   3.324  -1.293  0.00  0.00     0.080 A 
ATOM      7 CL   UNL d   1       2.917   2.749  -4.880  0.00  0.00    -0.081 Cl
ATOM      8 CL   UNL d   1       3.886   3.353   1.312  0.00  0.00    -0.081 Cl
ATOM      9 CL   UNL d   1       5.829   3.139  -3.770  0.00  0.00    -0.081 Cl
ATOM     10 CL   UNL d   1       6.298   3.560  -0.687  0.00  0.00    -0.081 Cl
ENDROOT
BRANCH   2  11
ATOM     11  C   UNL d   1       1.091   3.315  -0.010  0.00  0.00     0.196 C 
ATOM     12  O   UNL d   1       0.273   2.417  -0.194  0.00  0.00    -0.287 OA
BRANCH  11  13
ATOM     13  C   UNL d   1       0.891   4.351   1.086  0.00  0.00     0.028 C 
ATOM     14  C   UNL d   1       0.214   3.944   2.273  0.00  0.00    -0.041 C 
ATOM     15  C   UNL d   1      -0.104   4.901   3.274  0.00  0.00    -0.049 C 
ATOM     16  C   UNL d   1      -0.191   2.502   2.501  0.00  0.00     0.050 C 
ATOM     17  C   UNL d   1      -1.009   4.549   4.439  0.00  0.00     0.049 C 
ATOM     18  C   UNL d   1       0.455   6.200   3.212  0.00  0.00    -0.049 C 
ATOM     19  C   UNL d   1       1.226   6.579   2.088  0.00  0.00    -0.049 C 
ATOM     20  C   UNL d   1       0.191   7.165   4.353  0.00  0.00     0.049 C 
ATOM     21  C   UNL d   1       1.348   5.696   0.972  0.00  0.00    -0.041 C 
ATOM     22  C   UNL d   1       1.897   7.938   2.088  0.00  0.00     0.049 C 
ATOM     23  C   UNL d   1       1.975   6.244  -0.287  0.00  0.00     0.050 C 
ENDBRANCH  11  13
ENDBRANCH   2  11
BRANCH   1  24
ATOM     24  C   UNL d   1       0.709   3.038  -2.844  0.00  0.00     0.179 C 
ATOM     25  O   UNL d   1      -0.020   4.011  -2.717  0.00  0.00    -0.646 OA
BRANCH  24  26
ATOM     26  O   UNL d   1       0.371   1.924  -3.529  0.00  0.00    -0.773 OA
ATOM     27  H   UNL d   1       1.069   1.254  -3.652  0.00  0.00     0.167 HD
ENDBRANCH  24  26
ENDBRANCH   1  24
TORSDOF 4
