REMARK  4 active torsions:
REMARK  status: ('A' for Active; 'I' for Inactive)
REMARK    1  A    between atoms: C_7  and  N_1 
REMARK    2  A    between atoms: O_13  and  C_2 
REMARK    3  A    between atoms: C_8  and  C_3 
REMARK    4  A    between atoms: O_16  and  C_8 
ROOT
ATOM      1  N   UNL d   1       0.022  -1.337  -0.071  0.00  0.00    -0.216 N 
ATOM      2  C   UNL d   1       1.294  -0.795   0.096  0.00  0.00     0.195 C 
ATOM      3  C   UNL d   1       1.095   0.571  -0.017  0.00  0.00     0.174 C 
ATOM      4  N   UNL d   1      -0.851  -0.356  -0.401  0.00  0.00    -0.012 NA
ATOM      5  N   UNL d   1      -0.227   0.808  -0.304  0.00  0.00    -0.274 N 
ATOM      6  HN  UNL d   1      -0.656   1.725  -0.422  1.00  0.00     0.184 HD
ENDROOT
BRANCH   1   7
ATOM      7  C   UNL d   1      -0.418  -2.677   0.076  0.00  0.00     0.060 A 
ATOM      8  C   UNL d   1       0.275  -3.574   0.900  0.00  0.00     0.055 A 
ATOM      9  C   UNL d   1      -0.197  -4.879   1.049  0.00  0.00     0.037 A 
ATOM     10 CL   UNL d   1       0.640  -5.965   2.088  0.00  0.00    -0.084 Cl
ATOM     11  C   UNL d   1      -1.341  -5.306   0.381  0.00  0.00     0.048 A 
ATOM     12  C   UNL d   1      -2.028  -4.411  -0.435  0.00  0.00     0.037 A 
ATOM     13  C   UNL d   1      -1.585  -3.095  -0.582  0.00  0.00     0.055 A 
ATOM     14 CL   UNL d   1      -3.434  -4.936  -1.275  0.00  0.00    -0.084 Cl
ENDBRANCH   1   7
BRANCH   2  15
ATOM     15  O   UNL d   1       2.416  -1.498   0.270  0.00  0.00    -0.343 OA
ATOM     16  H   UNL d   1       2.328  -2.378  -0.139  0.00  0.00     0.219 HD
ENDBRANCH   2  15
BRANCH   3  17
ATOM     17  C   UNL d   1       2.095   1.624   0.064  0.00  0.00     0.315 C 
ATOM     18  O   UNL d   1       3.294   1.429   0.220  0.00  0.00    -0.257 OA
BRANCH  17  19
ATOM     19  O   UNL d   1       1.541   2.867  -0.073  0.00  0.00    -0.321 OA
ATOM     20  C   UNL d   1       2.484   3.937  -0.041  0.00  0.00     0.213 C 
ENDBRANCH  17  19
ENDBRANCH   3  17
TORSDOF 4
