REMARK  2 active torsions:
REMARK  status: ('A' for Active; 'I' for Inactive)
REMARK    1  A    between atoms: C_8  and  C_3 
REMARK    2  A    between atoms: C_9  and  C_4 
ROOT
ATOM      1  N   UNL d   1       1.170   0.350   0.032  0.00  0.00    -0.325 N 
ATOM      2  HN  UNL d   1       2.134   0.681   0.062  1.00  0.00     0.169 HD
ATOM      3  C   UNL d   1       0.017   1.106   0.019  0.00  0.00     0.133 A 
ATOM      4  C   UNL d   1       0.745  -0.898  -0.003  0.00  0.00     0.133 A 
ATOM      5  N   UNL d   1      -1.105   0.372   0.009  0.00  0.00    -0.283 N 
ATOM      6  HN  UNL d   1      -2.076   0.684   0.007  1.00  0.00     0.188 HD
ATOM      7  N   UNL d   1      -0.623  -0.877   0.002  0.00  0.00    -0.283 N 
ATOM      8  H   UNL d   1      -1.270  -1.656   0.024  0.00  0.00     0.188 HD
ENDROOT
BRANCH   3   9
ATOM      9  C   UNL d   1       0.034   2.558   0.015  0.00  0.00     0.025 A 
ATOM     10  C   UNL d   1      -1.146   3.294   0.047  0.00  0.00     0.102 A 
ATOM     11  N   UNL d   1      -1.206   4.651   0.040  0.00  0.00    -0.374 N 
ATOM     12  C   UNL d   1      -0.026   5.305  -0.002  0.00  0.00     0.087 A 
ATOM     13  HN  UNL d   1      -2.096   5.149   0.066  1.00  0.00     0.164 HD
ATOM     14  C   UNL d   1       1.205   4.670  -0.036  0.00  0.00     0.018 A 
ATOM     15  C   UNL d   1       1.232   3.277  -0.027  0.00  0.00     0.018 A 
ENDBRANCH   3   9
BRANCH   4  16
ATOM     16  C   UNL d   1       1.551  -2.110   0.000  0.00  0.00     0.025 A 
ATOM     17  C   UNL d   1       1.120  -3.294  -0.593  0.00  0.00     0.102 A 
ATOM     18  N   UNL d   1       1.820  -4.453  -0.589  0.00  0.00    -0.374 N 
ATOM     19  C   UNL d   1       3.023  -4.431   0.024  0.00  0.00     0.087 A 
ATOM     20  HN  UNL d   1       1.457  -5.300  -1.026  1.00  0.00     0.164 HD
ATOM     21  C   UNL d   1       3.555  -3.304   0.629  0.00  0.00     0.018 A 
ATOM     22  C   UNL d   1       2.807  -2.128   0.611  0.00  0.00     0.018 A 
ENDBRANCH   4  16
TORSDOF 2
