REMARK  5 active torsions:
REMARK  status: ('A' for Active; 'I' for Inactive)
REMARK    1  A    between atoms: C_11  and  N_1 
REMARK    2  A    between atoms: S_10  and  C_5 
REMARK       I    between atoms: N_6  and  C_8 
REMARK    3  A    between atoms: C_7  and  N_6 
REMARK    4  A    between atoms: C_8  and  C_17 
REMARK    5  A    between atoms: C_17  and  S_10 
ROOT
ATOM      1  S   UNL d   1       0.382  -1.998  -1.982  0.00  0.00    -0.145 SA
ENDROOT
BRANCH   1   2
ATOM      2  C   UNL d   1       0.406  -1.423  -0.237  0.00  0.00     0.149 C 
ATOM      3  C   UNL d   1       1.794  -1.547   0.330  0.00  0.00     0.245 C 
ATOM      4  N   UNL d   1       2.401  -0.311   0.301  0.00  0.00    -0.251 N 
ATOM      5  O   UNL d   1       2.240  -2.611   0.751  0.00  0.00    -0.271 OA
ATOM      6  C   UNL d   1       1.486   0.677   0.018  0.00  0.00     0.232 C 
ATOM      7  C   UNL d   1       0.124   0.061  -0.122  0.00  0.00     0.128 C 
ATOM      8  O   UNL d   1       1.657   1.884  -0.087  0.00  0.00    -0.273 OA
BRANCH   4   9
ATOM      9  C   UNL d   1       3.783  -0.095   0.572  0.00  0.00     0.045 A 
ATOM     10  C   UNL d   1       4.264   1.153   0.996  0.00  0.00     0.030 A 
ATOM     11  C   UNL d   1       5.623   1.352   1.269  0.00  0.00     0.002 A 
ATOM     12  C   UNL d   1       6.531   0.312   1.100  0.00  0.00     0.000 A 
ATOM     13  C   UNL d   1       6.081  -0.927   0.662  0.00  0.00     0.002 A 
ATOM     14  C   UNL d   1       4.720  -1.130   0.408  0.00  0.00     0.030 A 
ENDBRANCH   4   9
ENDBRANCH   1   2
BRANCH   1  15
ATOM     15  C   UNL d   1       0.754  -3.760  -1.692  0.00  0.00     0.177 C 
BRANCH  15  16
ATOM     16  C   UNL d   1       0.621  -4.653  -2.914  0.00  0.00     0.231 C 
ATOM     17  N   UNL d   1       0.618  -4.018  -4.141  0.00  0.00    -0.325 N 
ATOM     18  H   UNL d   1       0.928  -3.049  -4.148  0.00  0.00     0.169 HD
ATOM     19  O   UNL d   1       0.619  -5.875  -2.760  0.00  0.00    -0.272 OA
BRANCH  17  20
ATOM     20  C   UNL d   1       0.640  -4.701  -5.379  0.00  0.00     0.056 A 
ATOM     21  C   UNL d   1       1.351  -4.163  -6.460  0.00  0.00     0.061 A 
ATOM     22  C   UNL d   1       1.512  -4.901  -7.637  0.00  0.00     0.033 A 
ATOM     23 CL   UNL d   1       2.136  -2.626  -6.337  0.00  0.00    -0.082 Cl
ATOM     24  C   UNL d   1       0.929  -6.169  -7.763  0.00  0.00    -0.060 A 
ATOM     25  C   UNL d   1       0.127  -6.653  -6.726  0.00  0.00     0.009 A 
ATOM     26  C   UNL d   1       1.158  -6.993  -8.994  0.00  0.00     0.048 C 
ATOM     27  C   UNL d   1      -0.009  -5.928  -5.542  0.00  0.00     0.032 A 
ENDBRANCH  17  20
ENDBRANCH  15  16
ENDBRANCH   1  15
TORSDOF 5
