REMARK  2 active torsions:
REMARK  status: ('A' for Active; 'I' for Inactive)
REMARK    1  A    between atoms: N_9  and  N_5 
REMARK    2  A    between atoms: C_8  and  N_9 
ROOT
ATOM      1  C   UNL d   1       2.451   1.064   0.024  0.00  0.00     0.129 A 
ATOM      2  C   UNL d   1       1.133   0.284   0.056  0.00  0.00     0.275 A 
ATOM      3  C   UNL d   1       3.508   0.061   0.039  0.00  0.00     0.026 A 
ATOM      4  N   UNL d   1       1.494  -1.049   0.087  0.00  0.00    -0.321 N 
ATOM      5  N   UNL d   1       2.650   2.342  -0.008  0.00  0.00    -0.293 N 
ATOM      6  HN  UNL d   1       3.590   2.737  -0.028  1.00  0.00     0.187 HD
ATOM      7  C   UNL d   1       2.881  -1.183   0.078  0.00  0.00     0.048 A 
ATOM      8  C   UNL d   1       4.879   0.211   0.023  0.00  0.00     0.035 A 
ATOM      9  O   UNL d   1       0.028   0.780   0.054  0.00  0.00    -0.266 OA
ATOM     10  C   UNL d   1       3.615  -2.349   0.104  0.00  0.00     0.032 A 
ATOM     11  C   UNL d   1       5.631  -0.962   0.050  0.00  0.00     0.011 A 
ATOM     12  C   UNL d   1       5.012  -2.229   0.090  0.00  0.00     0.021 A 
ATOM     13 BR   UNL d   1       7.519  -0.850   0.033  0.00  0.00    -0.051 Br
ATOM     14  H   UNL d   1       0.822  -1.802   0.114  0.00  0.00     0.169 HD
ENDROOT
BRANCH   5  15
ATOM     15  N   UNL d   1       1.537   3.138  -0.012  0.00  0.00    -0.276 N 
ATOM     16  H   UNL d   1       0.602   2.722   0.010  0.00  0.00     0.189 HD
BRANCH  15  17
ATOM     17  C   UNL d   1       1.653   4.501  -0.041  0.00  0.00     0.184 C 
ATOM     18  S   UNL d   1       0.343   5.517  -0.041  0.00  0.00    -0.040 SA
ATOM     19  N   UNL d   1       2.924   4.973  -0.069  0.00  0.00    -0.375 N 
ATOM     20  H   UNL d   1       3.668   4.287  -0.067  0.00  0.00     0.158 HD
ATOM     21  H   UNL d   1       3.124   5.961  -0.091  0.00  0.00     0.158 HD
ENDBRANCH  15  17
ENDBRANCH   5  15
TORSDOF 2
