REMARK  5 active torsions:
REMARK  status: ('A' for Active; 'I' for Inactive)
REMARK    1  A    between atoms: C_2  and  C_1 
REMARK    2  A    between atoms: C_16  and  C_4 
REMARK    3  A    between atoms: N_12  and  C_6 
REMARK    4  A    between atoms: N_7  and  C_15 
REMARK       I    between atoms: C_14  and  N_12 
REMARK    5  A    between atoms: C_18  and  C_14 
ROOT
ATOM      1  C   UNL d   1      -2.798  -1.457  -0.053  0.00  0.00     0.064 A 
ATOM      2  C   UNL d   1      -3.089  -2.450   0.906  0.00  0.00     0.081 A 
ATOM      3  C   UNL d   1      -4.386  -2.834   0.656  0.00  0.00     0.124 A 
ATOM      4  N   UNL d   1      -3.821  -1.263  -0.891  0.00  0.00    -0.298 N 
ATOM      5  HN  UNL d   1      -3.880  -0.610  -1.672  1.00  0.00     0.187 HD
ATOM      6  N   UNL d   1      -4.754  -2.130  -0.465  0.00  0.00    -0.285 N 
ATOM      7  H   UNL d   1      -5.629  -2.163  -0.973  0.00  0.00     0.188 HD
ENDROOT
BRANCH   3   8
ATOM      8  N   UNL d   1      -5.194  -3.716   1.372  0.00  0.00    -0.308 N 
ATOM      9  C   UNL d   1      -4.726  -4.428   2.532  0.00  0.00     0.257 C 
ATOM     10  O   UNL d   1      -3.563  -4.373   2.891  0.00  0.00    -0.267 OA
ATOM     11  H   UNL d   1      -6.138  -3.866   1.045  0.00  0.00     0.170 HD
BRANCH   9  12
ATOM     12  C   UNL d   1      -5.700  -5.271   3.263  0.00  0.00     0.032 A 
ATOM     13  C   UNL d   1      -5.212  -6.422   3.902  0.00  0.00     0.019 A 
ATOM     14  C   UNL d   1      -6.063  -7.232   4.653  0.00  0.00     0.037 A 
ATOM     15  C   UNL d   1      -7.411  -6.879   4.787  0.00  0.00     0.102 A 
ATOM     16  C   UNL d   1      -7.908  -5.726   4.155  0.00  0.00     0.037 A 
ATOM     17  C   UNL d   1      -7.053  -4.922   3.390  0.00  0.00     0.019 A 
BRANCH  15  18
ATOM     18  N   UNL d   1      -8.302  -7.707   5.612  0.00  0.00    -0.116 N 
ATOM     19  O   UNL d   1      -7.818  -8.717   6.143  0.00  0.00    -0.532 OA
ATOM     20  O   UNL d   1      -9.478  -7.342   5.724  0.00  0.00    -0.532 OA
ENDBRANCH  15  18
ENDBRANCH   9  12
ENDBRANCH   3   8
BRANCH   1  21
ATOM     21  C   UNL d   1      -1.555  -0.694  -0.074  0.00  0.00     0.024 A 
ATOM     22  C   UNL d   1      -0.291  -1.183   0.344  0.00  0.00     0.049 A 
ATOM     23  C   UNL d   1       0.607  -0.142   0.209  0.00  0.00     0.061 A 
ATOM     24  O   UNL d   1      -0.048   0.961  -0.266  0.00  0.00    -0.318 OA
ATOM     25  C   UNL d   1      -1.361   0.621  -0.438  0.00  0.00     0.062 A 
ATOM     26  C   UNL d   1      -2.254   1.699  -0.910  0.00  0.00     0.077 C 
BRANCH  23  27
ATOM     27  C   UNL d   1       2.090  -0.004   0.461  0.00  0.00    -0.002 C 
ATOM     28  C   UNL d   1       2.679  -1.333   0.976  0.00  0.00     0.021 C 
ATOM     29  C   UNL d   1       2.808   0.372  -0.846  0.00  0.00     0.021 C 
ATOM     30  C   UNL d   1       2.356   1.082   1.518  0.00  0.00     0.021 C 
ENDBRANCH  23  27
ENDBRANCH   1  21
TORSDOF 5
