REMARK  5 active torsions:
REMARK  status: ('A' for Active; 'I' for Inactive)
REMARK    1  A    between atoms: O_5  and  N_1 
REMARK    2  A    between atoms: C_3  and  O_5 
REMARK    3  A    between atoms: C_10  and  C_3 
REMARK    4  A    between atoms: C_4  and  C_7 
REMARK    5  A    between atoms: O_24  and  C_18 
ROOT
ATOM      1  N   UNL d   1       0.919   0.278   0.138  0.00  0.00    -0.261 N 
ATOM      2  HN  UNL d   1       0.439   0.978  -0.427  1.00  0.00     0.194 HD
ATOM      3  C   UNL d   1       2.202   0.068   0.096  0.00  0.00     0.039 C 
ATOM      4  C   UNL d   1       2.893  -0.956   0.975  0.00  0.00     0.071 C 
ENDROOT
BRANCH   3   5
ATOM      5  C   UNL d   1       3.040   0.879  -0.840  0.00  0.00    -0.011 A 
ATOM      6  C   UNL d   1       4.202   0.349  -1.415  0.00  0.00     0.025 A 
ATOM      7  C   UNL d   1       5.023   1.136  -2.241  0.00  0.00    -0.025 A 
ATOM      8  C   UNL d   1       6.205   0.622  -2.795  0.00  0.00     0.015 A 
ATOM      9  C   UNL d   1       4.661   2.474  -2.514  0.00  0.00    -0.023 A 
ATOM     10  C   UNL d   1       7.034   1.418  -3.592  0.00  0.00     0.037 A 
ATOM     11  C   UNL d   1       6.691   2.743  -3.853  0.00  0.00     0.069 A 
ATOM     12  C   UNL d   1       5.505   3.259  -3.321  0.00  0.00     0.049 A 
ATOM     13  C   UNL d   1       3.470   2.982  -1.969  0.00  0.00     0.013 A 
ATOM     14  C   UNL d   1       2.664   2.191  -1.141  0.00  0.00     0.014 A 
BRANCH  11  15
ATOM     15  O   UNL d   1       7.422   3.626  -4.601  0.00  0.00    -0.356 OA
ATOM     16  C   UNL d   1       8.658   3.156  -5.127  0.00  0.00     0.210 C 
ENDBRANCH  11  15
ENDBRANCH   3   5
BRANCH   1  17
ATOM     17  O   UNL d   1       0.267  -0.577   1.054  0.00  0.00    -0.195 OA
BRANCH  17  18
ATOM     18  C   UNL d   1      -1.070  -0.287   1.086  0.00  0.00     0.315 C 
ATOM     19  O   UNL d   1      -1.655   0.591   0.464  0.00  0.00    -0.257 OA
BRANCH  18  20
ATOM     20  C   UNL d   1      -1.791  -1.212   2.011  0.00  0.00     0.041 A 
ATOM     21  C   UNL d   1      -3.185  -1.069   2.115  0.00  0.00     0.019 A 
ATOM     22  C   UNL d   1      -3.929  -1.899   2.960  0.00  0.00     0.025 A 
ATOM     23  C   UNL d   1      -3.281  -2.878   3.708  0.00  0.00     0.034 A 
ATOM     24  C   UNL d   1      -1.898  -3.033   3.619  0.00  0.00     0.025 A 
ATOM     25 CL   UNL d   1      -4.193  -3.901   4.748  0.00  0.00    -0.084 Cl
ATOM     26  C   UNL d   1      -1.150  -2.202   2.772  0.00  0.00     0.019 A 
ENDBRANCH  18  20
ENDBRANCH  17  18
ENDBRANCH   1  17
TORSDOF 5
