REMARK  4 active torsions:
REMARK  status: ('A' for Active; 'I' for Inactive)
REMARK    1  A    between atoms: C_14  and  C_2 
REMARK    2  A    between atoms: C_15  and  O_19 
REMARK    3  A    between atoms: C_26  and  C_15 
REMARK    4  A    between atoms: O_19  and  C_20 
ROOT
ATOM      1  C   UNL d   1      -1.008  -1.281   0.821  0.00  0.00    -0.023 C 
ATOM      2  C   UNL d   1      -1.275  -0.106  -0.128  0.00  0.00     0.064 C 
ATOM      3  C   UNL d   1      -2.446  -3.676   0.302  0.00  0.00     0.068 C 
ATOM      4  C   UNL d   1      -1.093  -3.847  -0.317  0.00  0.00     0.002 C 
ATOM      5  C   UNL d   1      -3.540  -4.735   0.309  0.00  0.00    -0.029 C 
ATOM      6  C   UNL d   1      -0.382  -2.411  -0.201  0.00  0.00    -0.000 C 
ATOM      7  C   UNL d   1      -2.172  -3.131   1.689  0.00  0.00     0.133 C 
ATOM      8  C   UNL d   1      -2.206  -1.656   1.699  0.00  0.00     0.089 C 
ATOM      9  C   UNL d   1      -0.420  -0.191  -1.169  0.00  0.00     0.013 C 
ATOM     10  C   UNL d   1      -3.529  -5.679  -0.935  0.00  0.00    -0.003 C 
ATOM     11  C   UNL d   1      -0.213  -1.649  -1.529  0.00  0.00     0.006 C 
ATOM     12  C   UNL d   1      -1.297  -4.481  -1.707  0.00  0.00     0.006 C 
ATOM     13  C   UNL d   1      -4.831  -3.820   0.507  0.00  0.00     0.013 C 
ATOM     14  O   UNL d   1      -1.762  -3.757   2.653  0.00  0.00    -0.298 OA
ATOM     15  C   UNL d   1      -2.167  -5.755  -1.675  0.00  0.00     0.006 C 
ATOM     16  C   UNL d   1      -4.805  -5.654  -1.794  0.00  0.00     0.038 C 
ATOM     17  C   UNL d   1      -6.073  -5.324  -0.964  0.00  0.00     0.132 C 
ATOM     18  C   UNL d   1       0.069  -0.872   1.858  0.00  0.00     0.016 C 
ATOM     19  C   UNL d   1      -5.889  -3.872  -0.581  0.00  0.00     0.033 C 
ATOM     20  C   UNL d   1      -3.305  -5.723   1.483  0.00  0.00     0.016 C 
ENDROOT
BRANCH  17  21
ATOM     21  O   UNL d   1      -6.176  -6.076   0.291  0.00  0.00    -0.316 OA
BRANCH  21  22
ATOM     22  C   UNL d   1      -7.363  -5.949   0.941  0.00  0.00     0.258 C 
ATOM     23  O   UNL d   1      -8.425  -5.742   0.349  0.00  0.00    -0.265 OA
BRANCH  22  24
ATOM     24  C   UNL d   1      -7.331  -5.981   2.466  0.00  0.00     0.106 C 
ATOM     25  C   UNL d   1      -6.034  -6.007   3.253  0.00  0.00     0.015 C 
ENDBRANCH  22  24
ENDBRANCH  21  22
ENDBRANCH  17  21
BRANCH   2  26
ATOM     26  C   UNL d   1      -2.707   0.044  -0.631  0.00  0.00     0.128 C 
ATOM     27  O   UNL d   1      -3.071  -0.468  -1.687  0.00  0.00    -0.298 OA
ATOM     28  C   UNL d   1      -3.694   0.806   0.218  0.00  0.00     0.091 C 
ENDBRANCH   2  26
TORSDOF 4
