REMARK  7 active torsions:
REMARK  status: ('A' for Active; 'I' for Inactive)
REMARK    1  A    between atoms: C_12  and  N_1 
REMARK    2  A    between atoms: C_13  and  C_2 
REMARK    3  A    between atoms: C_11  and  C_7 
REMARK    4  A    between atoms: O_19  and  C_8 
REMARK    5  A    between atoms: O_21  and  C_9 
REMARK    6  A    between atoms: O_20  and  C_10 
REMARK    7  A    between atoms: C_17  and  C_12 
ROOT
ATOM      1  N   UNL d   1       1.576  -0.992  -0.120  0.00  0.00    -0.291 N 
ATOM      2  C   UNL d   1       0.269  -1.379  -0.004  0.00  0.00     0.121 A 
ATOM      3  N   UNL d   1      -0.584  -0.397  -0.021  0.00  0.00    -0.337 N 
ATOM      4  HN  UNL d   1      -1.601  -0.464   0.023  1.00  0.00     0.167 HD
ATOM      5  C   UNL d   1       0.167   0.746  -0.109  0.00  0.00     0.103 A 
ATOM      6  C   UNL d   1       1.604   0.382  -0.183  0.00  0.00     0.276 A 
ATOM      7  C   UNL d   1      -0.287   2.010  -0.126  0.00  0.00     0.046 C 
ATOM      8  O   UNL d   1       2.557   1.130  -0.272  0.00  0.00    -0.265 OA
ENDROOT
BRANCH   7   9
ATOM      9  C   UNL d   1      -1.710   2.389  -0.085  0.00  0.00    -0.028 A 
ATOM     10  C   UNL d   1      -2.659   1.663   0.638  0.00  0.00     0.051 A 
ATOM     11  C   UNL d   1      -4.021   2.003   0.629  0.00  0.00     0.105 A 
ATOM     12  C   UNL d   1      -4.458   3.136  -0.094  0.00  0.00     0.135 A 
ATOM     13  C   UNL d   1      -3.498   3.887  -0.811  0.00  0.00     0.105 A 
ATOM     14  C   UNL d   1      -2.142   3.512  -0.786  0.00  0.00     0.051 A 
BRANCH  11  15
ATOM     15  O   UNL d   1      -4.950   1.201   1.248  0.00  0.00    -0.353 OA
ATOM     16  C   UNL d   1      -4.502   0.419   2.350  0.00  0.00     0.210 C 
ENDBRANCH  11  15
BRANCH  12  17
ATOM     17  O   UNL d   1      -5.751   3.584  -0.163  0.00  0.00    -0.351 OA
ATOM     18  C   UNL d   1      -6.757   3.022   0.664  0.00  0.00     0.210 C 
ENDBRANCH  12  17
BRANCH  13  19
ATOM     19  O   UNL d   1      -3.681   4.999  -1.597  0.00  0.00    -0.353 OA
ATOM     20  C   UNL d   1      -4.984   5.527  -1.782  0.00  0.00     0.210 C 
ENDBRANCH  13  19
ENDBRANCH   7   9
BRANCH   1  21
ATOM     21  C   UNL d   1       2.809  -1.759  -0.120  0.00  0.00     0.211 C 
BRANCH  21  22
ATOM     22  C   UNL d   1       3.017  -2.639  -1.342  0.00  0.00     0.141 C 
ATOM     23  O   UNL d   1       3.731  -3.644  -1.265  0.00  0.00    -0.297 OA
ATOM     24  C   UNL d   1       2.434  -2.225  -2.666  0.00  0.00     0.092 C 
ENDBRANCH  21  22
ENDBRANCH   1  21
BRANCH   2  25
ATOM     25  C   UNL d   1      -0.224  -2.776   0.086  0.00  0.00     0.008 A 
ATOM     26  C   UNL d   1       0.453  -3.808   0.735  0.00  0.00     0.015 A 
ATOM     27  C   UNL d   1      -0.122  -5.081   0.824  0.00  0.00     0.001 A 
ATOM     28  C   UNL d   1      -1.387  -5.324   0.292  0.00  0.00     0.000 A 
ATOM     29  C   UNL d   1      -2.083  -4.296  -0.336  0.00  0.00     0.001 A 
ATOM     30  C   UNL d   1      -1.504  -3.031  -0.440  0.00  0.00     0.015 A 
ENDBRANCH   2  25
TORSDOF 7
