REMARK  7 active torsions:
REMARK  status: ('A' for Active; 'I' for Inactive)
REMARK    1  A    between atoms: C_6  and  N_1 
REMARK    2  A    between atoms: S_7  and  C_4 
REMARK    3  A    between atoms: C_9  and  S_7 
REMARK    4  A    between atoms: S_15  and  C_13 
REMARK    5  A    between atoms: N_17  and  C_14 
REMARK    6  A    between atoms: C_20  and  S_15 
REMARK    7  A    between atoms: C_16  and  C_20 
ROOT
ATOM      1  N   UNL d   1       1.254   0.706   5.796  0.00  0.00    -0.197 NA
ATOM      2  C   UNL d   1       0.746   1.390   5.005  0.00  0.00     0.059 C 
ATOM      3  C   UNL d   1       0.086   2.231   3.993  0.00  0.00     0.134 C 
ENDROOT
BRANCH   3   4
ATOM      4  C   UNL d   1      -0.915   1.394   3.204  0.00  0.00     0.093 C 
BRANCH   4   5
ATOM      5  S   UNL d   1      -1.929   2.359   2.030  0.00  0.00    -0.127 SA
BRANCH   5   6
ATOM      6  C   UNL d   1      -0.723   2.986   0.850  0.00  0.00     0.028 A 
ATOM      7  C   UNL d   1       0.143   2.218   0.034  0.00  0.00     0.062 A 
ATOM      8  C   UNL d   1       1.073   2.891  -0.783  0.00  0.00     0.031 A 
ATOM      9  C   UNL d   1       1.109   4.287  -0.841  0.00  0.00     0.002 A 
ATOM     10  C   UNL d   1       0.238   5.037  -0.060  0.00  0.00     0.002 A 
ATOM     11  C   UNL d   1      -0.664   4.391   0.782  0.00  0.00     0.021 A 
BRANCH   7  12
ATOM     12  N   UNL d   1       0.082   0.800  -0.022  0.00  0.00    -0.250 N 
ATOM     13  C   UNL d   1      -1.080   0.114  -0.264  0.00  0.00     0.232 C 
ATOM     14  C   UNL d   1      -0.807  -1.336  -0.019  0.00  0.00     0.129 C 
ATOM     15  O   UNL d   1      -2.155   0.546  -0.650  0.00  0.00    -0.273 OA
ATOM     16  C   UNL d   1       0.681  -1.465  -0.290  0.00  0.00     0.154 C 
ATOM     17  C   UNL d   1       1.175  -0.037  -0.108  0.00  0.00     0.245 C 
ATOM     18  O   UNL d   1       2.358   0.277  -0.036  0.00  0.00    -0.271 OA
BRANCH  16  19
ATOM     19  S   UNL d   1       1.100  -2.026  -1.989  0.00  0.00    -0.113 SA
BRANCH  19  20
ATOM     20  C   UNL d   1       0.603  -3.756  -1.911  0.00  0.00     0.022 A 
ATOM     21  C   UNL d   1      -0.668  -4.167  -2.370  0.00  0.00     0.022 A 
ATOM     22  C   UNL d   1      -1.032  -5.514  -2.249  0.00  0.00     0.024 A 
ATOM     23  C   UNL d   1      -0.110  -6.468  -1.822  0.00  0.00     0.002 A 
ATOM     24  C   UNL d   1       1.174  -6.074  -1.453  0.00  0.00     0.001 A 
ATOM     25  C   UNL d   1       1.526  -4.721  -1.483  0.00  0.00     0.020 A 
BRANCH  21  26
ATOM     26  N   UNL d   1      -1.649  -3.232  -2.753  0.00  0.00    -0.302 NA
ATOM     27  H   UNL d   1      -1.230  -2.407  -3.182  0.00  0.00     0.124 HD
ATOM     28  H   UNL d   1      -2.396  -3.620  -3.319  0.00  0.00     0.124 HD
ENDBRANCH  21  26
ENDBRANCH  19  20
ENDBRANCH  16  19
ENDBRANCH   7  12
ENDBRANCH   5   6
ENDBRANCH   4   5
ENDBRANCH   3   4
TORSDOF 7
