REMARK  6 active torsions:
REMARK  status: ('A' for Active; 'I' for Inactive)
REMARK    1  A    between atoms: C_7  and  C_1 
REMARK    2  A    between atoms: C_9  and  C_4 
REMARK    3  A    between atoms: C_13  and  C_7 
REMARK    4  A    between atoms: C_8  and  S_10 
REMARK    5  A    between atoms: O_16  and  C_9 
REMARK    6  A    between atoms: S_10  and  C_13 
ROOT
ATOM      1  C   UNL d   1       4.204  -1.139  -0.042  0.00  0.00     0.165 C 
ENDROOT
BRANCH   1   2
ATOM      2  S   UNL d   1       6.031  -0.947   0.011  0.00  0.00    -0.103 SA
BRANCH   2   3
ATOM      3  C   UNL d   1       6.541  -2.663   0.095  0.00  0.00     0.087 A 
ATOM      4  C   UNL d   1       7.873  -3.092   0.107  0.00  0.00     0.071 A 
ATOM      5  C   UNL d   1       8.096  -4.481   0.187  0.00  0.00     0.022 A 
ATOM      6  C   UNL d   1       7.033  -5.376   0.250  0.00  0.00     0.018 A 
ATOM      7  C   UNL d   1       5.758  -4.858   0.232  0.00  0.00     0.089 A 
ATOM      8  N   UNL d   1       5.497  -3.537   0.156  0.00  0.00    -0.360 N 
ATOM      9  HN  UNL d   1       4.536  -3.198   0.145  1.00  0.00     0.166 HD
BRANCH   4  10
ATOM     10  C   UNL d   1       9.106  -2.252   0.046  0.00  0.00     0.179 C 
ATOM     11  O   UNL d   1      10.219  -2.758   0.069  0.00  0.00    -0.646 OA
BRANCH  10  12
ATOM     12  O   UNL d   1       8.958  -0.917  -0.035  0.00  0.00    -0.773 OA
ATOM     13  H   UNL d   1       8.039  -0.582  -0.047  0.00  0.00     0.167 HD
ENDBRANCH  10  12
ENDBRANCH   4  10
ENDBRANCH   2   3
ENDBRANCH   1   2
BRANCH   1  14
ATOM     14  C   UNL d   1       3.464   0.200  -0.105  0.00  0.00     0.176 C 
ATOM     15  O   UNL d   1       4.080   1.262  -0.212  0.00  0.00    -0.291 OA
BRANCH  14  16
ATOM     16  C   UNL d   1       1.992   0.167  -0.030  0.00  0.00     0.059 A 
ATOM     17  S   UNL d   1       1.138  -1.269  -0.409  0.00  0.00    -0.085 SA
ATOM     18  C   UNL d   1      -0.398  -0.546  -0.192  0.00  0.00     0.016 A 
ATOM     19  C   UNL d   1      -1.657  -1.159  -0.357  0.00  0.00     0.019 A 
ATOM     20  C   UNL d   1      -0.276   0.790   0.187  0.00  0.00    -0.012 A 
ATOM     21  C   UNL d   1      -2.814  -0.407  -0.141  0.00  0.00     0.001 A 
ATOM     22  C   UNL d   1      -2.724   0.925   0.234  0.00  0.00     0.001 A 
ATOM     23  C   UNL d   1      -1.473   1.525   0.400  0.00  0.00     0.013 A 
ATOM     24  C   UNL d   1       1.115   1.198   0.299  0.00  0.00    -0.030 A 
ATOM     25  C   UNL d   1       1.495   2.583   0.729  0.00  0.00     0.050 C 
ENDBRANCH  14  16
ENDBRANCH   1  14
TORSDOF 6
