REMARK  6 active torsions:
REMARK  status: ('A' for Active; 'I' for Inactive)
REMARK    1  A    between atoms: C_2  and  N_1 
REMARK    2  A    between atoms: S_13  and  C_4 
REMARK    3  A    between atoms: C_9  and  O_15 
REMARK    4  A    between atoms: C_17  and  S_13 
REMARK    5  A    between atoms: O_15  and  C_18 
REMARK    6  A    between atoms: C_18  and  C_17 
ROOT
ATOM      1  C   UNL d   1      -0.643  -2.668  -0.106  0.00  0.00     0.121 A 
ATOM      2  N   UNL d   1       1.181  -3.318   4.346  0.00  0.00    -0.191 NA
ATOM      3  C   UNL d   1      -0.598  -1.289  -0.379  0.00  0.00     0.033 A 
ATOM      4  C   UNL d   1       0.804  -2.898   3.332  0.00  0.00     0.099 C 
ATOM      5  C   UNL d   1      -0.187  -3.215   1.108  0.00  0.00     0.060 A 
ATOM      6  C   UNL d   1       0.341  -2.370   2.083  0.00  0.00     0.047 A 
ATOM      7  C   UNL d   1      -0.068  -0.468   0.629  0.00  0.00     0.022 A 
ATOM      8  C   UNL d   1       0.404  -0.998   1.837  0.00  0.00     0.024 A 
ENDROOT
BRANCH   1   9
ATOM      9  N   UNL d   1      -1.168  -3.614  -1.076  0.00  0.00    -0.114 N 
ATOM     10  O   UNL d   1      -0.545  -3.741  -2.139  0.00  0.00    -0.532 OA
ATOM     11  O   UNL d   1      -2.147  -4.285  -0.725  0.00  0.00    -0.532 OA
ENDBRANCH   1   9
BRANCH   3  12
ATOM     12  S   UNL d   1      -1.293  -0.555  -1.864  0.00  0.00    -0.125 SA
BRANCH  12  13
ATOM     13  C   UNL d   1      -0.225   0.916  -2.135  0.00  0.00     0.106 C 
BRANCH  13  14
ATOM     14  C   UNL d   1      -0.619   1.681  -3.400  0.00  0.00     0.189 C 
BRANCH  14  15
ATOM     15  O   UNL d   1      -0.467   0.894  -4.589  0.00  0.00    -0.321 OA
BRANCH  15  16
ATOM     16  C   UNL d   1       0.808   0.735  -5.032  0.00  0.00     0.254 C 
ATOM     17  O   UNL d   1       1.801   1.232  -4.515  0.00  0.00    -0.266 OA
ATOM     18  C   UNL d   1       0.840  -0.142  -6.246  0.00  0.00     0.126 C 
ENDBRANCH  15  16
ENDBRANCH  14  15
ENDBRANCH  13  14
ENDBRANCH  12  13
ENDBRANCH   3  12
TORSDOF 6
