REMARK  7 active torsions:
REMARK  status: ('A' for Active; 'I' for Inactive)
REMARK    1  A    between atoms: C_8  and  N_1 
REMARK    2  A    between atoms: C_10  and  C_2 
REMARK    3  A    between atoms: C_13  and  C_7 
REMARK    4  A    between atoms: C_9  and  C_8 
REMARK       I    between atoms: N_15  and  C_9 
REMARK    5  A    between atoms: O_14  and  C_16 
REMARK    6  A    between atoms: C_17  and  O_14 
REMARK    7  A    between atoms: C_22  and  C_17 
ROOT
ATOM      1  N   UNL d   1       0.074  -1.443  -0.079  0.00  0.00    -0.289 N 
ATOM      2  C   UNL d   1       1.354  -0.972   0.023  0.00  0.00     0.121 A 
ATOM      3  N   UNL d   1       1.464   0.325  -0.036  0.00  0.00    -0.337 N 
ATOM      4  HN  UNL d   1       2.323   0.876  -0.026  1.00  0.00     0.167 HD
ATOM      5  C   UNL d   1       0.169   0.792  -0.115  0.00  0.00     0.103 A 
ATOM      6  C   UNL d   1      -0.762  -0.368  -0.216  0.00  0.00     0.276 A 
ATOM      7  C   UNL d   1      -0.170   2.084  -0.027  0.00  0.00     0.046 C 
ATOM      8  O   UNL d   1      -1.962  -0.368  -0.405  0.00  0.00    -0.265 OA
ENDROOT
BRANCH   7   9
ATOM      9  C   UNL d   1      -1.548   2.566   0.066  0.00  0.00    -0.034 A 
ATOM     10  C   UNL d   1      -2.145   2.683   1.326  0.00  0.00     0.014 A 
ATOM     11  C   UNL d   1      -3.484   3.067   1.446  0.00  0.00     0.037 A 
ATOM     12  C   UNL d   1      -4.239   3.336   0.304  0.00  0.00     0.069 A 
ATOM     13  C   UNL d   1      -3.633   3.256  -0.952  0.00  0.00     0.037 A 
ATOM     14  C   UNL d   1      -2.294   2.866  -1.076  0.00  0.00     0.014 A 
BRANCH  12  15
ATOM     15  O   UNL d   1      -5.554   3.717   0.301  0.00  0.00    -0.347 OA
BRANCH  15  16
ATOM     16  C   UNL d   1      -6.339   3.241   1.398  0.00  0.00     0.214 C 
BRANCH  16  17
ATOM     17  C   UNL d   1      -7.777   3.695   1.266  0.00  0.00    -0.034 A 
ATOM     18  C   UNL d   1      -8.815   2.891   1.763  0.00  0.00     0.009 A 
ATOM     19  C   UNL d   1     -10.139   3.335   1.726  0.00  0.00     0.001 A 
ATOM     20  C   UNL d   1     -10.440   4.589   1.200  0.00  0.00     0.000 A 
ATOM     21  C   UNL d   1      -9.418   5.400   0.709  0.00  0.00     0.001 A 
ATOM     22  C   UNL d   1      -8.095   4.958   0.746  0.00  0.00     0.009 A 
ENDBRANCH  16  17
ENDBRANCH  15  16
ENDBRANCH  12  15
ENDBRANCH   7   9
BRANCH   1  23
ATOM     23  C   UNL d   1      -0.471  -2.793  -0.014  0.00  0.00     0.236 C 
BRANCH  23  24
ATOM     24  C   UNL d   1      -0.066  -3.699  -1.169  0.00  0.00     0.233 C 
ATOM     25  O   UNL d   1      -0.150  -4.923  -1.098  0.00  0.00    -0.272 OA
ATOM     26  N   UNL d   1       0.299  -3.103  -2.338  0.00  0.00    -0.369 N 
ATOM     27  H   UNL d   1       0.355  -2.100  -2.454  0.00  0.00     0.159 HD
ATOM     28  H   UNL d   1       0.544  -3.700  -3.117  0.00  0.00     0.159 HD
ENDBRANCH  23  24
ENDBRANCH   1  23
BRANCH   2  29
ATOM     29  C   UNL d   1       2.551  -1.845   0.100  0.00  0.00     0.008 A 
ATOM     30  C   UNL d   1       3.696  -1.434  -0.598  0.00  0.00     0.015 A 
ATOM     31  C   UNL d   1       4.852  -2.219  -0.591  0.00  0.00     0.001 A 
ATOM     32  C   UNL d   1       4.872  -3.419   0.114  0.00  0.00     0.000 A 
ATOM     33  C   UNL d   1       3.749  -3.821   0.834  0.00  0.00     0.001 A 
ATOM     34  C   UNL d   1       2.599  -3.026   0.844  0.00  0.00     0.015 A 
ENDBRANCH   2  29
TORSDOF 7
