REMARK  3 active torsions:
REMARK  status: ('A' for Active; 'I' for Inactive)
REMARK    1  A    between atoms: C_4  and  C_1 
REMARK    2  A    between atoms: O_8  and  C_4 
REMARK    3  A    between atoms: C_11  and  O_8 
ROOT
ATOM      1  C   UNL d   1      -2.426  -0.162  -0.104  0.00  0.00     0.109 A 
ATOM      2  N   UNL d   1      -1.633   0.963  -0.131  0.00  0.00    -0.351 N 
ATOM      3  C   UNL d   1      -1.571  -1.250  -0.121  0.00  0.00     0.049 A 
ATOM      4  C   UNL d   1      -0.301   0.622  -0.103  0.00  0.00     0.043 A 
ATOM      5  C   UNL d   1      -0.235  -0.769  -0.099  0.00  0.00    -0.007 A 
ATOM      6  C   UNL d   1       0.840   1.431  -0.071  0.00  0.00     0.030 A 
ATOM      7  C   UNL d   1       1.025  -1.393  -0.055  0.00  0.00     0.014 A 
ATOM      8  C   UNL d   1       2.083   0.790  -0.027  0.00  0.00     0.002 A 
ATOM      9  C   UNL d   1       2.176  -0.600  -0.019  0.00  0.00     0.001 A 
ATOM     10  H   UNL d   1      -1.993   1.909  -0.119  0.00  0.00     0.166 HD
ENDROOT
BRANCH   1  11
ATOM     11  C   UNL d   1      -3.861  -0.097  -0.013  0.00  0.00     0.310 C 
ATOM     12  O   UNL d   1      -4.505   0.938   0.068  0.00  0.00    -0.258 OA
BRANCH  11  13
ATOM     13  O   UNL d   1      -4.367  -1.358   0.065  0.00  0.00    -0.317 OA
BRANCH  13  14
ATOM     14  C   UNL d   1      -5.710  -1.461   0.548  0.00  0.00     0.175 C 
ATOM     15  C   UNL d   1      -5.668  -1.530   2.064  0.00  0.00     0.034 C 
ENDBRANCH  13  14
ENDBRANCH  11  13
ENDBRANCH   1  11
TORSDOF 3
