REMARK  7 active torsions:
REMARK  status: ('A' for Active; 'I' for Inactive)
REMARK    1  A    between atoms: C_9  and  C_1 
REMARK    2  A    between atoms: C_11  and  C_7 
REMARK    3  A    between atoms: N_8  and  C_10 
REMARK    4  A    between atoms: O_19  and  C_9 
REMARK    5  A    between atoms: C_20  and  O_19 
REMARK    6  A    between atoms: C_21  and  C_20 
REMARK    7  A    between atoms: C_22  and  C_21 
ROOT
ATOM      1  C   UNL d   1      -0.271  -1.104  -0.085  0.00  0.00     0.241 A 
ATOM      2  O   UNL d   1      -1.150  -0.050  -0.030  0.00  0.00    -0.268 OA
ATOM      3  N   UNL d   1       0.987  -0.712  -0.169  0.00  0.00    -0.273 N 
ATOM      4  HN  UNL d   1       1.810  -1.311  -0.225  1.00  0.00     0.189 HD
ATOM      5  N   UNL d   1       0.967   0.663  -0.166  0.00  0.00    -0.277 N 
ATOM      6  HN  UNL d   1       1.775   1.284  -0.214  1.00  0.00     0.189 HD
ATOM      7  C   UNL d   1      -0.297   1.023  -0.089  0.00  0.00     0.175 A 
ENDROOT
BRANCH   7   8
ATOM      8  C   UNL d   1      -0.878   2.361  -0.117  0.00  0.00     0.017 A 
ATOM      9  C   UNL d   1      -2.258   2.583   0.012  0.00  0.00     0.018 A 
ATOM     10  C   UNL d   1      -2.789   3.874  -0.102  0.00  0.00     0.037 A 
ATOM     11  C   UNL d   1      -1.934   4.958  -0.339  0.00  0.00     0.102 A 
ATOM     12  C   UNL d   1      -0.552   4.762  -0.435  0.00  0.00     0.037 A 
ATOM     13  C   UNL d   1      -0.034   3.468  -0.319  0.00  0.00     0.018 A 
BRANCH  11  14
ATOM     14  N   UNL d   1      -2.490   6.307  -0.508  0.00  0.00    -0.116 N 
ATOM     15  O   UNL d   1      -3.721   6.434  -0.437  0.00  0.00    -0.532 OA
ATOM     16  O   UNL d   1      -1.698   7.235  -0.721  0.00  0.00    -0.532 OA
ENDBRANCH  11  14
ENDBRANCH   7   8
BRANCH   1  17
ATOM     17  C   UNL d   1      -0.740  -2.463   0.066  0.00  0.00     0.336 C 
ATOM     18  O   UNL d   1      -1.895  -2.817   0.276  0.00  0.00    -0.255 OA
BRANCH  17  19
ATOM     19  O   UNL d   1       0.330  -3.312   0.059  0.00  0.00    -0.315 OA
BRANCH  19  20
ATOM     20  C   UNL d   1       0.344  -4.245   1.139  0.00  0.00     0.179 C 
BRANCH  20  21
ATOM     21  C   UNL d   1       0.246  -5.682   0.645  0.00  0.00     0.026 C 
BRANCH  21  22
ATOM     22  C   UNL d   1       0.339  -6.642   1.833  0.00  0.00    -0.002 C 
ATOM     23  C   UNL d   1       0.234  -8.095   1.410  0.00  0.00     0.005 C 
ENDBRANCH  21  22
ENDBRANCH  20  21
ENDBRANCH  19  20
ENDBRANCH  17  19
ENDBRANCH   1  17
TORSDOF 7
