REMARK  4 active torsions:
REMARK  status: ('A' for Active; 'I' for Inactive)
REMARK    1  A    between atoms: N_2  and  C_3 
REMARK    2  A    between atoms: S_10  and  C_8 
REMARK    3  A    between atoms: C_15  and  C_9 
REMARK    4  A    between atoms: C_18  and  S_10 
ROOT
ATOM      1  C   UNL d   1      -5.101  -1.463   1.083  0.00  0.00     0.120 A 
ATOM      2  C   UNL d   1      -6.147  -1.331   0.160  0.00  0.00     0.038 A 
ATOM      3  C   UNL d   1      -3.965  -0.637   1.055  0.00  0.00     0.049 A 
ATOM      4  C   UNL d   1      -3.842   0.315   0.043  0.00  0.00    -0.032 A 
ATOM      5  C   UNL d   1      -5.997  -0.372  -0.851  0.00  0.00     0.022 A 
ATOM      6  C   UNL d   1      -4.856   0.437  -0.914  0.00  0.00     0.013 A 
ENDROOT
BRANCH   4   7
ATOM      7  C   UNL d   1      -2.644   1.149  -0.053  0.00  0.00     0.036 C 
ATOM      8  C   UNL d   1      -2.487   2.354   0.511  0.00  0.00     0.076 A 
ATOM      9  C   UNL d   1      -3.458   3.099   1.364  0.00  0.00     0.264 A 
ATOM     10  S   UNL d   1      -1.053   3.306   0.300  0.00  0.00    -0.055 SA
ATOM     11  N   UNL d   1      -2.933   4.320   1.694  0.00  0.00    -0.307 N 
ATOM     12  O   UNL d   1      -4.554   2.706   1.724  0.00  0.00    -0.267 OA
ATOM     13  C   UNL d   1      -1.696   4.641   1.230  0.00  0.00     0.146 A 
ATOM     14  H   UNL d   1      -3.466   4.961   2.261  0.00  0.00     0.170 HD
ATOM     15  S   UNL d   1      -0.950   6.088   1.517  0.00  0.00    -0.052 SA
ENDBRANCH   4   7
BRANCH   1  16
ATOM     16  N   UNL d   1      -5.111  -2.523   2.069  0.00  0.00    -0.114 N 
ATOM     17  O   UNL d   1      -4.991  -3.683   1.653  0.00  0.00    -0.532 OA
ATOM     18  O   UNL d   1      -5.151  -2.182   3.259  0.00  0.00    -0.532 OA
ENDBRANCH   1  16
BRANCH   2  19
ATOM     19  S   UNL d   1      -7.628  -2.319   0.144  0.00  0.00    -0.088 SA
BRANCH  19  20
ATOM     20  C   UNL d   1      -8.839  -1.378   1.066  0.00  0.00     0.005 A 
ATOM     21  C   UNL d   1      -8.582  -0.180   1.740  0.00  0.00     0.019 A 
ATOM     22  C   UNL d   1      -9.583   0.442   2.498  0.00  0.00     0.008 A 
ATOM     23  C   UNL d   1     -10.861  -0.120   2.596  0.00  0.00    -0.062 A 
ATOM     24  C   UNL d   1     -11.133  -1.297   1.896  0.00  0.00     0.008 A 
ATOM     25  C   UNL d   1     -11.897   0.512   3.478  0.00  0.00     0.048 C 
ATOM     26  C   UNL d   1     -10.132  -1.916   1.139  0.00  0.00     0.019 A 
ENDBRANCH  19  20
ENDBRANCH   2  19
TORSDOF 4
