REMARK  7 active torsions:
REMARK  status: ('A' for Active; 'I' for Inactive)
REMARK    1  A    between atoms: C_2  and  N_1 
REMARK       I    between atoms: C_3  and  N_1 
REMARK    2  A    between atoms: N_5  and  C_2 
REMARK    3  A    between atoms: C_9  and  C_3 
REMARK    4  A    between atoms: C_4  and  C_7 
REMARK    5  A    between atoms: O_14  and  C_4 
REMARK    6  A    between atoms: C_13  and  N_5 
REMARK    7  A    between atoms: C_19  and  O_14 
ROOT
ATOM      1  N   UNL d   1       0.692  -0.923   3.253  0.00  0.00    -0.338 N 
ATOM      2  H   UNL d   1       0.436  -1.845   3.595  0.00  0.00     0.168 HD
ENDROOT
BRANCH   1   3
ATOM      3  C   UNL d   1      -0.314  -0.352   2.558  0.00  0.00     0.157 C 
ATOM      4  S   UNL d   1      -1.564  -1.344   2.040  0.00  0.00    -0.046 SA
BRANCH   3   5
ATOM      5  N   UNL d   1      -0.426   0.980   2.336  0.00  0.00    -0.201 NA
ATOM      6  C   UNL d   1      -0.179   1.906   3.339  0.00  0.00     0.237 C 
ATOM      7  O   UNL d   1       0.950   2.232   3.701  0.00  0.00    -0.274 OA
ATOM      8  H   UNL d   1      -1.301   1.142   1.854  0.00  0.00     0.139 HD
BRANCH   6   9
ATOM      9  C   UNL d   1      -1.363   2.623   3.919  0.00  0.00     0.026 A 
ATOM     10  C   UNL d   1      -1.118   3.767   4.695  0.00  0.00     0.016 A 
ATOM     11  C   UNL d   1      -2.166   4.439   5.328  0.00  0.00     0.001 A 
ATOM     12  C   UNL d   1      -3.473   3.977   5.192  0.00  0.00     0.000 A 
ATOM     13  C   UNL d   1      -3.732   2.848   4.417  0.00  0.00     0.001 A 
ATOM     14  C   UNL d   1      -2.684   2.170   3.784  0.00  0.00     0.016 A 
ENDBRANCH   6   9
ENDBRANCH   3   5
ENDBRANCH   1   3
BRANCH   1  15
ATOM     15  C   UNL d   1       2.090  -0.726   3.205  0.00  0.00     0.033 A 
ATOM     16  C   UNL d   1       2.859  -1.656   3.921  0.00  0.00     0.030 A 
ATOM     17  C   UNL d   1       4.252  -1.663   3.832  0.00  0.00     0.020 A 
ATOM     18  C   UNL d   1       4.910  -0.723   3.037  0.00  0.00     0.039 A 
ATOM     19  C   UNL d   1       4.156   0.235   2.347  0.00  0.00     0.020 A 
ATOM     20  C   UNL d   1       2.750   0.223   2.422  0.00  0.00     0.030 A 
BRANCH  18  21
ATOM     21  C   UNL d   1       6.389  -0.843   2.923  0.00  0.00     0.293 C 
ATOM     22  O   UNL d   1       6.990  -1.865   3.217  0.00  0.00    -0.259 OA
BRANCH  21  23
ATOM     23  O   UNL d   1       6.948   0.310   2.484  0.00  0.00    -0.318 OA
BRANCH  23  24
ATOM     24  C   UNL d   1       8.379   0.271   2.333  0.00  0.00     0.174 C 
ATOM     25  C   UNL d   1       9.078   0.447   3.671  0.00  0.00     0.034 C 
ENDBRANCH  23  24
ENDBRANCH  21  23
ENDBRANCH  18  21
ENDBRANCH   1  15
TORSDOF 7
