REMARK  4 active torsions:
REMARK  status: ('A' for Active; 'I' for Inactive)
REMARK    1  A    between atoms: C_2  and  N_1 
REMARK       I    between atoms: C_3  and  N_1 
REMARK    2  A    between atoms: N_4  and  C_2 
REMARK    3  A    between atoms: C_10  and  C_3 
REMARK    4  A    between atoms: C_5  and  N_4 
ROOT
ATOM      1  C   UNL d   1       0.398   1.367   0.902  0.00  0.00     0.179 C 
ATOM      2  S   UNL d   1      -0.854   1.230   2.002  0.00  0.00    -0.040 SA
ENDROOT
BRANCH   1   3
ATOM      3  N   UNL d   1       0.851   0.408   0.013  0.00  0.00    -0.299 N 
ATOM      4  C   UNL d   1       0.528  -0.944  -0.149  0.00  0.00     0.257 C 
ATOM      5  O   UNL d   1       1.429  -1.749  -0.385  0.00  0.00    -0.267 OA
ATOM      6  H   UNL d   1       1.839   0.522  -0.180  0.00  0.00     0.171 HD
BRANCH   4   7
ATOM      7  C   UNL d   1      -0.861  -1.429   0.003  0.00  0.00     0.032 A 
ATOM      8  C   UNL d   1      -1.942  -0.753  -0.576  0.00  0.00     0.017 A 
ATOM      9  C   UNL d   1      -3.242  -1.216  -0.361  0.00  0.00     0.001 A 
ATOM     10  C   UNL d   1      -3.462  -2.365   0.402  0.00  0.00     0.000 A 
ATOM     11  C   UNL d   1      -2.383  -3.069   0.935  0.00  0.00     0.001 A 
ATOM     12  C   UNL d   1      -1.081  -2.607   0.728  0.00  0.00     0.017 A 
ENDBRANCH   4   7
ENDBRANCH   1   3
BRANCH   1  13
ATOM     13  N   UNL d   1       1.099   2.540   0.974  0.00  0.00    -0.333 N 
ATOM     14  H   UNL d   1       0.805   3.070   1.788  0.00  0.00     0.168 HD
BRANCH  13  15
ATOM     15  C   UNL d   1       2.045   3.187   0.148  0.00  0.00     0.042 A 
ATOM     16  C   UNL d   1       2.832   4.231   0.699  0.00  0.00    -0.013 A 
ATOM     17  C   UNL d   1       3.680   4.965  -0.160  0.00  0.00     0.042 A 
ATOM     18  C   UNL d   1       2.805   4.590   2.167  0.00  0.00     0.052 C 
ATOM     19 CL   UNL d   1       4.654   6.276   0.418  0.00  0.00    -0.084 Cl
ATOM     20  C   UNL d   1       3.758   4.670  -1.520  0.00  0.00     0.024 A 
ATOM     21  C   UNL d   1       2.995   3.635  -2.048  0.00  0.00     0.004 A 
ATOM     22  C   UNL d   1       2.144   2.896  -1.219  0.00  0.00     0.030 A 
ENDBRANCH  13  15
ENDBRANCH   1  13
TORSDOF 4
