REMARK  5 active torsions:
REMARK  status: ('A' for Active; 'I' for Inactive)
REMARK    1  A    between atoms: C_3  and  C_1 
REMARK    2  A    between atoms: C_12  and  N_2 
REMARK    3  A    between atoms: C_11  and  C_3 
REMARK    4  A    between atoms: N_13  and  C_10 
REMARK    5  A    between atoms: C_15  and  N_13 
ROOT
ATOM      1  C   UNL d   1       0.758  -3.594  -0.025  0.00  0.00     0.160 A 
ATOM      2  N   UNL d   1       1.207  -4.186   1.161  0.00  0.00    -0.222 N 
ATOM      3  N   UNL d   1       2.345  -4.869   0.854  0.00  0.00    -0.219 N 
ATOM      4  HN  UNL d   1       2.906  -5.430   1.495  1.00  0.00     0.210 HD
ATOM      5  N   UNL d   1       2.583  -4.668  -0.428  0.00  0.00    -0.226 N 
ATOM      6  HN  UNL d   1       3.381  -5.050  -0.934  1.00  0.00     0.210 HD
ATOM      7  N   UNL d   1       1.621  -3.885  -0.983  0.00  0.00    -0.267 N 
ATOM      8  HN  UNL d   1       1.574  -3.579  -1.955  1.00  0.00     0.190 HD
ENDROOT
BRANCH   1   9
ATOM      9  C   UNL d   1      -0.415  -2.814  -0.143  0.00  0.00     0.072 C 
ATOM     10  C   UNL d   1      -1.632  -3.396  -0.095  0.00  0.00     0.107 C 
BRANCH  10  11
ATOM     11  N   UNL d   1      -2.852  -2.777  -0.233  0.00  0.00    -0.365 N 
ATOM     12  H   UNL d   1      -2.797  -1.759  -0.354  0.00  0.00     0.165 HD
BRANCH  11  13
ATOM     13  C   UNL d   1      -4.156  -3.289  -0.140  0.00  0.00     0.031 A 
ATOM     14  C   UNL d   1      -4.456  -4.619   0.173  0.00  0.00     0.029 A 
ATOM     15  C   UNL d   1      -5.783  -5.064   0.228  0.00  0.00     0.002 A 
ATOM     16  C   UNL d   1      -6.831  -4.188  -0.041  0.00  0.00     0.000 A 
ATOM     17  C   UNL d   1      -6.554  -2.866  -0.369  0.00  0.00     0.002 A 
ATOM     18  C   UNL d   1      -5.229  -2.425  -0.420  0.00  0.00     0.029 A 
ENDBRANCH  11  13
ENDBRANCH  10  11
BRANCH   9  19
ATOM     19  C   UNL d   1      -0.301  -1.349  -0.460  0.00  0.00     0.160 C 
ATOM     20  O   UNL d   1      -1.268  -0.593  -0.310  0.00  0.00    -0.293 OA
ATOM     21  C   UNL d   1       1.007  -0.819  -0.996  0.00  0.00     0.097 C 
ENDBRANCH   9  19
ENDBRANCH   1   9
BRANCH   2  22
ATOM     22  C   UNL d   1       0.706  -4.220   2.496  0.00  0.00     0.060 A 
ATOM     23  C   UNL d   1       1.249  -5.164   3.389  0.00  0.00     0.031 A 
ATOM     24  C   UNL d   1       0.721  -5.323   4.671  0.00  0.00     0.002 A 
ATOM     25  C   UNL d   1      -0.341  -4.527   5.088  0.00  0.00     0.000 A 
ATOM     26  C   UNL d   1      -0.846  -3.548   4.237  0.00  0.00     0.002 A 
ATOM     27  C   UNL d   1      -0.320  -3.383   2.950  0.00  0.00     0.031 A 
ENDBRANCH   2  22
TORSDOF 5
