REMARK  2 active torsions:
REMARK  status: ('A' for Active; 'I' for Inactive)
REMARK    1  A    between atoms: C_9  and  C_3 
REMARK    2  A    between atoms: O_13  and  C_4 
ROOT
ATOM      1  N   UNL d   1       2.421   0.719   0.010  0.00  0.00    -0.326 N 
ATOM      2  HN  UNL d   1       3.302   1.234   0.038  1.00  0.00     0.169 HD
ATOM      3  C   UNL d   1       2.382  -0.622  -0.037  0.00  0.00     0.087 A 
ATOM      4  C   UNL d   1       1.239   1.340   0.019  0.00  0.00     0.150 A 
ATOM      5  N   UNL d   1       1.229  -1.321  -0.051  0.00  0.00    -0.348 N 
ATOM      6  HN  UNL d   1       1.239  -2.341  -0.074  1.00  0.00     0.167 HD
ATOM      7  C   UNL d   1       0.002   0.740  -0.021  0.00  0.00     0.025 A 
ATOM      8  C   UNL d   1       0.054  -0.639  -0.034  0.00  0.00     0.022 A 
ATOM      9  S   UNL d   1      -2.758   0.710  -0.465  0.00  0.00    -0.164 SA
ATOM     10  C   UNL d   1      -1.242   1.567   0.035  0.00  0.00     0.118 C 
ATOM     11  C   UNL d   1      -1.183  -1.499  -0.094  0.00  0.00     0.068 C 
ATOM     12  C   UNL d   1      -2.451  -0.837   0.425  0.00  0.00     0.080 C 
ENDROOT
BRANCH   3  13
ATOM     13  C   UNL d   1       3.697  -1.363  -0.051  0.00  0.00     0.053 A 
ATOM     14  C   UNL d   1       4.665  -1.127  -1.191  0.00  0.00     0.013 A 
ATOM     15  C   UNL d   1       3.981  -2.454  -1.056  0.00  0.00     0.013 A 
ENDBRANCH   3  13
BRANCH   4  16
ATOM     16  O   UNL d   1       1.357   2.691   0.088  0.00  0.00    -0.346 OA
ATOM     17  H   UNL d   1       2.329   2.778   0.096  0.00  0.00     0.219 HD
ENDBRANCH   4  16
TORSDOF 2
