REMARK  6 active torsions:
REMARK  status: ('A' for Active; 'I' for Inactive)
REMARK    1  A    between atoms: C_2  and  S_1 
REMARK    2  A    between atoms: N_3  and  S_1 
REMARK    3  A    between atoms: C_4  and  C_6 
REMARK    4  A    between atoms: C_5  and  C_7 
REMARK    5  A    between atoms: C_10  and  C_16 
REMARK    6  A    between atoms: C_18  and  C_10 
ROOT
ATOM      1  S   UNL d   1       1.168  -0.033   0.018  0.00  0.00     0.243 S 
ATOM      2  O   UNL d   1       0.767  -1.112   0.900  0.00  0.00    -0.206 OA
ATOM      3  O   UNL d   1       2.564   0.340  -0.108  0.00  0.00    -0.206 OA
ENDROOT
BRANCH   1   4
ATOM      4  C   UNL d   1       0.279   1.419   0.554  0.00  0.00     0.076 A 
ATOM      5  C   UNL d   1      -0.912   1.259   1.274  0.00  0.00     0.041 A 
ATOM      6  C   UNL d   1      -1.503   2.358   1.917  0.00  0.00     0.050 A 
ATOM      7  C   UNL d   1      -0.891   3.621   1.805  0.00  0.00     0.032 A 
ATOM      8  C   UNL d   1       0.309   3.792   1.090  0.00  0.00     0.050 A 
ATOM      9  C   UNL d   1       0.891   2.676   0.468  0.00  0.00     0.041 A 
BRANCH   6  10
ATOM     10  C   UNL d   1      -2.737   2.195   2.777  0.00  0.00     0.417 C 
ATOM     11  F   UNL d   1      -3.186   0.913   2.850  0.00  0.00    -0.166 F 
ATOM     12  F   UNL d   1      -2.523   2.592   4.061  0.00  0.00    -0.166 F 
ATOM     13  F   UNL d   1      -3.784   2.937   2.325  0.00  0.00    -0.166 F 
ENDBRANCH   6  10
BRANCH   8  14
ATOM     14  C   UNL d   1       0.977   5.149   1.053  0.00  0.00     0.417 C 
ATOM     15  F   UNL d   1       2.168   5.149   0.395  0.00  0.00    -0.166 F 
ATOM     16  F   UNL d   1       0.207   6.086   0.437  0.00  0.00    -0.166 F 
ATOM     17  F   UNL d   1       1.235   5.633   2.299  0.00  0.00    -0.166 F 
ENDBRANCH   8  14
ENDBRANCH   1   4
BRANCH   1  18
ATOM     18  N   UNL d   1       0.570  -0.387  -1.567  0.00  0.00    -0.206 NA
ATOM     19  C   UNL d   1       0.957   0.634  -2.582  0.00  0.00     0.108 C 
ATOM     20  C   UNL d   1       0.435   0.258  -3.965  0.00  0.00     0.028 C 
ATOM     21  C   UNL d   1       0.956  -1.105  -4.428  0.00  0.00     0.063 C 
ATOM     22  C   UNL d   1       0.535  -2.141  -3.374  0.00  0.00     0.028 C 
ATOM     23  C   UNL d   1       1.002  -1.772  -1.966  0.00  0.00     0.108 C 
BRANCH  21  24
ATOM     24  C   UNL d   1       2.473  -1.159  -4.681  0.00  0.00     0.163 C 
ATOM     25  O   UNL d   1       3.203  -1.894  -4.018  0.00  0.00    -0.292 OA
BRANCH  24  26
ATOM     26  C   UNL d   1       3.102  -0.353  -5.775  0.00  0.00     0.010 A 
ATOM     27  C   UNL d   1       2.365   0.385  -6.707  0.00  0.00     0.015 A 
ATOM     28  C   UNL d   1       3.019   1.127  -7.696  0.00  0.00     0.001 A 
ATOM     29  C   UNL d   1       4.410   1.115  -7.782  0.00  0.00     0.000 A 
ATOM     30  C   UNL d   1       5.154   0.364  -6.876  0.00  0.00     0.001 A 
ATOM     31  C   UNL d   1       4.505  -0.361  -5.875  0.00  0.00     0.015 A 
ENDBRANCH  24  26
ENDBRANCH  21  24
ENDBRANCH   1  18
TORSDOF 6
