REMARK  5 active torsions:
REMARK  status: ('A' for Active; 'I' for Inactive)
REMARK    1  A    between atoms: C_9  and  C_1 
REMARK    2  A    between atoms: C_10  and  C_2 
REMARK    3  A    between atoms: C_8  and  N_3 
REMARK    4  A    between atoms: O_19  and  C_9 
REMARK    5  A    between atoms: O_20  and  C_10 
ROOT
ATOM      1  C   UNL d   1      -0.281  -1.355  -0.034  0.00  0.00     0.167 A 
ATOM      2  C   UNL d   1       0.944  -0.699  -0.069  0.00  0.00     0.160 A 
ATOM      3  N   UNL d   1      -1.211  -0.341  -0.183  0.00  0.00    -0.234 N 
ATOM      4  N   UNL d   1      -0.571   0.837  -0.396  0.00  0.00    -0.234 N 
ATOM      5  HN  UNL d   1      -1.019   1.724  -0.626  1.00  0.00     0.209 HD
ATOM      6  N   UNL d   1       0.726   0.643  -0.255  0.00  0.00    -0.278 N 
ATOM      7  HN  UNL d   1       1.444   1.367  -0.281  1.00  0.00     0.189 HD
ENDROOT
BRANCH   3   8
ATOM      8  C   UNL d   1      -2.631  -0.340  -0.092  0.00  0.00     0.060 A 
ATOM      9  C   UNL d   1      -3.347   0.679  -0.747  0.00  0.00     0.058 A 
ATOM     10  C   UNL d   1      -4.741   0.712  -0.677  0.00  0.00     0.074 A 
ATOM     11 CL   UNL d   1      -5.601   1.937  -1.528  0.00  0.00    -0.081 Cl
ATOM     12  C   UNL d   1      -5.420  -0.245   0.071  0.00  0.00     0.138 A 
ATOM     13  C   UNL d   1      -4.719  -1.240   0.747  0.00  0.00     0.046 A 
ATOM     14  F   UNL d   1      -6.758  -0.223   0.161  0.00  0.00    -0.204 F 
ATOM     15  C   UNL d   1      -3.324  -1.295   0.665  0.00  0.00     0.034 A 
ENDBRANCH   3   8
BRANCH   1  16
ATOM     16  C   UNL d   1      -0.575  -2.751  -0.010  0.00  0.00     0.314 C 
ATOM     17  O   UNL d   1      -1.468  -3.293  -0.648  0.00  0.00    -0.257 OA
BRANCH  16  18
ATOM     18  O   UNL d   1       0.245  -3.394   0.862  0.00  0.00    -0.321 OA
ATOM     19  C   UNL d   1       0.115  -4.817   0.843  0.00  0.00     0.213 C 
ENDBRANCH  16  18
ENDBRANCH   1  16
BRANCH   2  20
ATOM     20  C   UNL d   1       2.294  -1.247  -0.048  0.00  0.00     0.313 C 
ATOM     21  O   UNL d   1       2.556  -2.438  -0.162  0.00  0.00    -0.257 OA
BRANCH  20  22
ATOM     22  O   UNL d   1       3.238  -0.268   0.076  0.00  0.00    -0.321 OA
ATOM     23  C   UNL d   1       4.588  -0.727   0.037  0.00  0.00     0.213 C 
ENDBRANCH  20  22
ENDBRANCH   2  20
TORSDOF 5
