REMARK  1 active torsions:
REMARK  status: ('A' for Active; 'I' for Inactive)
REMARK    1  A    between atoms: C_13  and  C_4 
ROOT
ATOM      1  N   UNL d   1       1.236  -1.430   0.010  0.00  0.00    -0.334 N 
ATOM      2  HN  UNL d   1       1.256  -2.449   0.021  1.00  0.00     0.168 HD
ATOM      3  C   UNL d   1       0.014   0.656   0.017  0.00  0.00     0.069 A 
ATOM      4  C   UNL d   1       2.327  -0.741   0.003  0.00  0.00     0.162 A 
ATOM      5  C   UNL d   1       0.026  -0.733   0.002  0.00  0.00     0.068 A 
ATOM      6  C   UNL d   1       1.304   1.356   0.031  0.00  0.00     0.302 A 
ATOM      7  O   UNL d   1       2.428   0.603   0.013  0.00  0.00    -0.257 OA
ATOM      8  C   UNL d   1      -1.205  -1.408  -0.015  0.00  0.00     0.040 A 
ATOM      9  C   UNL d   1      -2.413  -0.703  -0.014  0.00  0.00     0.040 A 
ATOM     10  C   UNL d   1      -1.186   1.378   0.016  0.00  0.00     0.039 A 
ATOM     11  O   UNL d   1       1.348   2.579   0.054  0.00  0.00    -0.259 OA
ATOM     12  C   UNL d   1      -2.394   0.689   0.002  0.00  0.00     0.013 A 
ATOM     13 BR   UNL d   1      -1.284  -3.307  -0.035  0.00  0.00    -0.049 Br
ATOM     14 BR   UNL d   1      -4.021   1.649   0.004  0.00  0.00    -0.051 Br
ENDROOT
BRANCH   4  15
ATOM     15  C   UNL d   1       3.670  -1.361   0.027  0.00  0.00     0.015 A 
ATOM     16  C   UNL d   1       4.790  -0.696  -0.490  0.00  0.00     0.016 A 
ATOM     17  C   UNL d   1       6.044  -1.306  -0.446  0.00  0.00     0.001 A 
ATOM     18  C   UNL d   1       6.184  -2.576   0.116  0.00  0.00     0.000 A 
ATOM     19  C   UNL d   1       5.071  -3.245   0.623  0.00  0.00     0.001 A 
ATOM     20  C   UNL d   1       3.813  -2.642   0.575  0.00  0.00     0.016 A 
ENDBRANCH   4  15
TORSDOF 1
