REMARK  1 active torsions:
REMARK  status: ('A' for Active; 'I' for Inactive)
REMARK       I    between atoms: N_3  and  C_1 
REMARK       I    between atoms: N_4  and  C_1 
REMARK    1  A    between atoms: C_2  and  N_3 
ROOT
ATOM      1  C   UNL d   1       1.016  -0.104   0.002  0.00  0.00     0.323 C 
ATOM      2  N   UNL d   1       0.390   1.052   0.400  0.00  0.00    -0.307 N 
ATOM      3  N   UNL d   1       0.176  -1.218  -0.080  0.00  0.00    -0.333 N 
ATOM      4  O   UNL d   1       2.221  -0.187  -0.206  0.00  0.00    -0.247 OA
ATOM      5  S   UNL d   1      -1.542  -3.898   0.096  0.00  0.00    -0.166 SA
ATOM      6  C   UNL d   1      -1.282  -1.149  -0.267  0.00  0.00     0.137 C 
ATOM      7  C   UNL d   1       0.799  -2.494  -0.456  0.00  0.00     0.137 C 
ATOM      8  C   UNL d   1       0.253  -3.688   0.326  0.00  0.00     0.093 C 
ATOM      9  C   UNL d   1      -2.043  -2.205   0.537  0.00  0.00     0.093 C 
ATOM     10  H   UNL d   1      -0.382   0.919   1.032  0.00  0.00     0.170 HD
ENDROOT
BRANCH   2  11
ATOM     11  C   UNL d   1       1.046   2.275   0.528  0.00  0.00     0.054 A 
ATOM     12  C   UNL d   1       0.710   3.232   1.556  0.00  0.00     0.008 A 
ATOM     13  C   UNL d   1       1.534   4.357   1.492  0.00  0.00     0.017 A 
ATOM     14  C   UNL d   1      -0.243   3.159   2.604  0.00  0.00     0.015 A 
ATOM     15  C   UNL d   1       1.424   5.402   2.437  0.00  0.00     0.020 A 
ATOM     16  S   UNL d   1       2.635   4.266   0.175  0.00  0.00    -0.099 SA
ATOM     17  C   UNL d   1       0.486   5.290   3.465  0.00  0.00     0.001 A 
ATOM     18  C   UNL d   1      -0.342   4.181   3.550  0.00  0.00     0.001 A 
ATOM     19  C   UNL d   1       2.073   2.716  -0.274  0.00  0.00     0.081 A 
ENDBRANCH   2  11
TORSDOF 1
