REMARK  4 active torsions:
REMARK  status: ('A' for Active; 'I' for Inactive)
REMARK    1  A    between atoms: C_2  and  C_1 
REMARK    2  A    between atoms: C_9  and  C_2 
REMARK    3  A    between atoms: S_7  and  C_3 
REMARK    4  A    between atoms: C_6  and  S_7 
ROOT
ATOM      1  C   UNL d   1       1.135   0.053   0.032  0.00  0.00     0.063 C 
ATOM      2  C   UNL d   1       2.475   0.088  -0.023  0.00  0.00     0.056 C 
ENDROOT
BRANCH   1   3
ATOM      3  C   UNL d   1       0.443  -0.686   1.119  0.00  0.00     0.182 C 
ATOM      4  O   UNL d   1       1.015  -0.999   2.156  0.00  0.00    -0.288 OA
BRANCH   3   5
ATOM      5  C   UNL d   1      -1.004  -0.995   0.935  0.00  0.00     0.014 A 
ATOM      6  C   UNL d   1      -1.567  -1.212  -0.330  0.00  0.00     0.015 A 
ATOM      7  C   UNL d   1      -2.922  -1.530  -0.449  0.00  0.00     0.001 A 
ATOM      8  C   UNL d   1      -3.720  -1.638   0.690  0.00  0.00     0.000 A 
ATOM      9  C   UNL d   1      -3.165  -1.430   1.951  0.00  0.00     0.001 A 
ATOM     10  C   UNL d   1      -1.810  -1.115   2.075  0.00  0.00     0.015 A 
ENDBRANCH   3   5
ENDBRANCH   1   3
BRANCH   2  11
ATOM     11  S   UNL d   1       3.263   0.985  -1.281  0.00  0.00    -0.084 SA
BRANCH  11  12
ATOM     12  C   UNL d   1       4.994   0.643  -0.991  0.00  0.00     0.073 A 
ATOM     13  N   UNL d   1       5.353  -0.529  -0.418  0.00  0.00    -0.360 N 
ATOM     14  C   UNL d   1       6.676  -0.771  -0.283  0.00  0.00     0.089 A 
ATOM     15  HN  UNL d   1       4.654  -1.201  -0.101  1.00  0.00     0.166 HD
ATOM     16  C   UNL d   1       7.671   0.099  -0.700  0.00  0.00     0.017 A 
ATOM     17  C   UNL d   1       7.286   1.297  -1.286  0.00  0.00     0.004 A 
ATOM     18  C   UNL d   1       5.929   1.575  -1.434  0.00  0.00     0.037 A 
ENDBRANCH  11  12
ENDBRANCH   2  11
TORSDOF 4
