REMARK  5 active torsions:
REMARK  status: ('A' for Active; 'I' for Inactive)
REMARK    1  A    between atoms: N_2  and  C_1 
REMARK    2  A    between atoms: N_3  and  C_1 
REMARK    3  A    between atoms: C_4  and  N_2 
REMARK    4  A    between atoms: C_8  and  N_5 
REMARK    5  A    between atoms: O_18  and  C_17 
ROOT
ATOM      1  N   UNL d   1       0.691  -0.061  -1.243  0.00  0.00    -0.355 N 
ATOM      2  N   UNL d   1      -0.545  -0.360  -3.825  0.00  0.00    -0.376 N 
ATOM      3  C   UNL d   1       1.117  -1.113  -2.192  0.00  0.00     0.145 C 
ATOM      4  C   UNL d   1      -0.616   0.553  -1.538  0.00  0.00     0.145 C 
ATOM      5  C   UNL d   1       0.865  -0.767  -3.674  0.00  0.00     0.143 C 
ATOM      6  C   UNL d   1      -0.843   0.850  -3.032  0.00  0.00     0.143 C 
ENDROOT
BRANCH   1   7
ATOM      7  C   UNL d   1       1.099  -0.150   0.101  0.00  0.00     0.174 C 
ATOM      8  S   UNL d   1       1.240   1.184   1.108  0.00  0.00    -0.041 SA
BRANCH   7   9
ATOM      9  N   UNL d   1       1.293  -1.464   0.502  0.00  0.00    -0.332 N 
ATOM     10  H   UNL d   1       0.450  -2.008   0.382  0.00  0.00     0.168 HD
BRANCH   9  11
ATOM     11  C   UNL d   1       2.182  -1.929   1.498  0.00  0.00     0.046 A 
ATOM     12  C   UNL d   1       1.695  -2.781   2.514  0.00  0.00    -0.034 A 
ATOM     13  C   UNL d   1       2.609  -3.409   3.382  0.00  0.00     0.015 A 
ATOM     14  C   UNL d   1       0.234  -3.046   2.776  0.00  0.00     0.050 C 
ATOM     15  C   UNL d   1       3.987  -3.203   3.261  0.00  0.00    -0.061 A 
ATOM     16  C   UNL d   1       4.449  -2.329   2.278  0.00  0.00     0.015 A 
ATOM     17  C   UNL d   1       4.941  -3.925   4.157  0.00  0.00     0.048 C 
ATOM     18  C   UNL d   1       3.568  -1.688   1.381  0.00  0.00    -0.034 A 
ATOM     19  C   UNL d   1       4.223  -0.907   0.277  0.00  0.00     0.050 C 
ENDBRANCH   9  11
ENDBRANCH   7   9
ENDBRANCH   1   7
BRANCH   2  20
ATOM     20  C   UNL d   1      -1.135  -0.523  -5.083  0.00  0.00     0.064 A 
ATOM     21  C   UNL d   1      -1.295  -1.789  -5.698  0.00  0.00     0.094 A 
ATOM     22  C   UNL d   1      -1.977  -1.926  -6.917  0.00  0.00     0.039 A 
ATOM     23  C   UNL d   1      -2.521  -0.818  -7.556  0.00  0.00     0.003 A 
ATOM     24  C   UNL d   1      -2.348   0.440  -6.997  0.00  0.00     0.002 A 
ATOM     25  C   UNL d   1      -1.664   0.580  -5.784  0.00  0.00     0.032 A 
BRANCH  21  26
ATOM     26  O   UNL d   1      -0.771  -2.970  -5.230  0.00  0.00    -0.354 OA
ATOM     27  C   UNL d   1      -1.207  -3.338  -3.928  0.00  0.00     0.210 C 
ENDBRANCH  21  26
ENDBRANCH   2  20
TORSDOF 5
