REMARK  4 active torsions:
REMARK  status: ('A' for Active; 'I' for Inactive)
REMARK    1  A    between atoms: C_14  and  N_1 
REMARK    2  A    between atoms: C_4  and  C_12 
REMARK    3  A    between atoms: S_13  and  C_11 
REMARK    4  A    between atoms: C_12  and  S_13 
ROOT
ATOM      1  N   UNL d   1      -1.568  -0.729   0.129  0.00  0.00    -0.251 N 
ATOM      2  C   UNL d   1      -1.742   0.189  -0.878  0.00  0.00     0.232 C 
ATOM      3  C   UNL d   1      -1.377  -1.989  -0.384  0.00  0.00     0.245 C 
ATOM      4  C   UNL d   1      -1.629  -0.498  -2.207  0.00  0.00     0.128 C 
ATOM      5  C   UNL d   1      -1.148  -1.894  -1.873  0.00  0.00     0.149 C 
ATOM      6  O   UNL d   1      -1.988   1.388  -0.796  0.00  0.00    -0.273 OA
ATOM      7  O   UNL d   1      -1.448  -3.066   0.207  0.00  0.00    -0.271 OA
ENDROOT
BRANCH   5   8
ATOM      8  S   UNL d   1       0.620  -2.145  -2.311  0.00  0.00    -0.150 SA
BRANCH   8   9
ATOM      9  C   UNL d   1       0.835  -3.819  -1.651  0.00  0.00     0.114 C 
BRANCH   9  10
ATOM     10  C   UNL d   1       2.127  -4.619  -1.795  0.00  0.00    -0.036 C 
ATOM     11  C   UNL d   1       3.436  -4.061  -1.786  0.00  0.00    -0.048 C 
ATOM     12  C   UNL d   1       4.571  -4.907  -1.960  0.00  0.00    -0.049 C 
ATOM     13  C   UNL d   1       3.694  -2.585  -1.579  0.00  0.00     0.049 C 
ATOM     14  C   UNL d   1       5.967  -4.334  -2.127  0.00  0.00     0.049 C 
ATOM     15  C   UNL d   1       4.425  -6.318  -1.966  0.00  0.00    -0.049 C 
ATOM     16  C   UNL d   1       3.141  -6.893  -1.847  0.00  0.00    -0.049 C 
ATOM     17  C   UNL d   1       5.665  -7.182  -2.075  0.00  0.00     0.049 C 
ATOM     18  C   UNL d   1       1.995  -6.052  -1.776  0.00  0.00    -0.048 C 
ATOM     19  C   UNL d   1       3.014  -8.402  -1.789  0.00  0.00     0.049 C 
ATOM     20  C   UNL d   1       0.641  -6.734  -1.645  0.00  0.00     0.049 C 
ENDBRANCH   9  10
ENDBRANCH   8   9
ENDBRANCH   5   8
BRANCH   1  21
ATOM     21  C   UNL d   1      -1.677  -0.452   1.524  0.00  0.00     0.045 A 
ATOM     22  C   UNL d   1      -2.390   0.658   2.002  0.00  0.00     0.030 A 
ATOM     23  C   UNL d   1      -2.502   0.912   3.374  0.00  0.00     0.002 A 
ATOM     24  C   UNL d   1      -1.884   0.072   4.295  0.00  0.00     0.000 A 
ATOM     25  C   UNL d   1      -1.159  -1.024   3.845  0.00  0.00     0.002 A 
ATOM     26  C   UNL d   1      -1.063  -1.287   2.474  0.00  0.00     0.030 A 
ENDBRANCH   1  21
TORSDOF 4
