REMARK  3 active torsions:
REMARK  status: ('A' for Active; 'I' for Inactive)
REMARK    1  A    between atoms: C_3  and  C_1 
REMARK    2  A    between atoms: N_9  and  C_2 
REMARK    3  A    between atoms: O_11  and  C_3 
ROOT
ATOM      1  C   UNL d   1       0.003  -2.420   0.009  0.00  0.00     0.061 A 
ATOM      2  C   UNL d   1      -1.191  -1.662   0.009  0.00  0.00     0.040 A 
ATOM      3  C   UNL d   1      -1.076  -0.258   0.046  0.00  0.00     0.034 A 
ATOM      4  C   UNL d   1       0.169   0.375   0.015  0.00  0.00     0.040 A 
ATOM      5  C   UNL d   1       1.255  -1.785  -0.044  0.00  0.00     0.039 A 
ATOM      6  C   UNL d   1       1.326  -0.394  -0.031  0.00  0.00     0.013 A 
ATOM      7 BR   UNL d   1      -2.625   0.849   0.095  0.00  0.00    -0.049 Br
ATOM      8 BR   UNL d   1       3.014   0.456  -0.071  0.00  0.00    -0.051 Br
ENDROOT
BRANCH   1   9
ATOM      9  C   UNL d   1      -0.071  -3.905  -0.036  0.00  0.00     0.178 C 
ATOM     10  O   UNL d   1      -0.966  -4.503  -0.609  0.00  0.00    -0.646 OA
BRANCH   9  11
ATOM     11  O   UNL d   1       0.931  -4.532   0.616  0.00  0.00    -0.773 OA
ATOM     12  H   UNL d   1       1.472  -3.970   1.200  0.00  0.00     0.167 HD
ENDBRANCH   9  11
ENDBRANCH   1   9
BRANCH   2  13
ATOM     13  N   UNL d   1      -2.446  -2.279   0.211  0.00  0.00    -0.301 NA
ATOM     14  H   UNL d   1      -2.482  -3.236  -0.156  0.00  0.00     0.124 HD
ATOM     15  H   UNL d   1      -3.229  -1.718  -0.118  0.00  0.00     0.124 HD
ENDBRANCH   2  13
TORSDOF 3
