REMARK  5 active torsions:
REMARK  status: ('A' for Active; 'I' for Inactive)
REMARK    1  A    between atoms: C_6  and  N_1 
REMARK    2  A    between atoms: C_17  and  C_4 
REMARK    3  A    between atoms: C_9  and  C_10 
REMARK    4  A    between atoms: C_11  and  C_17 
REMARK    5  A    between atoms: C_18  and  C_12 
ROOT
ATOM      1  N   UNL d   1       0.026   0.843  -0.019  0.00  0.00    -0.252 N 
ATOM      2  C   UNL d   1      -1.117   0.089   0.112  0.00  0.00     0.232 A 
ATOM      3  C   UNL d   1       1.152   0.053  -0.077  0.00  0.00     0.236 A 
ATOM      4  C   UNL d   1       0.755  -1.393  -0.059  0.00  0.00     0.091 A 
ATOM      5  C   UNL d   1      -0.756  -1.366   0.076  0.00  0.00     0.118 A 
ATOM      6  O   UNL d   1      -2.281   0.456   0.206  0.00  0.00    -0.273 OA
ATOM      7  O   UNL d   1       2.330   0.392  -0.100  0.00  0.00    -0.272 OA
ENDROOT
BRANCH   1   8
ATOM      8  C   UNL d   1       0.056   2.266  -0.075  0.00  0.00     0.045 A 
ATOM      9  C   UNL d   1      -0.978   3.052   0.444  0.00  0.00     0.031 A 
ATOM     10  C   UNL d   1      -0.922   4.453   0.389  0.00  0.00     0.010 A 
ATOM     11  C   UNL d   1       0.156   5.127  -0.209  0.00  0.00    -0.051 A 
ATOM     12  C   UNL d   1       1.180   4.335  -0.738  0.00  0.00     0.010 A 
ATOM     13  C   UNL d   1       1.131   2.937  -0.669  0.00  0.00     0.031 A 
BRANCH  11  14
ATOM     14  C   UNL d   1       0.183   6.662  -0.276  0.00  0.00    -0.024 C 
ATOM     15  C   UNL d   1       1.421   7.227  -1.010  0.00  0.00     0.019 C 
ATOM     16  C   UNL d   1      -1.065   7.167  -1.030  0.00  0.00     0.019 C 
ATOM     17  C   UNL d   1       0.191   7.246   1.152  0.00  0.00     0.019 C 
ENDBRANCH  11  14
ENDBRANCH   1   8
BRANCH   4  18
ATOM     18  C   UNL d   1       1.275  -2.068  -1.330  0.00  0.00     0.041 C 
BRANCH  18  19
ATOM     19  C   UNL d   1       0.941  -3.529  -1.343  0.00  0.00    -0.025 C 
ATOM     20  C   UNL d   1       0.153  -4.101  -2.266  0.00  0.00     0.007 C 
BRANCH  20  21
ATOM     21  C   UNL d   1      -0.243  -5.514  -2.239  0.00  0.00    -0.036 A 
ATOM     22  C   UNL d   1      -0.460  -6.200  -1.036  0.00  0.00     0.011 A 
ATOM     23  C   UNL d   1      -0.891  -7.527  -1.041  0.00  0.00     0.001 A 
ATOM     24  C   UNL d   1      -1.123  -8.179  -2.249  0.00  0.00     0.000 A 
ATOM     25  C   UNL d   1      -0.926  -7.503  -3.453  0.00  0.00     0.001 A 
ATOM     26  C   UNL d   1      -0.493  -6.176  -3.447  0.00  0.00     0.011 A 
ENDBRANCH  20  21
ENDBRANCH  18  19
ENDBRANCH   4  18
TORSDOF 5
