REMARK  6 active torsions:
REMARK  status: ('A' for Active; 'I' for Inactive)
REMARK    1  A    between atoms: N_11  and  S_1 
REMARK    2  A    between atoms: O_15  and  S_1 
REMARK    3  A    between atoms: C_6  and  C_2 
REMARK    4  A    between atoms: C_3  and  N_14 
REMARK       I    between atoms: C_13  and  N_11 
REMARK    5  A    between atoms: S_29  and  C_12 
REMARK       I    between atoms: N_14  and  C_13 
REMARK    6  A    between atoms: C_16  and  O_15 
ROOT
ATOM      1  C   UNL d   1       3.233   1.302  -0.811  0.00  0.00     0.108 A 
ATOM      2  C   UNL d   1       2.203  -0.019  -2.322  0.00  0.00     0.689 A 
ATOM      3  N   UNL d   1       2.627   0.134  -1.073  0.00  0.00    -0.179 N 
ATOM      4  HN  UNL d   1       2.500  -0.587  -0.362  1.00  0.00     0.185 HD
ATOM      5  N   UNL d   1       3.385   2.279  -1.711  0.00  0.00    -0.325 N 
ATOM      6  HN  UNL d   1       3.856   3.155  -1.488  1.00  0.00     0.169 HD
ATOM      7  N   UNL d   1       2.312   0.891  -3.277  0.00  0.00    -0.170 N 
ATOM      8  HN  UNL d   1       1.982   0.724  -4.227  1.00  0.00     0.186 HD
ATOM      9  C   UNL d   1       2.881   2.032  -2.916  0.00  0.00     0.160 A 
ENDROOT
BRANCH   2  10
ATOM     10  N   UNL d   1       1.604  -1.177  -2.755  0.00  0.00    -0.140 N 
ATOM     11  C   UNL d   1       1.202  -2.308  -2.122  0.00  0.00     0.349 C 
ATOM     12  N   UNL d   1       1.162  -2.346  -0.727  0.00  0.00    -0.212 N 
ATOM     13  O   UNL d   1       0.859  -3.239  -2.834  0.00  0.00    -0.245 OA
ATOM     14  H   UNL d   1       1.251  -1.462  -0.236  0.00  0.00     0.185 HD
ATOM     15  H   UNL d   1       1.455  -1.205  -3.753  0.00  0.00     0.189 HD
BRANCH  12  16
ATOM     16  S   UNL d   1       0.246  -3.466   0.125  0.00  0.00     0.370 S 
ATOM     17  O   UNL d   1      -0.308  -4.429  -0.798  0.00  0.00    -0.175 OA
ATOM     18  O   UNL d   1      -0.596  -2.651   0.977  0.00  0.00    -0.175 OA
BRANCH  16  19
ATOM     19  O   UNL d   1       1.316  -4.234   1.081  0.00  0.00    -0.215 OA
BRANCH  19  20
ATOM     20  C   UNL d   1       1.000  -5.180   2.035  0.00  0.00     0.112 A 
ATOM     21  C   UNL d   1      -0.204  -5.867   2.275  0.00  0.00     0.070 A 
ATOM     22  C   UNL d   1      -0.276  -6.830   3.298  0.00  0.00     0.050 A 
ATOM     23 CL   UNL d   1      -1.700  -5.639   1.451  0.00  0.00    -0.081 Cl
ATOM     24  C   UNL d   1       0.814  -7.077   4.121  0.00  0.00     0.035 A 
ATOM     25  C   UNL d   1       2.007  -6.401   3.911  0.00  0.00     0.026 A 
ATOM     26 CL   UNL d   1       0.669  -8.198   5.416  0.00  0.00    -0.084 Cl
ATOM     27  C   UNL d   1       2.102  -5.477   2.864  0.00  0.00     0.041 A 
ENDBRANCH  19  20
ENDBRANCH  16  19
ENDBRANCH  12  16
ENDBRANCH   2  10
BRANCH   1  28
ATOM     28  C   UNL d   1       3.782   1.545   0.596  0.00  0.00     0.020 C 
ATOM     29  C   UNL d   1       5.315   1.312   0.643  0.00  0.00     0.022 C 
ATOM     30  C   UNL d   1       5.859   1.558   2.067  0.00  0.00    -0.013 C 
ATOM     31  C   UNL d   1       5.557   3.005   2.493  0.00  0.00     0.009 C 
ATOM     32  C   UNL d   1       5.171   0.597   3.050  0.00  0.00     0.009 C 
ATOM     33  C   UNL d   1       4.040   3.252   2.473  0.00  0.00    -0.013 C 
ATOM     34  C   UNL d   1       3.505   3.006   1.051  0.00  0.00     0.022 C 
ATOM     35  C   UNL d   1       3.356   2.283   3.449  0.00  0.00     0.009 C 
ATOM     36  C   UNL d   1       3.652   0.833   3.040  0.00  0.00    -0.013 C 
ATOM     37  C   UNL d   1       3.113   0.590   1.623  0.00  0.00     0.022 C 
ENDBRANCH   1  28
BRANCH   9  38
ATOM     38  S   UNL d   1       2.848   3.317  -4.142  0.00  0.00    -0.098 SA
ATOM     39  C   UNL d   1       4.221   4.344  -3.581  0.00  0.00     0.099 C 
ENDBRANCH   9  38
TORSDOF 6
