REMARK  5 active torsions:
REMARK  status: ('A' for Active; 'I' for Inactive)
REMARK    1  A    between atoms: C_5  and  N_1 
REMARK    2  A    between atoms: N_2  and  C_3 
REMARK       I    between atoms: C_4  and  N_2 
REMARK    3  A    between atoms: C_9  and  C_4 
REMARK    4  A    between atoms: C_6  and  C_8 
REMARK       I    between atoms: N_17  and  C_6 
REMARK    5  A    between atoms: N_7  and  C_9 
ROOT
ATOM      1  N   UNL d   1      -1.781   1.535  -3.294  0.00  0.00    -0.324 N 
ATOM      2  C   UNL d   1      -0.678   1.636  -2.462  0.00  0.00     0.239 C 
ATOM      3  O   UNL d   1      -0.634   1.095  -1.355  0.00  0.00    -0.271 OA
ATOM      4  H   UNL d   1      -1.833   2.104  -4.128  0.00  0.00     0.169 HD
ENDROOT
BRANCH   1   5
ATOM      5  C   UNL d   1      -2.912   0.742  -3.004  0.00  0.00     0.061 A 
ATOM      6  C   UNL d   1      -4.245   1.172  -3.254  0.00  0.00     0.057 A 
ATOM      7  C   UNL d   1      -5.207   0.129  -3.207  0.00  0.00     0.031 A 
ATOM      8  C   UNL d   1      -4.916  -1.192  -2.832  0.00  0.00     0.002 A 
ATOM      9  C   UNL d   1      -3.626  -1.543  -2.496  0.00  0.00     0.002 A 
ATOM     10  C   UNL d   1      -2.631  -0.583  -2.589  0.00  0.00     0.032 A 
BRANCH   6  11
ATOM     11  N   UNL d   1      -4.669   2.484  -3.567  0.00  0.00    -0.375 N 
ATOM     12  C   UNL d   1      -3.800   3.680  -3.427  0.00  0.00     0.149 C 
ATOM     13  C   UNL d   1      -4.360   4.812  -4.309  0.00  0.00     0.187 C 
ATOM     14  O   UNL d   1      -5.673   5.197  -3.892  0.00  0.00    -0.388 OA
ATOM     15  C   UNL d   1      -6.556   4.070  -3.965  0.00  0.00     0.187 C 
ATOM     16  C   UNL d   1      -6.050   2.883  -3.122  0.00  0.00     0.149 C 
ENDBRANCH   6  11
ENDBRANCH   1   5
BRANCH   2  17
ATOM     17  C   UNL d   1       0.432   2.532  -3.004  0.00  0.00     0.220 C 
BRANCH  17  18
ATOM     18  N   UNL d   1       1.517   2.795  -2.051  0.00  0.00    -0.404 N 
ATOM     19  C   UNL d   1       1.192   3.421  -0.788  0.00  0.00     0.118 C 
ATOM     20  C   UNL d   1       1.255   2.523   0.456  0.00  0.00     0.033 C 
ATOM     21  C   UNL d   1       2.216   1.330   0.370  0.00  0.00     0.075 C 
ATOM     22  C   UNL d   1       3.260   1.517  -0.736  0.00  0.00     0.033 C 
ATOM     23  C   UNL d   1       2.670   1.917  -2.091  0.00  0.00     0.118 C 
BRANCH  21  24
ATOM     24  C   UNL d   1       1.631  -0.091   0.323  0.00  0.00     0.199 C 
ATOM     25  O   UNL d   1       2.333  -1.084   0.142  0.00  0.00    -0.280 OA
ATOM     26  N   UNL d   1       0.317  -0.262   0.614  0.00  0.00    -0.272 NA
ATOM     27  H   UNL d   1      -0.309   0.378   0.118  0.00  0.00     0.127 HD
ATOM     28  H   UNL d   1       0.014  -1.223   0.497  0.00  0.00     0.127 HD
ENDBRANCH  21  24
ENDBRANCH  17  18
ENDBRANCH   2  17
TORSDOF 5
