REMARK  3 active torsions:
REMARK  status: ('A' for Active; 'I' for Inactive)
REMARK    1  A    between atoms: C_6  and  N_1 
REMARK    2  A    between atoms: C_7  and  C_4 
REMARK    3  A    between atoms: C_13  and  C_7 
ROOT
ATOM      1  N   UNL d   1       0.105  -1.259  -0.062  0.00  0.00    -0.262 N 
ATOM      2  C   UNL d   1       0.956  -0.175   0.099  0.00  0.00     0.153 A 
ATOM      3  C   UNL d   1      -1.254  -0.976  -0.190  0.00  0.00     0.271 A 
ATOM      4  C   UNL d   1      -1.488   0.488  -0.024  0.00  0.00     0.077 A 
ATOM      5  S   UNL d   1       0.015   1.314   0.130  0.00  0.00    -0.054 SA
ATOM      6  S   UNL d   1       2.627  -0.134   0.161  0.00  0.00    -0.052 SA
ATOM      7  O   UNL d   1      -2.156  -1.784  -0.381  0.00  0.00    -0.266 OA
ENDROOT
BRANCH   4   8
ATOM      8  C   UNL d   1      -2.666   1.122   0.066  0.00  0.00     0.036 C 
BRANCH   8   9
ATOM      9  C   UNL d   1      -3.980   0.478   0.067  0.00  0.00    -0.033 A 
ATOM     10  C   UNL d   1      -4.645   0.197  -1.131  0.00  0.00     0.037 A 
ATOM     11  C   UNL d   1      -5.907  -0.409  -1.110  0.00  0.00     0.056 A 
ATOM     12 CL   UNL d   1      -6.675  -0.718  -2.627  0.00  0.00    -0.083 Cl
ATOM     13  C   UNL d   1      -6.508  -0.733   0.112  0.00  0.00     0.055 A 
ATOM     14  C   UNL d   1      -5.840  -0.458   1.309  0.00  0.00     0.026 A 
ATOM     15 CL   UNL d   1      -8.070  -1.464   0.215  0.00  0.00    -0.083 Cl
ATOM     16  C   UNL d   1      -4.581   0.146   1.286  0.00  0.00     0.013 A 
ENDBRANCH   8   9
ENDBRANCH   4   8
BRANCH   1  17
ATOM     17  C   UNL d   1       0.535  -2.617  -0.096  0.00  0.00     0.047 A 
ATOM     18  C   UNL d   1       1.291  -3.157   0.953  0.00  0.00     0.075 A 
ATOM     19  C   UNL d   1       1.647  -4.504   0.928  0.00  0.00     0.157 A 
ATOM     20  F   UNL d   1       2.334  -5.016   1.959  0.00  0.00    -0.203 F 
ATOM     21  C   UNL d   1       1.279  -5.316  -0.137  0.00  0.00     0.154 A 
ATOM     22  C   UNL d   1       0.536  -4.795  -1.189  0.00  0.00     0.048 A 
ATOM     23  F   UNL d   1       1.627  -6.609  -0.153  0.00  0.00    -0.203 F 
ATOM     24  C   UNL d   1       0.151  -3.451  -1.161  0.00  0.00     0.033 A 
ENDBRANCH   1  17
TORSDOF 3
