REMARK  9 active torsions:
REMARK  status: ('A' for Active; 'I' for Inactive)
REMARK    1  A    between atoms: C_7  and  C_1 
REMARK    2  A    between atoms: C_12  and  N_3 
REMARK    3  A    between atoms: C_6  and  O_8 
REMARK    4  A    between atoms: C_9  and  C_6 
REMARK    5  A    between atoms: O_20  and  C_7 
REMARK    6  A    between atoms: O_8  and  C_14 
REMARK    7  A    between atoms: C_16  and  C_9 
REMARK    8  A    between atoms: C_17  and  C_9 
REMARK    9  A    between atoms: C_27  and  O_20 
ROOT
ATOM      1  C   UNL d   1       1.760  -1.261   0.007  0.00  0.00     0.074 C 
ATOM      2  C   UNL d   1       2.537  -0.106   0.120  0.00  0.00     0.030 C 
ATOM      3  N   UNL d   1       1.686   0.970   0.406  0.00  0.00    -0.314 N 
ATOM      4  C   UNL d   1       0.404  -0.878   0.284  0.00  0.00     0.012 A 
ATOM      5  C   UNL d   1       0.423   0.451   0.731  0.00  0.00     0.051 A 
ATOM      6  C   UNL d   1      -0.747   1.025   1.275  0.00  0.00     0.034 A 
ATOM      7  C   UNL d   1      -0.839  -1.570   0.240  0.00  0.00     0.052 A 
ATOM      8  C   UNL d   1      -2.009  -0.948   0.689  0.00  0.00     0.080 A 
ATOM      9  C   UNL d   1      -1.952   0.309   1.263  0.00  0.00     0.039 A 
ATOM     10  C   UNL d   1       4.029   0.061   0.046  0.00  0.00     0.070 C 
ENDROOT
BRANCH   8  11
ATOM     11  O   UNL d   1      -3.237  -1.587   0.357  0.00  0.00    -0.278 OA
BRANCH  11  12
ATOM     12  C   UNL d   1      -4.443  -1.365   1.024  0.00  0.00     0.273 C 
ATOM     13  O   UNL d   1      -4.548  -0.828   2.123  0.00  0.00    -0.264 OA
BRANCH  12  14
ATOM     14  C   UNL d   1      -5.661  -1.813   0.194  0.00  0.00     0.123 C 
BRANCH  14  15
ATOM     15  C   UNL d   1      -6.298  -0.643  -0.546  0.00  0.00    -0.044 A 
ATOM     16  C   UNL d   1      -5.619   0.108  -1.509  0.00  0.00     0.008 A 
ATOM     17  C   UNL d   1      -6.235   1.210  -2.125  0.00  0.00     0.001 A 
ATOM     18  C   UNL d   1      -7.537   1.572  -1.785  0.00  0.00     0.000 A 
ATOM     19  C   UNL d   1      -8.231   0.833  -0.835  0.00  0.00     0.001 A 
ATOM     20  C   UNL d   1      -7.626  -0.264  -0.223  0.00  0.00     0.008 A 
ENDBRANCH  14  15
BRANCH  14  21
ATOM     21  C   UNL d   1      -5.524  -3.151  -0.568  0.00  0.00     0.003 C 
ATOM     22  C   UNL d   1      -4.505  -3.306  -1.697  0.00  0.00     0.006 C 
ATOM     23  C   UNL d   1      -4.868  -4.664  -2.308  0.00  0.00     0.000 C 
ATOM     24  C   UNL d   1      -6.365  -4.851  -2.057  0.00  0.00     0.000 C 
ATOM     25  C   UNL d   1      -6.806  -3.613  -1.281  0.00  0.00     0.006 C 
ENDBRANCH  14  21
ENDBRANCH  12  14
ENDBRANCH  11  12
ENDBRANCH   8  11
BRANCH   1  26
ATOM     26  C   UNL d   1       2.208  -2.642  -0.227  0.00  0.00     0.296 C 
ATOM     27  O   UNL d   1       1.446  -3.603  -0.235  0.00  0.00    -0.259 OA
BRANCH  26  28
ATOM     28  O   UNL d   1       3.563  -2.759  -0.298  0.00  0.00    -0.318 OA
BRANCH  28  29
ATOM     29  C   UNL d   1       4.104  -4.006   0.162  0.00  0.00     0.174 C 
ATOM     30  C   UNL d   1       4.270  -3.927   1.670  0.00  0.00     0.034 C 
ENDBRANCH  28  29
ENDBRANCH  26  28
ENDBRANCH   1  26
BRANCH   3  31
ATOM     31  C   UNL d   1       2.040   2.361   0.298  0.00  0.00     0.039 A 
ATOM     32  C   UNL d   1       2.888   2.790  -0.739  0.00  0.00     0.030 A 
ATOM     33  C   UNL d   1       3.235   4.138  -0.875  0.00  0.00     0.002 A 
ATOM     34  C   UNL d   1       2.711   5.082   0.001  0.00  0.00     0.000 A 
ATOM     35  C   UNL d   1       1.857   4.674   1.022  0.00  0.00     0.002 A 
ATOM     36  C   UNL d   1       1.536   3.320   1.181  0.00  0.00     0.030 A 
ENDBRANCH   3  31
TORSDOF 9
