REMARK  3 active torsions:
REMARK  status: ('A' for Active; 'I' for Inactive)
REMARK    1  A    between atoms: N_2  and  S_1 
REMARK    2  A    between atoms: C_3  and  S_1 
REMARK    3  A    between atoms: C_14  and  C_4 
ROOT
ATOM      1  S   UNL d   1       0.884   0.061  -0.025  0.00  0.00     0.243 S 
ATOM      2  O   UNL d   1       0.219  -0.354  -1.246  0.00  0.00    -0.206 OA
ATOM      3  O   UNL d   1       2.329   0.065   0.059  0.00  0.00    -0.206 OA
ENDROOT
BRANCH   1   4
ATOM      4  N   UNL d   1       0.289  -0.954   1.232  0.00  0.00    -0.203 NA
ATOM      5  C   UNL d   1      -1.172  -0.817   1.482  0.00  0.00     0.135 C 
ATOM      6  C   UNL d   1      -1.745  -1.972   2.257  0.00  0.00    -0.004 C 
ATOM      7  C   UNL d   1      -1.080  -3.100   2.554  0.00  0.00    -0.049 C 
ATOM      8  C   UNL d   1       0.341  -3.299   2.125  0.00  0.00     0.054 C 
ATOM      9  C   UNL d   1       0.699  -2.375   0.964  0.00  0.00     0.112 C 
BRANCH   7  10
ATOM     10  C   UNL d   1      -1.736  -4.205   3.265  0.00  0.00    -0.030 A 
ATOM     11  C   UNL d   1      -2.537  -5.117   2.564  0.00  0.00     0.012 A 
ATOM     12  C   UNL d   1      -3.150  -6.178   3.234  0.00  0.00     0.001 A 
ATOM     13  C   UNL d   1      -2.971  -6.331   4.608  0.00  0.00     0.000 A 
ATOM     14  C   UNL d   1      -2.181  -5.424   5.312  0.00  0.00     0.001 A 
ATOM     15  C   UNL d   1      -1.563  -4.365   4.642  0.00  0.00     0.012 A 
ENDBRANCH   7  10
ENDBRANCH   1   4
BRANCH   1  16
ATOM     16  C   UNL d   1       0.324   1.702   0.360  0.00  0.00     0.075 A 
ATOM     17  C   UNL d   1      -0.592   2.327  -0.495  0.00  0.00     0.037 A 
ATOM     18  C   UNL d   1      -0.954   3.668  -0.292  0.00  0.00    -0.025 A 
ATOM     19  C   UNL d   1      -1.853   4.316  -1.155  0.00  0.00     0.012 A 
ATOM     20  C   UNL d   1      -0.388   4.383   0.787  0.00  0.00    -0.026 A 
ATOM     21  C   UNL d   1      -2.190   5.655  -0.959  0.00  0.00     0.001 A 
ATOM     22  C   UNL d   1      -1.630   6.363   0.100  0.00  0.00     0.001 A 
ATOM     23  C   UNL d   1      -0.735   5.732   0.968  0.00  0.00     0.012 A 
ATOM     24  C   UNL d   1       0.526   3.733   1.640  0.00  0.00     0.014 A 
ATOM     25  C   UNL d   1       0.888   2.397   1.427  0.00  0.00     0.026 A 
ENDBRANCH   1  16
TORSDOF 3
