REMARK  1 active torsions:
REMARK  status: ('A' for Active; 'I' for Inactive)
REMARK    1  A    between atoms: N_13  and  N_8 
ROOT
ATOM      1  C   UNL d   1       0.469   0.545  -0.032  0.00  0.00     0.050 A 
ATOM      2  C   UNL d   1       0.947  -0.775   0.014  0.00  0.00     0.090 A 
ATOM      3  C   UNL d   1       1.443   1.634  -0.078  0.00  0.00     0.130 A 
ATOM      4  N   UNL d   1       2.249  -1.195   0.022  0.00  0.00    -0.345 N 
ATOM      5  HN  UNL d   1       2.532  -2.174   0.073  1.00  0.00     0.167 HD
ATOM      6  S   UNL d   1      -0.332  -1.932   0.043  0.00  0.00    -0.075 SA
ATOM      7  C   UNL d   1      -0.952   0.553  -0.039  0.00  0.00    -0.028 A 
ATOM      8  N   UNL d   1       2.742   1.137  -0.085  0.00  0.00    -0.259 N 
ATOM      9  C   UNL d   1      -1.470  -0.713  -0.014  0.00  0.00    -0.008 A 
ATOM     10  C   UNL d   1       3.083  -0.200  -0.043  0.00  0.00     0.203 A 
ATOM     11  N   UNL d   1       1.100   2.881  -0.109  0.00  0.00    -0.384 N 
ATOM     12  HN  UNL d   1       1.753   3.665  -0.134  1.00  0.00     0.157 HD
ATOM     13  C   UNL d   1      -2.045   1.559  -0.096  0.00  0.00     0.041 C 
ATOM     14  C   UNL d   1      -2.950  -0.772  -0.055  0.00  0.00     0.047 C 
ATOM     15  C   UNL d   1      -3.309   0.711   0.250  0.00  0.00     0.010 C 
ATOM     16  H   UNL d   1       0.082   2.968  -0.104  0.00  0.00     0.157 HD
ENDROOT
BRANCH   8  17
ATOM     17  N   UNL d   1       3.793   2.087  -0.223  0.00  0.00    -0.240 NA
ATOM     18  H   UNL d   1       3.344   3.011  -0.287  0.00  0.00     0.143 HD
ATOM     19  H   UNL d   1       4.324   2.123   0.648  0.00  0.00     0.143 HD
ENDBRANCH   8  17
TORSDOF 1
