REMARK  5 active torsions:
REMARK  status: ('A' for Active; 'I' for Inactive)
REMARK    1  A    between atoms: C_6  and  C_1 
REMARK    2  A    between atoms: N_2  and  C_7 
REMARK    3  A    between atoms: C_3  and  C_4 
REMARK    4  A    between atoms: N_8  and  C_5 
REMARK    5  A    between atoms: O_17  and  C_6 
ROOT
ATOM      1  C   UNL d   1       0.779  -0.556   0.416  0.00  0.00     0.120 C 
ATOM      2  C   UNL d   1       0.406   0.569   1.061  0.00  0.00     0.042 C 
ATOM      3  C   UNL d   1       0.128  -0.885  -0.806  0.00  0.00     0.105 C 
ATOM      4  N   UNL d   1      -0.427  -1.117  -1.799  0.00  0.00    -0.191 NA
ENDROOT
BRANCH   1   5
ATOM      5  C   UNL d   1       1.840  -1.467   0.932  0.00  0.00     0.303 C 
ATOM      6  O   UNL d   1       2.231  -1.511   2.088  0.00  0.00    -0.258 OA
BRANCH   5   7
ATOM      7  O   UNL d   1       2.277  -2.281  -0.066  0.00  0.00    -0.322 OA
ATOM      8  C   UNL d   1       3.238  -3.267   0.323  0.00  0.00     0.213 C 
ENDBRANCH   5   7
ENDBRANCH   1   5
BRANCH   2   9
ATOM      9  C   UNL d   1       1.042   1.126   2.264  0.00  0.00    -0.006 A 
ATOM     10  C   UNL d   1       2.127   2.044   2.171  0.00  0.00     0.040 A 
ATOM     11  C   UNL d   1       2.736   2.432   3.380  0.00  0.00     0.032 A 
ATOM     12  C   UNL d   1       2.306   1.940   4.620  0.00  0.00     0.038 A 
ATOM     13  C   UNL d   1       1.232   1.050   4.676  0.00  0.00     0.103 A 
ATOM     14  C   UNL d   1       0.589   0.648   3.506  0.00  0.00     0.049 A 
BRANCH  10  15
ATOM     15  N   UNL d   1       2.558   2.523   0.929  0.00  0.00    -0.380 N 
ATOM     16  C   UNL d   1       3.915   3.053   0.719  0.00  0.00     0.123 C 
ATOM     17  C   UNL d   1       3.703   4.462   0.178  0.00  0.00     0.021 C 
ATOM     18  C   UNL d   1       2.432   4.321  -0.633  0.00  0.00     0.021 C 
ATOM     19  C   UNL d   1       1.586   3.367   0.204  0.00  0.00     0.123 C 
ENDBRANCH  10  15
BRANCH  13  20
ATOM     20  N   UNL d   1       0.783   0.526   5.970  0.00  0.00    -0.116 N 
ATOM     21  O   UNL d   1      -0.209  -0.219   5.980  0.00  0.00    -0.532 OA
ATOM     22  O   UNL d   1       1.412   0.868   6.982  0.00  0.00    -0.532 OA
ENDBRANCH  13  20
ENDBRANCH   2   9
TORSDOF 5
