REMARK  8 active torsions:
REMARK  status: ('A' for Active; 'I' for Inactive)
REMARK    1  A    between atoms: O_6  and  C_1 
REMARK    2  A    between atoms: C_10  and  N_2 
REMARK    3  A    between atoms: S_13  and  C_3 
REMARK    4  A    between atoms: C_9  and  O_6 
REMARK       I    between atoms: N_14  and  C_9 
REMARK    5  A    between atoms: C_20  and  S_13 
REMARK    6  A    between atoms: C_15  and  C_20 
REMARK       I    between atoms: N_16  and  C_15 
REMARK    7  A    between atoms: C_23  and  N_16 
REMARK    8  A    between atoms: C_24  and  C_18 
ROOT
ATOM      1  C   UNL d   1      -0.887  -0.092  -0.386  0.00  0.00     0.252 A 
ATOM      2  N   UNL d   1      -0.178   0.658  -1.316  0.00  0.00    -0.286 N 
ATOM      3  C   UNL d   1       1.084   0.784  -0.769  0.00  0.00     0.165 A 
ATOM      4  N   UNL d   1      -0.066  -0.490   0.562  0.00  0.00    -0.262 N 
ATOM      5  HN  UNL d   1      -0.303  -1.115   1.333  1.00  0.00     0.190 HD
ATOM      6  N   UNL d   1       1.161   0.078   0.337  0.00  0.00    -0.277 N 
ATOM      7  HN  UNL d   1       1.988  -0.029   0.924  1.00  0.00     0.189 HD
ENDROOT
BRANCH   3   8
ATOM      8  S   UNL d   1       2.361   1.819  -1.320  0.00  0.00    -0.083 SA
BRANCH   8   9
ATOM      9  C   UNL d   1       3.778   1.162  -0.389  0.00  0.00     0.185 C 
BRANCH   9  10
ATOM     10  C   UNL d   1       5.037   1.964  -0.695  0.00  0.00     0.231 C 
ATOM     11  N   UNL d   1       5.009   3.266  -0.211  0.00  0.00    -0.327 N 
ATOM     12  H   UNL d   1       4.200   3.529   0.340  0.00  0.00     0.169 HD
ATOM     13  O   UNL d   1       5.987   1.433  -1.267  0.00  0.00    -0.272 OA
BRANCH  11  14
ATOM     14  C   UNL d   1       6.005   4.257  -0.368  0.00  0.00     0.034 A 
ATOM     15  C   UNL d   1       7.092   4.136  -1.234  0.00  0.00     0.030 A 
ATOM     16  C   UNL d   1       8.035   5.166  -1.353  0.00  0.00     0.010 A 
ATOM     17  C   UNL d   1       7.922   6.340  -0.598  0.00  0.00    -0.055 A 
ATOM     18  C   UNL d   1       6.828   6.460   0.269  0.00  0.00     0.010 A 
ATOM     19  C   UNL d   1       5.877   5.436   0.375  0.00  0.00     0.030 A 
BRANCH  17  20
ATOM     20  C   UNL d   1       8.925   7.475  -0.721  0.00  0.00     0.010 C 
ATOM     21  C   UNL d   1      10.365   7.019  -0.463  0.00  0.00     0.015 C 
ATOM     22  C   UNL d   1       8.817   8.163  -2.084  0.00  0.00     0.015 C 
ENDBRANCH  17  20
ENDBRANCH  11  14
ENDBRANCH   9  10
ENDBRANCH   8   9
ENDBRANCH   3   8
BRANCH   2  23
ATOM     23  C   UNL d   1      -0.677   1.039  -2.628  0.00  0.00     0.096 A 
ATOM     24  C   UNL d   1      -0.095   0.424  -3.886  0.00  0.00     0.028 A 
ATOM     25  C   UNL d   1       0.003   1.899  -3.672  0.00  0.00     0.028 A 
ENDBRANCH   2  23
BRANCH   1  26
ATOM     26  O   UNL d   1      -2.096  -0.613  -0.487  0.00  0.00    -0.226 OA
BRANCH  26  27
ATOM     27  C   UNL d   1      -3.184   0.161  -0.670  0.00  0.00     0.369 C 
ATOM     28  N   UNL d   1      -4.361  -0.593  -0.592  0.00  0.00    -0.336 N 
ATOM     29  C   UNL d   1      -4.395  -1.784   0.242  0.00  0.00     0.154 C 
ATOM     30  C   UNL d   1      -5.631   0.017  -0.930  0.00  0.00     0.154 C 
ATOM     31  O   UNL d   1      -3.173   1.361  -0.890  0.00  0.00    -0.238 OA
ENDBRANCH  26  27
ENDBRANCH   1  26
TORSDOF 8
