REMARK  5 active torsions:
REMARK  status: ('A' for Active; 'I' for Inactive)
REMARK    1  A    between atoms: N_2  and  C_1 
REMARK    2  A    between atoms: C_3  and  S_16 
REMARK    3  A    between atoms: S_16  and  C_5 
REMARK    4  A    between atoms: N_23  and  C_8 
REMARK    5  A    between atoms: N_14  and  C_12 
ROOT
ATOM      1  C   UNL d   1       1.786  -1.206   0.072  0.00  0.00     0.121 A 
ATOM      2  C   UNL d   1       2.488   0.003   0.011  0.00  0.00     0.043 A 
ATOM      3  C   UNL d   1       0.387  -1.248   0.117  0.00  0.00     0.063 A 
ATOM      4  C   UNL d   1       0.315   1.177   0.037  0.00  0.00     0.061 A 
ATOM      5  C   UNL d   1       1.731   1.190  -0.010  0.00  0.00     0.053 A 
ATOM      6  C   UNL d   1      -0.352  -0.061   0.091  0.00  0.00     0.063 A 
ATOM      7 CL   UNL d   1      -2.063  -0.278  -0.051  0.00  0.00    -0.082 Cl
ENDROOT
BRANCH   2   8
ATOM      8  S   UNL d   1       4.260   0.136  -0.198  0.00  0.00    -0.050 SA
BRANCH   8   9
ATOM      9  C   UNL d   1       4.743   0.152   1.454  0.00  0.00     0.179 A 
ATOM     10  N   UNL d   1       5.136  -0.984   2.093  0.00  0.00    -0.168 N 
ATOM     11  C   UNL d   1       5.531  -0.595   3.338  0.00  0.00     0.692 A 
ATOM     12  H   UNL d   1       5.101  -1.923   1.726  0.00  0.00     0.186 HD
ATOM     13  N   UNL d   1       5.383   0.706   3.448  0.00  0.00    -0.130 N 
ATOM     14  N   UNL d   1       4.880   1.183   2.250  0.00  0.00    -0.265 N 
ATOM     15  HN  UNL d   1       5.602   1.266   4.272  1.00  0.00     0.205 HD
ATOM     16  HN  UNL d   1       4.657   2.154   2.030  1.00  0.00     0.189 HD
BRANCH  11  17
ATOM     17  N   UNL d   1       5.989  -1.480   4.233  0.00  0.00    -0.233 N 
ATOM     18  H   UNL d   1       5.804  -2.474   4.165  0.00  0.00     0.174 HD
ATOM     19  H   UNL d   1       6.130  -1.148   5.183  0.00  0.00     0.174 HD
ENDBRANCH  11  17
ENDBRANCH   8   9
ENDBRANCH   2   8
BRANCH   1  20
ATOM     20  N   UNL d   1       2.475  -2.482   0.023  0.00  0.00    -0.114 N 
ATOM     21  O   UNL d   1       3.284  -2.735   0.929  0.00  0.00    -0.532 OA
ATOM     22  O   UNL d   1       2.177  -3.245  -0.903  0.00  0.00    -0.532 OA
ENDBRANCH   1  20
BRANCH   4  23
ATOM     23  N   UNL d   1      -0.373   2.430   0.001  0.00  0.00    -0.331 N 
ATOM     24  C   UNL d   1      -1.575   2.747   0.600  0.00  0.00     0.096 A 
ATOM     25  C   UNL d   1      -1.915   4.046   0.291  0.00  0.00     0.019 A 
ATOM     26  C   UNL d   1      -0.868   4.574  -0.487  0.00  0.00     0.019 A 
ATOM     27  C   UNL d   1       0.077   3.580  -0.625  0.00  0.00     0.096 A 
ENDBRANCH   4  23
TORSDOF 5
