REMARK  3 active torsions:
REMARK  status: ('A' for Active; 'I' for Inactive)
REMARK    1  A    between atoms: C_7  and  N_1 
REMARK    2  A    between atoms: C_4  and  C_7 
REMARK    3  A    between atoms: O_12  and  N_8 
ROOT
ATOM      1  C   UNL d   1      -2.176   2.520   0.091  0.00  0.00     0.051 C 
ATOM      2  C   UNL d   1      -2.897   1.869   1.269  0.00  0.00     0.015 C 
ATOM      3  N   UNL d   1      -3.472   2.504   2.244  0.00  0.00    -0.277 N 
ATOM      4  HN  UNL d   1      -3.944   2.042   3.022  1.00  0.00     0.193 HD
ATOM      5  C   UNL d   1      -2.985   2.107  -1.156  0.00  0.00     0.012 C 
ATOM      6  C   UNL d   1      -3.025   0.359   1.239  0.00  0.00     0.055 C 
ATOM      7  C   UNL d   1      -3.124   0.586  -1.303  0.00  0.00     0.001 C 
ATOM      8  C   UNL d   1      -3.715  -0.072  -0.053  0.00  0.00     0.006 C 
ENDROOT
BRANCH   1   9
ATOM      9  C   UNL d   1      -0.708   2.082  -0.047  0.00  0.00     0.139 C 
BRANCH   9  10
ATOM     10  N   UNL d   1       0.273   2.530   0.920  0.00  0.00    -0.351 N 
ATOM     11  C   UNL d   1       0.111   3.255   2.061  0.00  0.00     0.182 A 
ATOM     12  N   UNL d   1       1.258   3.450   2.676  0.00  0.00    -0.361 N 
ATOM     13  C   UNL d   1       2.202   2.827   1.903  0.00  0.00     0.106 A 
ATOM     14  HN  UNL d   1       1.412   3.959   3.547  1.00  0.00     0.166 HD
ATOM     15  C   UNL d   1       1.615   2.249   0.805  0.00  0.00     0.108 A 
ENDBRANCH   9  10
ENDBRANCH   1   9
BRANCH   3  16
ATOM     16  O   UNL d   1      -3.371   3.890   2.110  0.00  0.00    -0.290 OA
ATOM     17  H   UNL d   1      -3.880   4.216   2.876  0.00  0.00     0.244 HD
ENDBRANCH   3  16
TORSDOF 3
