REMARK  4 active torsions:
REMARK  status: ('A' for Active; 'I' for Inactive)
REMARK    1  A    between atoms: C_5  and  C_1 
REMARK    2  A    between atoms: C_7  and  C_2 
REMARK       I    between atoms: N_10  and  C_7 
REMARK    3  A    between atoms: C_9  and  N_11 
REMARK    4  A    between atoms: N_11  and  N_10 
ROOT
ATOM      1  C   UNL d   1      -1.410  -0.675  -0.033  0.00  0.00     0.086 A 
ATOM      2  C   UNL d   1      -0.097  -1.236   0.056  0.00  0.00     0.094 A 
ATOM      3  N   UNL d   1      -1.335   0.622  -0.377  0.00  0.00    -0.259 N 
ATOM      4  HN  UNL d   1      -2.117   1.244  -0.581  1.00  0.00     0.195 HD
ATOM      5  O   UNL d   1      -0.002   0.948  -0.400  0.00  0.00    -0.241 OA
ATOM      6  C   UNL d   1       0.741  -0.151  -0.122  0.00  0.00     0.090 A 
ATOM      7  C   UNL d   1       2.198   0.085  -0.044  0.00  0.00     0.080 C 
ENDROOT
BRANCH   2   8
ATOM      8  C   UNL d   1       0.308  -2.604   0.310  0.00  0.00     0.275 C 
ATOM      9  N   UNL d   1       1.385  -3.001  -0.461  0.00  0.00    -0.264 N 
ATOM     10  H   UNL d   1       1.746  -2.430  -1.222  0.00  0.00     0.190 HD
ATOM     11  O   UNL d   1      -0.279  -3.348   1.087  0.00  0.00    -0.266 OA
BRANCH   9  12
ATOM     12  N   UNL d   1       1.899  -4.295  -0.364  0.00  0.00    -0.274 N 
ATOM     13  H   UNL d   1       1.315  -4.981   0.110  0.00  0.00     0.189 HD
BRANCH  12  14
ATOM     14  C   UNL d   1       3.001  -4.657  -1.099  0.00  0.00     0.184 C 
ATOM     15  S   UNL d   1       3.877  -3.659  -2.107  0.00  0.00    -0.040 SA
ATOM     16  N   UNL d   1       3.360  -5.957  -0.959  0.00  0.00    -0.375 N 
ATOM     17  H   UNL d   1       3.044  -6.509  -0.174  0.00  0.00     0.158 HD
ATOM     18  H   UNL d   1       4.218  -6.254  -1.411  0.00  0.00     0.158 HD
ENDBRANCH  12  14
ENDBRANCH   9  12
ENDBRANCH   2   8
BRANCH   1  19
ATOM     19  C   UNL d   1      -2.725  -1.294   0.152  0.00  0.00     0.037 A 
ATOM     20  C   UNL d   1      -3.644  -0.755   1.079  0.00  0.00     0.048 A 
ATOM     21 CL   UNL d   1      -3.262   0.575   2.127  0.00  0.00    -0.083 Cl
ATOM     22  C   UNL d   1      -4.933  -1.291   1.217  0.00  0.00     0.025 A 
ATOM     23  C   UNL d   1      -5.321  -2.389   0.459  0.00  0.00     0.003 A 
ATOM     24  C   UNL d   1      -4.424  -2.947  -0.447  0.00  0.00     0.025 A 
ATOM     25  C   UNL d   1      -3.143  -2.398  -0.615  0.00  0.00     0.048 A 
ATOM     26 CL   UNL d   1      -2.162  -3.115  -1.851  0.00  0.00    -0.083 Cl
ENDBRANCH   1  19
TORSDOF 4
