REMARK  4 active torsions:
REMARK  status: ('A' for Active; 'I' for Inactive)
REMARK    1  A    between atoms: C_10  and  N_1 
REMARK    2  A    between atoms: N_8  and  N_2 
REMARK    3  A    between atoms: C_7  and  C_11 
REMARK    4  A    between atoms: C_18  and  C_15 
ROOT
ATOM      1  N   UNL d   1      -0.680  -1.155   0.183  0.00  0.00    -0.308 N 
ATOM      2  N   UNL d   1       0.728   1.148   0.255  0.00  0.00    -0.251 N 
ATOM      3  C   UNL d   1      -1.417   0.043   0.185  0.00  0.00     0.244 C 
ATOM      4  C   UNL d   1       1.484  -0.000  -0.035  0.00  0.00     0.257 C 
ATOM      5  C   UNL d   1      -0.617   1.240  -0.300  0.00  0.00     0.255 C 
ATOM      6  C   UNL d   1       0.615  -1.174  -0.504  0.00  0.00     0.236 C 
ATOM      7  O   UNL d   1       2.712  -0.071  -0.029  0.00  0.00    -0.270 OA
ATOM      8  O   UNL d   1      -2.622   0.129   0.410  0.00  0.00    -0.271 OA
ENDROOT
BRANCH   1   9
ATOM      9  C   UNL d   1      -1.274  -2.376   0.610  0.00  0.00     0.038 A 
ATOM     10  C   UNL d   1      -1.084  -3.565  -0.105  0.00  0.00     0.046 A 
ATOM     11  C   UNL d   1      -1.679  -4.767   0.321  0.00  0.00     0.050 A 
ATOM     12  C   UNL d   1      -2.422  -4.776   1.510  0.00  0.00     0.016 A 
ATOM     13  C   UNL d   1      -2.604  -3.600   2.234  0.00  0.00     0.003 A 
ATOM     14  C   UNL d   1      -2.051  -2.405   1.774  0.00  0.00     0.030 A 
BRANCH  11  15
ATOM     15  C   UNL d   1      -1.545  -6.031  -0.491  0.00  0.00     0.417 C 
ATOM     16  F   UNL d   1      -0.883  -5.851  -1.669  0.00  0.00    -0.166 F 
ATOM     17  F   UNL d   1      -0.866  -7.007   0.173  0.00  0.00    -0.166 F 
ATOM     18  F   UNL d   1      -2.751  -6.570  -0.822  0.00  0.00    -0.166 F 
ENDBRANCH  11  15
ENDBRANCH   1   9
BRANCH   2  19
ATOM     19  N   UNL d   1       1.260   2.339   0.692  0.00  0.00    -0.306 N 
ATOM     20  C   UNL d   1       2.286   2.311   1.482  0.00  0.00     0.120 C 
ATOM     21  HN  UNL d   1       0.854   3.228   0.399  1.00  0.00     0.186 HD
BRANCH  20  22
ATOM     22  C   UNL d   1       2.843   3.558   2.030  0.00  0.00    -0.004 A 
ATOM     23  C   UNL d   1       3.924   3.501   2.898  0.00  0.00     0.100 A 
ATOM     24  N   UNL d   1       4.460   4.592   3.497  0.00  0.00    -0.374 N 
ATOM     25  C   UNL d   1       3.889   5.785   3.212  0.00  0.00     0.087 A 
ATOM     26  HN  UNL d   1       5.256   4.517   4.131  1.00  0.00     0.164 HD
ATOM     27  C   UNL d   1       2.813   5.939   2.352  0.00  0.00     0.018 A 
ATOM     28  C   UNL d   1       2.281   4.803   1.749  0.00  0.00     0.015 A 
ENDBRANCH  20  22
ENDBRANCH   2  19
TORSDOF 4
