REMARK  1 active torsions:
REMARK  status: ('A' for Active; 'I' for Inactive)
REMARK    1  A    between atoms: O_17  and  C_6 
ROOT
ATOM      1  C   UNL d   1       1.645   0.989  -0.026  0.00  0.00     0.100 A 
ATOM      2  C   UNL d   1       0.498   1.940  -0.078  0.00  0.00     0.264 A 
ATOM      3  C   UNL d   1       1.417  -0.331   0.020  0.00  0.00     0.110 A 
ATOM      4  N   UNL d   1      -0.781   1.414  -0.031  0.00  0.00    -0.312 N 
ATOM      5  C   UNL d   1       0.054  -0.881   0.011  0.00  0.00     0.027 A 
ATOM      6  C   UNL d   1       3.019   1.449  -0.025  0.00  0.00     0.090 A 
ATOM      7  C   UNL d   1      -1.029   0.013  -0.031  0.00  0.00     0.057 A 
ATOM      8  C   UNL d   1       4.032   0.582   0.019  0.00  0.00     0.120 A 
ATOM      9  O   UNL d   1       2.474  -1.273   0.069  0.00  0.00    -0.273 OA
ATOM     10  C   UNL d   1       3.780  -0.865   0.072  0.00  0.00     0.290 A 
ATOM     11  C   UNL d   1      -2.347  -0.476  -0.063  0.00  0.00    -0.030 A 
ATOM     12  C   UNL d   1      -0.197  -2.264   0.041  0.00  0.00     0.023 A 
ATOM     13  O   UNL d   1       0.731   3.149  -0.155  0.00  0.00    -0.267 OA
ATOM     14  C   UNL d   1      -2.575  -1.858  -0.051  0.00  0.00     0.016 A 
ATOM     15  O   UNL d   1       4.714  -1.657   0.116  0.00  0.00    -0.260 OA
ATOM     16  C   UNL d   1      -1.508  -2.759   0.015  0.00  0.00    -0.060 A 
ATOM     17  C   UNL d   1      -1.903   2.342  -0.100  0.00  0.00     0.133 C 
ATOM     18  C   UNL d   1      -3.519   0.463  -0.160  0.00  0.00     0.042 C 
ATOM     19  C   UNL d   1      -3.183   1.788   0.499  0.00  0.00     0.025 C 
ATOM     20  C   UNL d   1      -1.790  -4.233   0.059  0.00  0.00     0.048 C 
ENDROOT
BRANCH   6  21
ATOM     21  O   UNL d   1       3.282   2.805  -0.080  0.00  0.00    -0.359 OA
ATOM     22  H   UNL d   1       2.432   3.297  -0.124  0.00  0.00     0.217 HD
ENDBRANCH   6  21
TORSDOF 1
