REMARK  2 active torsions:
REMARK  status: ('A' for Active; 'I' for Inactive)
REMARK    1  A    between atoms: C_3  and  C_1 
REMARK       I    between atoms: N_12  and  C_3 
REMARK    2  A    between atoms: C_18  and  N_12 
ROOT
ATOM      1  C   UNL d   1      -0.516  -4.792  -0.860  0.00  0.00     0.258 C 
ATOM      2  N   UNL d   1      -0.178  -3.765   0.007  0.00  0.00    -0.323 N 
ATOM      3  O   UNL d   1       0.284  -5.505  -1.463  0.00  0.00    -0.267 OA
ATOM      4  H   UNL d   1      -0.932  -3.333   0.538  0.00  0.00     0.169 HD
ENDROOT
BRANCH   2   5
ATOM      5  C   UNL d   1       1.123  -3.233   0.184  0.00  0.00     0.035 A 
ATOM      6  C   UNL d   1       2.199  -3.564  -0.640  0.00  0.00     0.043 A 
ATOM      7  C   UNL d   1       3.445  -2.931  -0.513  0.00  0.00    -0.007 A 
ATOM      8  C   UNL d   1       4.493  -3.234  -1.387  0.00  0.00     0.015 A 
ATOM      9  C   UNL d   1       3.654  -1.952   0.473  0.00  0.00     0.042 A 
ATOM     10  C   UNL d   1       5.689  -2.538  -1.294  0.00  0.00     0.025 A 
ATOM     11  C   UNL d   1       5.807  -1.559  -0.317  0.00  0.00     0.005 A 
ATOM     12  N   UNL d   1       4.820  -1.284   0.575  0.00  0.00    -0.359 N 
ATOM     13  C   UNL d   1       7.059  -0.737  -0.246  0.00  0.00     0.068 C 
ATOM     14  HN  UNL d   1       4.959  -0.586   1.306  1.00  0.00     0.166 HD
ATOM     15  C   UNL d   1       2.594  -1.671   1.330  0.00  0.00     0.033 A 
ATOM     16  C   UNL d   1       1.335  -2.286   1.188  0.00  0.00     0.032 A 
ENDBRANCH   2   5
BRANCH   1  17
ATOM     17  C   UNL d   1      -1.945  -5.087  -1.085  0.00  0.00     0.061 A 
ATOM     18  C   UNL d   1      -3.031  -4.359  -0.537  0.00  0.00     0.082 A 
ATOM     19  N   UNL d   1      -2.979  -3.297   0.291  0.00  0.00    -0.310 N 
ATOM     20  C   UNL d   1      -4.456  -4.761  -0.874  0.00  0.00     0.068 A 
ATOM     21  S   UNL d   1      -4.552  -2.844   0.587  0.00  0.00     0.068 SA
ATOM     22  HN  UNL d   1      -2.138  -2.856   0.663  1.00  0.00     0.176 HD
ATOM     23  N   UNL d   1      -5.379  -3.982  -0.291  0.00  0.00    -0.310 N 
ATOM     24  HN  UNL d   1      -6.391  -4.073  -0.372  1.00  0.00     0.176 HD
ATOM     25  C   UNL d   1      -4.733  -5.857  -1.728  0.00  0.00     0.032 A 
ATOM     26  C   UNL d   1      -3.623  -6.533  -2.249  0.00  0.00     0.003 A 
ATOM     27  C   UNL d   1      -2.296  -6.162  -1.945  0.00  0.00     0.019 A 
ENDBRANCH   1  17
TORSDOF 2
