REMARK  4 active torsions:
REMARK  status: ('A' for Active; 'I' for Inactive)
REMARK    1  A    between atoms: N_2  and  C_1 
REMARK    2  A    between atoms: N_4  and  C_1 
REMARK    3  A    between atoms: C_3  and  N_2 
REMARK    4  A    between atoms: C_8  and  N_4 
ROOT
ATOM      1  C   UNL d   1      -0.906  -0.653  -0.760  0.00  0.00     0.176 C 
ATOM      2  S   UNL d   1      -2.279  -1.616  -0.835  0.00  0.00    -0.041 SA
ENDROOT
BRANCH   1   3
ATOM      3  N   UNL d   1       0.372  -1.101  -0.567  0.00  0.00    -0.333 N 
ATOM      4  H   UNL d   1       0.888  -0.588   0.134  0.00  0.00     0.168 HD
BRANCH   3   5
ATOM      5  C   UNL d   1       0.971  -2.274  -1.082  0.00  0.00     0.040 A 
ATOM      6  C   UNL d   1       2.045  -2.888  -0.413  0.00  0.00    -0.035 A 
ATOM      7  C   UNL d   1       2.693  -3.976  -1.027  0.00  0.00     0.009 A 
ATOM      8  C   UNL d   1       2.541  -2.477   0.946  0.00  0.00     0.050 C 
ATOM      9  C   UNL d   1       2.281  -4.455  -2.271  0.00  0.00     0.007 A 
ATOM     10  C   UNL d   1       1.212  -3.854  -2.934  0.00  0.00    -0.060 A 
ATOM     11  C   UNL d   1       0.572  -2.763  -2.336  0.00  0.00     0.037 A 
ATOM     12  C   UNL d   1       0.773  -4.357  -4.277  0.00  0.00     0.048 C 
ENDBRANCH   3   5
ENDBRANCH   1   3
BRANCH   1  13
ATOM     13  N   UNL d   1      -1.103   0.700  -0.771  0.00  0.00    -0.333 N 
ATOM     14  H   UNL d   1      -2.086   0.943  -0.693  0.00  0.00     0.168 HD
BRANCH  13  15
ATOM     15  C   UNL d   1      -0.232   1.770  -1.063  0.00  0.00     0.037 A 
ATOM     16  C   UNL d   1       1.071   1.625  -1.540  0.00  0.00     0.071 A 
ATOM     17  C   UNL d   1       1.829   2.756  -1.839  0.00  0.00     0.118 A 
ATOM     18  F   UNL d   1       3.078   2.604  -2.300  0.00  0.00    -0.206 F 
ATOM     19  C   UNL d   1       1.313   4.036  -1.686  0.00  0.00     0.042 A 
ATOM     20  C   UNL d   1       0.008   4.192  -1.231  0.00  0.00     0.005 A 
ATOM     21  C   UNL d   1      -0.759   3.064  -0.925  0.00  0.00     0.029 A 
ENDBRANCH  13  15
ENDBRANCH   1  13
TORSDOF 4
