REMARK  4 active torsions:
REMARK  status: ('A' for Active; 'I' for Inactive)
REMARK    1  A    between atoms: C_12  and  C_5 
REMARK    2  A    between atoms: S_13  and  C_9 
REMARK    3  A    between atoms: O_15  and  C_12 
REMARK    4  A    between atoms: C_18  and  O_15 
ROOT
ATOM      1  C   UNL d   1       1.590  -0.929  -0.065  0.00  0.00     0.161 A 
ATOM      2  N   UNL d   1       0.880   0.255  -0.081  0.00  0.00    -0.221 N 
ATOM      3  N   UNL d   1       0.978  -2.149  -0.042  0.00  0.00    -0.333 N 
ATOM      4  HN  UNL d   1       1.518  -3.014  -0.037  1.00  0.00     0.168 HD
ATOM      5  C   UNL d   1       2.907  -0.502  -0.044  0.00  0.00     0.167 A 
ATOM      6  N   UNL d   1       1.691   1.327  -0.106  0.00  0.00    -0.013 NA
ATOM      7  N   UNL d   1       2.939   0.878  -0.083  0.00  0.00    -0.275 N 
ATOM      8  HN  UNL d   1       3.780   1.454  -0.092  1.00  0.00     0.184 HD
ATOM      9  C   UNL d   1      -0.321  -2.162  -0.025  0.00  0.00     0.081 A 
ATOM     10  C   UNL d   1      -1.179  -0.937  -0.028  0.00  0.00     0.026 A 
ATOM     11  C   UNL d   1      -0.517   0.301  -0.051  0.00  0.00     0.069 A 
ATOM     12  C   UNL d   1      -2.577  -0.949   0.000  0.00  0.00     0.016 A 
ATOM     13  C   UNL d   1      -1.214   1.511  -0.037  0.00  0.00     0.032 A 
ATOM     14  C   UNL d   1      -3.284   0.259   0.009  0.00  0.00     0.001 A 
ATOM     15  C   UNL d   1      -2.607   1.481  -0.006  0.00  0.00     0.002 A 
ENDROOT
BRANCH   5  16
ATOM     16  C   UNL d   1       4.096  -1.323   0.078  0.00  0.00     0.315 C 
ATOM     17  O   UNL d   1       4.086  -2.545   0.184  0.00  0.00    -0.257 OA
BRANCH  16  18
ATOM     18  O   UNL d   1       5.231  -0.564   0.149  0.00  0.00    -0.317 OA
BRANCH  18  19
ATOM     19  C   UNL d   1       6.392  -1.232   0.656  0.00  0.00     0.175 C 
ATOM     20  C   UNL d   1       6.384  -1.115   2.171  0.00  0.00     0.034 C 
ENDBRANCH  18  19
ENDBRANCH  16  18
ENDBRANCH   5  16
BRANCH   9  21
ATOM     21  S   UNL d   1      -1.069  -3.742   0.005  0.00  0.00    -0.124 SA
ATOM     22  H   UNL d   1       0.093  -4.412   0.008  0.00  0.00     0.108 HD
ENDBRANCH   9  21
TORSDOF 4
