REMARK  6 active torsions:
REMARK  status: ('A' for Active; 'I' for Inactive)
REMARK       I    between atoms: N_3  and  C_1 
REMARK    1  A    between atoms: C_8  and  C_1 
REMARK    2  A    between atoms: C_2  and  C_6 
REMARK    3  A    between atoms: C_7  and  N_4 
REMARK    4  A    between atoms: C_8  and  N_5 
REMARK    5  A    between atoms: C_11  and  C_20 
REMARK    6  A    between atoms: O_29  and  C_23 
ROOT
ATOM      1  C   UNL d   1       0.086  -0.514   0.915  0.00  0.00     0.310 C 
ATOM      2  C   UNL d   1      -1.424  -0.288   0.768  0.00  0.00     0.053 C 
ENDROOT
BRANCH   1   3
ATOM      3  C   UNL d   1       0.559   0.055   2.286  0.00  0.00     0.253 C 
ATOM      4  N   UNL d   1       1.544  -0.661   2.999  0.00  0.00    -0.350 N 
ATOM      5  C   UNL d   1       1.808  -0.230   4.373  0.00  0.00     0.126 C 
ATOM      6  C   UNL d   1       1.877  -2.051   2.694  0.00  0.00     0.126 C 
ATOM      7  C   UNL d   1       3.222  -0.568   4.833  0.00  0.00     0.029 C 
ATOM      8  C   UNL d   1       3.568  -2.052   4.656  0.00  0.00     0.024 C 
ATOM      9  C   UNL d   1       3.226  -2.511   3.232  0.00  0.00     0.029 C 
ATOM     10  O   UNL d   1       0.092   1.119   2.726  0.00  0.00    -0.271 OA
BRANCH   8  11
ATOM     11  C   UNL d   1       3.101  -2.931   5.810  0.00  0.00    -0.021 A 
ATOM     12  C   UNL d   1       3.754  -2.940   7.064  0.00  0.00     0.074 A 
ATOM     13  C   UNL d   1       3.291  -3.751   8.111  0.00  0.00     0.037 A 
ATOM     14  C   UNL d   1       2.186  -4.580   7.937  0.00  0.00     0.003 A 
ATOM     15  C   UNL d   1       1.525  -4.584   6.717  0.00  0.00     0.001 A 
ATOM     16  C   UNL d   1       1.979  -3.773   5.673  0.00  0.00     0.010 A 
BRANCH  12  17
ATOM     17  O   UNL d   1       4.769  -2.088   7.421  0.00  0.00    -0.355 OA
ATOM     18  C   UNL d   1       5.981  -2.239   6.689  0.00  0.00     0.210 C 
ENDBRANCH  12  17
ENDBRANCH   8  11
ENDBRANCH   1   3
BRANCH   1  19
ATOM     19  N   UNL d   1       0.814   0.067  -0.263  0.00  0.00     0.104 N 
ATOM     20  C   UNL d   1       0.586  -0.790  -1.462  0.00  0.00     0.293 C 
ATOM     21  C   UNL d   1       1.643  -0.795  -2.597  0.00  0.00     0.154 C 
ATOM     22  N   UNL d   1       2.979  -0.747  -2.004  0.00  0.00    -0.364 N 
ATOM     23  C   UNL d   1       3.156   0.480  -1.228  0.00  0.00     0.154 C 
ATOM     24  C   UNL d   1       2.249   0.328   0.012  0.00  0.00     0.293 C 
BRANCH  22  25
ATOM     25  C   UNL d   1       4.040  -1.181  -2.780  0.00  0.00     0.103 A 
ATOM     26  N   UNL d   1       5.028  -0.333  -3.124  0.00  0.00    -0.352 N 
ATOM     27  C   UNL d   1       6.095  -0.829  -3.800  0.00  0.00     0.106 A 
ATOM     28  HN  UNL d   1       4.975   0.657  -2.882  1.00  0.00     0.166 HD
ATOM     29  C   UNL d   1       6.251  -2.161  -4.142  0.00  0.00     0.063 A 
ATOM     30  C   UNL d   1       5.230  -3.034  -3.774  0.00  0.00     0.021 A 
ATOM     31  C   UNL d   1       4.118  -2.539  -3.099  0.00  0.00     0.049 A 
BRANCH  29  32
ATOM     32  C   UNL d   1       7.471  -2.643  -4.858  0.00  0.00     0.418 C 
ATOM     33  F   UNL d   1       8.349  -1.652  -5.174  0.00  0.00    -0.166 F 
ATOM     34  F   UNL d   1       8.179  -3.549  -4.128  0.00  0.00    -0.166 F 
ATOM     35  F   UNL d   1       7.174  -3.266  -6.033  0.00  0.00    -0.166 F 
ENDBRANCH  29  32
ENDBRANCH  22  25
ENDBRANCH   1  19
TORSDOF 6
