REMARK  7 active torsions:
REMARK  status: ('A' for Active; 'I' for Inactive)
REMARK    1  A    between atoms: O_3  and  C_1 
REMARK    2  A    between atoms: C_10  and  C_2 
REMARK    3  A    between atoms: C_4  and  O_3 
REMARK    4  A    between atoms: C_6  and  C_4 
REMARK    5  A    between atoms: O_13  and  C_9 
REMARK    6  A    between atoms: C_18  and  O_13 
REMARK    7  A    between atoms: C_20  and  C_18 
ROOT
ATOM      1  C   UNL d   1       0.661   1.205   0.589  0.00  0.00     0.102 C 
ATOM      2  C   UNL d   1       1.251  -0.036   0.878  0.00  0.00     0.044 C 
ATOM      3  C   UNL d   1      -0.739   1.381   0.567  0.00  0.00     0.006 C 
ATOM      4  C   UNL d   1       0.429  -1.160   0.907  0.00  0.00     0.021 C 
ATOM      5  C   UNL d   1      -1.530   0.239   0.443  0.00  0.00     0.077 C 
ATOM      6  C   UNL d   1      -0.936  -1.021   0.634  0.00  0.00     0.038 C 
ATOM      7  C   UNL d   1      -1.261   2.776   0.747  0.00  0.00     0.054 C 
ENDROOT
BRANCH   1   8
ATOM      8  O   UNL d   1       1.424   2.303   0.149  0.00  0.00    -0.273 OA
BRANCH   8   9
ATOM      9  C   UNL d   1       2.021   2.038  -1.091  0.00  0.00     0.305 C 
ATOM     10  O   UNL d   1       2.150   0.920  -1.589  0.00  0.00    -0.258 OA
BRANCH   9  11
ATOM     11  C   UNL d   1       2.470   3.245  -1.758  0.00  0.00     0.080 A 
ATOM     12  S   UNL d   1       1.808   4.788  -1.434  0.00  0.00    -0.096 SA
ATOM     13  C   UNL d   1       2.722   5.516  -2.686  0.00  0.00     0.050 A 
ATOM     14  C   UNL d   1       3.541   4.611  -3.323  0.00  0.00     0.009 A 
ATOM     15  C   UNL d   1       3.390   3.301  -2.792  0.00  0.00     0.025 A 
ENDBRANCH   9  11
ENDBRANCH   8   9
ENDBRANCH   1   8
BRANCH   2  16
ATOM     16  C   UNL d   1       2.715  -0.118   1.163  0.00  0.00     0.158 C 
ATOM     17  O   UNL d   1       3.325   0.878   1.544  0.00  0.00    -0.293 OA
ATOM     18  C   UNL d   1       3.410  -1.444   1.022  0.00  0.00     0.097 C 
ENDBRANCH   2  16
BRANCH   5  19
ATOM     19  O   UNL d   1      -2.857   0.152   0.137  0.00  0.00    -0.346 OA
BRANCH  19  20
ATOM     20  C   UNL d   1      -3.536   1.164  -0.621  0.00  0.00     0.214 C 
BRANCH  20  21
ATOM     21  C   UNL d   1      -2.874   1.713  -1.870  0.00  0.00    -0.034 A 
ATOM     22  C   UNL d   1      -2.145   0.899  -2.745  0.00  0.00     0.009 A 
ATOM     23  C   UNL d   1      -1.517   1.450  -3.865  0.00  0.00     0.001 A 
ATOM     24  C   UNL d   1      -1.625   2.814  -4.133  0.00  0.00     0.000 A 
ATOM     25  C   UNL d   1      -2.380   3.628  -3.295  0.00  0.00     0.001 A 
ATOM     26  C   UNL d   1      -3.015   3.078  -2.181  0.00  0.00     0.009 A 
ENDBRANCH  20  21
ENDBRANCH  19  20
ENDBRANCH   5  19
TORSDOF 7
