REMARK  6 active torsions:
REMARK  status: ('A' for Active; 'I' for Inactive)
REMARK       I    between atoms: C_2  and  N_1 
REMARK       I    between atoms: N_6  and  C_2 
REMARK    1  A    between atoms: C_5  and  C_3 
REMARK    2  A    between atoms: C_7  and  C_5 
REMARK    3  A    between atoms: C_9  and  N_6 
REMARK       I    between atoms: N_12  and  C_7 
REMARK    4  A    between atoms: C_8  and  C_11 
REMARK    5  A    between atoms: O_25  and  C_8 
REMARK    6  A    between atoms: C_16  and  N_12 
ROOT
ATOM      1  N   UNL d   1      -1.476  -1.612   0.124  0.00  0.00    -0.318 N 
ATOM      2  C   UNL d   1      -2.377  -2.241   1.006  0.00  0.00     0.323 C 
ATOM      3  C   UNL d   1      -0.025  -1.606   0.457  0.00  0.00     0.189 C 
ATOM      4  C   UNL d   1       0.294  -0.434   1.417  0.00  0.00     0.241 C 
ATOM      5  N   UNL d   1      -3.690  -2.191   0.583  0.00  0.00    -0.309 N 
ATOM      6  N   UNL d   1      -0.413   0.737   1.210  0.00  0.00    -0.358 N 
ATOM      7  O   UNL d   1      -2.000  -2.757   2.050  0.00  0.00    -0.247 OA
ATOM      8  O   UNL d   1       1.251  -0.421   2.192  0.00  0.00    -0.271 OA
ATOM      9  C   UNL d   1      -1.861  -0.339  -0.499  0.00  0.00     0.148 C 
ATOM     10  C   UNL d   1      -1.703   0.773   0.543  0.00  0.00     0.142 C 
ATOM     11  H   UNL d   1      -3.839  -1.872  -0.358  0.00  0.00     0.170 HD
ATOM     12  H   UNL d   1      -0.176   1.468   1.868  0.00  0.00     0.162 HD
ENDROOT
BRANCH   3  13
ATOM     13  C   UNL d   1       0.653  -2.910   0.895  0.00  0.00     0.138 C 
BRANCH  13  14
ATOM     14  C   UNL d   1       0.713  -3.906  -0.236  0.00  0.00     0.224 C 
ATOM     15  N   UNL d   1       0.573  -5.251  -0.091  0.00  0.00    -0.327 N 
ATOM     16  H   UNL d   1       0.835  -5.703  -0.961  0.00  0.00     0.169 HD
ATOM     17  O   UNL d   1       1.030  -3.518  -1.370  0.00  0.00    -0.273 OA
BRANCH  15  18
ATOM     18  C   UNL d   1       0.163  -6.122   0.933  0.00  0.00     0.035 A 
ATOM     19  C   UNL d   1      -0.449  -5.747   2.123  0.00  0.00     0.047 A 
ATOM     20  C   UNL d   1      -0.783  -6.699   3.100  0.00  0.00     0.041 A 
ATOM     21  C   UNL d   1      -0.573  -8.056   2.853  0.00  0.00     0.018 A 
ATOM     22  C   UNL d   1      -0.006  -8.453   1.646  0.00  0.00     0.003 A 
ATOM     23  C   UNL d   1       0.364  -7.492   0.699  0.00  0.00     0.029 A 
BRANCH  20  24
ATOM     24  C   UNL d   1      -1.349  -6.288   4.412  0.00  0.00     0.293 C 
ATOM     25  O   UNL d   1      -1.967  -7.037   5.150  0.00  0.00    -0.259 OA
BRANCH  24  26
ATOM     26  O   UNL d   1      -0.989  -5.009   4.678  0.00  0.00    -0.323 OA
ATOM     27  C   UNL d   1      -1.341  -4.521   5.972  0.00  0.00     0.213 C 
ENDBRANCH  24  26
ENDBRANCH  20  24
ENDBRANCH  15  18
ENDBRANCH  13  14
ENDBRANCH   3  13
BRANCH   5  28
ATOM     28  C   UNL d   1      -4.841  -2.734   1.202  0.00  0.00     0.037 A 
ATOM     29  C   UNL d   1      -4.816  -3.541   2.340  0.00  0.00     0.036 A 
ATOM     30  C   UNL d   1      -5.993  -4.146   2.812  0.00  0.00    -0.059 A 
ATOM     31  C   UNL d   1      -5.953  -5.118   3.955  0.00  0.00     0.048 C 
ATOM     32  C   UNL d   1      -7.213  -3.874   2.179  0.00  0.00     0.013 A 
ATOM     33  C   UNL d   1      -7.266  -3.028   1.068  0.00  0.00    -0.059 A 
ATOM     34  C   UNL d   1      -6.074  -2.476   0.579  0.00  0.00     0.036 A 
ATOM     35  C   UNL d   1      -8.582  -2.759   0.399  0.00  0.00     0.048 C 
ENDBRANCH   5  28
TORSDOF 6
