REMARK  4 active torsions:
REMARK  status: ('A' for Active; 'I' for Inactive)
REMARK    1  A    between atoms: C_21  and  N_2 
REMARK    2  A    between atoms: C_9  and  N_3 
REMARK    3  A    between atoms: C_11  and  C_5 
REMARK    4  A    between atoms: N_6  and  C_10 
ROOT
ATOM      1  C   UNL d   1       0.847  -0.777   0.065  0.00  0.00     0.152 A 
ATOM      2  N   UNL d   1       0.854   0.625   0.040  0.00  0.00    -0.326 N 
ATOM      3  N   UNL d   1       1.884  -1.544  -0.087  0.00  0.00    -0.323 N 
ATOM      4  HN  UNL d   1       2.804  -1.112  -0.171  1.00  0.00     0.169 HD
ATOM      5  C   UNL d   1      -0.421   1.198   0.124  0.00  0.00     0.053 A 
ATOM      6  S   UNL d   1      -0.851  -1.304   0.357  0.00  0.00    -0.063 SA
ATOM      7  C   UNL d   1      -1.432   0.327   0.269  0.00  0.00     0.083 A 
ENDROOT
BRANCH   2   8
ATOM      8  C   UNL d   1       2.103   1.374  -0.052  0.00  0.00     0.127 C 
ATOM      9  C   UNL d   1       2.612   1.758   1.330  0.00  0.00     0.027 C 
ENDBRANCH   2   8
BRANCH   3  10
ATOM     10  C   UNL d   1       1.787  -2.939  -0.140  0.00  0.00     0.107 A 
ATOM     11  N   UNL d   1       0.761  -3.479  -0.824  0.00  0.00    -0.352 N 
ATOM     12  C   UNL d   1       0.673  -4.824  -0.869  0.00  0.00     0.090 A 
ATOM     13  HN  UNL d   1       0.073  -2.890  -1.292  1.00  0.00     0.166 HD
ATOM     14  C   UNL d   1       1.617  -5.675  -0.327  0.00  0.00     0.024 A 
ATOM     15  C   UNL d   1       2.730  -5.114   0.299  0.00  0.00    -0.057 A 
ATOM     16  C   UNL d   1       2.804  -3.719   0.404  0.00  0.00     0.055 A 
ATOM     17  C   UNL d   1       3.812  -6.003   0.829  0.00  0.00     0.048 C 
ENDBRANCH   3  10
BRANCH   5  18
ATOM     18  C   UNL d   1      -0.673   2.636   0.050  0.00  0.00    -0.009 A 
ATOM     19  C   UNL d   1      -0.830   3.376   1.229  0.00  0.00     0.016 A 
ATOM     20  C   UNL d   1      -1.127   4.739   1.176  0.00  0.00     0.037 A 
ATOM     21  C   UNL d   1      -1.277   5.362  -0.069  0.00  0.00     0.102 A 
ATOM     22  C   UNL d   1      -1.128   4.634  -1.255  0.00  0.00     0.037 A 
ATOM     23  C   UNL d   1      -0.825   3.269  -1.191  0.00  0.00     0.016 A 
BRANCH  21  24
ATOM     24  N   UNL d   1      -1.603   6.793  -0.126  0.00  0.00    -0.116 N 
ATOM     25  O   UNL d   1      -1.725   7.400   0.948  0.00  0.00    -0.532 OA
ATOM     26  O   UNL d   1      -1.739   7.311  -1.243  0.00  0.00    -0.532 OA
ENDBRANCH  21  24
ENDBRANCH   5  18
TORSDOF 4
