REMARK  4 active torsions:
REMARK  status: ('A' for Active; 'I' for Inactive)
REMARK    1  A    between atoms: N_8  and  N_1 
REMARK    2  A    between atoms: C_7  and  N_8 
REMARK    3  A    between atoms: N_11  and  C_7 
REMARK    4  A    between atoms: C_16  and  N_11 
ROOT
ATOM      1  N   UNL d   1      -0.274   2.705  -0.908  0.00  0.00    -0.222 N 
ATOM      2  C   UNL d   1       0.359   4.751  -2.105  0.00  0.00     0.120 C 
ATOM      3  C   UNL d   1      -0.624   3.641  -1.900  0.00  0.00     0.288 C 
ATOM      4  C   UNL d   1       1.580   4.664  -1.548  0.00  0.00    -0.034 C 
ATOM      5  C   UNL d   1       1.035   2.546  -0.467  0.00  0.00     0.034 C 
ATOM      6  C   UNL d   1       1.946   3.480  -0.784  0.00  0.00     0.035 C 
ATOM      7  C   UNL d   1      -0.072   5.882  -2.853  0.00  0.00     0.105 C 
ATOM      8  N   UNL d   1      -0.355   6.837  -3.446  0.00  0.00    -0.191 NA
ATOM      9  O   UNL d   1      -1.652   3.591  -2.573  0.00  0.00    -0.265 OA
ATOM     10  C   UNL d   1       2.653   5.720  -1.678  0.00  0.00     0.050 C 
ATOM     11  C   UNL d   1       1.450   1.297   0.255  0.00  0.00     0.070 C 
ENDROOT
BRANCH   1  12
ATOM     12  N   UNL d   1      -1.271   1.798  -0.481  0.00  0.00    -0.267 N 
ATOM     13  H   UNL d   1      -1.056   0.818  -0.578  0.00  0.00     0.190 HD
BRANCH  12  14
ATOM     14  C   UNL d   1      -2.473   2.202   0.061  0.00  0.00     0.187 C 
ATOM     15  S   UNL d   1      -2.888   3.745   0.567  0.00  0.00    -0.040 SA
BRANCH  14  16
ATOM     16  N   UNL d   1      -3.431   1.239   0.204  0.00  0.00    -0.361 N 
ATOM     17  H   UNL d   1      -4.334   1.630   0.456  0.00  0.00     0.162 HD
BRANCH  16  18
ATOM     18  C   UNL d   1      -3.406  -0.181  -0.138  0.00  0.00     0.083 C 
ATOM     19  C   UNL d   1      -4.410  -0.934   0.745  0.00  0.00     0.025 C 
ATOM     20  C   UNL d   1      -4.426  -2.424   0.423  0.00  0.00     0.002 C 
ATOM     21  C   UNL d   1      -4.725  -2.667  -1.053  0.00  0.00     0.000 C 
ATOM     22  C   UNL d   1      -3.757  -1.908  -1.957  0.00  0.00     0.002 C 
ATOM     23  C   UNL d   1      -3.705  -0.415  -1.624  0.00  0.00     0.025 C 
ENDBRANCH  16  18
ENDBRANCH  14  16
ENDBRANCH  12  14
ENDBRANCH   1  12
TORSDOF 4
