REMARK  5 active torsions:
REMARK  status: ('A' for Active; 'I' for Inactive)
REMARK    1  A    between atoms: N_2  and  C_1 
REMARK    2  A    between atoms: S_3  and  C_1 
REMARK    3  A    between atoms: C_7  and  S_3 
REMARK    4  A    between atoms: C_5  and  C_7 
REMARK    5  A    between atoms: C_6  and  C_5 
ROOT
ATOM      1  C   UNL d   1      -1.544   1.389  -0.110  0.00  0.00     0.165 C 
ENDROOT
BRANCH   1   2
ATOM      2  C   UNL d   1      -2.337   2.677   0.077  0.00  0.00     0.169 C 
ATOM      3  O   UNL d   1      -1.833   3.758   0.369  0.00  0.00    -0.291 OA
BRANCH   2   4
ATOM      4  C   UNL d   1      -3.830   2.616  -0.087  0.00  0.00     0.011 A 
ATOM      5  C   UNL d   1      -4.503   1.439  -0.440  0.00  0.00     0.017 A 
ATOM      6  C   UNL d   1      -5.901   1.422  -0.519  0.00  0.00     0.025 A 
ATOM      7  C   UNL d   1      -6.630   2.580  -0.251  0.00  0.00     0.034 A 
ATOM      8  C   UNL d   1      -5.974   3.763   0.071  0.00  0.00     0.025 A 
ATOM      9 CL   UNL d   1      -8.349   2.538  -0.305  0.00  0.00    -0.084 Cl
ATOM     10  C   UNL d   1      -4.577   3.782   0.149  0.00  0.00     0.017 A 
ENDBRANCH   2   4
ENDBRANCH   1   2
BRANCH   1  11
ATOM     11  S   UNL d   1       0.247   1.644   0.110  0.00  0.00    -0.093 SA
BRANCH  11  12
ATOM     12  C   UNL d   1       0.918   0.018  -0.119  0.00  0.00     0.137 C 
ATOM     13  S   UNL d   1       0.375  -0.943  -1.396  0.00  0.00    -0.053 SA
BRANCH  12  14
ATOM     14  N   UNL d   1       1.973  -0.335   0.752  0.00  0.00    -0.365 N 
ATOM     15  C   UNL d   1       2.775  -1.566   0.553  0.00  0.00     0.134 C 
ATOM     16  C   UNL d   1       4.287  -1.330   0.618  0.00  0.00     0.093 C 
ATOM     17  S   UNL d   1       4.812  -0.669   2.227  0.00  0.00    -0.166 SA
ATOM     18  C   UNL d   1       3.661   0.740   2.292  0.00  0.00     0.093 C 
ATOM     19  C   UNL d   1       2.209   0.311   2.065  0.00  0.00     0.134 C 
ENDBRANCH  12  14
ENDBRANCH  11  12
ENDBRANCH   1  11
TORSDOF 5
