REMARK  4 active torsions:
REMARK  status: ('A' for Active; 'I' for Inactive)
REMARK    1  A    between atoms: C_10  and  C_5 
REMARK    2  A    between atoms: C_8  and  C_13 
REMARK    3  A    between atoms: O_14  and  C_8 
REMARK    4  A    between atoms: C_13  and  C_10 
ROOT
ATOM      1  N   UNL d   1      -0.688  -0.332   1.267  0.00  0.00    -0.273 N 
ATOM      2  C   UNL d   1       0.278  -1.284   1.123  0.00  0.00     0.273 C 
ATOM      3  N   UNL d   1       0.915  -0.216  -1.007  0.00  0.00    -0.295 N 
ATOM      4  HN  UNL d   1       1.516  -0.097  -1.822  1.00  0.00     0.187 HD
ATOM      5  C   UNL d   1       1.194  -1.075  -0.070  0.00  0.00     0.094 C 
ATOM      6  C   UNL d   1      -1.050   0.499   0.255  0.00  0.00     0.341 C 
ATOM      7  N   UNL d   1      -0.225   0.519  -0.842  0.00  0.00    -0.251 N 
ATOM      8  O   UNL d   1       0.374  -2.275   1.829  0.00  0.00    -0.266 OA
ATOM      9  O   UNL d   1      -2.079   1.166   0.306  0.00  0.00    -0.245 OA
ATOM     10  H   UNL d   1      -1.342  -0.440   2.025  0.00  0.00     0.173 HD
ATOM     11  H   UNL d   1      -0.481   1.147  -1.598  0.00  0.00     0.191 HD
ENDROOT
BRANCH   5  12
ATOM     12  C   UNL d   1       2.434  -1.937  -0.168  0.00  0.00     0.075 C 
BRANCH  12  13
ATOM     13  C   UNL d   1       3.704  -1.103  -0.300  0.00  0.00     0.116 C 
BRANCH  13  14
ATOM     14  C   UNL d   1       3.958  -0.258   0.924  0.00  0.00     0.139 C 
ATOM     15  O   UNL d   1       3.197  -0.161   1.874  0.00  0.00    -0.650 OA
BRANCH  14  16
ATOM     16  O   UNL d   1       5.130   0.411   0.862  0.00  0.00    -0.776 OA
ATOM     17  H   UNL d   1       5.633   0.261   0.038  0.00  0.00     0.167 HD
ENDBRANCH  14  16
ENDBRANCH  13  14
ENDBRANCH  12  13
ENDBRANCH   5  12
TORSDOF 4
