REMARK  5 active torsions:
REMARK  status: ('A' for Active; 'I' for Inactive)
REMARK    1  A    between atoms: C_12  and  C_1 
REMARK    2  A    between atoms: C_5  and  C_2 
REMARK    3  A    between atoms: N_11  and  C_2 
REMARK    4  A    between atoms: N_3  and  O_10 
REMARK    5  A    between atoms: O_10  and  C_12 
ROOT
ATOM      1  C   UNL d   1      -2.792   4.391  -0.134  0.00  0.00     0.108 C 
ATOM      2  N   UNL d   1      -1.580   3.956   0.061  0.00  0.00    -0.255 N 
ATOM      3  HN  UNL d   1      -1.330   2.986   0.253  1.00  0.00     0.195 HD
ENDROOT
BRANCH   2   4
ATOM      4  O   UNL d   1      -0.664   5.025  -0.035  0.00  0.00    -0.274 OA
BRANCH   4   5
ATOM      5  C   UNL d   1       0.654   4.552   0.248  0.00  0.00     0.243 C 
BRANCH   5   6
ATOM      6  C   UNL d   1       1.601   5.729   0.246  0.00  0.00     0.011 A 
ATOM      7  C   UNL d   1       1.455   6.768   1.189  0.00  0.00     0.044 A 
ATOM      8 CL   UNL d   1       0.221   6.744   2.405  0.00  0.00    -0.084 Cl
ATOM      9  C   UNL d   1       2.315   7.874   1.194  0.00  0.00     0.024 A 
ATOM     10  C   UNL d   1       3.346   7.966   0.266  0.00  0.00     0.003 A 
ATOM     11  C   UNL d   1       3.517   6.948  -0.667  0.00  0.00     0.024 A 
ATOM     12  C   UNL d   1       2.655   5.841  -0.679  0.00  0.00     0.044 A 
ATOM     13 CL   UNL d   1       2.972   4.638  -1.881  0.00  0.00    -0.084 Cl
ENDBRANCH   5   6
ENDBRANCH   4   5
ENDBRANCH   2   4
BRANCH   1  14
ATOM     14  C   UNL d   1      -3.928   3.421  -0.099  0.00  0.00     0.004 A 
ATOM     15  C   UNL d   1      -3.853   2.265   0.686  0.00  0.00     0.016 A 
ATOM     16  C   UNL d   1      -4.934   1.378   0.726  0.00  0.00     0.024 A 
ATOM     17  C   UNL d   1      -6.079   1.644  -0.025  0.00  0.00     0.034 A 
ATOM     18  C   UNL d   1      -6.155   2.787  -0.819  0.00  0.00     0.024 A 
ATOM     19 CL   UNL d   1      -7.408   0.551   0.025  0.00  0.00    -0.084 Cl
ATOM     20  C   UNL d   1      -5.081   3.678  -0.854  0.00  0.00     0.016 A 
ENDBRANCH   1  14
BRANCH   1  21
ATOM     21  N   UNL d   1      -3.075   5.721  -0.356  0.00  0.00    -0.286 NA
ATOM     22  H   UNL d   1      -2.258   6.286  -0.135  0.00  0.00     0.125 HD
ATOM     23  H   UNL d   1      -3.905   6.064   0.109  0.00  0.00     0.125 HD
ENDBRANCH   1  21
TORSDOF 5
