REMARK  4 active torsions:
REMARK  status: ('A' for Active; 'I' for Inactive)
REMARK    1  A    between atoms: C_6  and  C_1 
REMARK    2  A    between atoms: N_9  and  C_2 
REMARK       I    between atoms: C_8  and  N_9 
REMARK       I    between atoms: N_10  and  C_8 
REMARK    3  A    between atoms: C_11  and  N_10 
REMARK    4  A    between atoms: O_17  and  C_14 
ROOT
ATOM      1  C   UNL d   1      -1.231  -0.839   0.403  0.00  0.00     0.096 C 
ATOM      2  C   UNL d   1      -0.231  -1.176  -0.567  0.00  0.00     0.097 C 
ATOM      3  N   UNL d   1      -1.587   0.451   0.273  0.00  0.00    -0.258 N 
ATOM      4  HN  UNL d   1      -2.217   0.975   0.880  1.00  0.00     0.195 HD
ATOM      5  C   UNL d   1      -0.160  -0.062  -1.373  0.00  0.00     0.101 C 
ATOM      6  O   UNL d   1      -0.931   0.922  -0.839  0.00  0.00    -0.240 OA
ATOM      7  C   UNL d   1       0.395   0.249  -2.702  0.00  0.00     0.081 C 
ENDROOT
BRANCH   2   8
ATOM      8  N   UNL d   1       0.394  -2.408  -0.758  0.00  0.00    -0.304 N 
ATOM      9  C   UNL d   1       1.765  -2.571  -0.745  0.00  0.00     0.325 C 
ATOM     10  N   UNL d   1       2.059  -3.907  -0.986  0.00  0.00    -0.306 N 
ATOM     11  O   UNL d   1       2.587  -1.685  -0.551  0.00  0.00    -0.247 OA
ATOM     12  H   UNL d   1       1.478  -4.309  -1.710  0.00  0.00     0.171 HD
ATOM     13  H   UNL d   1      -0.058  -3.173  -0.273  0.00  0.00     0.171 HD
BRANCH  10  14
ATOM     14  C   UNL d   1       3.348  -4.475  -0.889  0.00  0.00     0.069 A 
ATOM     15  C   UNL d   1       3.853  -5.250  -1.947  0.00  0.00     0.095 A 
ATOM     16  C   UNL d   1       4.980  -6.057  -1.747  0.00  0.00     0.039 A 
ATOM     17  C   UNL d   1       5.615  -6.084  -0.505  0.00  0.00     0.003 A 
ATOM     18  C   UNL d   1       5.142  -5.281   0.532  0.00  0.00     0.002 A 
ATOM     19  C   UNL d   1       4.023  -4.461   0.337  0.00  0.00     0.032 A 
BRANCH  15  20
ATOM     20  O   UNL d   1       3.284  -5.328  -3.193  0.00  0.00    -0.354 OA
ATOM     21  C   UNL d   1       2.980  -4.064  -3.788  0.00  0.00     0.210 C 
ENDBRANCH  15  20
ENDBRANCH  10  14
ENDBRANCH   2   8
BRANCH   1  22
ATOM     22  C   UNL d   1      -1.830  -1.651   1.464  0.00  0.00     0.017 A 
ATOM     23  C   UNL d   1      -2.346  -2.940   1.258  0.00  0.00     0.046 A 
ATOM     24 CL   UNL d   1      -2.381  -3.722  -0.289  0.00  0.00    -0.083 Cl
ATOM     25  C   UNL d   1      -2.917  -3.656   2.318  0.00  0.00     0.025 A 
ATOM     26  C   UNL d   1      -3.010  -3.085   3.586  0.00  0.00     0.002 A 
ATOM     27  C   UNL d   1      -2.529  -1.799   3.800  0.00  0.00     0.001 A 
ATOM     28  C   UNL d   1      -1.938  -1.090   2.750  0.00  0.00     0.015 A 
ENDBRANCH   1  22
TORSDOF 4
