REMARK  3 active torsions:
REMARK  status: ('A' for Active; 'I' for Inactive)
REMARK    1  A    between atoms: C_17  and  C_2 
REMARK    2  A    between atoms: O_14  and  C_10 
REMARK    3  A    between atoms: C_13  and  O_14 
ROOT
ATOM      1  N   UNL d   1       0.148   0.665   0.006  0.00  0.00    -0.218 N 
ATOM      2  C   UNL d   1       1.446   1.145   0.011  0.00  0.00     0.154 A 
ATOM      3  N   UNL d   1       2.268   0.111  -0.096  0.00  0.00    -0.282 N 
ATOM      4  HN  UNL d   1       3.286   0.165  -0.142  1.00  0.00     0.188 HD
ATOM      5  C   UNL d   1       0.261  -0.711  -0.076  0.00  0.00     0.143 A 
ATOM      6  N   UNL d   1      -1.017   1.388   0.006  0.00  0.00    -0.270 N 
ATOM      7  HN  UNL d   1      -1.053   2.407   0.049  1.00  0.00     0.190 HD
ATOM      8  N   UNL d   1       1.527  -1.049  -0.136  0.00  0.00    -0.282 N 
ATOM      9  HN  UNL d   1       1.895  -1.998  -0.201  1.00  0.00     0.188 HD
ATOM     10  C   UNL d   1      -2.063   0.635  -0.055  0.00  0.00     0.163 A 
ATOM     11  C   UNL d   1      -0.930  -1.472  -0.097  0.00  0.00     0.056 A 
ATOM     12  C   UNL d   1      -2.111  -0.843  -0.069  0.00  0.00     0.061 A 
ENDROOT
BRANCH  10  13
ATOM     13  O   UNL d   1      -3.357   1.120  -0.153  0.00  0.00    -0.291 OA
BRANCH  13  14
ATOM     14  C   UNL d   1      -3.563   2.450  -0.587  0.00  0.00     0.099 A 
ATOM     15  C   UNL d   1      -4.565   3.214   0.022  0.00  0.00     0.069 A 
ATOM     16  C   UNL d   1      -4.863   4.487  -0.469  0.00  0.00     0.050 A 
ATOM     17 CL   UNL d   1      -5.461   2.613   1.367  0.00  0.00    -0.081 Cl
ATOM     18  C   UNL d   1      -4.157   4.985  -1.565  0.00  0.00     0.035 A 
ATOM     19  C   UNL d   1      -3.157   4.228  -2.172  0.00  0.00     0.026 A 
ATOM     20 CL   UNL d   1      -4.538   6.542  -2.191  0.00  0.00    -0.084 Cl
ATOM     21  C   UNL d   1      -2.869   2.950  -1.694  0.00  0.00     0.041 A 
ENDBRANCH  13  14
ENDBRANCH  10  13
BRANCH   2  22
ATOM     22  C   UNL d   1       1.847   2.556   0.070  0.00  0.00     0.011 A 
ATOM     23  C   UNL d   1       1.062   3.539   0.693  0.00  0.00     0.015 A 
ATOM     24  C   UNL d   1       1.477   4.873   0.732  0.00  0.00     0.001 A 
ATOM     25  C   UNL d   1       2.689   5.242   0.156  0.00  0.00     0.000 A 
ATOM     26  C   UNL d   1       3.487   4.280  -0.458  0.00  0.00     0.001 A 
ATOM     27  C   UNL d   1       3.070   2.946  -0.496  0.00  0.00     0.015 A 
ENDBRANCH   2  22
TORSDOF 3
