REMARK  7 active torsions:
REMARK  status: ('A' for Active; 'I' for Inactive)
REMARK    1  A    between atoms: N_2  and  C_1 
REMARK    2  A    between atoms: N_3  and  C_1 
REMARK    3  A    between atoms: C_5  and  N_2 
REMARK    4  A    between atoms: C_8  and  N_2 
REMARK    5  A    between atoms: C_9  and  N_3 
REMARK    6  A    between atoms: C_12  and  C_5 
REMARK    7  A    between atoms: N_7  and  C_6 
ROOT
ATOM      1  N   UNL d   1       0.509   1.289   0.420  0.00  0.00    -0.350 N 
ENDROOT
BRANCH   1   2
ATOM      2  C   UNL d   1       0.974   0.008   0.151  0.00  0.00     0.175 C 
ATOM      3  S   UNL d   1       2.182  -0.400  -0.946  0.00  0.00    -0.041 SA
BRANCH   2   4
ATOM      4  N   UNL d   1       0.344  -1.073   0.698  0.00  0.00    -0.333 N 
ATOM      5  H   UNL d   1       0.532  -1.917   0.166  0.00  0.00     0.168 HD
BRANCH   4   6
ATOM      6  C   UNL d   1      -0.120  -1.332   2.006  0.00  0.00     0.034 A 
ATOM      7  C   UNL d   1      -0.802  -2.546   2.189  0.00  0.00     0.032 A 
ATOM      8  C   UNL d   1      -1.257  -2.929   3.452  0.00  0.00     0.044 A 
ATOM      9  C   UNL d   1      -1.012  -2.107   4.539  0.00  0.00     0.116 A 
ATOM     10  C   UNL d   1      -0.317  -0.911   4.382  0.00  0.00     0.044 A 
ATOM     11  F   UNL d   1      -1.432  -2.474   5.755  0.00  0.00    -0.206 F 
ATOM     12  C   UNL d   1       0.131  -0.521   3.113  0.00  0.00     0.032 A 
ENDBRANCH   4   6
ENDBRANCH   2   4
ENDBRANCH   1   2
BRANCH   1  13
ATOM     13  C   UNL d   1      -0.940   1.491   0.694  0.00  0.00     0.164 C 
BRANCH  13  14
ATOM     14  C   UNL d   1      -1.550   2.716   0.038  0.00  0.00    -0.040 A 
ATOM     15  C   UNL d   1      -1.729   2.794  -1.350  0.00  0.00     0.011 A 
ATOM     16  C   UNL d   1      -2.077   4.011  -1.959  0.00  0.00     0.030 A 
ATOM     17  C   UNL d   1      -2.288   5.164  -1.196  0.00  0.00     0.029 A 
ATOM     18  C   UNL d   1      -2.205   5.046   0.200  0.00  0.00     0.030 A 
ATOM     19  C   UNL d   1      -1.842   3.845   0.811  0.00  0.00     0.011 A 
BRANCH  17  20
ATOM     20  N   UNL d   1      -2.537   6.427  -1.733  0.00  0.00    -0.390 N 
ATOM     21  C   UNL d   1      -1.884   6.799  -2.983  0.00  0.00     0.149 C 
ATOM     22  C   UNL d   1      -3.912   6.892  -1.570  0.00  0.00     0.149 C 
ENDBRANCH  17  20
ENDBRANCH  13  14
ENDBRANCH   1  13
BRANCH   1  23
ATOM     23  C   UNL d   1       1.357   2.520   0.319  0.00  0.00     0.079 C 
ATOM     24  C   UNL d   1       2.608   2.458   1.199  0.00  0.00     0.032 C 
ATOM     25  C   UNL d   1       1.709   2.955  -1.109  0.00  0.00     0.032 C 
ENDBRANCH   1  23
TORSDOF 7
