REMARK  10 active torsions:
REMARK  status: ('A' for Active; 'I' for Inactive)
REMARK    1  A    between atoms: N_5  and  S_1 
REMARK    2  A    between atoms: C_6  and  S_1 
REMARK    3  A    between atoms: C_3  and  C_2 
REMARK    4  A    between atoms: C_4  and  C_2 
REMARK    5  A    between atoms: O_16  and  C_3 
REMARK    6  A    between atoms: O_15  and  C_4 
REMARK    7  A    between atoms: N_10  and  N_5 
REMARK    8  A    between atoms: C_9  and  N_10 
REMARK    9  A    between atoms: C_22  and  O_15 
REMARK   10  A    between atoms: C_21  and  O_16 
ROOT
ATOM      1  N   UNL d   1       0.889   2.070   1.434  0.00  0.00    -0.301 N 
ATOM      2  H   UNL d   1       1.428   1.427   2.030  0.00  0.00     0.186 HD
ENDROOT
BRANCH   1   3
ATOM      3  C   UNL d   1       0.608   3.296   1.975  0.00  0.00     0.131 C 
ATOM      4  C   UNL d   1       1.063   3.789   3.148  0.00  0.00     0.131 C 
BRANCH   4   5
ATOM      5  C   UNL d   1       2.040   3.047   3.989  0.00  0.00     0.300 C 
ATOM      6  O   UNL d   1       2.870   3.581   4.710  0.00  0.00    -0.259 OA
BRANCH   5   7
ATOM      7  O   UNL d   1       1.967   1.707   3.755  0.00  0.00    -0.318 OA
BRANCH   7   8
ATOM      8  C   UNL d   1       3.115   0.938   4.147  0.00  0.00     0.174 C 
ATOM      9  C   UNL d   1       4.161   1.032   3.049  0.00  0.00     0.034 C 
ENDBRANCH   7   8
ENDBRANCH   5   7
ENDBRANCH   4   5
BRANCH   4  10
ATOM     10  C   UNL d   1       0.697   5.181   3.483  0.00  0.00     0.300 C 
ATOM     11  O   UNL d   1       0.330   6.011   2.661  0.00  0.00    -0.259 OA
BRANCH  10  12
ATOM     12  O   UNL d   1       0.864   5.403   4.808  0.00  0.00    -0.318 OA
BRANCH  12  13
ATOM     13  C   UNL d   1       1.003   6.775   5.204  0.00  0.00     0.174 C 
ATOM     14  C   UNL d   1       2.464   7.168   5.071  0.00  0.00     0.034 C 
ENDBRANCH  12  13
ENDBRANCH  10  12
ENDBRANCH   4  10
ENDBRANCH   1   3
BRANCH   1  15
ATOM     15  N   UNL d   1       0.304   1.465   0.262  0.00  0.00    -0.223 N 
ATOM     16  H   UNL d   1      -0.374   1.943  -0.334  0.00  0.00     0.200 HD
BRANCH  15  17
ATOM     17  S   UNL d   1       0.464  -0.229   0.132  0.00  0.00     0.276 S 
ATOM     18  O   UNL d   1      -0.478  -0.810   1.066  0.00  0.00    -0.199 OA
ATOM     19  O   UNL d   1       1.876  -0.549   0.203  0.00  0.00    -0.199 OA
BRANCH  17  20
ATOM     20  C   UNL d   1      -0.093  -0.574  -1.509  0.00  0.00     0.081 A 
ATOM     21  C   UNL d   1       0.694  -0.180  -2.594  0.00  0.00     0.027 A 
ATOM     22  C   UNL d   1       0.305  -0.537  -3.888  0.00  0.00     0.025 A 
ATOM     23  C   UNL d   1      -0.854  -1.292  -4.081  0.00  0.00     0.034 A 
ATOM     24  C   UNL d   1      -1.634  -1.689  -2.994  0.00  0.00     0.025 A 
ATOM     25 CL   UNL d   1      -1.315  -1.755  -5.672  0.00  0.00    -0.084 Cl
ATOM     26  C   UNL d   1      -1.254  -1.329  -1.700  0.00  0.00     0.027 A 
ENDBRANCH  17  20
ENDBRANCH  15  17
ENDBRANCH   1  15
TORSDOF 10
