REMARK  1 active torsions:
REMARK  status: ('A' for Active; 'I' for Inactive)
REMARK       I    between atoms: C_2  and  N_1 
REMARK       I    between atoms: C_3  and  N_1 
REMARK    1  A    between atoms: C_4  and  C_2 
REMARK       I    between atoms: N_9  and  C_3 
ROOT
ATOM      1  N   UNL d   1       1.067   0.514   0.146  0.00  0.00    -0.275 N 
ATOM      2  C   UNL d   1       0.311   0.004   1.191  0.00  0.00     0.260 C 
ATOM      3  C   UNL d   1       0.775   0.521  -1.188  0.00  0.00     0.320 C 
ATOM      4  O   UNL d   1      -0.806  -0.487   1.065  0.00  0.00    -0.267 OA
ATOM      5  O   UNL d   1       1.613   0.874  -2.012  0.00  0.00    -0.247 OA
ATOM      6  N   UNL d   1      -0.459   0.123  -1.552  0.00  0.00    -0.352 N 
ATOM      7  H   UNL d   1       2.021   0.795   0.312  0.00  0.00     0.173 HD
ATOM      8  H   UNL d   1      -1.084  -0.287  -0.864  0.00  0.00     0.160 HD
ATOM      9  H   UNL d   1      -0.679   0.041  -2.533  0.00  0.00     0.160 HD
ENDROOT
BRANCH   2  10
ATOM     10  C   UNL d   1       0.952   0.041   2.527  0.00  0.00     0.047 A 
ATOM     11  C   UNL d   1       0.584  -0.913   3.469  0.00  0.00     0.104 A 
ATOM     12  N   UNL d   1       1.134  -1.005   4.705  0.00  0.00    -0.374 N 
ATOM     13  C   UNL d   1       2.079  -0.095   5.022  0.00  0.00     0.087 A 
ATOM     14  HN  UNL d   1       0.846  -1.728   5.364  1.00  0.00     0.164 HD
ATOM     15  C   UNL d   1       2.493   0.912   4.163  0.00  0.00     0.018 A 
ATOM     16  C   UNL d   1       1.915   0.985   2.896  0.00  0.00     0.020 A 
ENDBRANCH   2  10
TORSDOF 1
