REMARK  6 active torsions:
REMARK  status: ('A' for Active; 'I' for Inactive)
REMARK       I    between atoms: C_2  and  N_1 
REMARK    1  A    between atoms: C_3  and  N_1 
REMARK    2  A    between atoms: C_11  and  C_2 
REMARK    3  A    between atoms: C_6  and  C_12 
REMARK    4  A    between atoms: O_10  and  C_6 
REMARK    5  A    between atoms: S_9  and  C_11 
REMARK    6  A    between atoms: C_12  and  S_9 
ROOT
ATOM      1  N   UNL d   1       1.033   0.272  -0.097  0.00  0.00    -0.312 N 
ATOM      2  C   UNL d   1       0.273   1.425  -0.109  0.00  0.00     0.232 C 
ATOM      3  O   UNL d   1       0.675   2.591  -0.127  0.00  0.00    -0.272 OA
ATOM      4  H   UNL d   1       0.560  -0.617  -0.016  0.00  0.00     0.170 HD
ENDROOT
BRANCH   1   5
ATOM      5  C   UNL d   1       2.434   0.245  -0.121  0.00  0.00     0.107 A 
ATOM      6  N   UNL d   1       3.130   1.395  -0.184  0.00  0.00    -0.352 N 
ATOM      7  C   UNL d   1       4.477   1.325  -0.199  0.00  0.00     0.089 A 
ATOM      8  HN  UNL d   1       2.651   2.295  -0.219  1.00  0.00     0.166 HD
ATOM      9  C   UNL d   1       5.184   0.139  -0.154  0.00  0.00     0.017 A 
ATOM     10  C   UNL d   1       4.461  -1.045  -0.091  0.00  0.00     0.005 A 
ATOM     11  C   UNL d   1       3.067  -0.995  -0.074  0.00  0.00     0.048 A 
ENDBRANCH   1   5
BRANCH   2  12
ATOM     12  C   UNL d   1      -1.222   1.178  -0.011  0.00  0.00     0.177 C 
BRANCH  12  13
ATOM     13  S   UNL d   1      -1.754   1.194   1.733  0.00  0.00    -0.149 SA
BRANCH  13  14
ATOM     14  C   UNL d   1      -1.132   2.822   2.286  0.00  0.00     0.184 C 
BRANCH  14  15
ATOM     15  C   UNL d   1      -1.749   3.977   1.530  0.00  0.00     0.149 C 
ATOM     16  O   UNL d   1      -2.832   4.473   1.813  0.00  0.00    -0.649 OA
BRANCH  15  17
ATOM     17  O   UNL d   1      -1.014   4.424   0.486  0.00  0.00    -0.776 OA
ATOM     18  H   UNL d   1      -0.178   3.921   0.311  0.00  0.00     0.167 HD
ENDBRANCH  15  17
ENDBRANCH  14  15
ENDBRANCH  13  14
ENDBRANCH  12  13
ENDBRANCH   2  12
TORSDOF 6
