REMARK  3 active torsions:
REMARK  status: ('A' for Active; 'I' for Inactive)
REMARK    1  A    between atoms: C_13  and  C_5 
REMARK    2  A    between atoms: S_15  and  C_12 
REMARK    3  A    between atoms: C_16  and  C_13 
ROOT
ATOM      1  N   UNL d   1      -0.318   0.285   0.039  0.00  0.00    -0.193 N 
ATOM      2  C   UNL d   1       0.109  -1.008   0.079  0.00  0.00     0.190 A 
ATOM      3  C   UNL d   1       0.582   1.319  -0.013  0.00  0.00     0.293 A 
ATOM      4  S   UNL d   1      -1.245  -2.084   0.102  0.00  0.00    -0.024 SA
ATOM      5  C   UNL d   1       2.022   0.842   0.021  0.00  0.00     0.100 A 
ATOM      6  N   UNL d   1      -1.686   0.483  -0.005  0.00  0.00    -0.276 N 
ATOM      7  HN  UNL d   1      -2.157   1.386  -0.051  1.00  0.00     0.189 HD
ATOM      8  N   UNL d   1       1.336  -1.398   0.088  0.00  0.00    -0.278 N 
ATOM      9  HN  UNL d   1       1.570  -2.390   0.111  1.00  0.00     0.189 HD
ATOM     10  N   UNL d   1       2.344  -0.419   0.067  0.00  0.00    -0.297 N 
ATOM     11  HN  UNL d   1       3.326  -0.696   0.087  1.00  0.00     0.187 HD
ATOM     12  C   UNL d   1      -2.267  -0.675   0.022  0.00  0.00     0.130 A 
ATOM     13  O   UNL d   1       0.336   2.512  -0.112  0.00  0.00    -0.264 OA
ENDROOT
BRANCH   5  14
ATOM     14  C   UNL d   1       3.105   1.892   0.020  0.00  0.00     0.103 C 
BRANCH  14  15
ATOM     15  C   UNL d   1       3.493   2.302   1.419  0.00  0.00    -0.052 A 
ATOM     16  C   UNL d   1       4.463   1.579   2.128  0.00  0.00     0.007 A 
ATOM     17  C   UNL d   1       4.795   1.935   3.436  0.00  0.00     0.001 A 
ATOM     18  C   UNL d   1       4.159   3.012   4.049  0.00  0.00     0.000 A 
ATOM     19  C   UNL d   1       3.192   3.736   3.354  0.00  0.00     0.001 A 
ATOM     20  C   UNL d   1       2.859   3.384   2.045  0.00  0.00     0.007 A 
ENDBRANCH  14  15
ENDBRANCH   5  14
BRANCH  12  21
ATOM     21  S   UNL d   1      -3.978  -0.940  -0.024  0.00  0.00    -0.108 SA
ATOM     22  C   UNL d   1      -4.602   0.749  -0.078  0.00  0.00     0.097 C 
ENDBRANCH  12  21
TORSDOF 3
