REMARK  7 active torsions:
REMARK  status: ('A' for Active; 'I' for Inactive)
REMARK    1  A    between atoms: N_2  and  C_1 
REMARK    2  A    between atoms: N_5  and  C_1 
REMARK    3  A    between atoms: C_3  and  N_2 
REMARK    4  A    between atoms: C_13  and  N_5 
REMARK    5  A    between atoms: O_14  and  C_7 
REMARK    6  A    between atoms: C_8  and  C_16 
REMARK    7  A    between atoms: C_16  and  C_13 
ROOT
ATOM      1  N   UNL d   1       2.265   0.269   0.250  0.00  0.00    -0.367 N 
ATOM      2  H   UNL d   1       2.632  -0.621   0.575  0.00  0.00     0.161 HD
ENDROOT
BRANCH   1   3
ATOM      3  C   UNL d   1       0.966   0.474   0.624  0.00  0.00     0.172 C 
ATOM      4  S   UNL d   1       0.200  -0.783   1.418  0.00  0.00    -0.041 SA
BRANCH   3   5
ATOM      5  N   UNL d   1       0.428   1.684   0.261  0.00  0.00    -0.333 N 
ATOM      6  H   UNL d   1       0.686   1.984  -0.670  0.00  0.00     0.168 HD
BRANCH   5   7
ATOM      7  C   UNL d   1      -0.648   2.371   0.873  0.00  0.00     0.040 A 
ATOM      8  C   UNL d   1      -1.532   3.163   0.116  0.00  0.00    -0.035 A 
ATOM      9  C   UNL d   1      -1.535   3.228  -1.386  0.00  0.00     0.050 C 
ATOM     10  C   UNL d   1      -2.517   3.919   0.786  0.00  0.00     0.009 A 
ATOM     11  C   UNL d   1      -2.633   3.885   2.174  0.00  0.00     0.001 A 
ATOM     12  C   UNL d   1      -1.765   3.097   2.917  0.00  0.00     0.002 A 
ATOM     13  C   UNL d   1      -0.777   2.352   2.271  0.00  0.00     0.030 A 
ENDBRANCH   5   7
ENDBRANCH   3   5
ENDBRANCH   1   3
BRANCH   1  14
ATOM     14  C   UNL d   1       3.240   1.292  -0.109  0.00  0.00     0.126 C 
BRANCH  14  15
ATOM     15  C   UNL d   1       4.673   0.742  -0.174  0.00  0.00     0.058 C 
BRANCH  15  16
ATOM     16  C   UNL d   1       5.358   0.370   1.128  0.00  0.00    -0.057 A 
ATOM     17  C   UNL d   1       4.763   0.487   2.390  0.00  0.00     0.010 A 
ATOM     18  C   UNL d   1       5.465   0.143   3.555  0.00  0.00     0.037 A 
ATOM     19  C   UNL d   1       6.777  -0.319   3.480  0.00  0.00     0.068 A 
ATOM     20  C   UNL d   1       7.374  -0.450   2.227  0.00  0.00     0.037 A 
ATOM     21  C   UNL d   1       6.676  -0.110   1.065  0.00  0.00     0.010 A 
BRANCH  19  22
ATOM     22  O   UNL d   1       7.572  -0.671   4.535  0.00  0.00    -0.356 OA
ATOM     23  C   UNL d   1       7.044  -0.456   5.838  0.00  0.00     0.210 C 
ENDBRANCH  19  22
ENDBRANCH  15  16
ENDBRANCH  14  15
ENDBRANCH   1  14
TORSDOF 7
