REMARK  3 active torsions:
REMARK  status: ('A' for Active; 'I' for Inactive)
REMARK    1  A    between atoms: C_2  and  N_1 
REMARK    2  A    between atoms: C_3  and  C_7 
REMARK    3  A    between atoms: N_4  and  C_5 
ROOT
ATOM      1  C   UNL d   1      -0.162   1.411  -2.400  0.00  0.00     0.116 A 
ATOM      2  C   UNL d   1       0.356   0.649  -3.455  0.00  0.00     0.079 A 
ATOM      3  C   UNL d   1      -0.730   0.817  -1.261  0.00  0.00    -0.002 A 
ATOM      4  C   UNL d   1      -0.762  -0.586  -1.198  0.00  0.00     0.017 A 
ATOM      5  C   UNL d   1       0.298  -0.733  -3.364  0.00  0.00     0.118 A 
ATOM      6  C   UNL d   1      -0.253  -1.355  -2.247  0.00  0.00     0.043 A 
ATOM      7  F   UNL d   1       0.773  -1.481  -4.366  0.00  0.00    -0.206 F 
ENDROOT
BRANCH   3   8
ATOM      8  C   UNL d   1      -1.282   1.564  -0.130  0.00  0.00     0.030 C 
ATOM      9  C   UNL d   1      -0.543   1.897   0.937  0.00  0.00     0.086 C 
BRANCH   9  10
ATOM     10  N   UNL d   1      -0.926   2.607   2.055  0.00  0.00    -0.390 N 
ATOM     11  C   UNL d   1      -2.261   3.140   2.323  0.00  0.00     0.122 C 
ATOM     12  C   UNL d   1      -1.981   4.449   3.043  0.00  0.00     0.021 C 
ATOM     13  C   UNL d   1      -0.762   4.122   3.888  0.00  0.00     0.021 C 
ATOM     14  C   UNL d   1       0.031   3.130   3.037  0.00  0.00     0.122 C 
ENDBRANCH   9  10
ENDBRANCH   3   8
BRANCH   1  15
ATOM     15  N   UNL d   1      -0.099   2.853  -2.527  0.00  0.00    -0.115 N 
ATOM     16  O   UNL d   1       1.025   3.355  -2.664  0.00  0.00    -0.532 OA
ATOM     17  O   UNL d   1      -1.174   3.469  -2.553  0.00  0.00    -0.532 OA
ENDBRANCH   1  15
TORSDOF 3
