REMARK  3 active torsions:
REMARK  status: ('A' for Active; 'I' for Inactive)
REMARK       I    between atoms: N_4  and  C_1 
REMARK       I    between atoms: N_5  and  C_1 
REMARK       I    between atoms: C_2  and  N_3 
REMARK    1  A    between atoms: C_8  and  C_2 
REMARK    2  A    between atoms: N_3  and  N_4 
REMARK    3  A    between atoms: C_9  and  N_5 
ROOT
ATOM      1  C   UNL d   1       1.061  -0.075   0.218  0.00  0.00     0.339 C 
ATOM      2  N   UNL d   1       0.286  -0.732   1.165  0.00  0.00    -0.248 N 
ATOM      3  N   UNL d   1       0.266   0.580  -0.702  0.00  0.00    -0.308 N 
ATOM      4  O   UNL d   1       2.286  -0.078   0.278  0.00  0.00    -0.245 OA
ATOM      5  H   UNL d   1      -0.600  -1.138   0.869  0.00  0.00     0.192 HD
ATOM      6  H   UNL d   1      -0.726   0.555  -0.512  0.00  0.00     0.170 HD
ENDROOT
BRANCH   2   7
ATOM      7  N   UNL d   1       0.958  -1.513   2.129  0.00  0.00    -0.262 N 
ATOM      8  C   UNL d   1       0.331  -2.676   2.534  0.00  0.00     0.270 C 
ATOM      9  O   UNL d   1      -0.774  -3.003   2.100  0.00  0.00    -0.266 OA
ATOM     10  H   UNL d   1       1.962  -1.365   2.205  0.00  0.00     0.190 HD
BRANCH   8  11
ATOM     11  C   UNL d   1       1.043  -3.531   3.522  0.00  0.00     0.033 A 
ATOM     12  C   UNL d   1       1.993  -3.013   4.411  0.00  0.00     0.017 A 
ATOM     13  C   UNL d   1       2.573  -3.843   5.375  0.00  0.00     0.001 A 
ATOM     14  C   UNL d   1       2.210  -5.188   5.454  0.00  0.00     0.000 A 
ATOM     15  C   UNL d   1       1.267  -5.711   4.569  0.00  0.00     0.001 A 
ATOM     16  C   UNL d   1       0.682  -4.884   3.608  0.00  0.00     0.017 A 
ENDBRANCH   8  11
ENDBRANCH   2   7
BRANCH   3  17
ATOM     17  C   UNL d   1       0.673   1.374  -1.792  0.00  0.00     0.036 A 
ATOM     18  C   UNL d   1       2.005   1.561  -2.164  0.00  0.00     0.029 A 
ATOM     19  C   UNL d   1       2.330   2.378  -3.252  0.00  0.00     0.002 A 
ATOM     20  C   UNL d   1       1.326   3.013  -3.980  0.00  0.00     0.000 A 
ATOM     21  C   UNL d   1      -0.006   2.827  -3.624  0.00  0.00     0.002 A 
ATOM     22  C   UNL d   1      -0.331   2.010  -2.536  0.00  0.00     0.029 A 
ENDBRANCH   3  17
TORSDOF 3
