REMARK  7 active torsions:
REMARK  status: ('A' for Active; 'I' for Inactive)
REMARK    1  A    between atoms: N_6  and  C_1 
REMARK    2  A    between atoms: C_9  and  C_2 
REMARK    3  A    between atoms: C_14  and  C_5 
REMARK       I    between atoms: C_8  and  N_6 
REMARK    4  A    between atoms: N_7  and  C_10 
REMARK    5  A    between atoms: C_12  and  C_8 
REMARK    6  A    between atoms: O_21  and  C_9 
REMARK    7  A    between atoms: C_24  and  O_21 
ROOT
ATOM      1  C   UNL d   1       0.318   1.468   0.214  0.00  0.00     0.094 A 
ATOM      2  C   UNL d   1       1.612   0.990   0.293  0.00  0.00     0.074 A 
ATOM      3  S   UNL d   1      -0.865   0.257   0.193  0.00  0.00    -0.071 SA
ATOM      4  C   UNL d   1       1.574  -0.463   0.209  0.00  0.00     0.040 A 
ATOM      5  C   UNL d   1       0.297  -1.003   0.140  0.00  0.00     0.018 A 
ENDROOT
BRANCH   1   6
ATOM      6  N   UNL d   1      -0.252   2.721   0.211  0.00  0.00    -0.316 N 
ATOM      7  C   UNL d   1       0.245   3.740  -0.575  0.00  0.00     0.256 C 
ATOM      8  O   UNL d   1       1.057   3.608  -1.486  0.00  0.00    -0.267 OA
ATOM      9  H   UNL d   1      -1.242   2.756   0.420  0.00  0.00     0.169 HD
BRANCH   7  10
ATOM     10  C   UNL d   1      -0.334   5.085  -0.296  0.00  0.00     0.032 A 
ATOM     11  C   UNL d   1      -0.849   5.413   0.969  0.00  0.00     0.019 A 
ATOM     12  C   UNL d   1      -1.311   6.708   1.226  0.00  0.00     0.037 A 
ATOM     13  C   UNL d   1      -1.253   7.677   0.216  0.00  0.00     0.102 A 
ATOM     14  C   UNL d   1      -0.747   7.357  -1.050  0.00  0.00     0.037 A 
ATOM     15  C   UNL d   1      -0.285   6.062  -1.300  0.00  0.00     0.019 A 
BRANCH  13  16
ATOM     16  N   UNL d   1      -1.702   9.048   0.497  0.00  0.00    -0.116 N 
ATOM     17  O   UNL d   1      -2.100   9.299   1.643  0.00  0.00    -0.532 OA
ATOM     18  O   UNL d   1      -1.653   9.871  -0.428  0.00  0.00    -0.532 OA
ENDBRANCH  13  16
ENDBRANCH   7  10
ENDBRANCH   1   6
BRANCH   2  19
ATOM     19  C   UNL d   1       2.839   1.757   0.553  0.00  0.00     0.296 C 
ATOM     20  O   UNL d   1       3.918   1.213   0.744  0.00  0.00    -0.259 OA
BRANCH  19  21
ATOM     21  O   UNL d   1       2.635   3.101   0.698  0.00  0.00    -0.318 OA
BRANCH  21  22
ATOM     22  C   UNL d   1       3.693   3.883   1.265  0.00  0.00     0.174 C 
ATOM     23  C   UNL d   1       4.607   4.495   0.218  0.00  0.00     0.034 C 
ENDBRANCH  21  22
ENDBRANCH  19  21
ENDBRANCH   2  19
BRANCH   5  24
ATOM     24  C   UNL d   1      -0.144  -2.416   0.040  0.00  0.00    -0.019 A 
ATOM     25  C   UNL d   1       0.689  -3.381  -0.550  0.00  0.00     0.013 A 
ATOM     26  C   UNL d   1       0.274  -4.713  -0.680  0.00  0.00     0.001 A 
ATOM     27  C   UNL d   1      -0.982  -5.107  -0.219  0.00  0.00     0.000 A 
ATOM     28  C   UNL d   1      -1.821  -4.169   0.377  0.00  0.00     0.001 A 
ATOM     29  C   UNL d   1      -1.400  -2.839   0.507  0.00  0.00     0.013 A 
ENDBRANCH   5  24
TORSDOF 7
