REMARK  5 active torsions:
REMARK  status: ('A' for Active; 'I' for Inactive)
REMARK    1  A    between atoms: C_9  and  C_3 
REMARK    2  A    between atoms: N_10  and  C_4 
REMARK    3  A    between atoms: N_8  and  C_12 
REMARK    4  A    between atoms: C_11  and  N_10 
REMARK    5  A    between atoms: C_12  and  C_11 
ROOT
ATOM      1  N   UNL d   1      -1.216   1.389   0.075  0.00  0.00    -0.355 N 
ATOM      2  HN  UNL d   1      -1.222   2.408   0.098  1.00  0.00     0.166 HD
ATOM      3  C   UNL d   1      -2.376   0.695   0.061  0.00  0.00     0.044 A 
ATOM      4  C   UNL d   1      -1.193  -1.423  -0.003  0.00  0.00     0.023 A 
ATOM      5  C   UNL d   1      -2.384  -0.694   0.055  0.00  0.00     0.054 A 
ATOM      6  C   UNL d   1      -0.055   0.712   0.059  0.00  0.00     0.044 A 
ATOM      7  C   UNL d   1       0.022  -0.701   0.028  0.00  0.00     0.012 A 
ATOM      8  C   UNL d   1       1.295  -1.317   0.004  0.00  0.00     0.015 A 
ATOM      9  C   UNL d   1       1.125   1.443   0.064  0.00  0.00     0.030 A 
ATOM     10  C   UNL d   1       2.464  -0.558   0.017  0.00  0.00     0.001 A 
ATOM     11  C   UNL d   1       2.379   0.827   0.044  0.00  0.00     0.002 A 
ENDROOT
BRANCH   4  12
ATOM     12  N   UNL d   1      -1.192  -2.845  -0.076  0.00  0.00    -0.290 NA
ATOM     13  H   UNL d   1      -0.797  -3.226   0.783  0.00  0.00     0.127 HD
BRANCH  12  14
ATOM     14  C   UNL d   1      -2.477  -3.464  -0.432  0.00  0.00     0.122 C 
BRANCH  14  15
ATOM     15  C   UNL d   1      -2.366  -4.955  -0.797  0.00  0.00     0.287 C 
BRANCH  15  16
ATOM     16  N   UNL d   1      -3.599  -5.458  -1.447  0.00  0.00     0.089 N 
ATOM     17  C   UNL d   1      -3.419  -6.843  -1.903  0.00  0.00     0.272 C 
ATOM     18  C   UNL d   1      -4.643  -7.333  -2.682  0.00  0.00     0.030 C 
ATOM     19  C   UNL d   1      -5.921  -7.191  -1.864  0.00  0.00     0.003 C 
ATOM     20  C   UNL d   1      -6.055  -5.769  -1.341  0.00  0.00     0.030 C 
ATOM     21  C   UNL d   1      -4.793  -5.329  -0.598  0.00  0.00     0.272 C 
ENDBRANCH  15  16
ENDBRANCH  14  15
ENDBRANCH  12  14
ENDBRANCH   4  12
BRANCH   3  22
ATOM     22  C   UNL d   1      -3.632   1.476   0.059  0.00  0.00    -0.009 A 
ATOM     23  C   UNL d   1      -4.811   0.984  -0.539  0.00  0.00     0.013 A 
ATOM     24  C   UNL d   1      -6.010   1.700  -0.496  0.00  0.00     0.001 A 
ATOM     25  C   UNL d   1      -6.055   2.939   0.133  0.00  0.00     0.000 A 
ATOM     26  C   UNL d   1      -4.900   3.461   0.709  0.00  0.00     0.001 A 
ATOM     27  C   UNL d   1      -3.704   2.740   0.670  0.00  0.00     0.013 A 
ENDBRANCH   3  22
TORSDOF 5
