REMARK  0 active torsions:
REMARK  status: ('A' for Active; 'I' for Inactive)
ROOT
ATOM      1  C   UNL d   1       0.748  -0.385  -0.004  0.00  0.00    -0.019 A 
ATOM      2  C   UNL d   1      -0.738  -0.411  -0.015  0.00  0.00    -0.019 A 
ATOM      3  C   UNL d   1       1.439   0.844  -0.002  0.00  0.00    -0.045 A 
ATOM      4  C   UNL d   1      -1.472   0.792  -0.007  0.00  0.00    -0.045 A 
ATOM      5  C   UNL d   1       1.535  -1.557  -0.002  0.00  0.00     0.014 A 
ATOM      6  C   UNL d   1      -1.480  -1.611  -0.022  0.00  0.00     0.014 A 
ATOM      7  C   UNL d   1       2.849   0.880   0.006  0.00  0.00     0.027 A 
ATOM      8  C   UNL d   1      -2.883   0.777  -0.011  0.00  0.00     0.027 A 
ATOM      9  C   UNL d   1      -0.802   2.138   0.052  0.00  0.00     0.044 C 
ATOM     10  C   UNL d   1       0.721   2.165  -0.051  0.00  0.00     0.044 C 
ATOM     11  C   UNL d   1       3.586  -0.297   0.009  0.00  0.00     0.011 A 
ATOM     12  C   UNL d   1      -3.578  -0.425  -0.020  0.00  0.00     0.011 A 
ATOM     13  C   UNL d   1       2.933  -1.520   0.003  0.00  0.00     0.020 A 
ATOM     14  C   UNL d   1      -2.881  -1.623  -0.023  0.00  0.00     0.020 A 
ATOM     15 BR   UNL d   1       5.474  -0.233   0.012  0.00  0.00    -0.051 Br
ATOM     16 BR   UNL d   1      -5.466  -0.427  -0.013  0.00  0.00    -0.051 Br
ENDROOT
TORSDOF 0
