REMARK  5 active torsions:
REMARK  status: ('A' for Active; 'I' for Inactive)
REMARK       I    between atoms: N_2  and  C_1 
REMARK    1  A    between atoms: C_5  and  C_1 
REMARK    2  A    between atoms: C_7  and  N_2 
REMARK    3  A    between atoms: C_9  and  C_5 
REMARK    4  A    between atoms: C_19  and  C_16 
REMARK    5  A    between atoms: C_23  and  C_19 
ROOT
ATOM      1  C   UNL d   1       0.966  -0.163   0.252  0.00  0.00     0.230 C 
ATOM      2  N   UNL d   1       0.548  -0.740  -0.937  0.00  0.00    -0.327 N 
ATOM      3  O   UNL d   1       1.992  -0.458   0.864  0.00  0.00    -0.272 OA
ATOM      4  H   UNL d   1      -0.244  -0.316  -1.399  0.00  0.00     0.169 HD
ENDROOT
BRANCH   1   5
ATOM      5  C   UNL d   1       0.067   0.970   0.774  0.00  0.00     0.107 C 
ATOM      6  C   UNL d   1      -1.427   0.642   0.710  0.00  0.00     0.025 C 
BRANCH   5   7
ATOM      7  C   UNL d   1       0.380   2.324   0.152  0.00  0.00    -0.045 A 
ATOM      8  C   UNL d   1       0.286   2.555  -1.227  0.00  0.00     0.008 A 
ATOM      9  C   UNL d   1       0.556   3.816  -1.767  0.00  0.00     0.007 A 
ATOM     10  C   UNL d   1       0.921   4.884  -0.940  0.00  0.00    -0.058 A 
ATOM     11  C   UNL d   1       1.011   4.663   0.437  0.00  0.00     0.007 A 
ATOM     12  C   UNL d   1       0.749   3.399   0.975  0.00  0.00     0.008 A 
BRANCH  10  13
ATOM     13  C   UNL d   1       1.167   6.249  -1.541  0.00  0.00     0.042 C 
BRANCH  13  14
ATOM     14  C   UNL d   1       2.559   6.853  -1.271  0.00  0.00    -0.019 C 
ATOM     15  C   UNL d   1       3.685   6.000  -1.859  0.00  0.00     0.010 C 
ATOM     16  C   UNL d   1       2.626   8.265  -1.859  0.00  0.00     0.010 C 
ENDBRANCH  13  14
ENDBRANCH  10  13
ENDBRANCH   5   7
ENDBRANCH   1   5
BRANCH   2  17
ATOM     17  C   UNL d   1       1.220  -1.738  -1.675  0.00  0.00     0.037 A 
ATOM     18  C   UNL d   1       2.253  -2.520  -1.157  0.00  0.00     0.069 A 
ATOM     19  C   UNL d   1       2.918  -3.437  -1.973  0.00  0.00     0.104 A 
ATOM     20  O   UNL d   1       3.939  -4.147  -1.394  0.00  0.00    -0.346 OA
ATOM     21  C   UNL d   1       2.539  -3.600  -3.307  0.00  0.00     0.102 A 
ATOM     22  C   UNL d   1       4.809  -4.697  -2.386  0.00  0.00     0.202 C 
ATOM     23  C   UNL d   1       4.007  -5.390  -3.477  0.00  0.00     0.202 C 
ATOM     24  O   UNL d   1       3.159  -4.466  -4.169  0.00  0.00    -0.346 OA
ATOM     25  C   UNL d   1       1.491  -2.844  -3.825  0.00  0.00     0.042 A 
ATOM     26  C   UNL d   1       0.825  -1.926  -3.007  0.00  0.00     0.032 A 
ENDBRANCH   2  17
TORSDOF 5
