REMARK  7 active torsions:
REMARK  status: ('A' for Active; 'I' for Inactive)
REMARK    1  A    between atoms: N_2  and  C_1 
REMARK    2  A    between atoms: C_5  and  N_2 
REMARK    3  A    between atoms: C_13  and  N_4 
REMARK    4  A    between atoms: O_11  and  C_6 
REMARK    5  A    between atoms: C_15  and  O_11 
REMARK    6  A    between atoms: O_12  and  C_14 
REMARK    7  A    between atoms: C_14  and  C_13 
ROOT
ATOM      1  N   UNL d   1       0.424  -1.037  -0.587  0.00  0.00    -0.333 N 
ATOM      2  H   UNL d   1      -0.515  -0.725  -0.839  0.00  0.00     0.168 HD
ENDROOT
BRANCH   1   3
ATOM      3  C   UNL d   1       1.041  -0.224   0.332  0.00  0.00     0.172 C 
ATOM      4  S   UNL d   1       2.648   0.245   0.373  0.00  0.00    -0.041 SA
ATOM      5  N   UNL d   1       0.230   0.285   1.305  0.00  0.00    -0.365 N 
ATOM      6  H   UNL d   1       0.712   0.885   1.965  0.00  0.00     0.161 HD
BRANCH   5   7
ATOM      7  C   UNL d   1      -1.111  -0.168   1.654  0.00  0.00     0.148 C 
BRANCH   7   8
ATOM      8  C   UNL d   1      -2.200   0.524   0.835  0.00  0.00     0.183 C 
BRANCH   8   9
ATOM      9  O   UNL d   1      -2.172   0.075  -0.522  0.00  0.00    -0.399 OA
ATOM     10  H   UNL d   1      -2.894   0.545  -0.978  0.00  0.00     0.209 HD
ENDBRANCH   8   9
ENDBRANCH   7   8
ENDBRANCH   5   7
ENDBRANCH   1   3
BRANCH   1  11
ATOM     11  C   UNL d   1       1.020  -2.002  -1.423  0.00  0.00     0.034 A 
ATOM     12  C   UNL d   1       2.088  -2.787  -0.988  0.00  0.00     0.032 A 
ATOM     13  C   UNL d   1       2.665  -3.740  -1.831  0.00  0.00     0.039 A 
ATOM     14  C   UNL d   1       2.184  -3.911  -3.127  0.00  0.00     0.068 A 
ATOM     15  C   UNL d   1       1.075  -3.171  -3.545  0.00  0.00     0.039 A 
ATOM     16  C   UNL d   1       0.483  -2.231  -2.691  0.00  0.00     0.032 A 
BRANCH  14  17
ATOM     17  O   UNL d   1       2.706  -4.777  -4.051  0.00  0.00    -0.352 OA
BRANCH  17  18
ATOM     18  C   UNL d   1       4.046  -5.210  -3.800  0.00  0.00     0.171 C 
ATOM     19  C   UNL d   1       4.562  -5.929  -5.033  0.00  0.00     0.034 C 
ENDBRANCH  17  18
ENDBRANCH  14  17
ENDBRANCH   1  11
TORSDOF 7
