REMARK  1 active torsions:
REMARK  status: ('A' for Active; 'I' for Inactive)
REMARK    1  A    between atoms: C_9  and  N_2 
ROOT
ATOM      1  C   UNL d   1       0.909  -0.189  -0.099  0.00  0.00     0.201 A 
ATOM      2  N   UNL d   1       1.721   0.347  -1.192  0.00  0.00    -0.285 N 
ATOM      3  C   UNL d   1       0.754  -1.751  -0.218  0.00  0.00     0.267 A 
ATOM      4  C   UNL d   1      -0.526   0.252   0.027  0.00  0.00     0.017 A 
ATOM      5  N   UNL d   1      -0.608  -2.035  -0.128  0.00  0.00    -0.323 N 
ATOM      6  S   UNL d   1       1.786   0.158   1.465  0.00  0.00    -0.113 SA
ATOM      7  C   UNL d   1       3.030   0.695  -0.822  0.00  0.00     0.235 C 
ATOM      8  C   UNL d   1      -1.359  -0.873  -0.002  0.00  0.00     0.045 A 
ATOM      9  C   UNL d   1       3.343   0.416   0.629  0.00  0.00     0.180 C 
ATOM     10  O   UNL d   1       1.638  -2.582  -0.374  0.00  0.00    -0.269 OA
ATOM     11  O   UNL d   1       3.885   1.188  -1.554  0.00  0.00    -0.272 OA
ATOM     12  C   UNL d   1      -1.067   1.525   0.135  0.00  0.00     0.013 A 
ATOM     13  C   UNL d   1      -2.732  -0.776   0.049  0.00  0.00     0.030 A 
ATOM     14  C   UNL d   1      -2.458   1.645   0.180  0.00  0.00     0.001 A 
ATOM     15  C   UNL d   1      -3.283   0.505   0.133  0.00  0.00     0.002 A 
ATOM     16  H   UNL d   1      -0.976  -2.973  -0.189  0.00  0.00     0.169 HD
ENDROOT
BRANCH   2  17
ATOM     17  C   UNL d   1       1.354   0.188  -2.578  0.00  0.00     0.040 A 
ATOM     18  C   UNL d   1       2.330  -0.092  -3.550  0.00  0.00     0.031 A 
ATOM     19  C   UNL d   1       2.005  -0.252  -4.904  0.00  0.00     0.026 A 
ATOM     20  C   UNL d   1       0.686  -0.133  -5.317  0.00  0.00     0.034 A 
ATOM     21  C   UNL d   1      -0.304   0.135  -4.383  0.00  0.00     0.026 A 
ATOM     22 CL   UNL d   1       0.278  -0.306  -6.977  0.00  0.00    -0.084 Cl
ATOM     23  C   UNL d   1       0.030   0.289  -3.030  0.00  0.00     0.031 A 
ENDBRANCH   2  17
TORSDOF 1
