REMARK  5 active torsions:
REMARK  status: ('A' for Active; 'I' for Inactive)
REMARK    1  A    between atoms: C_14  and  N_1 
REMARK    2  A    between atoms: C_3  and  N_10 
REMARK    3  A    between atoms: C_8  and  C_7 
REMARK    4  A    between atoms: C_9  and  C_8 
REMARK       I    between atoms: N_10  and  C_9 
REMARK    5  A    between atoms: C_19  and  C_14 
ROOT
ATOM      1  N   UNL d   1       0.309   1.425   0.542  0.00  0.00    -0.344 N 
ATOM      2  C   UNL d   1       0.860   0.249   1.034  0.00  0.00     0.254 C 
ATOM      3  C   UNL d   1       0.151  -1.029   0.511  0.00  0.00     0.320 C 
ATOM      4  N   UNL d   1      -1.304  -0.941   0.796  0.00  0.00     0.099 N 
ATOM      5  O   UNL d   1       1.892   0.222   1.705  0.00  0.00    -0.271 OA
ATOM      6  C   UNL d   1      -1.147   1.541   0.492  0.00  0.00     0.156 C 
ATOM      7  C   UNL d   1      -1.847   0.233   0.085  0.00  0.00     0.290 C 
ATOM      8  H   UNL d   1      -1.761  -1.780   0.435  0.00  0.00     0.317 HD
ENDROOT
BRANCH   3   9
ATOM      9  C   UNL d   1       0.773  -2.299   1.100  0.00  0.00     0.148 C 
BRANCH   9  10
ATOM     10  C   UNL d   1       2.132  -2.542   0.454  0.00  0.00     0.225 C 
ATOM     11  N   UNL d   1       3.163  -1.943   1.144  0.00  0.00    -0.312 N 
ATOM     12  H   UNL d   1       2.908  -1.302   1.892  0.00  0.00     0.170 HD
ATOM     13  O   UNL d   1       2.207  -3.155  -0.607  0.00  0.00    -0.273 OA
BRANCH  11  14
ATOM     14  C   UNL d   1       4.448  -1.774   0.668  0.00  0.00     0.130 A 
ATOM     15  N   UNL d   1       4.979  -2.335  -0.422  0.00  0.00    -0.245 N 
ATOM     16  O   UNL d   1       6.237  -1.776  -0.569  0.00  0.00    -0.241 OA
ATOM     17  HN  UNL d   1       4.545  -3.034  -1.025  1.00  0.00     0.196 HD
ATOM     18  C   UNL d   1       6.458  -0.891   0.438  0.00  0.00     0.076 A 
ATOM     19  C   UNL d   1       5.377  -0.897   1.281  0.00  0.00     0.084 A 
ATOM     20  C   UNL d   1       7.720  -0.132   0.394  0.00  0.00     0.079 C 
ENDBRANCH  11  14
ENDBRANCH   9  10
ENDBRANCH   3   9
BRANCH   1  21
ATOM     21  C   UNL d   1       1.144   2.612   0.426  0.00  0.00     0.164 C 
BRANCH  21  22
ATOM     22  C   UNL d   1       0.952   3.710   1.440  0.00  0.00    -0.040 A 
ATOM     23  C   UNL d   1       0.589   3.468   2.771  0.00  0.00     0.009 A 
ATOM     24  C   UNL d   1       0.464   4.529   3.673  0.00  0.00     0.001 A 
ATOM     25  C   UNL d   1       0.729   5.834   3.266  0.00  0.00     0.000 A 
ATOM     26  C   UNL d   1       1.133   6.085   1.957  0.00  0.00     0.001 A 
ATOM     27  C   UNL d   1       1.246   5.031   1.054  0.00  0.00     0.009 A 
ENDBRANCH  21  22
ENDBRANCH   1  21
TORSDOF 5
