REMARK  4 active torsions:
REMARK  status: ('A' for Active; 'I' for Inactive)
REMARK    1  A    between atoms: C_3  and  N_1 
REMARK    2  A    between atoms: S_8  and  C_2 
REMARK    3  A    between atoms: C_5  and  C_9 
REMARK    4  A    between atoms: C_9  and  S_8 
ROOT
ATOM      1  N   UNL d   1      -0.375  -1.125  -0.036  0.00  0.00    -0.300 N 
ATOM      2  C   UNL d   1       0.934  -0.649  -0.063  0.00  0.00     0.151 A 
ATOM      3  N   UNL d   1       0.996   0.656   0.094  0.00  0.00    -0.345 N 
ATOM      4  HN  UNL d   1       1.835   1.235   0.125  1.00  0.00     0.167 HD
ATOM      5  C   UNL d   1      -1.156   0.003   0.146  0.00  0.00     0.116 A 
ATOM      6  C   UNL d   1      -0.297   1.071   0.207  0.00  0.00     0.108 A 
ENDROOT
BRANCH   2   7
ATOM      7  S   UNL d   1       2.333  -1.615  -0.445  0.00  0.00    -0.089 SA
BRANCH   7   8
ATOM      8  C   UNL d   1       3.661  -0.414  -0.114  0.00  0.00     0.126 C 
BRANCH   8   9
ATOM      9  C   UNL d   1       5.015  -0.979  -0.457  0.00  0.00     0.012 A 
ATOM     10  C   UNL d   1       5.502  -0.812  -1.760  0.00  0.00     0.125 A 
ATOM     11  F   UNL d   1       4.770  -0.151  -2.666  0.00  0.00    -0.205 F 
ATOM     12  C   UNL d   1       6.742  -1.311  -2.155  0.00  0.00     0.043 A 
ATOM     13  C   UNL d   1       7.529  -1.999  -1.241  0.00  0.00     0.005 A 
ATOM     14  C   UNL d   1       7.066  -2.188   0.062  0.00  0.00     0.024 A 
ATOM     15  C   UNL d   1       5.816  -1.687   0.450  0.00  0.00     0.044 A 
ATOM     16 CL   UNL d   1       5.316  -1.979   2.079  0.00  0.00    -0.084 Cl
ENDBRANCH   8   9
ENDBRANCH   7   8
ENDBRANCH   2   7
BRANCH   1  17
ATOM     17  C   UNL d   1      -0.858  -2.470  -0.077  0.00  0.00     0.064 A 
ATOM     18  C   UNL d   1      -2.039  -2.837  -0.760  0.00  0.00     0.083 A 
ATOM     19  C   UNL d   1      -2.472  -4.178  -0.710  0.00  0.00     0.058 A 
ATOM     20 CL   UNL d   1      -2.904  -1.725  -1.783  0.00  0.00    -0.080 Cl
ATOM     21 CL   UNL d   1      -3.912  -4.728  -1.501  0.00  0.00    -0.082 Cl
ATOM     22  C   UNL d   1      -1.737  -5.141  -0.012  0.00  0.00     0.026 A 
ATOM     23  C   UNL d   1      -0.573  -4.779   0.654  0.00  0.00     0.004 A 
ATOM     24  C   UNL d   1      -0.143  -3.453   0.634  0.00  0.00     0.032 A 
ENDBRANCH   1  17
TORSDOF 4
