REMARK  2 active torsions:
REMARK  status: ('A' for Active; 'I' for Inactive)
REMARK    1  A    between atoms: C_9  and  C_3 
REMARK    2  A    between atoms: O_13  and  C_4 
ROOT
ATOM      1  N   UNL d   1       2.451   0.699   0.045  0.00  0.00    -0.321 N 
ATOM      2  HN  UNL d   1       3.337   1.202   0.085  1.00  0.00     0.169 HD
ATOM      3  C   UNL d   1       2.391  -0.641  -0.021  0.00  0.00     0.134 A 
ATOM      4  C   UNL d   1       1.277   1.329   0.054  0.00  0.00     0.150 A 
ATOM      5  N   UNL d   1       1.231  -1.338  -0.061  0.00  0.00    -0.343 N 
ATOM      6  HN  UNL d   1       1.233  -2.357  -0.107  1.00  0.00     0.167 HD
ATOM      7  C   UNL d   1       0.033   0.739  -0.004  0.00  0.00     0.025 A 
ATOM      8  C   UNL d   1       0.068  -0.644  -0.038  0.00  0.00     0.023 A 
ATOM      9  S   UNL d   1      -2.723   0.737  -0.470  0.00  0.00    -0.164 SA
ATOM     10  C   UNL d   1      -1.204   1.576   0.056  0.00  0.00     0.118 C 
ATOM     11  C   UNL d   1      -1.177  -1.491  -0.104  0.00  0.00     0.068 C 
ATOM     12  C   UNL d   1      -2.439  -0.819   0.413  0.00  0.00     0.080 C 
ENDROOT
BRANCH   3  13
ATOM     13  C   UNL d   1       3.662  -1.409  -0.029  0.00  0.00     0.076 A 
ATOM     14  N   UNL d   1       4.825  -0.701   0.086  0.00  0.00    -0.363 N 
ATOM     15  C   UNL d   1       5.989  -1.385   0.097  0.00  0.00     0.088 A 
ATOM     16  HN  UNL d   1       4.814   0.316   0.160  1.00  0.00     0.165 HD
ATOM     17  C   UNL d   1       6.074  -2.762  -0.001  0.00  0.00     0.017 A 
ATOM     18  C   UNL d   1       4.895  -3.483  -0.122  0.00  0.00     0.004 A 
ATOM     19  C   UNL d   1       3.679  -2.803  -0.138  0.00  0.00     0.033 A 
ENDBRANCH   3  13
BRANCH   4  20
ATOM     20  O   UNL d   1       1.406   2.676   0.149  0.00  0.00    -0.346 OA
ATOM     21  H   UNL d   1       2.380   2.749   0.167  0.00  0.00     0.219 HD
ENDBRANCH   4  20
TORSDOF 2
