REMARK  3 active torsions:
REMARK  status: ('A' for Active; 'I' for Inactive)
REMARK    1  A    between atoms: C_12  and  C_3 
REMARK    2  A    between atoms: C_15  and  C_4 
REMARK    3  A    between atoms: O_16  and  C_12 
ROOT
ATOM      1  N   UNL d   1      -0.132  -0.658  -0.026  0.00  0.00    -0.240 N 
ATOM      2  C   UNL d   1      -0.085   0.728  -0.030  0.00  0.00     0.143 A 
ATOM      3  C   UNL d   1       2.196  -0.679  -0.065  0.00  0.00     0.148 A 
ATOM      4  C   UNL d   1       1.055  -1.406  -0.027  0.00  0.00     0.070 A 
ATOM      5  N   UNL d   1       2.178   0.712  -0.085  0.00  0.00    -0.292 N 
ATOM      6  HN  UNL d   1       3.065   1.214  -0.126  1.00  0.00     0.187 HD
ATOM      7  N   UNL d   1       1.108   1.374  -0.052  0.00  0.00    -0.283 N 
ATOM      8  HN  UNL d   1       1.138   2.393  -0.044  1.00  0.00     0.188 HD
ATOM      9  N   UNL d   1      -1.417  -1.104  -0.015  0.00  0.00    -0.297 N 
ATOM     10  HN  UNL d   1      -1.737  -2.072  -0.018  1.00  0.00     0.187 HD
ATOM     11  C   UNL d   1      -1.386   1.170   0.003  0.00  0.00     0.077 A 
ATOM     12  C   UNL d   1      -2.170   0.000  -0.001  0.00  0.00     0.026 A 
ATOM     13  C   UNL d   1      -3.649  -0.098   0.009  0.00  0.00     0.070 C 
ENDROOT
BRANCH   3  14
ATOM     14  C   UNL d   1       3.553  -1.325  -0.106  0.00  0.00     0.313 C 
ATOM     15  O   UNL d   1       3.769  -2.526  -0.172  0.00  0.00    -0.258 OA
BRANCH  14  16
ATOM     16  O   UNL d   1       4.528  -0.370  -0.078  0.00  0.00    -0.321 OA
ATOM     17  C   UNL d   1       5.859  -0.885  -0.139  0.00  0.00     0.213 C 
ENDBRANCH  14  16
ENDBRANCH   3  14
BRANCH   4  18
ATOM     18  C   UNL d   1       0.905  -2.907   0.091  0.00  0.00     0.057 C 
ATOM     19  C   UNL d   1       0.715  -3.624  -1.240  0.00  0.00     0.011 C 
ENDBRANCH   4  18
TORSDOF 3
