REMARK  5 active torsions:
REMARK  status: ('A' for Active; 'I' for Inactive)
REMARK    1  A    between atoms: N_2  and  C_1 
REMARK    2  A    between atoms: N_4  and  C_3 
REMARK    3  A    between atoms: C_6  and  C_12 
REMARK    4  A    between atoms: C_17  and  C_6 
REMARK    5  A    between atoms: C_11  and  C_7 
ROOT
ATOM      1  N   UNL d   1       0.858  -2.672   0.243  0.00  0.00    -0.281 NA
ATOM      2  C   UNL d   1       1.664  -5.436   0.640  0.00  0.00     0.063 C 
ATOM      3  C   UNL d   1       1.696  -2.997   1.408  0.00  0.00     0.096 C 
ATOM      4  C   UNL d   1       1.157  -3.506  -0.933  0.00  0.00     0.096 C 
ATOM      5  C   UNL d   1       0.870  -4.965  -0.585  0.00  0.00     0.027 C 
ATOM      6  C   UNL d   1       1.452  -4.455   1.811  0.00  0.00     0.027 C 
ENDROOT
BRANCH   1   7
ATOM      7  C   UNL d   1       0.692  -1.312  -0.072  0.00  0.00     0.044 A 
ATOM      8  C   UNL d   1      -0.464  -0.819  -0.709  0.00  0.00     0.125 A 
ATOM      9  C   UNL d   1      -0.603   0.520  -1.106  0.00  0.00     0.053 A 
ATOM     10  C   UNL d   1       0.429   1.430  -0.851  0.00  0.00     0.012 A 
ATOM     11  C   UNL d   1       1.565   0.981  -0.177  0.00  0.00     0.017 A 
ATOM     12  C   UNL d   1       1.690  -0.366   0.202  0.00  0.00     0.027 A 
BRANCH   8  13
ATOM     13  N   UNL d   1      -1.592  -1.696  -0.963  0.00  0.00    -0.114 N 
ATOM     14  O   UNL d   1      -2.206  -2.150   0.013  0.00  0.00    -0.532 OA
ATOM     15  O   UNL d   1      -1.889  -1.889  -2.151  0.00  0.00    -0.532 OA
ENDBRANCH   8  13
BRANCH  10  16
ATOM     16  C   UNL d   1       0.255   2.838  -1.325  0.00  0.00     0.155 C 
ATOM     17  O   UNL d   1      -0.803   3.155  -1.867  0.00  0.00    -0.293 OA
ATOM     18  C   UNL d   1       1.367   3.847  -1.192  0.00  0.00     0.096 C 
ENDBRANCH  10  16
ENDBRANCH   1   7
BRANCH   2  19
ATOM     19  C   UNL d   1       3.157  -5.617   0.340  0.00  0.00     0.163 C 
ATOM     20  O   UNL d   1       4.004  -4.859   0.814  0.00  0.00    -0.292 OA
BRANCH  19  21
ATOM     21  C   UNL d   1       3.625  -6.735  -0.539  0.00  0.00     0.010 A 
ATOM     22  C   UNL d   1       2.766  -7.702  -1.072  0.00  0.00     0.015 A 
ATOM     23  C   UNL d   1       3.268  -8.707  -1.906  0.00  0.00     0.001 A 
ATOM     24  C   UNL d   1       4.630  -8.765  -2.193  0.00  0.00     0.000 A 
ATOM     25  C   UNL d   1       5.497  -7.821  -1.651  0.00  0.00     0.001 A 
ATOM     26  C   UNL d   1       4.997  -6.809  -0.830  0.00  0.00     0.015 A 
ENDBRANCH  19  21
ENDBRANCH   2  19
TORSDOF 5
