REMARK  10 active torsions:
REMARK  status: ('A' for Active; 'I' for Inactive)
REMARK    1  A    between atoms: C_7  and  C_1 
REMARK    2  A    between atoms: C_8  and  C_2 
REMARK    3  A    between atoms: O_9  and  C_7 
REMARK    4  A    between atoms: O_10  and  C_8 
REMARK    5  A    between atoms: C_17  and  O_9 
REMARK    6  A    between atoms: C_18  and  O_10 
REMARK    7  A    between atoms: C_11  and  C_17 
REMARK    8  A    between atoms: C_13  and  C_11 
REMARK    9  A    between atoms: C_12  and  C_18 
REMARK   10  A    between atoms: C_14  and  C_12 
ROOT
ATOM      1  C   UNL d   1       0.739  -1.241  -0.022  0.00  0.00     0.058 A 
ATOM      2  C   UNL d   1      -0.725   1.241  -0.012  0.00  0.00     0.058 A 
ATOM      3  C   UNL d   1      -1.403   0.018  -0.017  0.00  0.00     0.028 A 
ATOM      4  C   UNL d   1       1.417  -0.018  -0.025  0.00  0.00     0.028 A 
ATOM      5  C   UNL d   1      -0.673  -1.193  -0.023  0.00  0.00     0.039 A 
ATOM      6  C   UNL d   1       0.687   1.193  -0.020  0.00  0.00     0.039 A 
ATOM      7 BR   UNL d   1      -3.293  -0.196   0.003  0.00  0.00    -0.050 Br
ATOM      8 BR   UNL d   1       3.307   0.197  -0.015  0.00  0.00    -0.050 Br
ENDROOT
BRANCH   1   9
ATOM      9  C   UNL d   1       1.329  -2.625   0.017  0.00  0.00     0.295 C 
ATOM     10  O   UNL d   1       0.620  -3.622   0.069  0.00  0.00    -0.259 OA
BRANCH   9  11
ATOM     11  O   UNL d   1       2.676  -2.650   0.042  0.00  0.00    -0.310 OA
BRANCH  11  12
ATOM     12  C   UNL d   1       3.324  -3.925   0.194  0.00  0.00     0.263 C 
BRANCH  12  13
ATOM     13  C   UNL d   1       4.324  -4.205  -0.928  0.00  0.00     0.183 C 
ATOM     14  O   UNL d   1       4.463  -3.465  -1.901  0.00  0.00    -0.290 OA
BRANCH  13  15
ATOM     15  C   UNL d   1       5.138  -5.460  -0.859  0.00  0.00     0.012 A 
ATOM     16  C   UNL d   1       5.577  -6.037  -2.061  0.00  0.00     0.016 A 
ATOM     17  C   UNL d   1       6.338  -7.211  -2.052  0.00  0.00     0.020 A 
ATOM     18  C   UNL d   1       6.676  -7.803  -0.838  0.00  0.00     0.011 A 
ATOM     19  C   UNL d   1       6.260  -7.234   0.363  0.00  0.00     0.020 A 
ATOM     20 BR   UNL d   1       7.712  -9.386  -0.822  0.00  0.00    -0.051 Br
ATOM     21  C   UNL d   1       5.488  -6.064   0.355  0.00  0.00     0.016 A 
ENDBRANCH  13  15
ENDBRANCH  12  13
ENDBRANCH  11  12
ENDBRANCH   9  11
ENDBRANCH   1   9
BRANCH   2  22
ATOM     22  C   UNL d   1      -1.315   2.626   0.036  0.00  0.00     0.295 C 
ATOM     23  O   UNL d   1      -0.605   3.619   0.090  0.00  0.00    -0.259 OA
BRANCH  22  24
ATOM     24  O   UNL d   1      -2.663   2.653   0.066  0.00  0.00    -0.310 OA
BRANCH  24  25
ATOM     25  C   UNL d   1      -3.303   3.932   0.221  0.00  0.00     0.263 C 
BRANCH  25  26
ATOM     26  C   UNL d   1      -4.300   4.221  -0.901  0.00  0.00     0.183 C 
ATOM     27  O   UNL d   1      -4.450   3.478  -1.870  0.00  0.00    -0.290 OA
BRANCH  26  28
ATOM     28  C   UNL d   1      -5.095   5.488  -0.837  0.00  0.00     0.012 A 
ATOM     29  C   UNL d   1      -5.527   6.063  -2.042  0.00  0.00     0.016 A 
ATOM     30  C   UNL d   1      -6.271   7.249  -2.039  0.00  0.00     0.020 A 
ATOM     31  C   UNL d   1      -6.598   7.855  -0.828  0.00  0.00     0.011 A 
ATOM     32  C   UNL d   1      -6.188   7.286   0.377  0.00  0.00     0.020 A 
ATOM     33 BR   UNL d   1      -7.610   9.452  -0.819  0.00  0.00    -0.051 Br
ATOM     34  C   UNL d   1      -5.434   6.105   0.375  0.00  0.00     0.016 A 
ENDBRANCH  26  28
ENDBRANCH  25  26
ENDBRANCH  24  25
ENDBRANCH  22  24
ENDBRANCH   2  22
TORSDOF 10
