REMARK  5 active torsions:
REMARK  status: ('A' for Active; 'I' for Inactive)
REMARK    1  A    between atoms: N_6  and  C_1 
REMARK    2  A    between atoms: C_2  and  C_3 
REMARK       I    between atoms: C_9  and  N_7 
REMARK    3  A    between atoms: C_22  and  C_9 
REMARK    4  A    between atoms: O_29  and  C_22 
REMARK    5  A    between atoms: C_27  and  O_29 
ROOT
ATOM      1  N   UNL d   1       0.672   2.205   0.049  0.00  0.00    -0.363 N 
ATOM      2  N   UNL d   1       2.372   4.477  -0.126  0.00  0.00    -0.347 N 
ATOM      3  C   UNL d   1       3.141   5.608  -0.360  0.00  0.00     0.244 C 
ATOM      4  C   UNL d   1       1.375   2.453  -1.222  0.00  0.00     0.144 C 
ATOM      5  C   UNL d   1       0.259   3.455   0.708  0.00  0.00     0.144 C 
ATOM      6  C   UNL d   1       2.650   3.267  -0.922  0.00  0.00     0.145 C 
ATOM      7  C   UNL d   1       1.534   4.250   1.067  0.00  0.00     0.145 C 
ATOM      8  O   UNL d   1       3.976   5.647  -1.267  0.00  0.00    -0.271 OA
ENDROOT
BRANCH   3   9
ATOM      9  C   UNL d   1       2.908   6.846   0.504  0.00  0.00     0.278 C 
BRANCH   9  10
ATOM     10  O   UNL d   1       3.617   6.738   1.732  0.00  0.00    -0.342 OA
BRANCH  10  11
ATOM     11  C   UNL d   1       3.711   7.889   2.472  0.00  0.00     0.072 A 
ATOM     12  C   UNL d   1       4.732   7.899   3.430  0.00  0.00     0.076 A 
ATOM     13  C   UNL d   1       4.869   9.019   4.223  0.00  0.00     0.107 A 
ATOM     14  O   UNL d   1       5.803   9.203   5.195  0.00  0.00    -0.323 OA
ATOM     15  C   UNL d   1       4.030  10.101   4.096  0.00  0.00     0.105 A 
ATOM     16  C   UNL d   1       5.463  10.528   5.654  0.00  0.00     0.352 A 
ATOM     17  O   UNL d   1       4.326  11.097   4.972  0.00  0.00    -0.323 OA
ATOM     18  C   UNL d   1       3.013  10.121   3.169  0.00  0.00     0.042 A 
ATOM     19  C   UNL d   1       2.854   8.999   2.347  0.00  0.00     0.039 A 
ENDBRANCH  10  11
ENDBRANCH   9  10
ENDBRANCH   3   9
BRANCH   1  20
ATOM     20  C   UNL d   1      -0.162   1.097   0.108  0.00  0.00     0.125 A 
ATOM     21  N   UNL d   1      -0.576   0.554  -1.065  0.00  0.00    -0.350 N 
ATOM     22  C   UNL d   1      -1.262  -0.616  -1.045  0.00  0.00     0.106 A 
ATOM     23  HN  UNL d   1      -0.373   1.019  -1.950  1.00  0.00     0.166 HD
ATOM     24  C   UNL d   1      -1.580  -1.307   0.110  0.00  0.00     0.065 A 
ATOM     25  C   UNL d   1      -1.190  -0.738   1.320  0.00  0.00     0.045 A 
ATOM     26  C   UNL d   1      -0.470   0.459   1.326  0.00  0.00     0.078 A 
ATOM     27 CL   UNL d   1       0.125   0.991   2.864  0.00  0.00    -0.080 Cl
BRANCH  24  28
ATOM     28  C   UNL d   1      -2.273  -2.630   0.031  0.00  0.00     0.418 C 
ATOM     29  F   UNL d   1      -2.486  -3.204   1.247  0.00  0.00    -0.166 F 
ATOM     30  F   UNL d   1      -3.494  -2.544  -0.562  0.00  0.00    -0.166 F 
ATOM     31  F   UNL d   1      -1.565  -3.541  -0.692  0.00  0.00    -0.166 F 
ENDBRANCH  24  28
ENDBRANCH   1  20
TORSDOF 5
