REMARK  2 active torsions:
REMARK  status: ('A' for Active; 'I' for Inactive)
REMARK    1  A    between atoms: C_13  and  C_3 
REMARK    2  A    between atoms: C_12  and  C_11 
ROOT
ATOM      1  N   UNL d   1       0.149  -0.477   0.054  0.00  0.00    -0.239 N 
ATOM      2  C   UNL d   1       0.404   0.851   0.157  0.00  0.00     0.175 A 
ATOM      3  C   UNL d   1       1.389  -1.082   0.014  0.00  0.00     0.141 A 
ATOM      4  C   UNL d   1      -1.177  -0.842  -0.015  0.00  0.00     0.272 A 
ATOM      5  C   UNL d   1      -1.990   0.412   0.056  0.00  0.00     0.078 A 
ATOM      6  N   UNL d   1       2.301  -0.112   0.079  0.00  0.00    -0.282 N 
ATOM      7  HN  UNL d   1       3.311  -0.254   0.061  1.00  0.00     0.188 HD
ATOM      8  N   UNL d   1       1.676   1.109   0.175  0.00  0.00    -0.277 N 
ATOM      9  HN  UNL d   1       2.119   2.025   0.246  1.00  0.00     0.189 HD
ATOM     10  S   UNL d   1      -0.988   1.839   0.206  0.00  0.00    -0.046 SA
ATOM     11  C   UNL d   1      -3.332   0.390  -0.020  0.00  0.00     0.043 C 
ATOM     12  O   UNL d   1      -1.561  -1.990  -0.128  0.00  0.00    -0.266 OA
ENDROOT
BRANCH   3  13
ATOM     13  C   UNL d   1       1.744  -2.499  -0.128  0.00  0.00     0.010 A 
ATOM     14  C   UNL d   1       2.981  -2.802  -0.734  0.00  0.00     0.017 A 
ATOM     15  C   UNL d   1       3.421  -4.121  -0.875  0.00  0.00     0.025 A 
ATOM     16  C   UNL d   1       2.626  -5.160  -0.410  0.00  0.00     0.034 A 
ATOM     17  C   UNL d   1       1.407  -4.885   0.206  0.00  0.00     0.025 A 
ATOM     18 CL   UNL d   1       3.154  -6.787  -0.584  0.00  0.00    -0.084 Cl
ATOM     19  C   UNL d   1       0.974  -3.559   0.356  0.00  0.00     0.017 A 
ENDBRANCH   3  13
BRANCH  11  20
ATOM     20  C   UNL d   1      -4.086   1.596  -0.026  0.00  0.00     0.006 A 
ATOM     21  S   UNL d   1      -4.461   2.361  -1.522  0.00  0.00    -0.102 SA
ATOM     22  C   UNL d   1      -5.123   3.725  -0.737  0.00  0.00     0.050 A 
ATOM     23  C   UNL d   1      -5.142   3.576   0.630  0.00  0.00     0.008 A 
ATOM     24  C   UNL d   1      -4.568   2.336   1.040  0.00  0.00     0.019 A 
ENDBRANCH  11  20
TORSDOF 2
