REMARK  7 active torsions:
REMARK  status: ('A' for Active; 'I' for Inactive)
REMARK    1  A    between atoms: C_2  and  C_1 
REMARK    2  A    between atoms: C_3  and  C_1 
REMARK    3  A    between atoms: O_12  and  C_1 
REMARK    4  A    between atoms: O_13  and  C_1 
REMARK    5  A    between atoms: C_4  and  C_2 
REMARK    6  A    between atoms: C_8  and  C_2 
REMARK    7  A    between atoms: N_5  and  C_4 
ROOT
ATOM      1  C   UNL d   1       0.397  -1.416  -0.331  0.00  0.00     0.179 C 
ENDROOT
BRANCH   1   2
ATOM      2  C   UNL d   1       0.943  -0.033   0.191  0.00  0.00     0.283 C 
BRANCH   2   3
ATOM      3  C   UNL d   1       0.364   0.219   1.631  0.00  0.00     0.446 C 
ATOM      4  F   UNL d   1       0.197  -0.941   2.311  0.00  0.00    -0.166 F 
ATOM      5  F   UNL d   1       1.192   0.995   2.375  0.00  0.00    -0.166 F 
ATOM      6  F   UNL d   1      -0.834   0.846   1.605  0.00  0.00    -0.166 F 
ENDBRANCH   2   3
BRANCH   2   7
ATOM      7  O   UNL d   1       0.479   0.991  -0.737  0.00  0.00    -0.352 OA
ATOM      8  C   UNL d   1       0.880   2.318  -0.426  0.00  0.00     0.206 C 
ENDBRANCH   2   7
BRANCH   2   9
ATOM      9  O   UNL d   1       2.393  -0.011   0.141  0.00  0.00    -0.352 OA
ATOM     10  C   UNL d   1       3.087  -0.895   1.004  0.00  0.00     0.206 C 
ENDBRANCH   2   9
ENDBRANCH   1   2
BRANCH   1  11
ATOM     11  C   UNL d   1      -1.123  -1.416  -0.331  0.00  0.00    -0.062 C 
BRANCH  11  12
ATOM     12  N   UNL d   1      -2.384  -1.416  -0.331  0.00  0.00    -0.369 N 
ATOM     13  HN2 UNL d   1      -1.364  -1.416  -0.331  1.00  0.00     0.165 HD
ATOM     14  HN1 UNL d   1      -3.404  -1.416  -0.331  1.00  0.00     0.165 HD
ENDBRANCH  11  12
ENDBRANCH   1  11
BRANCH   1  15
ATOM     15  C   UNL d   1       0.914  -1.821  -1.720  0.00  0.00    -0.036 A 
ATOM     16  C   UNL d   1       1.704  -2.969  -1.873  0.00  0.00     0.009 A 
ATOM     17  C   UNL d   1       2.189  -3.342  -3.131  0.00  0.00     0.001 A 
ATOM     18  C   UNL d   1       1.887  -2.575  -4.254  0.00  0.00     0.000 A 
ATOM     19  C   UNL d   1       1.097  -1.438  -4.125  0.00  0.00     0.001 A 
ATOM     20  C   UNL d   1       0.607  -1.066  -2.869  0.00  0.00     0.009 A 
ENDBRANCH   1  15
TORSDOF 7
