REMARK  4 active torsions:
REMARK  status: ('A' for Active; 'I' for Inactive)
REMARK    1  A    between atoms: C_14  and  N_2 
REMARK    2  A    between atoms: C_12  and  N_4 
REMARK    3  A    between atoms: C_13  and  C_7 
REMARK    4  A    between atoms: C_19  and  C_11 
ROOT
ATOM      1  C   UNL d   1       0.011  -0.257  -0.340  0.00  0.00     0.247 C 
ATOM      2  N   UNL d   1       1.145  -1.087  -0.669  0.00  0.00    -0.265 N 
ATOM      3  S   UNL d   1      -0.619  -0.628   1.362  0.00  0.00    -0.039 SA
ATOM      4  N   UNL d   1      -1.207  -0.327  -1.192  0.00  0.00    -0.241 N 
ATOM      5  N   UNL d   1      -2.396  -0.095  -0.494  0.00  0.00    -0.285 N 
ATOM      6  HN  UNL d   1      -3.300   0.108  -0.921  1.00  0.00     0.188 HD
ATOM      7  C   UNL d   1      -2.173  -0.178   0.773  0.00  0.00     0.135 C 
ATOM      8  S   UNL d   1       0.660   1.478  -0.262  0.00  0.00    -0.056 SA
ATOM      9  C   UNL d   1       2.372  -0.559  -0.247  0.00  0.00     0.268 C 
ATOM     10  C   UNL d   1       2.265   0.907   0.034  0.00  0.00     0.074 C 
ATOM     11  C   UNL d   1       3.256   1.723   0.423  0.00  0.00     0.035 C 
ATOM     12  O   UNL d   1       3.417  -1.186  -0.133  0.00  0.00    -0.266 OA
ENDROOT
BRANCH   2  13
ATOM     13  C   UNL d   1       1.092  -2.380  -1.267  0.00  0.00     0.041 A 
ATOM     14  C   UNL d   1       0.046  -3.281  -1.062  0.00  0.00     0.030 A 
ATOM     15  C   UNL d   1       0.064  -4.537  -1.684  0.00  0.00     0.002 A 
ATOM     16  C   UNL d   1       1.099  -4.888  -2.552  0.00  0.00     0.000 A 
ATOM     17  C   UNL d   1       2.131  -3.991  -2.789  0.00  0.00     0.002 A 
ATOM     18  C   UNL d   1       2.131  -2.757  -2.140  0.00  0.00     0.030 A 
ENDBRANCH   2  13
BRANCH   4  19
ATOM     19  C   UNL d   1      -1.285  -0.268  -2.590  0.00  0.00     0.055 A 
ATOM     20  C   UNL d   1      -0.174  -0.139  -3.435  0.00  0.00     0.033 A 
ATOM     21  C   UNL d   1      -0.300  -0.164  -4.834  0.00  0.00     0.026 A 
ATOM     22  C   UNL d   1      -1.552  -0.300  -5.421  0.00  0.00     0.034 A 
ATOM     23  C   UNL d   1      -2.681  -0.393  -4.623  0.00  0.00     0.026 A 
ATOM     24 CL   UNL d   1      -1.702  -0.363  -7.133  0.00  0.00    -0.084 Cl
ATOM     25  C   UNL d   1      -2.542  -0.376  -3.230  0.00  0.00     0.033 A 
ENDBRANCH   4  19
BRANCH   7  26
ATOM     26  C   UNL d   1      -3.138   0.096   1.890  0.00  0.00     0.180 C 
ATOM     27  O   UNL d   1      -2.749   0.492   2.988  0.00  0.00    -0.291 OA
ATOM     28  C   UNL d   1      -4.598  -0.025   1.565  0.00  0.00     0.099 C 
ENDBRANCH   7  26
BRANCH  11  29
ATOM     29  C   UNL d   1       4.649   1.326   0.651  0.00  0.00    -0.035 A 
ATOM     30  C   UNL d   1       5.550   1.277  -0.419  0.00  0.00     0.011 A 
ATOM     31  C   UNL d   1       6.877   0.898  -0.204  0.00  0.00     0.001 A 
ATOM     32  C   UNL d   1       7.311   0.570   1.080  0.00  0.00     0.000 A 
ATOM     33  C   UNL d   1       6.417   0.615   2.149  0.00  0.00     0.001 A 
ATOM     34  C   UNL d   1       5.088   0.992   1.937  0.00  0.00     0.011 A 
ENDBRANCH  11  29
TORSDOF 4
