REMARK  7 active torsions:
REMARK  status: ('A' for Active; 'I' for Inactive)
REMARK    1  A    between atoms: C_2  and  N_1 
REMARK    2  A    between atoms: C_3  and  C_6 
REMARK    3  A    between atoms: C_5  and  C_7 
REMARK       I    between atoms: C_7  and  N_21 
REMARK    4  A    between atoms: N_22  and  C_9 
REMARK    5  A    between atoms: N_21  and  C_23 
REMARK    6  A    between atoms: C_24  and  N_22 
REMARK    7  A    between atoms: C_23  and  C_24 
ROOT
ATOM      1  C   UNL d   1      -1.075   2.409  -0.925  0.00  0.00     0.130 A 
ATOM      2  C   UNL d   1      -0.805   2.326  -2.312  0.00  0.00     0.054 A 
ATOM      3  C   UNL d   1      -0.043   1.276  -2.839  0.00  0.00     0.050 A 
ATOM      4  C   UNL d   1      -0.589   1.432  -0.022  0.00  0.00     0.061 A 
ATOM      5  C   UNL d   1       0.438   0.306  -1.962  0.00  0.00     0.018 A 
ATOM      6  C   UNL d   1       0.153   0.378  -0.595  0.00  0.00     0.032 A 
ENDROOT
BRANCH   4   7
ATOM      7  N   UNL d   1      -0.917   1.393   1.350  0.00  0.00    -0.386 N 
ATOM      8  H   UNL d   1      -1.258   2.294   1.702  0.00  0.00     0.159 HD
BRANCH   7   9
ATOM      9  C   UNL d   1       0.002   0.695   2.260  0.00  0.00     0.139 C 
BRANCH   9  10
ATOM     10  C   UNL d   1      -0.452   0.737   3.727  0.00  0.00     0.142 C 
BRANCH  10  11
ATOM     11  N   UNL d   1       0.497   0.103   4.634  0.00  0.00    -0.355 N 
ATOM     12  C   UNL d   1       0.882  -1.222   4.551  0.00  0.00     0.258 C 
ATOM     13  O   UNL d   1       0.435  -1.974   3.685  0.00  0.00    -0.267 OA
ATOM     14  H   UNL d   1       0.802   0.616   5.453  0.00  0.00     0.162 HD
BRANCH  12  15
ATOM     15  C   UNL d   1       1.855  -1.659   5.547  0.00  0.00     0.072 A 
ATOM     16  S   UNL d   1       2.517  -0.580   6.707  0.00  0.00    -0.097 SA
ATOM     17  C   UNL d   1       3.447  -1.813   7.435  0.00  0.00     0.050 A 
ATOM     18  C   UNL d   1       3.286  -3.023   6.800  0.00  0.00     0.009 A 
ATOM     19  C   UNL d   1       2.387  -2.929   5.697  0.00  0.00     0.025 A 
ENDBRANCH  12  15
ENDBRANCH  10  11
ENDBRANCH   9  10
ENDBRANCH   7   9
ENDBRANCH   4   7
BRANCH   1  20
ATOM     20  N   UNL d   1      -1.824   3.595  -0.464  0.00  0.00    -0.113 N 
ATOM     21  O   UNL d   1      -2.148   4.437  -1.319  0.00  0.00    -0.532 OA
ATOM     22  O   UNL d   1      -2.062   3.717   0.746  0.00  0.00    -0.532 OA
ENDBRANCH   1  20
BRANCH   3  23
ATOM     23  C   UNL d   1       0.260   1.180  -4.314  0.00  0.00     0.417 C 
ATOM     24  F   UNL d   1      -0.267   2.204  -5.040  0.00  0.00    -0.166 F 
ATOM     25  F   UNL d   1       1.597   1.189  -4.568  0.00  0.00    -0.166 F 
ATOM     26  F   UNL d   1      -0.223   0.037  -4.871  0.00  0.00    -0.166 F 
ENDBRANCH   3  23
TORSDOF 7
