REMARK  3 active torsions:
REMARK  status: ('A' for Active; 'I' for Inactive)
REMARK       I    between atoms: N_2  and  C_1 
REMARK    1  A    between atoms: C_3  and  C_1 
REMARK       I    between atoms: C_4  and  N_2 
REMARK       I    between atoms: N_8  and  C_4 
REMARK       I    between atoms: C_5  and  N_7 
REMARK    2  A    between atoms: C_6  and  C_5 
REMARK    3  A    between atoms: N_7  and  N_8 
ROOT
ATOM      1  C   UNL d   1       1.085   0.042   0.004  0.00  0.00     0.261 C 
ATOM      2  N   UNL d   1       0.559  -0.774   0.991  0.00  0.00    -0.274 N 
ATOM      3  C   UNL d   1       1.191  -1.473   1.982  0.00  0.00     0.341 C 
ATOM      4  N   UNL d   1       2.556  -1.478   1.988  0.00  0.00    -0.248 N 
ATOM      5  O   UNL d   1       2.282   0.241  -0.162  0.00  0.00    -0.267 OA
ATOM      6  O   UNL d   1       0.524  -2.084   2.821  0.00  0.00    -0.245 OA
ATOM      7  H   UNL d   1      -0.445  -0.842   1.074  0.00  0.00     0.173 HD
ATOM      8  H   UNL d   1       3.099  -0.841   1.400  0.00  0.00     0.192 HD
ENDROOT
BRANCH   4   9
ATOM      9  N   UNL d   1       3.196  -2.108   3.067  0.00  0.00    -0.262 N 
ATOM     10  C   UNL d   1       4.489  -2.566   2.909  0.00  0.00     0.270 C 
ATOM     11  O   UNL d   1       5.179  -2.368   1.917  0.00  0.00    -0.266 OA
ATOM     12  H   UNL d   1       2.561  -2.546   3.735  0.00  0.00     0.190 HD
BRANCH  10  13
ATOM     13  C   UNL d   1       5.024  -3.360   4.046  0.00  0.00     0.036 A 
ATOM     14  C   UNL d   1       5.926  -4.399   3.778  0.00  0.00     0.041 A 
ATOM     15  C   UNL d   1       6.452  -5.144   4.833  0.00  0.00     0.036 A 
ATOM     16 CL   UNL d   1       7.541  -6.436   4.507  0.00  0.00    -0.084 Cl
ATOM     17  C   UNL d   1       6.103  -4.856   6.152  0.00  0.00     0.047 A 
ATOM     18  C   UNL d   1       5.222  -3.810   6.411  0.00  0.00     0.036 A 
ATOM     19  C   UNL d   1       4.676  -3.061   5.368  0.00  0.00     0.041 A 
ATOM     20 CL   UNL d   1       4.808  -3.429   8.037  0.00  0.00    -0.084 Cl
ENDBRANCH  10  13
ENDBRANCH   4   9
BRANCH   1  21
ATOM     21  C   UNL d   1       0.081   0.619  -0.941  0.00  0.00     0.054 A 
ATOM     22  C   UNL d   1      -1.176   1.104  -0.550  0.00  0.00     0.049 A 
ATOM     23 CL   UNL d   1      -1.665   1.240   1.103  0.00  0.00    -0.083 Cl
ATOM     24  C   UNL d   1      -2.097   1.531  -1.515  0.00  0.00     0.025 A 
ATOM     25  C   UNL d   1      -1.765   1.496  -2.868  0.00  0.00     0.002 A 
ATOM     26  C   UNL d   1      -0.504   1.056  -3.262  0.00  0.00     0.001 A 
ATOM     27  C   UNL d   1       0.418   0.624  -2.304  0.00  0.00     0.019 A 
ENDBRANCH   1  21
TORSDOF 3
