REMARK  0 active torsions:
REMARK  status: ('A' for Active; 'I' for Inactive)
ROOT
ATOM      1  N   UNL d   1       1.193  -0.478   0.001  0.00  0.00    -0.274 N 
ATOM      2  C   UNL d   1       0.032  -1.255   0.007  0.00  0.00     0.265 A 
ATOM      3  C   UNL d   1       1.115   0.913   0.008  0.00  0.00     0.114 A 
ATOM      4  N   UNL d   1       0.006   1.586   0.021  0.00  0.00    -0.341 N 
ATOM      5  HN  UNL d   1       0.012   2.606   0.037  1.00  0.00     0.167 HD
ATOM      6  C   UNL d   1      -1.245  -0.518   0.001  0.00  0.00     0.059 A 
ATOM      7  C   UNL d   1      -1.198   0.874   0.015  0.00  0.00     0.049 A 
ATOM      8  C   UNL d   1       2.427  -1.121  -0.015  0.00  0.00     0.102 A 
ATOM      9  O   UNL d   1       0.011  -2.486   0.017  0.00  0.00    -0.267 OA
ATOM     10  C   UNL d   1       2.404   1.662  -0.003  0.00  0.00     0.049 A 
ATOM     11  C   UNL d   1       3.580  -0.442  -0.029  0.00  0.00     0.018 A 
ATOM     12  C   UNL d   1       3.565   0.997  -0.025  0.00  0.00     0.005 A 
ATOM     13  C   UNL d   1      -2.469  -1.200  -0.024  0.00  0.00     0.019 A 
ATOM     14  C   UNL d   1      -2.400   1.586   0.010  0.00  0.00     0.030 A 
ATOM     15  C   UNL d   1      -3.662  -0.477  -0.034  0.00  0.00     0.001 A 
ATOM     16  C   UNL d   1      -3.627   0.917  -0.014  0.00  0.00     0.002 A 
ENDROOT
TORSDOF 0
