REMARK  4 active torsions:
REMARK  status: ('A' for Active; 'I' for Inactive)
REMARK    1  A    between atoms: N_2  and  S_1 
REMARK    2  A    between atoms: C_4  and  S_1 
REMARK       I    between atoms: C_3  and  N_2 
REMARK       I    between atoms: N_7  and  C_3 
REMARK    3  A    between atoms: C_15  and  N_7 
REMARK    4  A    between atoms: N_10  and  C_8 
ROOT
ATOM      1  N   UNL d   1       0.467  -1.530   0.064  0.00  0.00    -0.232 N 
ATOM      2  C   UNL d   1       0.474  -2.450  -0.984  0.00  0.00     0.334 C 
ATOM      3  N   UNL d   1       1.432  -2.166  -1.922  0.00  0.00    -0.308 N 
ATOM      4  O   UNL d   1      -0.296  -3.391  -1.004  0.00  0.00    -0.246 OA
ATOM      5  H   UNL d   1       1.129  -0.773   0.140  0.00  0.00     0.183 HD
ATOM      6  H   UNL d   1       2.041  -1.388  -1.733  0.00  0.00     0.170 HD
ENDROOT
BRANCH   1   7
ATOM      7  S   UNL d   1      -0.556  -1.651   1.377  0.00  0.00     0.266 S 
ATOM      8  O   UNL d   1      -1.927  -1.691   0.921  0.00  0.00    -0.200 OA
ATOM      9  O   UNL d   1      -0.110  -0.629   2.303  0.00  0.00    -0.200 OA
BRANCH   7  10
ATOM     10  C   UNL d   1      -0.100  -3.220   2.065  0.00  0.00     0.080 A 
ATOM     11  C   UNL d   1       1.143  -3.344   2.692  0.00  0.00     0.026 A 
ATOM     12  C   UNL d   1       1.571  -4.598   3.122  0.00  0.00     0.008 A 
ATOM     13  C   UNL d   1       0.761  -5.727   2.937  0.00  0.00    -0.062 A 
ATOM     14  C   UNL d   1      -0.506  -5.578   2.354  0.00  0.00     0.008 A 
ATOM     15  C   UNL d   1       1.276  -7.081   3.325  0.00  0.00     0.048 C 
ATOM     16  C   UNL d   1      -0.942  -4.324   1.921  0.00  0.00     0.026 A 
ENDBRANCH   7  10
ENDBRANCH   1   7
BRANCH   3  17
ATOM     17  C   UNL d   1       1.593  -2.797  -3.175  0.00  0.00     0.036 A 
ATOM     18  C   UNL d   1       0.766  -3.816  -3.645  0.00  0.00     0.032 A 
ATOM     19  C   UNL d   1       0.906  -4.314  -4.949  0.00  0.00     0.031 A 
ATOM     20  C   UNL d   1       1.875  -3.824  -5.830  0.00  0.00     0.029 A 
ATOM     21  C   UNL d   1       2.744  -2.848  -5.314  0.00  0.00     0.031 A 
ATOM     22  C   UNL d   1       2.607  -2.336  -4.014  0.00  0.00     0.032 A 
BRANCH  20  23
ATOM     23  N   UNL d   1       2.015  -4.285  -7.135  0.00  0.00    -0.390 N 
ATOM     24  C   UNL d   1       1.342  -5.502  -7.580  0.00  0.00     0.149 C 
ATOM     25  C   UNL d   1       2.268  -3.301  -8.190  0.00  0.00     0.149 C 
ENDBRANCH  20  23
ENDBRANCH   3  17
TORSDOF 4
