REMARK  4 active torsions:
REMARK  status: ('A' for Active; 'I' for Inactive)
REMARK       I    between atoms: C_6  and  N_1 
REMARK    1  A    between atoms: C_11  and  C_6 
REMARK    2  A    between atoms: C_13  and  C_7 
REMARK    3  A    between atoms: N_10  and  C_11 
REMARK    4  A    between atoms: O_27  and  C_23 
ROOT
ATOM      1  N   UNL d   1      -3.054   0.985  -0.342  0.00  0.00    -0.249 N 
ATOM      2  N   UNL d   1      -1.750   1.422  -0.501  0.00  0.00    -0.298 N 
ATOM      3  HN  UNL d   1      -1.442   2.329  -0.852  1.00  0.00     0.187 HD
ATOM      4  C   UNL d   1      -1.003   0.436  -0.112  0.00  0.00     0.043 C 
ATOM      5  C   UNL d   1      -1.730  -0.707   0.551  0.00  0.00     0.068 C 
ATOM      6  C   UNL d   1      -4.165   1.815  -0.361  0.00  0.00     0.267 C 
ATOM      7  C   UNL d   1      -3.140  -0.433   0.023  0.00  0.00     0.154 C 
ATOM      8  C   UNL d   1       0.460   0.375  -0.166  0.00  0.00    -0.005 A 
ATOM      9  C   UNL d   1      -1.076  -2.082   0.403  0.00  0.00     0.018 C 
ATOM     10  O   UNL d   1      -5.300   1.385  -0.125  0.00  0.00    -0.270 OA
ATOM     11  C   UNL d   1       1.044  -0.897  -0.264  0.00  0.00    -0.046 A 
ATOM     12  C   UNL d   1       0.168  -2.102  -0.489  0.00  0.00     0.040 C 
ATOM     13  C   UNL d   1       1.236   1.528  -0.062  0.00  0.00     0.014 A 
ATOM     14  C   UNL d   1       2.438  -1.004  -0.230  0.00  0.00     0.008 A 
ATOM     15  C   UNL d   1       2.625   1.405  -0.008  0.00  0.00     0.001 A 
ATOM     16  C   UNL d   1       3.221   0.144  -0.082  0.00  0.00     0.001 A 
ENDROOT
BRANCH   6  17
ATOM     17  C   UNL d   1      -3.911   3.308  -0.624  0.00  0.00     0.376 C 
BRANCH  17  18
ATOM     18  N   UNL d   1      -4.233   4.137   0.567  0.00  0.00     0.100 N 
ATOM     19  C   UNL d   1      -3.391   3.772   1.722  0.00  0.00     0.303 C 
ATOM     20  C   UNL d   1      -3.570   4.722   2.930  0.00  0.00     0.302 C 
ATOM     21  N   UNL d   1      -3.379   6.153   2.625  0.00  0.00     0.087 N 
ATOM     22  C   UNL d   1      -4.236   6.500   1.473  0.00  0.00     0.302 C 
ATOM     23  C   UNL d   1      -1.975   6.465   2.368  0.00  0.00     0.310 C 
ATOM     24  C   UNL d   1      -4.085   5.570   0.243  0.00  0.00     0.303 C 
ENDBRANCH  17  18
ENDBRANCH   6  17
BRANCH   7  25
ATOM     25  C   UNL d   1      -3.591  -1.315  -1.126  0.00  0.00    -0.033 A 
ATOM     26  C   UNL d   1      -4.718  -2.132  -0.961  0.00  0.00     0.012 A 
ATOM     27  C   UNL d   1      -5.066  -3.071  -1.936  0.00  0.00     0.037 A 
ATOM     28  C   UNL d   1      -4.298  -3.210  -3.091  0.00  0.00     0.068 A 
ATOM     29  C   UNL d   1      -3.222  -2.347  -3.300  0.00  0.00     0.037 A 
ATOM     30  C   UNL d   1      -2.879  -1.399  -2.331  0.00  0.00     0.012 A 
BRANCH  28  31
ATOM     31  O   UNL d   1      -4.694  -4.215  -3.929  0.00  0.00    -0.356 OA
ATOM     32  C   UNL d   1      -3.826  -4.510  -5.018  0.00  0.00     0.210 C 
ENDBRANCH  28  31
ENDBRANCH   7  25
TORSDOF 4
