REMARK  8 active torsions:
REMARK  status: ('A' for Active; 'I' for Inactive)
REMARK       I    between atoms: N_4  and  C_1 
REMARK    1  A    between atoms: C_5  and  C_1 
REMARK    2  A    between atoms: C_2  and  C_5 
REMARK    3  A    between atoms: C_7  and  C_2 
REMARK    4  A    between atoms: C_3  and  C_7 
REMARK    5  A    between atoms: O_12  and  C_3 
REMARK    6  A    between atoms: C_9  and  N_4 
REMARK    7  A    between atoms: C_10  and  C_9 
REMARK    8  A    between atoms: O_17  and  C_11 
ROOT
ATOM      1  C   UNL d   1       0.936  -0.283  -0.124  0.00  0.00     0.218 C 
ATOM      2  N   UNL d   1       1.284  -0.644   1.158  0.00  0.00    -0.357 N 
ATOM      3  O   UNL d   1       1.224  -0.937  -1.122  0.00  0.00    -0.274 OA
ATOM      4  H   UNL d   1       1.132   0.024   1.904  0.00  0.00     0.162 HD
ENDROOT
BRANCH   1   5
ATOM      5  C   UNL d   1       0.197   1.037  -0.224  0.00  0.00     0.112 C 
BRANCH   5   6
ATOM      6  C   UNL d   1      -1.353   0.985  -0.345  0.00  0.00    -0.023 C 
ATOM      7  C   UNL d   1      -1.802   0.242  -1.638  0.00  0.00     0.010 C 
ATOM      8  C   UNL d   1      -1.487   0.974  -2.940  0.00  0.00     0.001 C 
ATOM      9  C   UNL d   1      -2.028   2.398  -2.929  0.00  0.00     0.000 C 
ATOM     10  C   UNL d   1      -1.537   3.173  -1.714  0.00  0.00     0.001 C 
ATOM     11  C   UNL d   1      -1.886   2.448  -0.411  0.00  0.00     0.010 C 
BRANCH   6  12
ATOM     12  C   UNL d   1      -2.029   0.228   0.835  0.00  0.00     0.119 C 
BRANCH  12  13
ATOM     13  C   UNL d   1      -1.813   0.770   2.231  0.00  0.00     0.140 C 
ATOM     14  O   UNL d   1      -1.012   1.632   2.549  0.00  0.00    -0.650 OA
BRANCH  13  15
ATOM     15  O   UNL d   1      -2.595   0.148   3.144  0.00  0.00    -0.776 OA
ATOM     16  H   UNL d   1      -3.168  -0.552   2.765  0.00  0.00     0.167 HD
ENDBRANCH  13  15
ENDBRANCH  12  13
ENDBRANCH   6  12
ENDBRANCH   5   6
ENDBRANCH   1   5
BRANCH   2  17
ATOM     17  C   UNL d   1       2.219  -1.724   1.411  0.00  0.00     0.161 C 
BRANCH  17  18
ATOM     18  C   UNL d   1       1.565  -3.080   1.420  0.00  0.00    -0.040 A 
ATOM     19  C   UNL d   1       1.494  -3.838   0.243  0.00  0.00     0.011 A 
ATOM     20  C   UNL d   1       0.885  -5.097   0.233  0.00  0.00     0.037 A 
ATOM     21  C   UNL d   1       0.333  -5.616   1.402  0.00  0.00     0.068 A 
ATOM     22  C   UNL d   1       0.405  -4.867   2.579  0.00  0.00     0.037 A 
ATOM     23  C   UNL d   1       1.013  -3.608   2.592  0.00  0.00     0.011 A 
BRANCH  21  24
ATOM     24  O   UNL d   1      -0.302  -6.822   1.524  0.00  0.00    -0.356 OA
ATOM     25  C   UNL d   1      -0.397  -7.615   0.346  0.00  0.00     0.210 C 
ENDBRANCH  21  24
ENDBRANCH  17  18
ENDBRANCH   2  17
TORSDOF 8
