REMARK  5 active torsions:
REMARK  status: ('A' for Active; 'I' for Inactive)
REMARK    1  A    between atoms: N_7  and  C_1 
REMARK    2  A    between atoms: C_11  and  N_5 
REMARK    3  A    between atoms: S_14  and  C_6 
REMARK       I    between atoms: C_8  and  N_7 
REMARK    4  A    between atoms: C_19  and  C_8 
REMARK    5  A    between atoms: C_12  and  C_11 
ROOT
ATOM      1  C   UNL d   1      -0.081  -1.226   0.069  0.00  0.00     0.148 A 
ATOM      2  N   UNL d   1       1.165  -0.756   0.297  0.00  0.00    -0.320 N 
ATOM      3  HN  UNL d   1       2.011  -1.315   0.408  1.00  0.00     0.169 HD
ATOM      4  C   UNL d   1      -0.979  -0.175  -0.001  0.00  0.00     0.163 A 
ATOM      5  N   UNL d   1      -0.202   0.967   0.147  0.00  0.00    -0.309 N 
ATOM      6  C   UNL d   1       1.084   0.542   0.348  0.00  0.00     0.149 A 
ATOM      7  C   UNL d   1      -2.382  -0.220  -0.191  0.00  0.00     0.122 C 
ATOM      8  N   UNL d   1      -3.530  -0.277  -0.359  0.00  0.00    -0.190 NA
ENDROOT
BRANCH   1   9
ATOM      9  N   UNL d   1      -0.306  -2.585  -0.041  0.00  0.00    -0.310 N 
ATOM     10  C   UNL d   1       0.744  -3.498  -0.000  0.00  0.00     0.226 C 
ATOM     11  O   UNL d   1       1.941  -3.218   0.025  0.00  0.00    -0.273 OA
ATOM     12  H   UNL d   1      -1.254  -2.907  -0.170  0.00  0.00     0.170 HD
BRANCH  10  13
ATOM     13  C   UNL d   1       0.305  -4.962  -0.027  0.00  0.00     0.070 C 
ATOM     14  C   UNL d   1       1.543  -5.869  -0.018  0.00  0.00     0.019 C 
ATOM     15  C   UNL d   1      -0.584  -5.301   1.165  0.00  0.00     0.019 C 
ENDBRANCH  10  13
ENDBRANCH   1   9
BRANCH   5  16
ATOM     16  C   UNL d   1      -0.653   2.347   0.046  0.00  0.00     0.197 C 
BRANCH  16  17
ATOM     17  C   UNL d   1      -1.011   2.881   1.381  0.00  0.00     0.070 A 
ATOM     18  O   UNL d   1      -2.313   2.738   1.760  0.00  0.00    -0.325 OA
ATOM     19  C   UNL d   1      -2.429   3.281   2.998  0.00  0.00     0.142 A 
ATOM     20  C   UNL d   1      -1.218   3.775   3.422  0.00  0.00     0.027 A 
ATOM     21  C   UNL d   1      -0.302   3.528   2.373  0.00  0.00     0.036 A 
ENDBRANCH  16  17
ENDBRANCH   5  16
BRANCH   6  22
ATOM     22  S   UNL d   1       2.464   1.545   0.632  0.00  0.00    -0.098 SA
ATOM     23  C   UNL d   1       3.687   0.235   0.971  0.00  0.00     0.099 C 
ENDBRANCH   6  22
TORSDOF 5
