REMARK  2 active torsions:
REMARK  status: ('A' for Active; 'I' for Inactive)
REMARK    1  A    between atoms: C_8  and  C_3 
REMARK    2  A    between atoms: O_14  and  N_9 
ROOT
ATOM      1  C   UNL d   1       1.286  -1.502   0.007  0.00  0.00     0.057 A 
ATOM      2  C   UNL d   1       0.003  -0.780   0.001  0.00  0.00     0.023 A 
ATOM      3  C   UNL d   1       2.414  -0.777  -0.005  0.00  0.00     0.006 A 
ATOM      4  O   UNL d   1       1.145   1.381   0.018  0.00  0.00    -0.346 OA
ATOM      5  C   UNL d   1       0.013   0.621   0.005  0.00  0.00     0.081 A 
ATOM      6  C   UNL d   1       2.415   0.721  -0.027  0.00  0.00     0.217 A 
ATOM      7  C   UNL d   1      -1.245  -1.427  -0.005  0.00  0.00     0.058 A 
ATOM      8 CL   UNL d   1       1.274  -3.232   0.027  0.00  0.00    -0.083 Cl
ATOM      9  C   UNL d   1      -1.182   1.353   0.005  0.00  0.00     0.040 A 
ATOM     10  C   UNL d   1      -2.427  -0.690  -0.005  0.00  0.00     0.117 A 
ATOM     11  C   UNL d   1      -2.408   0.696  -0.000  0.00  0.00     0.045 A 
ATOM     12  F   UNL d   1      -3.602  -1.333  -0.009  0.00  0.00    -0.206 F 
ENDROOT
BRANCH   3  13
ATOM     13  C   UNL d   1       3.763  -1.403  -0.000  0.00  0.00     0.124 C 
ATOM     14  N   UNL d   1       4.856  -0.707  -0.013  0.00  0.00    -0.280 N 
ATOM     15  HN  UNL d   1       4.911   0.311  -0.029  1.00  0.00     0.193 HD
BRANCH  14  16
ATOM     16  O   UNL d   1       5.950  -1.581  -0.000  0.00  0.00    -0.290 OA
ATOM     17  H   UNL d   1       6.710  -0.970  -0.005  0.00  0.00     0.244 HD
ENDBRANCH  14  16
ENDBRANCH   3  13
TORSDOF 2
