REMARK  6 active torsions:
REMARK  status: ('A' for Active; 'I' for Inactive)
REMARK    1  A    between atoms: C_8  and  C_1 
REMARK    2  A    between atoms: N_4  and  C_9 
REMARK    3  A    between atoms: C_7  and  C_9 
REMARK    4  A    between atoms: O_13  and  C_7 
REMARK    5  A    between atoms: C_9  and  C_8 
REMARK    6  A    between atoms: C_14  and  C_11 
ROOT
ATOM      1  C   UNL d   1      -0.782  -3.592   0.181  0.00  0.00     0.185 C 
ENDROOT
BRANCH   1   2
ATOM      2  N   UNL d   1       0.054  -3.299   1.371  0.00  0.00    -0.384 N 
ATOM      3  C   UNL d   1      -0.461  -3.471   2.537  0.00  0.00     0.095 C 
ATOM      4  HN  UNL d   1       1.013  -2.969   1.267  1.00  0.00     0.159 HD
BRANCH   3   5
ATOM      5  C   UNL d   1       0.283  -3.126   3.767  0.00  0.00    -0.021 A 
ATOM      6  C   UNL d   1       1.562  -2.566   3.692  0.00  0.00     0.013 A 
ATOM      7  C   UNL d   1       2.232  -2.203   4.861  0.00  0.00     0.001 A 
ATOM      8  C   UNL d   1       1.625  -2.400   6.102  0.00  0.00     0.000 A 
ATOM      9  C   UNL d   1       0.351  -2.964   6.177  0.00  0.00     0.001 A 
ATOM     10  C   UNL d   1      -0.323  -3.330   5.010  0.00  0.00     0.013 A 
ENDBRANCH   3   5
ENDBRANCH   1   2
BRANCH   1  11
ATOM     11  C   UNL d   1      -1.337  -5.018   0.211  0.00  0.00     0.281 C 
ATOM     12  O   UNL d   1      -2.311  -5.378   0.867  0.00  0.00    -0.263 OA
BRANCH  11  13
ATOM     13  O   UNL d   1      -0.615  -5.838  -0.609  0.00  0.00    -0.325 OA
ATOM     14  C   UNL d   1      -1.108  -7.175  -0.683  0.00  0.00     0.213 C 
ENDBRANCH  11  13
ENDBRANCH   1  11
BRANCH   1  15
ATOM     15  C   UNL d   1      -1.949  -2.611   0.009  0.00  0.00     0.076 C 
BRANCH  15  16
ATOM     16  C   UNL d   1      -1.574  -1.188  -0.297  0.00  0.00    -0.028 A 
ATOM     17  C   UNL d   1      -1.220  -0.680  -1.533  0.00  0.00     0.096 A 
ATOM     18  N   UNL d   1      -1.110   0.681  -1.426  0.00  0.00    -0.365 N 
ATOM     19  C   UNL d   1      -1.408   1.082  -0.145  0.00  0.00     0.042 A 
ATOM     20  H   UNL d   1      -0.886   1.309  -2.184  0.00  0.00     0.165 HD
ATOM     21  C   UNL d   1      -1.633  -0.073   0.604  0.00  0.00    -0.002 A 
ATOM     22  C   UNL d   1      -1.509   2.371   0.397  0.00  0.00     0.030 A 
ATOM     23  C   UNL d   1      -1.913   0.067   1.979  0.00  0.00     0.014 A 
ATOM     24  C   UNL d   1      -2.009   1.346   2.539  0.00  0.00     0.001 A 
ATOM     25  C   UNL d   1      -1.828   2.480   1.753  0.00  0.00     0.002 A 
ENDBRANCH  15  16
ENDBRANCH   1  15
TORSDOF 6
