REMARK  3 active torsions:
REMARK  status: ('A' for Active; 'I' for Inactive)
REMARK    1  A    between atoms: C_7  and  N_1 
REMARK    2  A    between atoms: C_6  and  C_8 
REMARK       I    between atoms: N_10  and  C_6 
REMARK    3  A    between atoms: N_15  and  N_10 
ROOT
ATOM      1  C   UNL d   1       2.144  -1.499  -0.051  0.00  0.00     0.039 A 
ATOM      2  C   UNL d   1       4.498  -3.040  -0.255  0.00  0.00     0.033 A 
ATOM      3  C   UNL d   1       2.383  -2.289  -1.185  0.00  0.00     0.031 A 
ATOM      4  C   UNL d   1       3.080  -1.503   0.989  0.00  0.00     0.031 A 
ATOM      5  C   UNL d   1       3.550  -3.055  -1.287  0.00  0.00     0.019 A 
ATOM      6  C   UNL d   1       4.252  -2.260   0.879  0.00  0.00     0.019 A 
ENDROOT
BRANCH   1   7
ATOM      7  N   UNL d   1       0.975  -0.675   0.020  0.00  0.00    -0.320 N 
ATOM      8  C   UNL d   1      -0.309  -1.021  -0.413  0.00  0.00     0.013 A 
ATOM      9  C   UNL d   1      -1.142   0.064  -0.217  0.00  0.00     0.027 A 
ATOM     10  C   UNL d   1      -0.736  -2.360  -0.914  0.00  0.00     0.068 C 
ATOM     11  C   UNL d   1      -0.387   1.087   0.371  0.00  0.00     0.027 A 
ATOM     12  C   UNL d   1       0.912   0.635   0.505  0.00  0.00     0.013 A 
ATOM     13  C   UNL d   1       2.063   1.456   0.985  0.00  0.00     0.068 C 
ENDBRANCH   1   7
BRANCH   2  14
ATOM     14  C   UNL d   1       5.799  -3.775  -0.338  0.00  0.00     0.265 C 
ATOM     15  O   UNL d   1       6.717  -3.502   0.431  0.00  0.00    -0.266 OA
ATOM     16  N   UNL d   1       5.913  -4.766  -1.308  0.00  0.00    -0.290 N 
ATOM     17  H   UNL d   1       5.100  -5.123  -1.799  0.00  0.00     0.183 HD
BRANCH  16  18
ATOM     18  N   UNL d   1       7.116  -5.505  -1.393  0.00  0.00    -0.247 NA
ATOM     19  H   UNL d   1       7.605  -5.371  -0.496  0.00  0.00     0.143 HD
ATOM     20  H   UNL d   1       7.724  -5.028  -2.064  0.00  0.00     0.143 HD
ENDBRANCH  16  18
ENDBRANCH   2  14
TORSDOF 3
