REMARK  4 active torsions:
REMARK  status: ('A' for Active; 'I' for Inactive)
REMARK    1  A    between atoms: C_3  and  C_1 
REMARK    2  A    between atoms: C_7  and  C_2 
REMARK    3  A    between atoms: C_6  and  C_17 
REMARK       I    between atoms: N_16  and  C_7 
REMARK    4  A    between atoms: N_10  and  N_16 
ROOT
ATOM      1  C   UNL d   1      -2.990  -1.263   0.041  0.00  0.00     0.272 C 
ATOM      2  N   UNL d   1      -4.052  -0.375  -0.121  0.00  0.00    -0.266 N 
ATOM      3  O   UNL d   1      -3.091  -2.470   0.224  0.00  0.00    -0.266 OA
ATOM      4  H   UNL d   1      -3.849   0.579  -0.402  0.00  0.00     0.190 HD
ENDROOT
BRANCH   1   5
ATOM      5  C   UNL d   1      -1.690  -0.608  -0.105  0.00  0.00     0.069 A 
ATOM      6  C   UNL d   1      -0.504  -1.150  -0.754  0.00  0.00     0.068 A 
ATOM      7  N   UNL d   1       0.517  -0.290  -0.855  0.00  0.00    -0.325 N 
ATOM      8  S   UNL d   1       0.169   1.106  -0.057  0.00  0.00    -0.025 SA
ATOM      9  HN  UNL d   1       1.387  -0.474  -1.355  1.00  0.00     0.174 HD
ATOM     10  C   UNL d   1      -1.413   0.661   0.383  0.00  0.00     0.087 A 
BRANCH   6  11
ATOM     11  C   UNL d   1      -0.326  -2.492  -1.335  0.00  0.00     0.036 A 
ATOM     12  C   UNL d   1      -1.138  -2.963  -2.383  0.00  0.00     0.048 A 
ATOM     13 CL   UNL d   1      -2.372  -1.996  -3.126  0.00  0.00    -0.083 Cl
ATOM     14  C   UNL d   1      -0.939  -4.240  -2.930  0.00  0.00     0.025 A 
ATOM     15  C   UNL d   1       0.099  -5.050  -2.478  0.00  0.00     0.003 A 
ATOM     16  C   UNL d   1       0.933  -4.591  -1.465  0.00  0.00     0.025 A 
ATOM     17  C   UNL d   1       0.717  -3.333  -0.885  0.00  0.00     0.048 A 
ATOM     18 CL   UNL d   1       1.792  -2.900   0.409  0.00  0.00    -0.083 Cl
ENDBRANCH   6  11
ENDBRANCH   1   5
BRANCH   2  19
ATOM     19  N   UNL d   1      -5.340  -0.817  -0.261  0.00  0.00    -0.308 N 
ATOM     20  C   UNL d   1      -6.206   0.117  -0.509  0.00  0.00     0.122 C 
ATOM     21  HN  UNL d   1      -5.598  -1.800  -0.178  1.00  0.00     0.186 HD
BRANCH  20  22
ATOM     22  C   UNL d   1      -7.634  -0.139  -0.806  0.00  0.00     0.024 A 
ATOM     23  C   UNL d   1      -8.340  -1.234  -0.283  0.00  0.00     0.047 A 
ATOM     24 CL   UNL d   1      -7.681  -2.345   0.864  0.00  0.00    -0.083 Cl
ATOM     25  C   UNL d   1      -9.683  -1.439  -0.637  0.00  0.00     0.025 A 
ATOM     26  C   UNL d   1     -10.335  -0.559  -1.498  0.00  0.00     0.003 A 
ATOM     27  C   UNL d   1      -9.650   0.540  -2.004  0.00  0.00     0.025 A 
ATOM     28  C   UNL d   1      -8.310   0.753  -1.661  0.00  0.00     0.047 A 
ATOM     29 CL   UNL d   1      -7.550   2.141  -2.369  0.00  0.00    -0.083 Cl
ENDBRANCH  20  22
ENDBRANCH   2  19
TORSDOF 4
