REMARK  3 active torsions:
REMARK  status: ('A' for Active; 'I' for Inactive)
REMARK    1  A    between atoms: O_4  and  C_1 
REMARK       I    between atoms: N_5  and  C_1 
REMARK    2  A    between atoms: C_3  and  O_4 
REMARK    3  A    between atoms: C_13  and  N_5 
ROOT
ATOM      1  C   UNL d   1       0.737  -0.767   0.073  0.00  0.00     0.365 C 
ATOM      2  N   UNL d   1       2.097  -0.810   0.229  0.00  0.00    -0.303 N 
ATOM      3  O   UNL d   1       0.004  -1.221   0.945  0.00  0.00    -0.238 OA
ATOM      4  H   UNL d   1       2.349  -1.322   1.064  0.00  0.00     0.171 HD
ENDROOT
BRANCH   1   5
ATOM      5  O   UNL d   1       0.291  -0.257  -1.106  0.00  0.00    -0.296 OA
BRANCH   5   6
ATOM      6  C   UNL d   1      -1.136  -0.302  -1.283  0.00  0.00     0.166 C 
ATOM      7  C   UNL d   1      -1.621  -1.740  -1.604  0.00  0.00     0.305 C 
ATOM      8  N   UNL d   1      -2.460  -1.791  -2.830  0.00  0.00     0.090 N 
ATOM      9  C   UNL d   1      -1.622  -1.388  -3.980  0.00  0.00     0.273 C 
ATOM     10  C   UNL d   1      -3.574  -0.827  -2.689  0.00  0.00     0.273 C 
ATOM     11  C   UNL d   1      -1.012   0.007  -3.778  0.00  0.00     0.037 C 
ATOM     12  C   UNL d   1      -1.532   0.614  -2.462  0.00  0.00     0.020 C 
ATOM     13  C   UNL d   1      -3.067   0.618  -2.541  0.00  0.00     0.037 C 
ENDBRANCH   5   6
ENDBRANCH   1   5
BRANCH   2  14
ATOM     14  C   UNL d   1       3.150  -0.253  -0.517  0.00  0.00     0.037 A 
ATOM     15  C   UNL d   1       2.984   0.662  -1.559  0.00  0.00     0.032 A 
ATOM     16  C   UNL d   1       4.098   1.225  -2.192  0.00  0.00     0.044 A 
ATOM     17  C   UNL d   1       5.377   0.867  -1.787  0.00  0.00     0.116 A 
ATOM     18  C   UNL d   1       5.566  -0.056  -0.770  0.00  0.00     0.044 A 
ATOM     19  F   UNL d   1       6.439   1.427  -2.379  0.00  0.00    -0.206 F 
ATOM     20  C   UNL d   1       4.453  -0.614  -0.134  0.00  0.00     0.032 A 
ENDBRANCH   2  14
TORSDOF 3
