REMARK  5 active torsions:
REMARK  status: ('A' for Active; 'I' for Inactive)
REMARK    1  A    between atoms: C_13  and  N_1 
REMARK    2  A    between atoms: C_4  and  C_2 
REMARK       I    between atoms: N_9  and  C_4 
REMARK    3  A    between atoms: C_12  and  N_9 
REMARK    4  A    between atoms: C_23  and  C_13 
REMARK    5  A    between atoms: C_22  and  C_23 
ROOT
ATOM      1  C   UNL d   1      -1.711   0.709  -1.759  0.00  0.00     0.228 C 
ATOM      2  N   UNL d   1      -0.742   0.208  -2.615  0.00  0.00    -0.327 N 
ATOM      3  O   UNL d   1      -2.804   1.136  -2.123  0.00  0.00    -0.273 OA
ATOM      4  H   UNL d   1       0.018  -0.332  -2.218  0.00  0.00     0.169 HD
ENDROOT
BRANCH   1   5
ATOM      5  C   UNL d   1      -1.391   0.735  -0.259  0.00  0.00     0.105 C 
ATOM      6  C   UNL d   1      -1.234  -0.627   0.376  0.00  0.00     0.140 C 
ATOM      7  N   UNL d   1       0.188  -0.876   0.319  0.00  0.00    -0.351 N 
ATOM      8  C   UNL d   1       0.901   0.300   0.115  0.00  0.00     0.220 C 
ATOM      9  C   UNL d   1      -0.085   1.442   0.079  0.00  0.00     0.118 C 
ATOM     10  O   UNL d   1       2.101   0.422  -0.047  0.00  0.00    -0.273 OA
BRANCH   7  11
ATOM     11  C   UNL d   1       0.688  -2.248   0.244  0.00  0.00     0.130 C 
BRANCH  11  12
ATOM     12  C   UNL d   1       2.193  -2.450   0.432  0.00  0.00     0.058 C 
BRANCH  12  13
ATOM     13  C   UNL d   1       2.597  -3.892   0.217  0.00  0.00    -0.057 A 
ATOM     14  C   UNL d   1       2.894  -4.346  -1.077  0.00  0.00     0.009 A 
ATOM     15  C   UNL d   1       3.286  -5.668  -1.294  0.00  0.00     0.024 A 
ATOM     16  C   UNL d   1       3.378  -6.546  -0.218  0.00  0.00     0.034 A 
ATOM     17  C   UNL d   1       3.074  -6.114   1.072  0.00  0.00     0.024 A 
ATOM     18 CL   UNL d   1       3.876  -8.171  -0.483  0.00  0.00    -0.084 Cl
ATOM     19  C   UNL d   1       2.680  -4.790   1.290  0.00  0.00     0.009 A 
ENDBRANCH  12  13
ENDBRANCH  11  12
ENDBRANCH   7  11
ENDBRANCH   1   5
BRANCH   2  20
ATOM     20  C   UNL d   1      -0.702   0.384  -4.029  0.00  0.00     0.035 A 
ATOM     21  C   UNL d   1      -1.531   1.271  -4.720  0.00  0.00     0.043 A 
ATOM     22  C   UNL d   1      -1.357   1.521  -6.100  0.00  0.00    -0.007 A 
ATOM     23  C   UNL d   1      -2.148   2.452  -6.788  0.00  0.00     0.015 A 
ATOM     24  C   UNL d   1      -0.348   0.862  -6.824  0.00  0.00     0.042 A 
ATOM     25  C   UNL d   1      -1.895   2.726  -8.127  0.00  0.00     0.025 A 
ATOM     26  C   UNL d   1      -0.853   2.059  -8.754  0.00  0.00     0.005 A 
ATOM     27  N   UNL d   1      -0.103   1.122  -8.121  0.00  0.00    -0.359 N 
ATOM     28  C   UNL d   1      -0.515   2.369 -10.184  0.00  0.00     0.068 C 
ATOM     29  HN  UNL d   1       0.634   0.624  -8.620  1.00  0.00     0.166 HD
ATOM     30  C   UNL d   1       0.432  -0.064  -6.138  0.00  0.00     0.033 A 
ATOM     31  C   UNL d   1       0.272  -0.301  -4.761  0.00  0.00     0.032 A 
ENDBRANCH   2  20
TORSDOF 5
