REMARK  3 active torsions:
REMARK  status: ('A' for Active; 'I' for Inactive)
REMARK    1  A    between atoms: O_11  and  C_1 
REMARK    2  A    between atoms: C_10  and  C_14 
REMARK    3  A    between atoms: C_14  and  O_11 
ROOT
ATOM      1  O   UNL d   1       0.032  -3.500  -0.015  0.00  0.00    -0.347 OA
ENDROOT
BRANCH   1   2
ATOM      2  C   UNL d   1      -0.071  -2.136  -0.016  0.00  0.00     0.072 A 
ATOM      3  C   UNL d   1      -1.257  -1.402  -0.022  0.00  0.00     0.060 A 
ATOM      4  C   UNL d   1      -1.210  -0.005  -0.027  0.00  0.00     0.038 A 
ATOM      5 CL   UNL d   1      -2.679   0.893  -0.036  0.00  0.00    -0.084 Cl
ATOM      6  C   UNL d   1       0.007   0.670  -0.026  0.00  0.00     0.048 A 
ATOM      7  C   UNL d   1       1.187  -0.066  -0.018  0.00  0.00     0.038 A 
ATOM      8  C   UNL d   1       1.153  -1.460  -0.013  0.00  0.00     0.060 A 
ATOM      9 CL   UNL d   1       2.701   0.751  -0.016  0.00  0.00    -0.084 Cl
ENDBRANCH   1   2
BRANCH   1  10
ATOM     10  C   UNL d   1      -1.186  -4.246  -0.017  0.00  0.00     0.214 C 
BRANCH  10  11
ATOM     11  C   UNL d   1      -0.896  -5.730  -0.030  0.00  0.00    -0.028 A 
ATOM     12  C   UNL d   1       0.244  -6.271   0.584  0.00  0.00     0.051 A 
ATOM     13  C   UNL d   1       0.459  -7.649   0.576  0.00  0.00     0.119 A 
ATOM     14  F   UNL d   1       1.559  -8.146   1.157  0.00  0.00    -0.206 F 
ATOM     15  C   UNL d   1      -0.445  -8.515  -0.022  0.00  0.00     0.084 A 
ATOM     16  C   UNL d   1      -1.580  -7.984  -0.614  0.00  0.00     0.119 A 
ATOM     17  C   UNL d   1      -1.817  -6.611  -0.620  0.00  0.00     0.051 A 
ATOM     18  F   UNL d   1      -2.468  -8.803  -1.192  0.00  0.00    -0.206 F 
ENDBRANCH  10  11
ENDBRANCH   1  10
TORSDOF 3
