REMARK  7 active torsions:
REMARK  status: ('A' for Active; 'I' for Inactive)
REMARK    1  A    between atoms: C_6  and  C_1 
REMARK    2  A    between atoms: C_7  and  C_2 
REMARK    3  A    between atoms: S_4  and  C_3 
REMARK    4  A    between atoms: C_5  and  S_4 
REMARK    5  A    between atoms: O_13  and  C_6 
REMARK    6  A    between atoms: O_14  and  C_7 
REMARK    7  A    between atoms: O_17  and  C_12 
ROOT
ATOM      1  C   UNL d   1       1.344  -0.061  -0.324  0.00  0.00     0.057 A 
ATOM      2  C   UNL d   1       0.554  -1.228  -0.330  0.00  0.00     0.022 A 
ATOM      3  C   UNL d   1       0.719   1.198  -0.187  0.00  0.00     0.056 A 
ATOM      4  C   UNL d   1      -0.840  -1.083  -0.219  0.00  0.00     0.023 A 
ATOM      5  C   UNL d   1      -0.665   1.320  -0.054  0.00  0.00     0.069 A 
ATOM      6  C   UNL d   1      -1.445   0.173  -0.093  0.00  0.00     0.038 A 
ENDROOT
BRANCH   2   7
ATOM      7  S   UNL d   1       1.162  -2.904  -0.180  0.00  0.00    -0.088 SA
BRANCH   7   8
ATOM      8  C   UNL d   1       1.334  -3.544  -1.844  0.00  0.00     0.022 A 
ATOM      9  C   UNL d   1       0.313  -4.141  -2.611  0.00  0.00     0.054 A 
ATOM     10  C   UNL d   1       0.638  -4.837  -3.794  0.00  0.00     0.020 A 
ATOM     11  C   UNL d   1       1.962  -4.961  -4.210  0.00  0.00     0.001 A 
ATOM     12  C   UNL d   1       2.971  -4.355  -3.473  0.00  0.00     0.001 A 
ATOM     13  C   UNL d   1       2.660  -3.650  -2.307  0.00  0.00     0.020 A 
BRANCH   9  14
ATOM     14  C   UNL d   1      -1.137  -4.134  -2.280  0.00  0.00     0.177 C 
ATOM     15  O   UNL d   1      -2.003  -4.040  -3.129  0.00  0.00    -0.646 OA
BRANCH  14  16
ATOM     16  O   UNL d   1      -1.414  -4.340  -0.978  0.00  0.00    -0.773 OA
ATOM     17  H   UNL d   1      -0.625  -4.423  -0.408  0.00  0.00     0.167 HD
ENDBRANCH  14  16
ENDBRANCH   9  14
ENDBRANCH   7   8
ENDBRANCH   2   7
BRANCH   1  18
ATOM     18  C   UNL d   1       2.830  -0.002  -0.449  0.00  0.00     0.177 C 
ATOM     19  O   UNL d   1       3.404   0.965  -0.922  0.00  0.00    -0.646 OA
BRANCH  18  20
ATOM     20  O   UNL d   1       3.505  -1.055   0.051  0.00  0.00    -0.773 OA
ATOM     21  H   UNL d   1       2.938  -1.741   0.452  0.00  0.00     0.167 HD
ENDBRANCH  18  20
ENDBRANCH   1  18
BRANCH   5  22
ATOM     22  O   UNL d   1      -1.122   2.594   0.131  0.00  0.00    -0.356 OA
ATOM     23  C   UNL d   1      -2.531   2.769   0.237  0.00  0.00     0.210 C 
ENDBRANCH   5  22
TORSDOF 7
