REMARK  3 active torsions:
REMARK  status: ('A' for Active; 'I' for Inactive)
REMARK    1  A    between atoms: C_9  and  N_1 
REMARK    2  A    between atoms: C_8  and  C_2 
REMARK    3  A    between atoms: C_10  and  C_8 
ROOT
ATOM      1  N   UNL d   1       0.327   0.002   1.073  0.00  0.00    -0.311 N 
ATOM      2  C   UNL d   1       0.912   0.547  -0.019  0.00  0.00     0.104 A 
ATOM      3  C   UNL d   1      -0.717  -0.747   0.580  0.00  0.00     0.194 A 
ATOM      4  N   UNL d   1       0.343   0.231  -1.151  0.00  0.00    -0.286 N 
ATOM      5  HN  UNL d   1       0.610   0.528  -2.089  1.00  0.00     0.188 HD
ATOM      6  N   UNL d   1      -0.686  -0.584  -0.795  0.00  0.00    -0.275 N 
ATOM      7  S   UNL d   1      -1.840  -1.675   1.367  0.00  0.00    -0.039 SA
ATOM      8  H   UNL d   1      -1.321  -0.990  -1.473  0.00  0.00     0.189 HD
ENDROOT
BRANCH   2   9
ATOM      9  C   UNL d   1       2.122   1.445   0.031  0.00  0.00     0.116 C 
BRANCH   9  10
ATOM     10  C   UNL d   1       3.452   0.723   0.010  0.00  0.00    -0.051 A 
ATOM     11  C   UNL d   1       3.633  -0.494  -0.663  0.00  0.00     0.007 A 
ATOM     12  C   UNL d   1       4.884  -1.114  -0.692  0.00  0.00     0.001 A 
ATOM     13  C   UNL d   1       5.976  -0.515  -0.070  0.00  0.00     0.000 A 
ATOM     14  C   UNL d   1       5.820   0.709   0.574  0.00  0.00     0.001 A 
ATOM     15  C   UNL d   1       4.568   1.327   0.610  0.00  0.00     0.007 A 
ENDBRANCH   9  10
ENDBRANCH   2   9
BRANCH   1  16
ATOM     16  C   UNL d   1       0.697   0.154   2.478  0.00  0.00     0.128 C 
ATOM     17  C   UNL d   1       1.601  -0.964   2.971  0.00  0.00     0.027 C 
ENDBRANCH   1  16
TORSDOF 3
