REMARK  4 active torsions:
REMARK  status: ('A' for Active; 'I' for Inactive)
REMARK    1  A    between atoms: C_13  and  N_1 
REMARK    2  A    between atoms: N_8  and  C_7 
REMARK    3  A    between atoms: C_14  and  N_8 
REMARK    4  A    between atoms: C_18  and  C_13 
ROOT
ATOM      1  N   UNL d   1       1.459   1.076   0.014  0.00  0.00    -0.254 N 
ATOM      2  C   UNL d   1       0.231  -0.704  -0.002  0.00  0.00     0.136 A 
ATOM      3  C   UNL d   1       0.155   0.675  -0.060  0.00  0.00     0.154 A 
ATOM      4  N   UNL d   1       2.292   0.016   0.153  0.00  0.00    -0.018 NA
ATOM      5  N   UNL d   1       1.542  -1.085   0.138  0.00  0.00    -0.277 N 
ATOM      6  HN  UNL d   1       1.883  -2.043   0.216  1.00  0.00     0.184 HD
ATOM      7  C   UNL d   1      -0.973  -1.415  -0.110  0.00  0.00     0.139 A 
ATOM      8  N   UNL d   1      -0.949   1.434  -0.171  0.00  0.00    -0.336 N 
ATOM      9  HN  UNL d   1      -0.954   2.454  -0.187  1.00  0.00     0.168 HD
ATOM     10  N   UNL d   1      -2.117  -0.683  -0.256  0.00  0.00    -0.337 N 
ATOM     11  HN  UNL d   1      -3.017  -1.151  -0.362  1.00  0.00     0.168 HD
ATOM     12  C   UNL d   1      -2.048   0.663  -0.258  0.00  0.00     0.183 A 
ENDROOT
BRANCH   7  13
ATOM     13  N   UNL d   1      -1.040  -2.812  -0.039  0.00  0.00    -0.338 N 
ATOM     14  H   UNL d   1      -0.222  -3.268   0.353  0.00  0.00     0.167 HD
BRANCH  13  15
ATOM     15  C   UNL d   1      -1.942  -3.676  -0.683  0.00  0.00     0.072 A 
ATOM     16  C   UNL d   1      -2.245  -4.925  -0.126  0.00  0.00     0.143 A 
ATOM     17  F   UNL d   1      -1.647  -5.307   1.014  0.00  0.00    -0.204 F 
ATOM     18  C   UNL d   1      -3.167  -5.788  -0.717  0.00  0.00     0.044 A 
ATOM     19  C   UNL d   1      -3.800  -5.416  -1.901  0.00  0.00     0.003 A 
ATOM     20  C   UNL d   1      -3.518  -4.178  -2.474  0.00  0.00     0.002 A 
ATOM     21  C   UNL d   1      -2.611  -3.309  -1.859  0.00  0.00     0.033 A 
ENDBRANCH  13  15
ENDBRANCH   7  13
BRANCH   1  22
ATOM     22  C   UNL d   1       1.961   2.433   0.054  0.00  0.00     0.187 C 
BRANCH  22  23
ATOM     23  C   UNL d   1       2.193   2.989  -1.329  0.00  0.00    -0.039 A 
ATOM     24  C   UNL d   1       1.186   3.711  -1.988  0.00  0.00     0.009 A 
ATOM     25  C   UNL d   1       1.404   4.226  -3.268  0.00  0.00     0.001 A 
ATOM     26  C   UNL d   1       2.628   4.024  -3.903  0.00  0.00     0.000 A 
ATOM     27  C   UNL d   1       3.633   3.303  -3.261  0.00  0.00     0.001 A 
ATOM     28  C   UNL d   1       3.417   2.786  -1.982  0.00  0.00     0.009 A 
ENDBRANCH  22  23
ENDBRANCH   1  22
TORSDOF 4
