REMARK  4 active torsions:
REMARK  status: ('A' for Active; 'I' for Inactive)
REMARK    1  A    between atoms: C_5  and  C_1 
REMARK       I    between atoms: N_10  and  C_5 
REMARK    2  A    between atoms: N_11  and  N_6 
REMARK    3  A    between atoms: C_15  and  N_10 
REMARK    4  A    between atoms: C_14  and  N_11 
ROOT
ATOM      1  C   UNL d   1      -1.581  -1.581  -0.157  0.00  0.00     0.085 C 
ATOM      2  C   UNL d   1      -1.025   0.938  -0.043  0.00  0.00     0.110 C 
ATOM      3  C   UNL d   1      -2.043  -0.199   0.099  0.00  0.00     0.216 C 
ATOM      4  C   UNL d   1      -0.270  -1.809  -0.360  0.00  0.00     0.033 C 
ATOM      5  N   UNL d   1      -1.336   2.203  -0.102  0.00  0.00    -0.296 N 
ATOM      6  HN  UNL d   1      -0.604   2.907  -0.197  1.00  0.00     0.187 HD
ATOM      7  C   UNL d   1       0.408   0.568  -0.117  0.00  0.00     0.006 A 
ATOM      8  C   UNL d   1       0.753  -0.775  -0.258  0.00  0.00    -0.022 A 
ATOM      9  O   UNL d   1      -3.209   0.041   0.415  0.00  0.00    -0.285 OA
ATOM     10  C   UNL d   1       1.407   1.549  -0.024  0.00  0.00     0.015 A 
ATOM     11  C   UNL d   1       2.107  -1.136  -0.275  0.00  0.00     0.012 A 
ATOM     12  C   UNL d   1       2.752   1.180  -0.035  0.00  0.00     0.001 A 
ATOM     13  C   UNL d   1       3.101  -0.163  -0.150  0.00  0.00     0.001 A 
ENDROOT
BRANCH   5  14
ATOM     14  N   UNL d   1      -2.633   2.578  -0.039  0.00  0.00    -0.300 N 
ATOM     15  H   UNL d   1      -3.321   1.963   0.409  0.00  0.00     0.187 HD
BRANCH  14  16
ATOM     16  C   UNL d   1      -2.924   3.956  -0.000  0.00  0.00     0.048 A 
ATOM     17  C   UNL d   1      -1.936   4.931  -0.221  0.00  0.00     0.032 A 
ATOM     18  C   UNL d   1      -2.256   6.292  -0.269  0.00  0.00     0.026 A 
ATOM     19  C   UNL d   1      -3.578   6.691  -0.121  0.00  0.00     0.034 A 
ATOM     20  C   UNL d   1      -4.580   5.742   0.078  0.00  0.00     0.026 A 
ATOM     21 CL   UNL d   1      -3.981   8.360  -0.201  0.00  0.00    -0.084 Cl
ATOM     22  C   UNL d   1      -4.252   4.382   0.130  0.00  0.00     0.032 A 
ENDBRANCH  14  16
ENDBRANCH   5  14
BRANCH   1  23
ATOM     23  C   UNL d   1      -2.463  -2.795  -0.152  0.00  0.00     0.260 C 
ATOM     24  N   UNL d   1      -3.819  -2.556  -0.083  0.00  0.00    -0.323 N 
ATOM     25  H   UNL d   1      -4.119  -1.584  -0.043  0.00  0.00     0.169 HD
ATOM     26  O   UNL d   1      -1.945  -3.907  -0.221  0.00  0.00    -0.267 OA
BRANCH  24  27
ATOM     27  C   UNL d   1      -4.850  -3.527  -0.114  0.00  0.00     0.035 A 
ATOM     28  C   UNL d   1      -4.626  -4.907  -0.080  0.00  0.00     0.029 A 
ATOM     29  C   UNL d   1      -5.689  -5.809  -0.189  0.00  0.00     0.002 A 
ATOM     30  C   UNL d   1      -6.992  -5.342  -0.325  0.00  0.00     0.000 A 
ATOM     31  C   UNL d   1      -7.234  -3.970  -0.321  0.00  0.00     0.002 A 
ATOM     32  C   UNL d   1      -6.170  -3.068  -0.206  0.00  0.00     0.029 A 
ENDBRANCH  24  27
ENDBRANCH   1  23
TORSDOF 4
