REMARK  4 active torsions:
REMARK  status: ('A' for Active; 'I' for Inactive)
REMARK    1  A    between atoms: N_2  and  S_1 
REMARK    2  A    between atoms: C_7  and  S_1 
REMARK    3  A    between atoms: C_3  and  N_2 
REMARK    4  A    between atoms: C_9  and  N_2 
ROOT
ATOM      1  N   UNL d   1       0.652  -0.952  -1.500  0.00  0.00    -0.271 N 
ENDROOT
BRANCH   1   2
ATOM      2  S   UNL d   1       0.976  -0.074  -0.077  0.00  0.00     0.265 S 
ATOM      3  O   UNL d   1       0.247  -0.626   1.046  0.00  0.00    -0.200 OA
ATOM      4  O   UNL d   1       0.906   1.341  -0.385  0.00  0.00    -0.200 OA
BRANCH   2   5
ATOM      5  C   UNL d   1       2.700  -0.462   0.196  0.00  0.00     0.080 A 
ATOM      6  C   UNL d   1       3.692   0.338  -0.379  0.00  0.00     0.025 A 
ATOM      7  C   UNL d   1       5.034   0.083  -0.091  0.00  0.00     0.002 A 
ATOM      8  C   UNL d   1       5.379  -0.957   0.774  0.00  0.00     0.000 A 
ATOM      9  C   UNL d   1       4.386  -1.749   1.353  0.00  0.00     0.002 A 
ATOM     10  C   UNL d   1       3.042  -1.502   1.069  0.00  0.00     0.025 A 
ENDBRANCH   2   5
ENDBRANCH   1   2
BRANCH   1  11
ATOM     11  C   UNL d   1      -0.176  -2.119  -1.351  0.00  0.00     0.056 A 
ATOM     12  C   UNL d   1      -1.596  -2.052  -1.298  0.00  0.00     0.002 A 
ATOM     13  C   UNL d   1      -2.314  -3.249  -1.041  0.00  0.00    -0.024 A 
ATOM     14  C   UNL d   1      -2.349  -0.865  -1.462  0.00  0.00     0.014 A 
ATOM     15  C   UNL d   1      -3.715  -3.225  -0.949  0.00  0.00     0.012 A 
ATOM     16  C   UNL d   1      -1.618  -4.455  -0.855  0.00  0.00     0.012 A 
ATOM     17  C   UNL d   1      -4.427  -2.039  -1.120  0.00  0.00     0.001 A 
ATOM     18  C   UNL d   1      -3.744  -0.860  -1.383  0.00  0.00     0.001 A 
ATOM     19  C   UNL d   1      -0.229  -4.501  -0.919  0.00  0.00     0.003 A 
ATOM     20  C   UNL d   1       0.491  -3.335  -1.165  0.00  0.00     0.031 A 
ENDBRANCH   1  11
BRANCH   1  21
ATOM     21  C   UNL d   1       0.774  -0.246  -2.794  0.00  0.00     0.137 C 
ATOM     22  C   UNL d   1       1.103  -1.178  -3.949  0.00  0.00     0.028 C 
ENDBRANCH   1  21
TORSDOF 4
