REMARK  1 active torsions:
REMARK  status: ('A' for Active; 'I' for Inactive)
REMARK       I    between atoms: N_2  and  C_1 
REMARK       I    between atoms: N_4  and  C_1 
REMARK    1  A    between atoms: C_5  and  N_4 
ROOT
ATOM      1  C   UNL d   1       0.926  -0.015   0.030  0.00  0.00     0.327 C 
ATOM      2  N   UNL d   1       0.304  -0.193   1.284  0.00  0.00    -0.299 N 
ATOM      3  C   UNL d   1      -0.824  -1.089   1.422  0.00  0.00     0.045 A 
ATOM      4  N   UNL d   1       2.010   0.848   0.017  0.00  0.00    -0.308 N 
ATOM      5  O   UNL d   1       0.518  -0.547  -1.002  0.00  0.00    -0.246 OA
ATOM      6  C   UNL d   1      -1.802  -0.850   2.411  0.00  0.00    -0.031 A 
ATOM      7  C   UNL d   1       0.595   0.605   2.487  0.00  0.00     0.134 C 
ATOM      8  C   UNL d   1      -0.987  -2.211   0.593  0.00  0.00     0.030 A 
ATOM      9  C   UNL d   1      -0.650   1.313   2.990  0.00  0.00     0.025 C 
ATOM     10  C   UNL d   1      -1.702   0.293   3.387  0.00  0.00     0.042 C 
ATOM     11  C   UNL d   1      -2.920  -1.699   2.514  0.00  0.00     0.009 A 
ATOM     12  C   UNL d   1      -2.100  -3.047   0.704  0.00  0.00     0.002 A 
ATOM     13  C   UNL d   1      -3.074  -2.785   1.658  0.00  0.00     0.001 A 
ATOM     14  H   UNL d   1       2.487   0.988   0.892  0.00  0.00     0.170 HD
ENDROOT
BRANCH   4  15
ATOM     15  C   UNL d   1       2.669   1.370  -1.127  0.00  0.00     0.039 A 
ATOM     16  C   UNL d   1       2.220   1.193  -2.440  0.00  0.00     0.053 A 
ATOM     17  C   UNL d   1       2.932   1.736  -3.514  0.00  0.00     0.037 A 
ATOM     18 CL   UNL d   1       2.373   1.486  -5.123  0.00  0.00    -0.084 Cl
ATOM     19  C   UNL d   1       4.083   2.484  -3.298  0.00  0.00     0.048 A 
ATOM     20  C   UNL d   1       4.520   2.681  -1.993  0.00  0.00     0.037 A 
ATOM     21  C   UNL d   1       3.824   2.130  -0.912  0.00  0.00     0.053 A 
ATOM     22 CL   UNL d   1       5.932   3.622  -1.704  0.00  0.00    -0.084 Cl
ENDBRANCH   4  15
TORSDOF 1
