REMARK  3 active torsions:
REMARK  status: ('A' for Active; 'I' for Inactive)
REMARK    1  A    between atoms: C_15  and  C_6 
REMARK    2  A    between atoms: O_22  and  C_19 
REMARK    3  A    between atoms: C_27  and  O_23 
ROOT
ATOM      1  O   UNL d   1       1.091   0.385   1.865  0.00  0.00    -0.401 OA
ATOM      2  H   UNL d   1       0.426  -0.332   1.834  0.00  0.00     0.209 HD
ENDROOT
BRANCH   1   3
ATOM      3  C   UNL d   1       2.116   0.113   0.835  0.00  0.00     0.159 C 
ATOM      4  C   UNL d   1       2.288   0.908  -1.120  0.00  0.00     0.033 C 
ENDBRANCH   1   3
TORSDOF 3
