REMARK  3 active torsions:
REMARK  status: ('A' for Active; 'I' for Inactive)
REMARK    1  A    between atoms: N_7  and  C_4 
REMARK    2  A    between atoms: C_11  and  N_7 
REMARK    3  A    between atoms: C_10  and  C_11 
ROOT
ATOM      1  N   UNL d   1      -2.488  -1.495  -0.001  0.00  0.00    -0.371 N 
ATOM      2  H   UNL d   1      -2.564  -1.064  -0.915  0.00  0.00     0.161 HD
ENDROOT
BRANCH   1   3
ATOM      3  C   UNL d   1      -2.454  -0.677   1.072  0.00  0.00     0.124 A 
ATOM      4  C   UNL d   1      -2.451  -1.084   2.424  0.00  0.00     0.084 A 
ATOM      5  C   UNL d   1      -2.395   0.084   3.139  0.00  0.00     0.076 A 
ATOM      6  O   UNL d   1      -2.367   1.132   2.276  0.00  0.00    -0.241 OA
ATOM      7  C   UNL d   1      -2.364   0.400   4.577  0.00  0.00     0.079 C 
ATOM      8  N   UNL d   1      -2.410   0.655   0.978  0.00  0.00    -0.245 N 
ATOM      9  HN  UNL d   1      -2.407   1.209   0.122  1.00  0.00     0.196 HD
ENDBRANCH   1   3
BRANCH   1  10
ATOM     10  C   UNL d   1      -2.518  -2.938   0.040  0.00  0.00     0.161 C 
BRANCH  10  11
ATOM     11  C   UNL d   1      -3.923  -3.470   0.024  0.00  0.00    -0.025 A 
ATOM     12  C   UNL d   1      -4.401  -4.276   1.054  0.00  0.00     0.096 A 
ATOM     13  N   UNL d   1      -5.636  -4.826   1.083  0.00  0.00    -0.375 N 
ATOM     14  C   UNL d   1      -6.444  -4.559   0.035  0.00  0.00     0.087 A 
ATOM     15  HN  UNL d   1      -5.942  -5.414   1.858  1.00  0.00     0.164 HD
ATOM     16  C   UNL d   1      -6.072  -3.771  -1.039  0.00  0.00     0.018 A 
ATOM     17  C   UNL d   1      -4.793  -3.221  -1.043  0.00  0.00     0.011 A 
ENDBRANCH  10  11
ENDBRANCH   1  10
TORSDOF 3
