REMARK  8 active torsions:
REMARK  status: ('A' for Active; 'I' for Inactive)
REMARK    1  A    between atoms: O_6  and  N_1 
REMARK    2  A    between atoms: C_5  and  C_3 
REMARK    3  A    between atoms: N_11  and  C_3 
REMARK    4  A    between atoms: C_4  and  O_6 
REMARK    5  A    between atoms: C_7  and  C_4 
REMARK    6  A    between atoms: C_15  and  C_7 
REMARK    7  A    between atoms: C_14  and  O_24 
REMARK    8  A    between atoms: O_24  and  C_15 
ROOT
ATOM      1  N   UNL d   1      -0.576   0.238  -1.727  0.00  0.00    -0.246 N 
ATOM      2  HN  UNL d   1      -0.696   0.217  -2.740  1.00  0.00     0.196 HD
ATOM      3  C   UNL d   1      -1.304   0.956  -0.928  0.00  0.00     0.109 C 
ENDROOT
BRANCH   1   4
ATOM      4  O   UNL d   1       0.396  -0.509  -1.037  0.00  0.00    -0.198 OA
BRANCH   4   5
ATOM      5  C   UNL d   1       0.894  -1.459  -1.885  0.00  0.00     0.283 C 
ATOM      6  O   UNL d   1       0.262  -2.032  -2.769  0.00  0.00    -0.263 OA
BRANCH   5   7
ATOM      7  C   UNL d   1       2.337  -1.788  -1.601  0.00  0.00     0.140 C 
BRANCH   7   8
ATOM      8  C   UNL d   1       3.123  -0.671  -0.927  0.00  0.00     0.185 C 
BRANCH   8   9
ATOM      9  O   UNL d   1       2.894  -0.742   0.484  0.00  0.00    -0.351 OA
BRANCH   9  10
ATOM     10  C   UNL d   1       3.581   0.156   1.254  0.00  0.00     0.069 A 
ATOM     11  C   UNL d   1       2.975   0.467   2.477  0.00  0.00     0.040 A 
ATOM     12  C   UNL d   1       3.589   1.355   3.365  0.00  0.00     0.045 A 
ATOM     13  C   UNL d   1       4.814   1.913   3.032  0.00  0.00     0.116 A 
ATOM     14  C   UNL d   1       5.439   1.599   1.831  0.00  0.00     0.045 A 
ATOM     15  F   UNL d   1       5.409   2.758   3.884  0.00  0.00    -0.206 F 
ATOM     16  C   UNL d   1       4.821   0.716   0.939  0.00  0.00     0.040 A 
ENDBRANCH   9  10
ENDBRANCH   8   9
ENDBRANCH   7   8
ENDBRANCH   5   7
ENDBRANCH   4   5
ENDBRANCH   1   4
BRANCH   3  17
ATOM     17  C   UNL d   1      -2.284   1.894  -1.562  0.00  0.00     0.004 A 
ATOM     18  C   UNL d   1      -2.753   1.640  -2.858  0.00  0.00     0.016 A 
ATOM     19  C   UNL d   1      -3.615   2.545  -3.483  0.00  0.00     0.024 A 
ATOM     20  C   UNL d   1      -4.003   3.705  -2.814  0.00  0.00     0.034 A 
ATOM     21  C   UNL d   1      -3.542   3.964  -1.522  0.00  0.00     0.024 A 
ATOM     22 CL   UNL d   1      -5.042   4.833  -3.591  0.00  0.00    -0.084 Cl
ATOM     23  C   UNL d   1      -2.681   3.058  -0.894  0.00  0.00     0.016 A 
ENDBRANCH   3  17
BRANCH   3  24
ATOM     24  N   UNL d   1      -1.221   0.903   0.444  0.00  0.00    -0.286 NA
ATOM     25  H   UNL d   1      -0.716   0.080   0.759  0.00  0.00     0.125 HD
ATOM     26  H   UNL d   1      -2.105   1.009   0.931  0.00  0.00     0.125 HD
ENDBRANCH   3  24
TORSDOF 8
