REMARK  8 active torsions:
REMARK  status: ('A' for Active; 'I' for Inactive)
REMARK    1  A    between atoms: C_7  and  C_1 
REMARK    2  A    between atoms: N_19  and  C_3 
REMARK    3  A    between atoms: C_18  and  C_6 
REMARK       I    between atoms: N_14  and  C_7 
REMARK    4  A    between atoms: C_21  and  C_12 
REMARK    5  A    between atoms: C_13  and  N_15 
REMARK    6  A    between atoms: N_16  and  C_13 
REMARK    7  A    between atoms: N_15  and  N_14 
REMARK    8  A    between atoms: C_22  and  N_16 
ROOT
ATOM      1  C   UNL d   1      -2.504  -0.611  -0.200  0.00  0.00     0.103 A 
ATOM      2  C   UNL d   1      -0.153  -0.949  -0.057  0.00  0.00     0.040 A 
ATOM      3  C   UNL d   1      -1.475  -1.538  -0.192  0.00  0.00     0.062 A 
ATOM      4  C   UNL d   1      -0.297   0.432   0.005  0.00  0.00     0.103 A 
ATOM      5  S   UNL d   1      -1.906   0.977  -0.020  0.00  0.00    -0.062 SA
ATOM      6  C   UNL d   1       1.190  -1.443   0.023  0.00  0.00     0.018 A 
ATOM      7  N   UNL d   1       1.939   0.870   0.129  0.00  0.00    -0.298 N 
ATOM      8  HN  UNL d   1       2.711   1.535   0.174  1.00  0.00     0.187 HD
ATOM      9  N   UNL d   1       0.706   1.322   0.091  0.00  0.00    -0.292 N 
ATOM     10  HN  UNL d   1       0.514   2.323   0.126  1.00  0.00     0.187 HD
ATOM     11  C   UNL d   1       2.212  -0.462   0.112  0.00  0.00     0.070 A 
ENDROOT
BRANCH   1  12
ATOM     12  C   UNL d   1      -3.936  -0.822  -0.377  0.00  0.00     0.279 C 
ATOM     13  N   UNL d   1      -4.219  -1.935  -1.153  0.00  0.00    -0.263 N 
ATOM     14  H   UNL d   1      -3.450  -2.530  -1.466  0.00  0.00     0.190 HD
ATOM     15  O   UNL d   1      -4.826  -0.131   0.112  0.00  0.00    -0.265 OA
BRANCH  13  16
ATOM     16  N   UNL d   1      -5.490  -2.529  -1.116  0.00  0.00    -0.273 N 
ATOM     17  H   UNL d   1      -6.222  -1.944  -0.714  0.00  0.00     0.189 HD
BRANCH  16  18
ATOM     18  C   UNL d   1      -5.850  -3.419  -2.088  0.00  0.00     0.191 C 
ATOM     19  S   UNL d   1      -4.997  -3.661  -3.517  0.00  0.00    -0.039 SA
BRANCH  18  20
ATOM     20  N   UNL d   1      -6.928  -4.225  -1.882  0.00  0.00    -0.332 N 
ATOM     21  H   UNL d   1      -7.116  -4.796  -2.701  0.00  0.00     0.168 HD
BRANCH  20  22
ATOM     22  C   UNL d   1      -7.610  -4.630  -0.713  0.00  0.00     0.034 A 
ATOM     23  C   UNL d   1      -7.434  -4.093   0.563  0.00  0.00     0.029 A 
ATOM     24  C   UNL d   1      -8.110  -4.637   1.663  0.00  0.00     0.002 A 
ATOM     25  C   UNL d   1      -8.953  -5.733   1.504  0.00  0.00     0.000 A 
ATOM     26  C   UNL d   1      -9.140  -6.276   0.238  0.00  0.00     0.002 A 
ATOM     27  C   UNL d   1      -8.483  -5.720  -0.862  0.00  0.00     0.029 A 
ENDBRANCH  20  22
ENDBRANCH  18  20
ENDBRANCH  16  18
ENDBRANCH  13  16
ENDBRANCH   1  12
BRANCH   3  28
ATOM     28  N   UNL d   1      -1.737  -2.868  -0.315  0.00  0.00    -0.397 N 
ATOM     29  H   UNL d   1      -0.973  -3.534  -0.427  0.00  0.00     0.156 HD
ATOM     30  H   UNL d   1      -2.449  -3.278   0.294  0.00  0.00     0.156 HD
ENDBRANCH   3  28
BRANCH   6  31
ATOM     31  C   UNL d   1       1.453  -2.896  -0.014  0.00  0.00    -0.023 A 
ATOM     32  C   UNL d   1       2.283  -3.463  -0.997  0.00  0.00     0.012 A 
ATOM     33  C   UNL d   1       2.544  -4.836  -1.019  0.00  0.00     0.001 A 
ATOM     34  C   UNL d   1       1.939  -5.678  -0.091  0.00  0.00     0.000 A 
ATOM     35  C   UNL d   1       1.113  -5.141   0.892  0.00  0.00     0.001 A 
ATOM     36  C   UNL d   1       0.906  -3.760   0.954  0.00  0.00     0.012 A 
ENDBRANCH   6  31
BRANCH  11  37
ATOM     37  C   UNL d   1       3.672  -0.745   0.157  0.00  0.00    -0.007 A 
ATOM     38  C   UNL d   1       4.565   0.014  -0.626  0.00  0.00     0.014 A 
ATOM     39  C   UNL d   1       5.936  -0.266  -0.655  0.00  0.00     0.001 A 
ATOM     40  C   UNL d   1       6.445  -1.318   0.099  0.00  0.00     0.000 A 
ATOM     41  C   UNL d   1       5.593  -2.062   0.909  0.00  0.00     0.001 A 
ATOM     42  C   UNL d   1       4.227  -1.761   0.955  0.00  0.00     0.014 A 
ENDBRANCH  11  37
TORSDOF 8
