REMARK  4 active torsions:
REMARK  status: ('A' for Active; 'I' for Inactive)
REMARK    1  A    between atoms: C_2  and  S_1 
REMARK    2  A    between atoms: C_4  and  S_1 
REMARK    3  A    between atoms: C_3  and  C_6 
REMARK    4  A    between atoms: C_11  and  C_5 
ROOT
ATOM      1  C   UNL d   1       0.260  -1.501  -0.909  0.00  0.00     0.146 C 
ATOM      2  C   UNL d   1       0.209  -0.253  -0.398  0.00  0.00     0.047 C 
ATOM      3  C   UNL d   1       0.028  -2.690  -0.185  0.00  0.00     0.112 C 
ATOM      4  N   UNL d   1      -0.131  -3.678   0.403  0.00  0.00    -0.191 NA
ENDROOT
BRANCH   1   5
ATOM      5  S   UNL d   1       0.765  -1.676  -2.561  0.00  0.00     0.232 S 
ATOM      6  O   UNL d   1       2.213  -1.825  -2.565  0.00  0.00    -0.215 OA
ATOM      7  O   UNL d   1       0.159  -0.642  -3.385  0.00  0.00    -0.215 OA
BRANCH   5   8
ATOM      8  C   UNL d   1       0.085  -3.242  -3.109  0.00  0.00     0.134 A 
ATOM      9  N   UNL d   1      -1.268  -3.331  -3.005  0.00  0.00    -0.356 N 
ATOM     10  C   UNL d   1      -1.821  -4.494  -3.426  0.00  0.00     0.105 A 
ATOM     11  HN  UNL d   1      -1.832  -2.568  -2.632  1.00  0.00     0.166 HD
ATOM     12  C   UNL d   1      -1.091  -5.566  -3.930  0.00  0.00     0.063 A 
ATOM     13  C   UNL d   1       0.304  -5.433  -3.997  0.00  0.00     0.020 A 
ATOM     14  C   UNL d   1       0.910  -4.250  -3.582  0.00  0.00     0.043 A 
BRANCH  12  15
ATOM     15  C   UNL d   1      -1.777  -6.816  -4.397  0.00  0.00     0.418 C 
ATOM     16  F   UNL d   1      -3.132  -6.772  -4.279  0.00  0.00    -0.166 F 
ATOM     17  F   UNL d   1      -1.526  -7.083  -5.708  0.00  0.00    -0.166 F 
ATOM     18  F   UNL d   1      -1.376  -7.919  -3.708  0.00  0.00    -0.166 F 
ENDBRANCH  12  15
ENDBRANCH   5   8
ENDBRANCH   1   5
BRANCH   2  19
ATOM     19  C   UNL d   1      -0.088   0.147   0.950  0.00  0.00    -0.027 A 
ATOM     20  C   UNL d   1       0.255  -0.554   2.088  0.00  0.00     0.061 A 
ATOM     21  S   UNL d   1      -0.264   0.224   3.524  0.00  0.00    -0.113 SA
ATOM     22  C   UNL d   1      -0.909   1.535   2.641  0.00  0.00     0.050 A 
ATOM     23  C   UNL d   1      -0.734   1.381   1.282  0.00  0.00     0.019 A 
ENDBRANCH   2  19
TORSDOF 4
