REMARK  1 active torsions:
REMARK  status: ('A' for Active; 'I' for Inactive)
REMARK    1  A    between atoms: C_7  and  C_1 
ROOT
ATOM      1  C   UNL d   1      -0.686   1.149  -0.007  0.00  0.00    -0.050 A 
ATOM      2  C   UNL d   1       0.773  -1.299  -0.013  0.00  0.00     0.018 A 
ATOM      3  C   UNL d   1      -0.638  -1.312  -0.008  0.00  0.00    -0.044 A 
ATOM      4  C   UNL d   1       1.465  -0.073  -0.020  0.00  0.00    -0.044 A 
ATOM      5  C   UNL d   1      -1.340  -0.089  -0.004  0.00  0.00     0.015 A 
ATOM      6  C   UNL d   1       0.719   1.126  -0.018  0.00  0.00     0.015 A 
ATOM      7  I   UNL d   1       1.829  -3.146  -0.006  0.00  0.00    -0.043 I 
ATOM      8  C   UNL d   1      -1.455  -2.580   0.001  0.00  0.00     0.049 C 
ATOM      9  C   UNL d   1       2.963   0.088  -0.022  0.00  0.00     0.049 C 
ENDROOT
BRANCH   1  10
ATOM     10  C   UNL d   1      -1.442   2.490   0.012  0.00  0.00    -0.024 C 
ATOM     11  C   UNL d   1      -2.981   2.340   0.022  0.00  0.00     0.019 C 
ATOM     12  C   UNL d   1      -1.055   3.285   1.278  0.00  0.00     0.019 C 
ATOM     13  C   UNL d   1      -1.075   3.319  -1.238  0.00  0.00     0.019 C 
ENDBRANCH   1  10
TORSDOF 1
