REMARK  1 active torsions:
REMARK  status: ('A' for Active; 'I' for Inactive)
REMARK    1  A    between atoms: C_2  and  N_1 
ROOT
ATOM      1  C   UNL d   1      -0.004   2.332  -0.042  0.00  0.00     0.089 A 
ATOM      2  C   UNL d   1       0.630   3.040  -1.080  0.00  0.00     0.063 A 
ATOM      3  C   UNL d   1      -0.638   3.071   0.976  0.00  0.00     0.063 A 
ATOM      4 CL   UNL d   1      -1.344   2.317   2.367  0.00  0.00    -0.082 Cl
ATOM      5 CL   UNL d   1       1.340   2.245  -2.446  0.00  0.00    -0.082 Cl
ATOM      6  C   UNL d   1      -0.007   5.156  -0.085  0.00  0.00     0.003 A 
ATOM      7  C   UNL d   1       0.623   4.441  -1.100  0.00  0.00     0.026 A 
ATOM      8  C   UNL d   1      -0.634   4.471   0.953  0.00  0.00     0.026 A 
ENDROOT
BRANCH   1   9
ATOM      9  N   UNL d   1      -0.007   0.919  -0.020  0.00  0.00    -0.242 N 
ATOM     10  C   UNL d   1      -1.127   0.145  -0.044  0.00  0.00     0.255 A 
ATOM     11  C   UNL d   1      -0.679  -1.253   0.004  0.00  0.00     0.080 A 
ATOM     12  O   UNL d   1      -2.299   0.462  -0.155  0.00  0.00    -0.268 OA
ATOM     13  C   UNL d   1       0.653  -1.257   0.029  0.00  0.00     0.080 A 
ATOM     14  C   UNL d   1       1.110   0.140   0.024  0.00  0.00     0.255 A 
ATOM     15  O   UNL d   1       2.284   0.453   0.112  0.00  0.00    -0.268 OA
ENDBRANCH   1   9
TORSDOF 1
