REMARK  1 active torsions:
REMARK  status: ('A' for Active; 'I' for Inactive)
REMARK    1  A    between atoms: C_4  and  N_1 
ROOT
ATOM      1  N   UNL d   1       0.009   0.893   0.080  0.00  0.00    -0.244 N 
ATOM      2  C   UNL d   1      -1.107   0.105   0.114  0.00  0.00     0.255 C 
ATOM      3  C   UNL d   1       1.104   0.117  -0.177  0.00  0.00     0.255 C 
ATOM      4  C   UNL d   1      -0.653  -1.290   0.055  0.00  0.00     0.080 C 
ATOM      5  C   UNL d   1       0.666  -1.282  -0.128  0.00  0.00     0.080 C 
ATOM      6  O   UNL d   1      -2.289   0.399   0.073  0.00  0.00    -0.268 OA
ATOM      7  O   UNL d   1       2.260   0.428  -0.403  0.00  0.00    -0.268 OA
ENDROOT
BRANCH   1   8
ATOM      8  C   UNL d   1      -0.009   2.307   0.060  0.00  0.00     0.063 A 
ATOM      9  C   UNL d   1      -0.741   3.075   0.986  0.00  0.00     0.038 A 
ATOM     10 BR   UNL d   1      -1.572   2.333   2.533  0.00  0.00    -0.049 Br
ATOM     11  C   UNL d   1      -0.755   4.474   0.895  0.00  0.00     0.021 A 
ATOM     12  C   UNL d   1      -0.040   5.123  -0.110  0.00  0.00     0.002 A 
ATOM     13  C   UNL d   1       0.710   4.379  -1.014  0.00  0.00     0.002 A 
ATOM     14  C   UNL d   1       0.735   2.985  -0.922  0.00  0.00     0.031 A 
ENDBRANCH   1   8
TORSDOF 1
