REMARK  4 active torsions:
REMARK  status: ('A' for Active; 'I' for Inactive)
REMARK    1  A    between atoms: S_10  and  C_3 
REMARK    2  A    between atoms: C_8  and  C_7 
REMARK    3  A    between atoms: C_11  and  C_8 
REMARK    4  A    between atoms: C_9  and  S_10 
ROOT
ATOM      1  N   UNL d   1      -1.742   1.453   0.372  0.00  0.00    -0.335 N 
ATOM      2  HN  UNL d   1      -1.856   2.467   0.378  1.00  0.00     0.168 HD
ATOM      3  C   UNL d   1      -2.681   0.544   0.264  0.00  0.00     0.149 A 
ATOM      4  N   UNL d   1      -2.172  -0.723   0.288  0.00  0.00    -0.335 N 
ATOM      5  C   UNL d   1      -0.568   0.737   0.475  0.00  0.00     0.061 A 
ATOM      6  C   UNL d   1      -0.812  -0.632   0.427  0.00  0.00     0.061 A 
ATOM      7  C   UNL d   1       0.755   1.187   0.616  0.00  0.00     0.038 A 
ATOM      8  C   UNL d   1       0.191  -1.598   0.517  0.00  0.00     0.032 A 
ATOM      9  C   UNL d   1       1.794   0.243   0.712  0.00  0.00    -0.060 A 
ATOM     10  C   UNL d   1       1.502  -1.129   0.663  0.00  0.00     0.009 A 
ATOM     11  C   UNL d   1       3.219   0.690   0.877  0.00  0.00     0.048 C 
ATOM     12  H   UNL d   1      -2.716  -1.568   0.219  0.00  0.00     0.168 HD
ENDROOT
BRANCH   3  13
ATOM     13  S   UNL d   1      -4.392   0.733   0.121  0.00  0.00    -0.066 SA
BRANCH  13  14
ATOM     14  C   UNL d   1      -4.535   2.462   0.096  0.00  0.00     0.057 C 
ATOM     15  C   UNL d   1      -5.750   3.029   0.118  0.00  0.00     0.063 C 
BRANCH  15  16
ATOM     16  C   UNL d   1      -5.900   4.508   0.079  0.00  0.00     0.182 C 
ATOM     17  O   UNL d   1      -5.002   5.241  -0.317  0.00  0.00    -0.288 OA
BRANCH  16  18
ATOM     18  C   UNL d   1      -7.212   5.077   0.495  0.00  0.00     0.014 A 
ATOM     19  C   UNL d   1      -8.011   4.467   1.470  0.00  0.00     0.016 A 
ATOM     20  C   UNL d   1      -9.224   5.051   1.851  0.00  0.00     0.007 A 
ATOM     21  C   UNL d   1      -9.650   6.253   1.272  0.00  0.00    -0.062 A 
ATOM     22  C   UNL d   1      -8.845   6.864   0.302  0.00  0.00     0.007 A 
ATOM     23  C   UNL d   1     -10.947   6.873   1.704  0.00  0.00     0.048 C 
ATOM     24  C   UNL d   1      -7.631   6.283  -0.079  0.00  0.00     0.016 A 
ENDBRANCH  16  18
ENDBRANCH  15  16
ENDBRANCH  13  14
ENDBRANCH   3  13
TORSDOF 4
