REMARK  3 active torsions:
REMARK  status: ('A' for Active; 'I' for Inactive)
REMARK       I    between atoms: N_2  and  C_1 
REMARK       I    between atoms: N_4  and  C_1 
REMARK    1  A    between atoms: C_3  and  N_2 
REMARK    2  A    between atoms: C_8  and  N_4 
REMARK    3  A    between atoms: C_13  and  C_7 
ROOT
ATOM      1  C   UNL d   1       1.053  -0.406  -0.209  0.00  0.00     0.322 C 
ATOM      2  N   UNL d   1       0.448  -0.810   0.964  0.00  0.00    -0.308 N 
ATOM      3  N   UNL d   1       0.183   0.230  -1.114  0.00  0.00    -0.334 N 
ATOM      4  O   UNL d   1       2.236  -0.604  -0.471  0.00  0.00    -0.247 OA
ATOM      5  C   UNL d   1      -1.147   0.704  -0.750  0.00  0.00     0.155 C 
ATOM      6  H   UNL d   1      -0.479  -1.160   0.802  0.00  0.00     0.170 HD
ENDROOT
BRANCH   2   7
ATOM      7  C   UNL d   1       1.140  -1.373   2.067  0.00  0.00     0.048 A 
ATOM      8  C   UNL d   1       2.272  -0.734   2.629  0.00  0.00    -0.035 A 
ATOM      9  C   UNL d   1       2.917  -1.321   3.733  0.00  0.00     0.009 A 
ATOM     10  C   UNL d   1       2.847   0.577   2.156  0.00  0.00     0.050 C 
ATOM     11  C   UNL d   1       2.437  -2.491   4.305  0.00  0.00     0.001 A 
ATOM     12  C   UNL d   1       1.307  -3.103   3.775  0.00  0.00     0.009 A 
ATOM     13  C   UNL d   1       0.639  -2.564   2.657  0.00  0.00    -0.031 A 
BRANCH  13  14
ATOM     14  C   UNL d   1      -0.495  -3.389   2.072  0.00  0.00     0.036 C 
ATOM     15  C   UNL d   1      -1.637  -3.667   3.045  0.00  0.00     0.010 C 
ENDBRANCH  13  14
ENDBRANCH   2   7
BRANCH   3  16
ATOM     16  C   UNL d   1       0.750   0.584  -2.440  0.00  0.00     0.088 C 
ATOM     17  C   UNL d   1       1.554   1.897  -2.420  0.00  0.00     0.025 C 
ATOM     18  C   UNL d   1       0.690   3.150  -2.528  0.00  0.00     0.002 C 
ATOM     19  C   UNL d   1      -0.256   3.099  -3.727  0.00  0.00     0.000 C 
ATOM     20  C   UNL d   1      -1.083   1.819  -3.787  0.00  0.00     0.002 C 
ATOM     21  C   UNL d   1      -0.245   0.554  -3.616  0.00  0.00     0.025 C 
ENDBRANCH   3  16
TORSDOF 3
