REMARK  4 active torsions:
REMARK  status: ('A' for Active; 'I' for Inactive)
REMARK    1  A    between atoms: C_2  and  S_1 
REMARK    2  A    between atoms: N_3  and  S_1 
REMARK    3  A    between atoms: C_4  and  C_5 
REMARK    4  A    between atoms: C_8  and  N_7 
ROOT
ATOM      1  N   UNL d   1       0.574  -1.374  -0.787  0.00  0.00    -0.205 NA
ATOM      2  N   UNL d   1       0.782  -3.789  -2.609  0.00  0.00    -0.366 N 
ATOM      3  C   UNL d   1       0.688  -1.334  -2.300  0.00  0.00     0.127 C 
ATOM      4  C   UNL d   1       0.064  -2.568  -2.982  0.00  0.00     0.140 C 
ATOM      5  C   UNL d   1       0.761  -3.835  -0.132  0.00  0.00     0.035 C 
ATOM      6  C   UNL d   1       1.443  -2.475  -0.218  0.00  0.00     0.109 C 
ATOM      7  C   UNL d   1       0.309  -4.489  -1.430  0.00  0.00     0.125 C 
ENDROOT
BRANCH   1   8
ATOM      8  S   UNL d   1       1.017   0.136  -0.047  0.00  0.00     0.246 S 
ATOM      9  O   UNL d   1       0.918  -0.021   1.393  0.00  0.00    -0.206 OA
ATOM     10  O   UNL d   1       2.270   0.529  -0.649  0.00  0.00    -0.206 OA
BRANCH   8  11
ATOM     11  C   UNL d   1      -0.181   1.359  -0.476  0.00  0.00     0.113 A 
ATOM     12  C   UNL d   1      -1.510   1.184  -0.104  0.00  0.00     0.142 A 
ATOM     13  C   UNL d   1      -2.407   2.249  -0.164  0.00  0.00     0.086 A 
ATOM     14  F   UNL d   1      -1.950   0.005   0.354  0.00  0.00    -0.204 F 
ATOM     15  C   UNL d   1      -1.959   3.495  -0.590  0.00  0.00     0.119 A 
ATOM     16  C   UNL d   1      -0.641   3.684  -0.993  0.00  0.00     0.044 A 
ATOM     17  F   UNL d   1      -2.801   4.537  -0.587  0.00  0.00    -0.206 F 
ATOM     18  C   UNL d   1       0.255   2.611  -0.942  0.00  0.00     0.031 A 
ENDBRANCH   8  11
ENDBRANCH   1   8
BRANCH   2  19
ATOM     19  C   UNL d   1       1.757  -4.304  -3.437  0.00  0.00     0.102 A 
ATOM     20  N   UNL d   1       1.680  -4.051  -4.761  0.00  0.00    -0.352 N 
ATOM     21  C   UNL d   1       2.613  -4.583  -5.590  0.00  0.00     0.106 A 
ATOM     22  HN  UNL d   1       0.930  -3.468  -5.133  1.00  0.00     0.166 HD
ATOM     23  C   UNL d   1       3.690  -5.340  -5.165  0.00  0.00     0.063 A 
ATOM     24  C   UNL d   1       3.793  -5.568  -3.796  0.00  0.00     0.021 A 
ATOM     25  C   UNL d   1       2.816  -5.061  -2.936  0.00  0.00     0.049 A 
BRANCH  23  26
ATOM     26  C   UNL d   1       4.699  -5.869  -6.134  0.00  0.00     0.418 C 
ATOM     27  F   UNL d   1       4.401  -5.607  -7.436  0.00  0.00    -0.166 F 
ATOM     28  F   UNL d   1       5.942  -5.351  -5.925  0.00  0.00    -0.166 F 
ATOM     29  F   UNL d   1       4.844  -7.221  -6.051  0.00  0.00    -0.166 F 
ENDBRANCH  23  26
ENDBRANCH   2  19
TORSDOF 4
