REMARK  2 active torsions:
REMARK  status: ('A' for Active; 'I' for Inactive)
REMARK    1  A    between atoms: C_5  and  N_1 
REMARK    2  A    between atoms: C_9  and  C_5 
ROOT
ATOM      1  N   UNL d   1       0.514  -0.781  -0.066  0.00  0.00    -0.289 N 
ATOM      2  C   UNL d   1       0.550  -0.015  -1.197  0.00  0.00     0.177 A 
ATOM      3  C   UNL d   1       0.590   0.016   1.048  0.00  0.00     0.244 A 
ATOM      4  N   UNL d   1       0.678   1.308  -0.829  0.00  0.00    -0.358 N 
ATOM      5  S   UNL d   1       0.444  -0.456  -2.791  0.00  0.00    -0.041 SA
ATOM      6  C   UNL d   1       0.688   1.470   0.598  0.00  0.00     0.225 A 
ATOM      7  O   UNL d   1       0.552  -0.343   2.217  0.00  0.00    -0.271 OA
ATOM      8  H   UNL d   1       0.701   2.059  -1.510  0.00  0.00     0.162 HD
ENDROOT
BRANCH   1   9
ATOM      9  C   UNL d   1       0.292  -2.217   0.028  0.00  0.00     0.173 C 
BRANCH   9  10
ATOM     10  C   UNL d   1       1.564  -3.035   0.066  0.00  0.00    -0.040 A 
ATOM     11  C   UNL d   1       2.159  -3.369   1.293  0.00  0.00     0.010 A 
ATOM     12  C   UNL d   1       3.277  -4.208   1.335  0.00  0.00     0.024 A 
ATOM     13  C   UNL d   1       3.818  -4.703   0.151  0.00  0.00     0.034 A 
ATOM     14  C   UNL d   1       3.265  -4.348  -1.076  0.00  0.00     0.024 A 
ATOM     15 CL   UNL d   1       5.164  -5.774   0.205  0.00  0.00    -0.084 Cl
ATOM     16  C   UNL d   1       2.144  -3.516  -1.118  0.00  0.00     0.010 A 
ENDBRANCH   9  10
ENDBRANCH   1   9
TORSDOF 2
