REMARK  5 active torsions:
REMARK  status: ('A' for Active; 'I' for Inactive)
REMARK    1  A    between atoms: C_3  and  C_1 
REMARK    2  A    between atoms: C_2  and  C_4 
REMARK       I    between atoms: C_4  and  N_7 
REMARK    3  A    between atoms: N_7  and  N_9 
REMARK    4  A    between atoms: N_9  and  C_8 
REMARK    5  A    between atoms: O_19  and  C_11 
ROOT
ATOM      1  N   UNL d   1      -0.972  -3.651  -3.624  0.00  0.00    -0.188 NA
ATOM      2  H   UNL d   1      -0.094  -3.161  -3.805  0.00  0.00     0.154 HD
ENDROOT
BRANCH   1   3
ATOM      3  N   UNL d   1      -0.763  -5.045  -3.716  0.00  0.00    -0.281 N 
ATOM      4  C   UNL d   1      -0.532  -5.717  -4.908  0.00  0.00     0.269 C 
ATOM      5  O   UNL d   1       0.112  -6.763  -4.889  0.00  0.00    -0.266 OA
ATOM      6  H   UNL d   1      -0.433  -5.486  -2.858  0.00  0.00     0.184 HD
BRANCH   4   7
ATOM      7  C   UNL d   1      -1.110  -5.216  -6.187  0.00  0.00     0.066 A 
ATOM      8  C   UNL d   1      -1.797  -6.044  -7.095  0.00  0.00     0.084 A 
ATOM      9  C   UNL d   1      -2.273  -5.493  -8.299  0.00  0.00     0.038 A 
ATOM     10  C   UNL d   1      -2.088  -4.148  -8.611  0.00  0.00     0.003 A 
ATOM     11  C   UNL d   1      -1.378  -3.338  -7.739  0.00  0.00     0.001 A 
ATOM     12  C   UNL d   1      -0.876  -3.874  -6.553  0.00  0.00     0.020 A 
BRANCH   8  13
ATOM     13  O   UNL d   1      -2.038  -7.390  -7.041  0.00  0.00    -0.355 OA
ATOM     14  C   UNL d   1      -2.331  -7.993  -5.792  0.00  0.00     0.210 C 
ENDBRANCH   8  13
ENDBRANCH   4   7
ENDBRANCH   1   3
BRANCH   1  15
ATOM     15  C   UNL d   1      -1.381  -3.257  -2.317  0.00  0.00     0.098 A 
ATOM     16  C   UNL d   1      -1.351  -1.898  -2.003  0.00  0.00     0.044 A 
ATOM     17  C   UNL d   1      -1.709  -1.482  -0.720  0.00  0.00     0.021 A 
ATOM     18  C   UNL d   1      -2.130  -2.426   0.216  0.00  0.00     0.063 A 
ATOM     19  C   UNL d   1      -2.168  -3.750  -0.192  0.00  0.00     0.105 A 
ATOM     20  N   UNL d   1      -1.791  -4.180  -1.420  0.00  0.00    -0.355 N 
ATOM     21  HN  UNL d   1      -1.817  -5.171  -1.660  1.00  0.00     0.166 HD
BRANCH  18  22
ATOM     22  C   UNL d   1      -2.504  -2.038   1.612  0.00  0.00     0.418 C 
ATOM     23  F   UNL d   1      -2.987  -3.070   2.356  0.00  0.00    -0.166 F 
ATOM     24  F   UNL d   1      -3.459  -1.070   1.649  0.00  0.00    -0.166 F 
ATOM     25  F   UNL d   1      -1.444  -1.542   2.308  0.00  0.00    -0.166 F 
ENDBRANCH  18  22
ENDBRANCH   1  15
TORSDOF 5
