REMARK  1 active torsions:
REMARK  status: ('A' for Active; 'I' for Inactive)
REMARK    1  A    between atoms: C_12  and  C_11 
ROOT
ATOM      1  C   UNL d   1      -0.907  -0.639   0.083  0.00  0.00     0.146 A 
ATOM      2  N   UNL d   1      -1.771   0.324  -0.335  0.00  0.00    -0.258 N 
ATOM      3  N   UNL d   1      -2.950  -1.318   0.255  0.00  0.00    -0.007 NA
ATOM      4  N   UNL d   1      -3.040  -0.085  -0.223  0.00  0.00    -0.005 NA
ATOM      5  C   UNL d   1       0.539  -0.504   0.034  0.00  0.00     0.044 A 
ATOM      6  N   UNL d   1      -1.634  -1.683   0.435  0.00  0.00    -0.269 N 
ATOM      7  HN  UNL d   1      -1.290  -2.581   0.773  1.00  0.00     0.185 HD
ATOM      8  O   UNL d   1       0.690   1.941   0.487  0.00  0.00    -0.339 OA
ATOM      9  C   UNL d   1      -1.408   1.594  -0.900  0.00  0.00     0.185 C 
ATOM     10  C   UNL d   1       1.208   0.715   0.206  0.00  0.00     0.083 A 
ATOM     11  C   UNL d   1      -0.617   2.399   0.125  0.00  0.00     0.181 C 
ATOM     12  C   UNL d   1       1.298  -1.663  -0.219  0.00  0.00     0.018 A 
ATOM     13  C   UNL d   1       2.611   0.744   0.155  0.00  0.00     0.038 A 
ATOM     14  C   UNL d   1       2.691  -1.613  -0.301  0.00  0.00     0.001 A 
ATOM     15  C   UNL d   1       3.349  -0.407  -0.108  0.00  0.00     0.003 A 
ENDROOT
BRANCH  11  16
ATOM     16  C   UNL d   1      -0.387   3.806  -0.412  0.00  0.00    -0.027 A 
ATOM     17  C   UNL d   1      -0.901   4.924   0.257  0.00  0.00     0.010 A 
ATOM     18  C   UNL d   1      -0.675   6.210  -0.240  0.00  0.00     0.001 A 
ATOM     19  C   UNL d   1       0.065   6.391  -1.408  0.00  0.00     0.000 A 
ATOM     20  C   UNL d   1       0.592   5.291  -2.077  0.00  0.00     0.001 A 
ATOM     21  C   UNL d   1       0.373   4.008  -1.580  0.00  0.00     0.010 A 
ENDBRANCH  11  16
TORSDOF 1
