REMARK  6 active torsions:
REMARK  status: ('A' for Active; 'I' for Inactive)
REMARK    1  A    between atoms: C_3  and  C_1 
REMARK    2  A    between atoms: C_2  and  O_4 
REMARK    3  A    between atoms: O_15  and  C_3 
REMARK    4  A    between atoms: O_4  and  C_5 
REMARK    5  A    between atoms: N_8  and  O_15 
REMARK    6  A    between atoms: C_10  and  C_14 
ROOT
ATOM      1  C   UNL d   1       5.753   5.342  -0.749  0.00  0.00     0.089 A 
ATOM      2  C   UNL d   1       4.827   5.723   0.236  0.00  0.00     0.015 A 
ATOM      3  C   UNL d   1       5.051   6.898   0.976  0.00  0.00     0.015 A 
ATOM      4  C   UNL d   1       6.874   6.162  -0.970  0.00  0.00     0.038 A 
ATOM      5  C   UNL d   1       6.153   7.714   0.721  0.00  0.00     0.001 A 
ATOM      6  C   UNL d   1       7.067   7.343  -0.254  0.00  0.00     0.003 A 
ENDROOT
BRANCH   2   7
ATOM      7  C   UNL d   1       3.692   4.865   0.641  0.00  0.00     0.128 C 
ATOM      8  N   UNL d   1       2.486   5.211   0.986  0.00  0.00    -0.268 N 
ATOM      9  HN  UNL d   1       1.779   4.546   1.300  1.00  0.00     0.194 HD
BRANCH   8  10
ATOM     10  O   UNL d   1       2.255   6.596   0.882  0.00  0.00    -0.195 OA
BRANCH  10  11
ATOM     11  C   UNL d   1       1.017   6.932   1.394  0.00  0.00     0.315 C 
ATOM     12  O   UNL d   1       0.157   6.140   1.766  0.00  0.00    -0.257 OA
BRANCH  11  13
ATOM     13  C   UNL d   1       0.829   8.383   1.491  0.00  0.00     0.048 A 
ATOM     14  C   UNL d   1       1.770   9.339   1.149  0.00  0.00     0.067 A 
ATOM     15  S   UNL d   1       1.229  10.943   1.419  0.00  0.00    -0.113 SA
ATOM     16  C   UNL d   1      -0.284  10.394   1.992  0.00  0.00     0.050 A 
ATOM     17  C   UNL d   1      -0.368   9.021   1.980  0.00  0.00     0.025 A 
ENDBRANCH  11  13
ENDBRANCH  10  11
ENDBRANCH   8  10
ENDBRANCH   2   7
BRANCH   1  18
ATOM     18  O   UNL d   1       5.792   4.208  -1.506  0.00  0.00    -0.254 OA
BRANCH  18  19
ATOM     19  C   UNL d   1       4.599   3.650  -2.035  0.00  0.00     0.530 C 
ATOM     20  F   UNL d   1       3.568   4.512  -2.030  0.00  0.00    -0.144 F 
ATOM     21  F   UNL d   1       4.831   3.276  -3.311  0.00  0.00    -0.144 F 
ATOM     22  F   UNL d   1       4.276   2.549  -1.325  0.00  0.00    -0.144 F 
ENDBRANCH  18  19
ENDBRANCH   1  18
TORSDOF 6
