REMARK  3 active torsions:
REMARK  status: ('A' for Active; 'I' for Inactive)
REMARK    1  A    between atoms: C_2  and  C_1 
REMARK    2  A    between atoms: N_10  and  C_5 
REMARK       I    between atoms: C_11  and  N_10 
REMARK       I    between atoms: N_14  and  C_11 
REMARK    3  A    between atoms: C_18  and  N_14 
ROOT
ATOM      1  C   UNL d   1      -0.977  -2.223   0.937  0.00  0.00     0.058 A 
ATOM      2  N   UNL d   1      -0.623  -3.429   1.528  0.00  0.00    -0.335 N 
ATOM      3  HN  UNL d   1      -0.028  -3.527   2.350  1.00  0.00     0.168 HD
ATOM      4  C   UNL d   1      -1.171  -4.428   0.869  0.00  0.00     0.152 A 
ATOM      5  S   UNL d   1      -2.092  -3.988  -0.498  0.00  0.00    -0.063 SA
ATOM      6  C   UNL d   1      -1.760  -2.343  -0.190  0.00  0.00     0.084 A 
ENDROOT
BRANCH   4   7
ATOM      7  N   UNL d   1      -0.962  -5.735   1.220  0.00  0.00    -0.288 N 
ATOM      8  C   UNL d   1      -1.536  -6.912   0.832  0.00  0.00     0.326 C 
ATOM      9  N   UNL d   1      -2.621  -6.856   0.004  0.00  0.00    -0.309 N 
ATOM     10  O   UNL d   1      -1.065  -7.946   1.305  0.00  0.00    -0.247 OA
ATOM     11  H   UNL d   1      -2.802  -5.960  -0.421  0.00  0.00     0.170 HD
ATOM     12  H   UNL d   1      -0.272  -5.856   1.950  0.00  0.00     0.172 HD
BRANCH   9  13
ATOM     13  C   UNL d   1      -3.526  -7.883  -0.332  0.00  0.00     0.036 A 
ATOM     14  C   UNL d   1      -3.504  -9.159   0.232  0.00  0.00     0.031 A 
ATOM     15  C   UNL d   1      -4.496 -10.093  -0.091  0.00  0.00     0.026 A 
ATOM     16  C   UNL d   1      -5.507  -9.755  -0.987  0.00  0.00     0.034 A 
ATOM     17  C   UNL d   1      -5.526  -8.495  -1.576  0.00  0.00     0.026 A 
ATOM     18 CL   UNL d   1      -6.746 -10.890  -1.351  0.00  0.00    -0.084 Cl
ATOM     19  C   UNL d   1      -4.538  -7.562  -1.249  0.00  0.00     0.031 A 
ENDBRANCH   9  13
ENDBRANCH   4   7
BRANCH   1  20
ATOM     20  C   UNL d   1      -0.527  -0.902   1.490  0.00  0.00     0.035 A 
ATOM     21  S   UNL d   1      -0.876   0.613   0.772  0.00  0.00    -0.074 SA
ATOM     22  C   UNL d   1      -0.038   1.444   1.984  0.00  0.00     0.097 A 
ATOM     23 CL   UNL d   1       0.044   3.160   1.900  0.00  0.00    -0.074 Cl
ATOM     24  C   UNL d   1       0.498   0.613   2.935  0.00  0.00     0.064 A 
ATOM     25  C   UNL d   1       0.214  -0.758   2.647  0.00  0.00     0.047 A 
ATOM     26 CL   UNL d   1       1.398   1.091   4.307  0.00  0.00    -0.082 Cl
ENDBRANCH   1  20
TORSDOF 3
