REMARK  4 active torsions:
REMARK  status: ('A' for Active; 'I' for Inactive)
REMARK       I    between atoms: C_2  and  N_1 
REMARK    1  A    between atoms: O_15  and  C_2 
REMARK       I    between atoms: C_3  and  N_4 
REMARK    2  A    between atoms: C_5  and  C_3 
REMARK    3  A    between atoms: N_4  and  C_10 
REMARK    4  A    between atoms: C_20  and  O_15 
ROOT
ATOM      1  N   UNL d   1       1.367  -0.080   0.435  0.00  0.00    -0.328 N 
ATOM      2  C   UNL d   1       2.643  -0.054   0.974  0.00  0.00     0.362 C 
ATOM      3  C   UNL d   1       0.712   1.187   0.141  0.00  0.00     0.130 C 
ATOM      4  C   UNL d   1       0.777  -1.268  -0.172  0.00  0.00     0.130 C 
ATOM      5  O   UNL d   1       3.219   0.970   1.318  0.00  0.00    -0.238 OA
ATOM      6  C   UNL d   1      -1.458  -0.045  -0.228  0.00  0.00     0.087 C 
ATOM      7  C   UNL d   1      -0.766   1.121   0.494  0.00  0.00     0.045 C 
ATOM      8  C   UNL d   1      -0.725  -1.356   0.096  0.00  0.00     0.045 C 
ENDROOT
BRANCH   6   9
ATOM      9  N   UNL d   1      -1.532   0.170  -1.673  0.00  0.00    -0.352 N 
ATOM     10  C   UNL d   1      -2.253   1.213  -2.219  0.00  0.00     0.252 C 
ATOM     11  O   UNL d   1      -2.934   1.987  -1.558  0.00  0.00    -0.268 OA
ATOM     12  H   UNL d   1      -1.266  -0.590  -2.284  0.00  0.00     0.163 HD
BRANCH  10  13
ATOM     13  C   UNL d   1      -2.167   1.373  -3.698  0.00  0.00     0.032 A 
ATOM     14  C   UNL d   1      -3.180   2.089  -4.350  0.00  0.00     0.018 A 
ATOM     15  C   UNL d   1      -3.113   2.306  -5.729  0.00  0.00     0.025 A 
ATOM     16  C   UNL d   1      -2.030   1.814  -6.455  0.00  0.00     0.034 A 
ATOM     17  C   UNL d   1      -1.012   1.109  -5.815  0.00  0.00     0.025 A 
ATOM     18 CL   UNL d   1      -1.939   2.093  -8.149  0.00  0.00    -0.084 Cl
ATOM     19  C   UNL d   1      -1.075   0.892  -4.434  0.00  0.00     0.018 A 
ENDBRANCH  10  13
ENDBRANCH   6   9
BRANCH   2  20
ATOM     20  O   UNL d   1       3.194  -1.295   1.064  0.00  0.00    -0.304 OA
BRANCH  20  21
ATOM     21  C   UNL d   1       4.551  -1.333   1.524  0.00  0.00     0.176 C 
ATOM     22  C   UNL d   1       5.483  -1.143   0.342  0.00  0.00     0.034 C 
ENDBRANCH  20  21
ENDBRANCH   2  20
TORSDOF 4
