REMARK  2 active torsions:
REMARK  status: ('A' for Active; 'I' for Inactive)
REMARK       I    between atoms: N_4  and  C_1 
REMARK       I    between atoms: N_6  and  C_1 
REMARK    1  A    between atoms: C_2  and  C_3 
REMARK    2  A    between atoms: C_5  and  N_4 
ROOT
ATOM      1  C   UNL d   1       0.918   1.953   3.086  0.00  0.00     0.077 A 
ATOM      2  C   UNL d   1       1.074   1.756   1.708  0.00  0.00     0.066 A 
ATOM      3  N   UNL d   1       2.502   3.729   1.585  0.00  0.00    -0.373 N 
ATOM      4  HN  UNL d   1       3.062   4.378   1.032  1.00  0.00     0.164 HD
ATOM      5  C   UNL d   1       1.874   2.670   1.017  0.00  0.00     0.117 A 
ATOM      6  C   UNL d   1       1.582   3.037   3.691  0.00  0.00     0.035 A 
ATOM      7  C   UNL d   1       2.350   3.883   2.911  0.00  0.00     0.088 A 
ENDROOT
BRANCH   2   8
ATOM      8  N   UNL d   1       0.432   0.686   1.032  0.00  0.00    -0.307 N 
ATOM      9  C   UNL d   1       1.033  -0.018   0.013  0.00  0.00     0.322 C 
ATOM     10  N   UNL d   1       0.233  -0.981  -0.582  0.00  0.00    -0.343 N 
ATOM     11  O   UNL d   1       2.210   0.142  -0.305  0.00  0.00    -0.247 OA
ATOM     12  C   UNL d   1       0.867  -1.963  -1.446  0.00  0.00     0.154 C 
ATOM     13  C   UNL d   1      -1.224  -0.987  -0.572  0.00  0.00     0.154 C 
ATOM     14  H   UNL d   1      -0.231   0.132   1.562  0.00  0.00     0.170 HD
ENDBRANCH   2   8
BRANCH   1  15
ATOM     15  C   UNL d   1       0.153   1.017   3.977  0.00  0.00     0.419 C 
ATOM     16  F   UNL d   1      -0.497   0.017   3.312  0.00  0.00    -0.166 F 
ATOM     17  F   UNL d   1       0.952   0.396   4.888  0.00  0.00    -0.166 F 
ATOM     18  F   UNL d   1      -0.809   1.655   4.701  0.00  0.00    -0.166 F 
ENDBRANCH   1  15
TORSDOF 2
