REMARK  0 active torsions:
REMARK  status: ('A' for Active; 'I' for Inactive)
ROOT
ATOM      1  C   UNL d   1       0.964  -1.984   0.120  0.00  0.00     0.021 A 
ATOM      2  C   UNL d   1      -0.166  -1.157   0.153  0.00  0.00     0.011 A 
ATOM      3  N   UNL d   1       1.260   0.669  -0.563  0.00  0.00    -0.359 N 
ATOM      4  HN  UNL d   1       1.372   1.657  -0.790  1.00  0.00     0.166 HD
ATOM      5  C   UNL d   1       2.205  -1.506  -0.305  0.00  0.00    -0.018 A 
ATOM      6  C   UNL d   1       0.052   0.183  -0.222  0.00  0.00     0.044 A 
ATOM      7  C   UNL d   1       2.328  -0.169  -0.603  0.00  0.00     0.013 A 
ATOM      8  S   UNL d   1       1.105  -3.688   0.650  0.00  0.00    -0.128 SA
ATOM      9  C   UNL d   1      -1.457  -1.594   0.515  0.00  0.00     0.057 A 
ATOM     10  C   UNL d   1      -1.040   1.049  -0.223  0.00  0.00     0.033 A 
ATOM     11  C   UNL d   1      -2.519  -0.702   0.492  0.00  0.00     0.117 A 
ATOM     12  C   UNL d   1       2.924  -3.584   0.663  0.00  0.00     0.084 C 
ATOM     13  C   UNL d   1       3.254  -2.573  -0.429  0.00  0.00     0.052 C 
ATOM     14  C   UNL d   1      -2.323   0.619   0.126  0.00  0.00     0.044 A 
ATOM     15  F   UNL d   1      -3.745  -1.123   0.824  0.00  0.00    -0.206 F 
ATOM     16  C   UNL d   1       3.661   0.445  -0.916  0.00  0.00     0.068 C 
ENDROOT
TORSDOF 0
