REMARK  5 active torsions:
REMARK  status: ('A' for Active; 'I' for Inactive)
REMARK    1  A    between atoms: C_2  and  S_1 
REMARK    2  A    between atoms: N_3  and  S_1 
REMARK    3  A    between atoms: C_16  and  C_4 
REMARK    4  A    between atoms: C_17  and  C_5 
REMARK    5  A    between atoms: C_18  and  C_8 
ROOT
ATOM      1  C   UNL d   1       0.496   1.454   0.264  0.00  0.00     0.093 A 
ATOM      2  C   UNL d   1      -0.332   1.581   1.425  0.00  0.00    -0.030 A 
ATOM      3  C   UNL d   1       0.945   2.627  -0.433  0.00  0.00    -0.030 A 
ATOM      4  C   UNL d   1       0.632   3.893   0.114  0.00  0.00     0.016 A 
ATOM      5  C   UNL d   1      -0.609   2.888   1.890  0.00  0.00     0.016 A 
ATOM      6  C   UNL d   1      -0.147   4.043   1.261  0.00  0.00    -0.054 A 
ENDROOT
BRANCH   1   7
ATOM      7  S   UNL d   1       1.145  -0.153  -0.252  0.00  0.00     0.270 S 
ATOM      8  O   UNL d   1       0.640  -1.231   0.571  0.00  0.00    -0.200 OA
ATOM      9  O   UNL d   1       2.579  -0.001  -0.463  0.00  0.00    -0.200 OA
BRANCH   7  10
ATOM     10  N   UNL d   1       0.500  -0.480  -1.770  0.00  0.00    -0.241 N 
ATOM     11  C   UNL d   1       1.175  -1.169  -2.730  0.00  0.00     0.199 A 
ATOM     12  N   UNL d   1       0.394  -1.416  -3.762  0.00  0.00    -0.360 N 
ATOM     13  C   UNL d   1      -0.842  -0.931  -3.402  0.00  0.00     0.107 A 
ATOM     14  HN  UNL d   1       0.651  -1.869  -4.639  1.00  0.00     0.166 HD
ATOM     15  C   UNL d   1      -0.807  -0.364  -2.145  0.00  0.00     0.127 A 
ENDBRANCH   7  10
ENDBRANCH   1   7
BRANCH   2  16
ATOM     16  C   UNL d   1      -0.957   0.439   2.243  0.00  0.00     0.012 C 
ATOM     17  C   UNL d   1      -0.053   0.038   3.415  0.00  0.00     0.015 C 
ATOM     18  C   UNL d   1      -2.372   0.733   2.795  0.00  0.00     0.015 C 
ENDBRANCH   2  16
BRANCH   3  19
ATOM     19  C   UNL d   1       1.702   2.638  -1.770  0.00  0.00     0.012 C 
ATOM     20  C   UNL d   1       0.951   3.456  -2.839  0.00  0.00     0.015 C 
ATOM     21  C   UNL d   1       3.144   3.147  -1.662  0.00  0.00     0.015 C 
ENDBRANCH   3  19
BRANCH   6  22
ATOM     22  C   UNL d   1      -0.556   5.432   1.727  0.00  0.00     0.010 C 
ATOM     23  C   UNL d   1      -1.879   5.824   1.060  0.00  0.00     0.015 C 
ATOM     24  C   UNL d   1      -0.673   5.588   3.248  0.00  0.00     0.015 C 
ENDBRANCH   6  22
TORSDOF 5
