REMARK  1 active torsions:
REMARK  status: ('A' for Active; 'I' for Inactive)
REMARK    1  A    between atoms: C_13  and  C_4 
ROOT
ATOM      1  C   UNL d   1       1.344   0.908  -0.032  0.00  0.00    -0.008 A 
ATOM      2  C   UNL d   1       0.693  -0.276  -0.051  0.00  0.00     0.054 A 
ATOM      3  C   UNL d   1       3.555  -0.218  -0.015  0.00  0.00     0.124 A 
ATOM      4  C   UNL d   1       2.838   0.929  -0.017  0.00  0.00     0.011 A 
ATOM      5  N   UNL d   1       1.450  -1.431  -0.056  0.00  0.00    -0.321 N 
ATOM      6  C   UNL d   1       2.818  -1.502  -0.031  0.00  0.00     0.267 A 
ATOM      7  C   UNL d   1      -0.801  -0.385  -0.036  0.00  0.00     0.008 A 
ATOM      8  C   UNL d   1       0.702   2.272   0.002  0.00  0.00     0.121 C 
ATOM      9  S   UNL d   1      -1.054   2.415  -0.297  0.00  0.00    -0.124 SA
ATOM     10  C   UNL d   1       4.983  -0.272   0.009  0.00  0.00     0.106 C 
ATOM     11  N   UNL d   1       6.143  -0.260   0.027  0.00  0.00    -0.191 NA
ATOM     12  C   UNL d   1      -1.629   0.750  -0.097  0.00  0.00     0.013 A 
ATOM     13  O   UNL d   1       3.386  -2.590  -0.022  0.00  0.00    -0.266 OA
ATOM     14  C   UNL d   1      -1.456  -1.636   0.036  0.00  0.00     0.015 A 
ATOM     15  C   UNL d   1      -3.033   0.628  -0.060  0.00  0.00     0.019 A 
ATOM     16  C   UNL d   1      -2.854  -1.750   0.056  0.00  0.00     0.001 A 
ATOM     17  C   UNL d   1      -3.645  -0.614   0.017  0.00  0.00     0.001 A 
ATOM     18  H   UNL d   1       1.013  -2.341  -0.071  0.00  0.00     0.169 HD
ENDROOT
BRANCH   4  19
ATOM     19  C   UNL d   1       3.578   2.214  -0.002  0.00  0.00    -0.008 A 
ATOM     20  C   UNL d   1       3.949   2.844  -1.189  0.00  0.00     0.100 A 
ATOM     21  N   UNL d   1       4.506   4.073  -1.247  0.00  0.00    -0.374 N 
ATOM     22  C   UNL d   1       4.717   4.700  -0.069  0.00  0.00     0.087 A 
ATOM     23  HN  UNL d   1       4.755   4.506  -2.136  1.00  0.00     0.164 HD
ATOM     24  C   UNL d   1       4.398   4.155   1.164  0.00  0.00     0.018 A 
ATOM     25  C   UNL d   1       3.821   2.889   1.197  0.00  0.00     0.015 A 
ENDBRANCH   4  19
TORSDOF 1
