REMARK  3 active torsions:
REMARK  status: ('A' for Active; 'I' for Inactive)
REMARK    1  A    between atoms: C_14  and  C_2 
REMARK    2  A    between atoms: S_13  and  C_10 
REMARK    3  A    between atoms: C_15  and  S_13 
ROOT
ATOM      1  N   UNL d   1       0.100   0.679  -0.013  0.00  0.00    -0.219 N 
ATOM      2  C   UNL d   1       1.401   1.156   0.002  0.00  0.00     0.154 A 
ATOM      3  N   UNL d   1       2.223   0.118  -0.069  0.00  0.00    -0.282 N 
ATOM      4  HN  UNL d   1       3.242   0.170  -0.098  1.00  0.00     0.188 HD
ATOM      5  C   UNL d   1       0.217  -0.698  -0.069  0.00  0.00     0.143 A 
ATOM      6  N   UNL d   1      -1.070   1.401  -0.004  0.00  0.00    -0.284 N 
ATOM      7  HN  UNL d   1      -1.104   2.420   0.035  1.00  0.00     0.188 HD
ATOM      8  N   UNL d   1       1.482  -1.040  -0.098  0.00  0.00    -0.282 N 
ATOM      9  HN  UNL d   1       1.850  -1.990  -0.135  1.00  0.00     0.188 HD
ATOM     10  C   UNL d   1      -2.123   0.653  -0.048  0.00  0.00     0.090 A 
ATOM     11  C   UNL d   1      -0.970  -1.460  -0.098  0.00  0.00     0.054 A 
ATOM     12  C   UNL d   1      -2.152  -0.832  -0.096  0.00  0.00     0.042 A 
ENDROOT
BRANCH  10  13
ATOM     13  S   UNL d   1      -3.713   1.382  -0.089  0.00  0.00    -0.071 SA
BRANCH  13  14
ATOM     14  C   UNL d   1      -3.768   2.352   1.406  0.00  0.00     0.007 A 
ATOM     15  C   UNL d   1      -4.459   3.572   1.388  0.00  0.00     0.020 A 
ATOM     16  C   UNL d   1      -4.601   4.331   2.555  0.00  0.00     0.025 A 
ATOM     17  C   UNL d   1      -4.054   3.870   3.749  0.00  0.00     0.034 A 
ATOM     18  C   UNL d   1      -3.364   2.661   3.784  0.00  0.00     0.025 A 
ATOM     19 CL   UNL d   1      -4.246   4.787   5.191  0.00  0.00    -0.084 Cl
ATOM     20  C   UNL d   1      -3.226   1.902   2.617  0.00  0.00     0.020 A 
ENDBRANCH  13  14
ENDBRANCH  10  13
BRANCH   2  21
ATOM     21  C   UNL d   1       1.809   2.562   0.055  0.00  0.00     0.011 A 
ATOM     22  C   UNL d   1       1.030   3.548   0.679  0.00  0.00     0.015 A 
ATOM     23  C   UNL d   1       1.460   4.877   0.726  0.00  0.00     0.001 A 
ATOM     24  C   UNL d   1       2.676   5.239   0.154  0.00  0.00     0.000 A 
ATOM     25  C   UNL d   1       3.466   4.273  -0.465  0.00  0.00     0.001 A 
ATOM     26  C   UNL d   1       3.036   2.944  -0.510  0.00  0.00     0.015 A 
ENDBRANCH   2  21
TORSDOF 3
