REMARK  3 active torsions:
REMARK  status: ('A' for Active; 'I' for Inactive)
REMARK    1  A    between atoms: C_6  and  C_1 
REMARK    2  A    between atoms: O_11  and  C_1 
REMARK    3  A    between atoms: C_10  and  C_6 
ROOT
ATOM      1  C   UNL d   1      -1.326  -1.447  -0.094  0.00  0.00     0.174 A 
ATOM      2  C   UNL d   1      -2.394  -0.310   0.057  0.00  0.00     0.262 A 
ATOM      3  C   UNL d   1      -0.036  -0.680   0.051  0.00  0.00     0.015 A 
ATOM      4  N   UNL d   1      -1.693   0.885   0.207  0.00  0.00    -0.324 N 
ATOM      5  C   UNL d   1      -0.322   0.682   0.172  0.00  0.00     0.044 A 
ATOM      6  C   UNL d   1       1.273  -1.130   0.027  0.00  0.00     0.055 A 
ATOM      7  O   UNL d   1      -3.608  -0.435   0.102  0.00  0.00    -0.269 OA
ATOM      8  C   UNL d   1       0.668   1.642   0.224  0.00  0.00     0.033 A 
ATOM      9  C   UNL d   1       2.282  -0.172   0.083  0.00  0.00     0.117 A 
ATOM     10  C   UNL d   1       1.993   1.199   0.168  0.00  0.00     0.044 A 
ATOM     11  F   UNL d   1       3.561  -0.568   0.039  0.00  0.00    -0.206 F 
ATOM     12  H   UNL d   1      -2.159   1.779   0.269  0.00  0.00     0.169 HD
ENDROOT
BRANCH   1  13
ATOM     13  C   UNL d   1      -1.456  -2.178  -1.429  0.00  0.00     0.131 C 
BRANCH  13  14
ATOM     14  C   UNL d   1      -1.232  -1.299  -2.646  0.00  0.00     0.126 C 
ATOM     15  O   UNL d   1      -1.601  -0.126  -2.696  0.00  0.00    -0.298 OA
ATOM     16  C   UNL d   1      -0.559  -1.925  -3.840  0.00  0.00     0.091 C 
ENDBRANCH  13  14
ENDBRANCH   1  13
BRANCH   1  17
ATOM     17  O   UNL d   1      -1.402  -2.412   0.953  0.00  0.00    -0.375 OA
ATOM     18  H   UNL d   1      -1.389  -1.921   1.794  0.00  0.00     0.211 HD
ENDBRANCH   1  17
TORSDOF 3
