REMARK  2 active torsions:
REMARK  status: ('A' for Active; 'I' for Inactive)
REMARK    1  A    between atoms: C_14  and  N_4 
REMARK    2  A    between atoms: C_15  and  C_14 
ROOT
ATOM      1  C   UNL d   1       0.758   0.374  -0.031  0.00  0.00     0.073 A 
ATOM      2  C   UNL d   1       1.216  -0.907  -0.046  0.00  0.00     0.093 A 
ATOM      3  C   UNL d   1       1.721   1.456   0.022  0.00  0.00     0.263 A 
ATOM      4  N   UNL d   1       3.077   1.047   0.044  0.00  0.00    -0.287 N 
ATOM      5  N   UNL d   1       2.525  -1.265  -0.019  0.00  0.00    -0.326 N 
ATOM      6  C   UNL d   1       3.501  -0.297   0.025  0.00  0.00     0.182 A 
ATOM      7  C   UNL d   1      -0.674   0.389  -0.073  0.00  0.00    -0.026 A 
ATOM      8  C   UNL d   1      -1.186  -0.903  -0.062  0.00  0.00    -0.008 A 
ATOM      9  S   UNL d   1       0.035  -2.098  -0.090  0.00  0.00    -0.075 SA
ATOM     10  S   UNL d   1       5.085  -0.858   0.046  0.00  0.00    -0.040 SA
ATOM     11  C   UNL d   1      -1.563   1.599  -0.056  0.00  0.00     0.041 C 
ATOM     12  O   UNL d   1       1.356   2.630   0.034  0.00  0.00    -0.267 OA
ATOM     13  C   UNL d   1      -2.644  -1.254  -0.032  0.00  0.00     0.051 C 
ATOM     14  C   UNL d   1      -3.036   1.233  -0.311  0.00  0.00     0.009 C 
ATOM     15  C   UNL d   1      -3.480  -0.042   0.439  0.00  0.00    -0.014 C 
ATOM     16  C   UNL d   1      -3.400   0.137   1.960  0.00  0.00     0.010 C 
ATOM     17  H   UNL d   1       2.784  -2.244  -0.040  0.00  0.00     0.169 HD
ENDROOT
BRANCH   4  18
ATOM     18  C   UNL d   1       4.042   2.148   0.013  0.00  0.00     0.161 C 
BRANCH  18  19
ATOM     19  C   UNL d   1       4.427   2.658   1.380  0.00  0.00    -0.017 C 
ATOM     20  C   UNL d   1       4.072   2.203   2.588  0.00  0.00     0.008 C 
ENDBRANCH  18  19
ENDBRANCH   4  18
TORSDOF 2
