REMARK  8 active torsions:
REMARK  status: ('A' for Active; 'I' for Inactive)
REMARK    1  A    between atoms: C_8  and  C_2 
REMARK    2  A    between atoms: N_9  and  N_7 
REMARK    3  A    between atoms: O_18  and  C_8 
REMARK       I    between atoms: C_10  and  N_9 
REMARK    4  A    between atoms: C_16  and  C_10 
REMARK    5  A    between atoms: C_11  and  C_17 
REMARK    6  A    between atoms: O_19  and  C_11 
REMARK    7  A    between atoms: C_12  and  C_16 
REMARK    8  A    between atoms: C_17  and  C_12 
ROOT
ATOM      1  C   UNL d   1       0.009  -1.165  -0.088  0.00  0.00     0.155 A 
ATOM      2  C   UNL d   1      -0.609   0.076   0.002  0.00  0.00     0.101 A 
ATOM      3  N   UNL d   1       1.349  -0.878  -0.301  0.00  0.00    -0.280 N 
ATOM      4  N   UNL d   1       1.613   0.440  -0.386  0.00  0.00    -0.307 N 
ATOM      5  HN  UNL d   1       2.508   0.892  -0.574  1.00  0.00     0.186 HD
ATOM      6  C   UNL d   1       0.433   1.014  -0.168  0.00  0.00     0.129 A 
ATOM      7  N   UNL d   1      -0.427  -2.447   0.027  0.00  0.00    -0.281 N 
ATOM      8  C   UNL d   1       2.476  -1.778  -0.398  0.00  0.00     0.179 C 
ATOM      9  H   UNL d   1       0.181  -3.252  -0.188  0.00  0.00     0.188 HD
ENDROOT
BRANCH   7  10
ATOM     10  N   UNL d   1      -1.761  -2.857   0.191  0.00  0.00    -0.268 N 
ATOM     11  C   UNL d   1      -1.955  -4.234   0.068  0.00  0.00     0.236 C 
ATOM     12  O   UNL d   1      -1.030  -4.992  -0.213  0.00  0.00    -0.272 OA
ATOM     13  H   UNL d   1      -2.277  -2.396   0.945  0.00  0.00     0.190 HD
BRANCH  11  14
ATOM     14  C   UNL d   1      -3.406  -4.657   0.253  0.00  0.00     0.113 C 
BRANCH  14  15
ATOM     15  C   UNL d   1      -3.689  -6.186   0.264  0.00  0.00    -0.030 C 
ATOM     16  C   UNL d   1      -5.213  -6.410   0.404  0.00  0.00     0.016 C 
ATOM     17  C   UNL d   1      -3.290  -6.818  -1.091  0.00  0.00     0.016 C 
BRANCH  15  18
ATOM     18  C   UNL d   1      -2.938  -6.937   1.397  0.00  0.00     0.119 C 
BRANCH  18  19
ATOM     19  C   UNL d   1      -3.217  -6.468   2.815  0.00  0.00     0.140 C 
ATOM     20  O   UNL d   1      -3.951  -5.547   3.133  0.00  0.00    -0.650 OA
BRANCH  19  21
ATOM     21  O   UNL d   1      -2.533  -7.186   3.734  0.00  0.00    -0.776 OA
ATOM     22  H   UNL d   1      -1.966  -7.883   3.352  0.00  0.00     0.167 HD
ENDBRANCH  19  21
ENDBRANCH  18  19
ENDBRANCH  15  18
ENDBRANCH  14  15
ENDBRANCH  11  14
ENDBRANCH   7  10
BRANCH   2  23
ATOM     23  C   UNL d   1      -1.994   0.422   0.230  0.00  0.00     0.181 C 
ATOM     24  O   UNL d   1      -2.350   1.467   0.751  0.00  0.00    -0.646 OA
BRANCH  23  25
ATOM     25  O   UNL d   1      -2.886  -0.492  -0.226  0.00  0.00    -0.773 OA
ATOM     26  H   UNL d   1      -2.411  -1.203  -0.708  0.00  0.00     0.167 HD
ENDBRANCH  23  25
ENDBRANCH   2  23
TORSDOF 8
