REMARK  7 active torsions:
REMARK  status: ('A' for Active; 'I' for Inactive)
REMARK    1  A    between atoms: O_8  and  C_1 
REMARK    2  A    between atoms: N_2  and  C_3 
REMARK       I    between atoms: C_5  and  N_2 
REMARK    3  A    between atoms: C_17  and  C_5 
REMARK    4  A    between atoms: C_7  and  C_18 
REMARK    5  A    between atoms: O_20  and  C_7 
REMARK    6  A    between atoms: C_9  and  O_8 
REMARK    7  A    between atoms: C_18  and  C_17 
ROOT
ATOM      1  C   UNL d   1       1.701  -0.518   4.988  0.00  0.00     0.052 A 
ATOM      2  C   UNL d   1       2.602  -0.468   3.908  0.00  0.00     0.040 A 
ATOM      3  C   UNL d   1       2.167  -0.188   2.604  0.00  0.00     0.058 A 
ATOM      4  C   UNL d   1       0.814   0.039   2.357  0.00  0.00     0.079 A 
ATOM      5  C   UNL d   1       0.356  -0.247   4.730  0.00  0.00     0.034 A 
ATOM      6 BR   UNL d   1       4.459  -0.812   4.162  0.00  0.00    -0.049 Br
ATOM      7  C   UNL d   1      -0.078   0.028   3.429  0.00  0.00     0.039 A 
ENDROOT
BRANCH   1   8
ATOM      8  N   UNL d   1       2.182  -0.873   6.272  0.00  0.00    -0.326 N 
ATOM      9  C   UNL d   1       1.435  -1.118   7.403  0.00  0.00     0.222 C 
ATOM     10  O   UNL d   1       0.223  -0.953   7.535  0.00  0.00    -0.273 OA
ATOM     11  H   UNL d   1       3.178  -1.071   6.313  0.00  0.00     0.169 HD
BRANCH   9  12
ATOM     12  C   UNL d   1       2.248  -1.702   8.544  0.00  0.00     0.113 C 
BRANCH  12  13
ATOM     13  C   UNL d   1       1.346  -2.514   9.467  0.00  0.00     0.119 C 
BRANCH  13  14
ATOM     14  C   UNL d   1       0.795  -3.722   8.748  0.00  0.00     0.139 C 
ATOM     15  O   UNL d   1       1.321  -4.825   8.788  0.00  0.00    -0.650 OA
BRANCH  14  16
ATOM     16  O   UNL d   1      -0.309  -3.471   8.013  0.00  0.00    -0.776 OA
ATOM     17  H   UNL d   1      -0.542  -2.511   7.961  0.00  0.00     0.167 HD
ENDBRANCH  14  16
ENDBRANCH  13  14
ENDBRANCH  12  13
ENDBRANCH   9  12
ENDBRANCH   1   8
BRANCH   4  18
ATOM     18  O   UNL d   1       0.230   0.278   1.148  0.00  0.00    -0.255 OA
BRANCH  18  19
ATOM     19  C   UNL d   1       1.017   0.116  -0.018  0.00  0.00     0.530 C 
ATOM     20  F   UNL d   1       1.620  -1.092  -0.044  0.00  0.00    -0.144 F 
ATOM     21  F   UNL d   1       1.951   1.087  -0.100  0.00  0.00    -0.144 F 
ATOM     22  F   UNL d   1       0.214   0.208  -1.100  0.00  0.00    -0.144 F 
ENDBRANCH  18  19
ENDBRANCH   4  18
TORSDOF 7
