REMARK  1 active torsions:
REMARK  status: ('A' for Active; 'I' for Inactive)
REMARK    1  A    between atoms: C_7  and  C_1 
ROOT
ATOM      1  C   UNL d   1      -1.594  -1.251  -0.108  0.00  0.00    -0.026 A 
ATOM      2  C   UNL d   1      -1.850  -0.507   1.026  0.00  0.00     0.096 A 
ATOM      3  N   UNL d   1      -1.610   0.812   0.739  0.00  0.00    -0.365 N 
ATOM      4  C   UNL d   1      -1.178  -0.324  -1.121  0.00  0.00    -0.001 A 
ATOM      5  C   UNL d   1      -1.208   0.953  -0.570  0.00  0.00     0.042 A 
ATOM      6  C   UNL d   1      -0.788  -0.468  -2.471  0.00  0.00     0.014 A 
ATOM      7  C   UNL d   1      -0.874   2.099  -1.302  0.00  0.00     0.030 A 
ATOM      8  C   UNL d   1      -0.456   0.663  -3.219  0.00  0.00     0.001 A 
ATOM      9  C   UNL d   1      -0.500   1.928  -2.640  0.00  0.00     0.002 A 
ATOM     10  H   UNL d   1      -1.717   1.578   1.390  0.00  0.00     0.165 HD
ENDROOT
BRANCH   1  11
ATOM     11  C   UNL d   1      -1.713  -2.734  -0.326  0.00  0.00     0.024 C 
ATOM     12  C   UNL d   1      -1.647  -3.602   0.932  0.00  0.00     0.039 C 
ATOM     13  C   UNL d   1      -1.654  -5.078   0.527  0.00  0.00     0.270 C 
ATOM     14  N   UNL d   1      -2.822  -5.426  -0.286  0.00  0.00     0.083 N 
ATOM     15  C   UNL d   1      -2.957  -4.576  -1.469  0.00  0.00     0.270 C 
ATOM     16  H   UNL d   1      -2.746  -6.399  -0.583  0.00  0.00     0.315 HD
ATOM     17  C   UNL d   1      -2.985  -3.096  -1.103  0.00  0.00     0.039 C 
ENDBRANCH   1  11
TORSDOF 1
