REMARK  6 active torsions:
REMARK  status: ('A' for Active; 'I' for Inactive)
REMARK    1  A    between atoms: C_10  and  C_1 
REMARK    2  A    between atoms: C_6  and  C_2 
REMARK    3  A    between atoms: C_16  and  N_3 
REMARK    4  A    between atoms: C_18  and  C_9 
REMARK    5  A    between atoms: N_13  and  C_17 
REMARK    6  A    between atoms: C_21  and  C_22 
ROOT
ATOM      1  C   UNL d   1      -0.809  -0.350  -1.040  0.00  0.00     0.156 A 
ATOM      2  C   UNL d   1      -0.396  -1.305  -0.125  0.00  0.00     0.068 A 
ATOM      3  N   UNL d   1      -0.046   0.782  -0.775  0.00  0.00    -0.251 N 
ATOM      4  N   UNL d   1       0.887   0.535   0.185  0.00  0.00    -0.303 N 
ATOM      5  HN  UNL d   1       1.630   1.157   0.504  1.00  0.00     0.186 HD
ATOM      6  C   UNL d   1       0.620  -0.694   0.619  0.00  0.00     0.126 A 
ENDROOT
BRANCH   2   7
ATOM      7  C   UNL d   1      -0.840  -2.717   0.012  0.00  0.00     0.186 A 
ATOM      8  N   UNL d   1      -1.662  -3.322  -0.813  0.00  0.00    -0.318 N 
ATOM      9  C   UNL d   1      -1.658  -4.627  -0.380  0.00  0.00     0.138 A 
ATOM     10  HN  UNL d   1      -2.181  -2.919  -1.593  1.00  0.00     0.169 HD
ATOM     11  N   UNL d   1      -0.930  -4.814   0.734  0.00  0.00    -0.242 N 
ATOM     12  O   UNL d   1      -0.381  -3.561   0.988  0.00  0.00    -0.217 OA
ATOM     13  HN  UNL d   1      -0.808  -5.674   1.268  1.00  0.00     0.196 HD
BRANCH   9  14
ATOM     14  C   UNL d   1      -2.329  -5.702  -1.107  0.00  0.00     0.010 A 
ATOM     15  C   UNL d   1      -3.008  -5.463  -2.308  0.00  0.00     0.016 A 
ATOM     16  C   UNL d   1      -3.614  -6.518  -3.015  0.00  0.00     0.009 A 
ATOM     17  C   UNL d   1      -3.570  -7.844  -2.543  0.00  0.00    -0.051 A 
ATOM     18  C   UNL d   1      -2.881  -8.065  -1.340  0.00  0.00     0.009 A 
ATOM     19  C   UNL d   1      -2.276  -7.016  -0.635  0.00  0.00     0.016 A 
BRANCH  17  20
ATOM     20  C   UNL d   1      -4.274  -8.985  -3.304  0.00  0.00    -0.024 C 
ATOM     21  C   UNL d   1      -4.137 -10.360  -2.606  0.00  0.00     0.019 C 
ATOM     22  C   UNL d   1      -5.783  -8.681  -3.417  0.00  0.00     0.019 C 
ATOM     23  C   UNL d   1      -3.691  -9.143  -4.725  0.00  0.00     0.019 C 
ENDBRANCH  17  20
ENDBRANCH   9  14
ENDBRANCH   2   7
BRANCH   1  24
ATOM     24  C   UNL d   1      -1.749  -0.421  -2.173  0.00  0.00     0.435 C 
ATOM     25  F   UNL d   1      -2.154  -1.668  -2.503  0.00  0.00    -0.165 F 
ATOM     26  F   UNL d   1      -2.889   0.273  -1.927  0.00  0.00    -0.165 F 
ATOM     27  F   UNL d   1      -1.203   0.091  -3.304  0.00  0.00    -0.165 F 
ENDBRANCH   1  24
BRANCH   3  28
ATOM     28  C   UNL d   1      -0.084   2.091  -1.353  0.00  0.00     0.057 A 
ATOM     29  C   UNL d   1      -1.277   2.662  -1.804  0.00  0.00     0.034 A 
ATOM     30  C   UNL d   1      -1.283   3.915  -2.427  0.00  0.00     0.038 A 
ATOM     31  C   UNL d   1      -0.088   4.621  -2.575  0.00  0.00     0.103 A 
ATOM     32  C   UNL d   1       1.109   4.095  -2.074  0.00  0.00     0.038 A 
ATOM     33  C   UNL d   1       1.106   2.836  -1.452  0.00  0.00     0.034 A 
BRANCH  31  34
ATOM     34  N   UNL d   1      -0.108   5.927  -3.246  0.00  0.00    -0.116 N 
ATOM     35  O   UNL d   1       0.968   6.542  -3.338  0.00  0.00    -0.532 OA
ATOM     36  O   UNL d   1      -1.193   6.334  -3.682  0.00  0.00    -0.532 OA
ENDBRANCH  31  34
ENDBRANCH   3  28
TORSDOF 6
