REMARK  4 active torsions:
REMARK  status: ('A' for Active; 'I' for Inactive)
REMARK    1  A    between atoms: C_3  and  C_1 
REMARK    2  A    between atoms: N_4  and  C_2 
REMARK       I    between atoms: C_5  and  N_6 
REMARK    3  A    between atoms: C_13  and  C_5 
REMARK    4  A    between atoms: N_7  and  C_12 
ROOT
ATOM      1  N   UNL d   1      -1.250   2.472   0.381  0.00  0.00    -0.266 NA
ATOM      2  C   UNL d   1      -3.861   5.761   0.740  0.00  0.00     0.253 C 
ATOM      3  N   UNL d   1      -2.874   4.784   0.772  0.00  0.00    -0.346 N 
ATOM      4  C   UNL d   1      -1.486   3.373  -0.772  0.00  0.00     0.117 C 
ATOM      5  C   UNL d   1      -2.429   2.420   1.276  0.00  0.00     0.117 C 
ATOM      6  C   UNL d   1      -1.812   4.798  -0.253  0.00  0.00     0.141 C 
ATOM      7  C   UNL d   1      -2.615   3.830   1.863  0.00  0.00     0.141 C 
ATOM      8  O   UNL d   1      -3.854   6.684  -0.074  0.00  0.00    -0.267 OA
ENDROOT
BRANCH   2   9
ATOM      9  C   UNL d   1      -4.991   5.720   1.710  0.00  0.00     0.032 A 
ATOM     10  C   UNL d   1      -5.458   6.928   2.242  0.00  0.00     0.019 A 
ATOM     11  C   UNL d   1      -6.516   6.941   3.159  0.00  0.00     0.032 A 
ATOM     12  C   UNL d   1      -7.105   5.735   3.564  0.00  0.00     0.056 A 
ATOM     13  C   UNL d   1      -6.657   4.528   3.005  0.00  0.00     0.032 A 
ATOM     14  C   UNL d   1      -5.638   4.528   2.051  0.00  0.00     0.019 A 
BRANCH  12  15
ATOM     15  N   UNL d   1      -8.156   5.706   4.523  0.00  0.00    -0.268 N 
ATOM     16  N   UNL d   1      -8.618   4.523   5.011  0.00  0.00    -0.305 N 
ATOM     17  C   UNL d   1      -9.569   4.863   5.881  0.00  0.00     0.109 A 
ATOM     18  HN  UNL d   1      -8.307   3.584   4.765  1.00  0.00     0.186 HD
ATOM     19  C   UNL d   1      -9.755   6.250   5.958  0.00  0.00     0.038 A 
ATOM     20  C   UNL d   1      -8.832   6.770   5.082  0.00  0.00     0.118 A 
ENDBRANCH  12  15
ENDBRANCH   2   9
BRANCH   1  21
ATOM     21  C   UNL d   1      -0.692   1.228   0.088  0.00  0.00     0.097 A 
ATOM     22  C   UNL d   1       0.019   0.515   1.054  0.00  0.00     0.086 A 
ATOM     23  C   UNL d   1       0.554  -0.743   0.702  0.00  0.00     0.021 A 
ATOM     24  C   UNL d   1       0.398  -1.234  -0.585  0.00  0.00     0.018 A 
ATOM     25  C   UNL d   1      -0.297  -0.451  -1.481  0.00  0.00     0.089 A 
ATOM     26  N   UNL d   1      -0.832   0.750  -1.172  0.00  0.00    -0.356 N 
ATOM     27  HN  UNL d   1      -1.335   1.289  -1.877  1.00  0.00     0.166 HD
BRANCH  22  28
ATOM     28  C   UNL d   1       0.278   1.002   2.451  0.00  0.00     0.420 C 
ATOM     29  F   UNL d   1      -0.062   2.288   2.738  0.00  0.00    -0.166 F 
ATOM     30  F   UNL d   1      -0.388   0.245   3.375  0.00  0.00    -0.166 F 
ATOM     31  F   UNL d   1       1.596   0.903   2.796  0.00  0.00    -0.166 F 
ENDBRANCH  22  28
ENDBRANCH   1  21
TORSDOF 4
