REMARK  6 active torsions:
REMARK  status: ('A' for Active; 'I' for Inactive)
REMARK    1  A    between atoms: C_4  and  C_1 
REMARK    2  A    between atoms: C_2  and  C_3 
REMARK    3  A    between atoms: C_7  and  C_6 
REMARK    4  A    between atoms: C_11  and  C_7 
REMARK    5  A    between atoms: C_8  and  N_14 
REMARK    6  A    between atoms: N_14  and  C_12 
ROOT
ATOM      1  C   UNL d   1       2.100  -0.133  -2.501  0.00  0.00     0.050 A 
ATOM      2  C   UNL d   1       0.727   1.813  -3.009  0.00  0.00     0.050 A 
ATOM      3  C   UNL d   1       1.888   1.250  -2.460  0.00  0.00     0.032 A 
ATOM      4  C   UNL d   1      -0.224   0.965  -3.609  0.00  0.00     0.045 A 
ATOM      5  C   UNL d   1       1.126  -0.954  -3.097  0.00  0.00     0.045 A 
ATOM      6  C   UNL d   1      -0.038  -0.426  -3.669  0.00  0.00     0.033 A 
ENDROOT
BRANCH   6   7
ATOM      7  N   UNL d   1      -1.051  -1.233  -4.220  0.00  0.00    -0.366 N 
ATOM      8  H   UNL d   1      -1.687  -0.776  -4.863  0.00  0.00     0.165 HD
BRANCH   7   9
ATOM      9  C   UNL d   1      -1.278  -2.569  -3.976  0.00  0.00     0.092 C 
ATOM     10  C   UNL d   1      -2.166  -3.375  -4.574  0.00  0.00     0.072 C 
BRANCH  10  11
ATOM     11  C   UNL d   1      -2.303  -4.776  -4.084  0.00  0.00     0.183 C 
ATOM     12  O   UNL d   1      -1.650  -5.193  -3.132  0.00  0.00    -0.288 OA
BRANCH  11  13
ATOM     13  C   UNL d   1      -3.301  -5.671  -4.731  0.00  0.00     0.014 A 
ATOM     14  C   UNL d   1      -3.653  -5.575  -6.081  0.00  0.00     0.016 A 
ATOM     15  C   UNL d   1      -4.595  -6.457  -6.625  0.00  0.00     0.007 A 
ATOM     16  C   UNL d   1      -5.189  -7.448  -5.834  0.00  0.00    -0.062 A 
ATOM     17  C   UNL d   1      -4.825  -7.552  -4.488  0.00  0.00     0.007 A 
ATOM     18  C   UNL d   1      -6.203  -8.382  -6.430  0.00  0.00     0.048 C 
ATOM     19  C   UNL d   1      -3.884  -6.675  -3.944  0.00  0.00     0.016 A 
ENDBRANCH  11  13
ENDBRANCH  10  11
ENDBRANCH   7   9
ENDBRANCH   6   7
BRANCH   1  20
ATOM     20  C   UNL d   1       3.349  -0.756  -1.926  0.00  0.00     0.417 C 
ATOM     21  F   UNL d   1       4.212   0.155  -1.395  0.00  0.00    -0.166 F 
ATOM     22  F   UNL d   1       3.080  -1.641  -0.927  0.00  0.00    -0.166 F 
ATOM     23  F   UNL d   1       4.063  -1.445  -2.858  0.00  0.00    -0.166 F 
ENDBRANCH   1  20
BRANCH   2  24
ATOM     24  C   UNL d   1       0.487   3.303  -2.955  0.00  0.00     0.417 C 
ATOM     25  F   UNL d   1       1.495   3.995  -2.354  0.00  0.00    -0.166 F 
ATOM     26  F   UNL d   1      -0.645   3.625  -2.272  0.00  0.00    -0.166 F 
ATOM     27  F   UNL d   1       0.346   3.851  -4.194  0.00  0.00    -0.166 F 
ENDBRANCH   2  24
TORSDOF 6
