REMARK  5 active torsions:
REMARK  status: ('A' for Active; 'I' for Inactive)
REMARK    1  A    between atoms: N_2  and  S_1 
REMARK    2  A    between atoms: C_10  and  S_1 
REMARK    3  A    between atoms: C_3  and  C_5 
REMARK    4  A    between atoms: C_4  and  C_14 
REMARK    5  A    between atoms: C_7  and  N_6 
ROOT
ATOM      1  N   UNL d   1       0.472   0.632  -1.448  0.00  0.00    -0.205 NA
ATOM      2  N   UNL d   1       0.877   2.188  -4.030  0.00  0.00    -0.366 N 
ATOM      3  C   UNL d   1       0.899   2.080  -1.540  0.00  0.00     0.127 C 
ATOM      4  C   UNL d   1       0.394   2.804  -2.794  0.00  0.00     0.140 C 
ATOM      5  C   UNL d   1       0.191  -0.181  -3.839  0.00  0.00     0.035 C 
ATOM      6  C   UNL d   1       1.057  -0.182  -2.581  0.00  0.00     0.109 C 
ATOM      7  C   UNL d   1       0.035   1.141  -4.592  0.00  0.00     0.125 C 
ENDROOT
BRANCH   1   8
ATOM      8  S   UNL d   1       0.923  -0.061   0.084  0.00  0.00     0.243 S 
ATOM      9  O   UNL d   1       2.306   0.311   0.325  0.00  0.00    -0.206 OA
ATOM     10  O   UNL d   1       0.506  -1.448   0.098  0.00  0.00    -0.206 OA
BRANCH   8  11
ATOM     11  C   UNL d   1      -0.087   0.777   1.285  0.00  0.00     0.074 A 
ATOM     12  C   UNL d   1      -1.477   0.644   1.218  0.00  0.00     0.025 A 
ATOM     13  C   UNL d   1      -2.272   1.200   2.225  0.00  0.00     0.018 A 
ATOM     14  C   UNL d   1      -1.689   1.884   3.307  0.00  0.00     0.048 A 
ATOM     15  C   UNL d   1      -0.290   2.009   3.357  0.00  0.00     0.018 A 
ATOM     16  C   UNL d   1       0.510   1.458   2.352  0.00  0.00     0.025 A 
BRANCH  14  17
ATOM     17  C   UNL d   1      -2.564   2.457   4.399  0.00  0.00     0.417 C 
ATOM     18  F   UNL d   1      -1.863   3.069   5.395  0.00  0.00    -0.166 F 
ATOM     19  F   UNL d   1      -3.433   3.393   3.928  0.00  0.00    -0.166 F 
ATOM     20  F   UNL d   1      -3.328   1.510   5.010  0.00  0.00    -0.166 F 
ENDBRANCH  14  17
ENDBRANCH   8  11
ENDBRANCH   1   8
BRANCH   2  21
ATOM     21  C   UNL d   1       1.954   2.673  -4.742  0.00  0.00     0.102 A 
ATOM     22  N   UNL d   1       2.014   2.443  -6.072  0.00  0.00    -0.352 N 
ATOM     23  C   UNL d   1       3.053   2.941  -6.791  0.00  0.00     0.106 A 
ATOM     24  HN  UNL d   1       1.285   1.899  -6.533  1.00  0.00     0.166 HD
ATOM     25  C   UNL d   1       4.099   3.659  -6.245  0.00  0.00     0.063 A 
ATOM     26  C   UNL d   1       4.061   3.870  -4.871  0.00  0.00     0.021 A 
ATOM     27  C   UNL d   1       2.984   3.383  -4.125  0.00  0.00     0.049 A 
BRANCH  25  28
ATOM     28  C   UNL d   1       5.218   4.178  -7.091  0.00  0.00     0.418 C 
ATOM     29  F   UNL d   1       5.081   3.898  -8.417  0.00  0.00    -0.166 F 
ATOM     30  F   UNL d   1       5.347   5.531  -7.009  0.00  0.00    -0.166 F 
ATOM     31  F   UNL d   1       6.427   3.668  -6.726  0.00  0.00    -0.166 F 
ENDBRANCH  25  28
ENDBRANCH   2  21
TORSDOF 5
