REMARK  2 active torsions:
REMARK  status: ('A' for Active; 'I' for Inactive)
REMARK       I    between atoms: N_3  and  C_1 
REMARK    1  A    between atoms: C_9  and  C_1 
REMARK    2  A    between atoms: C_2  and  N_3 
ROOT
ATOM      1  C   UNL d   1       1.017  -0.001  -0.050  0.00  0.00     0.256 C 
ATOM      2  N   UNL d   1       0.398  -0.778   0.910  0.00  0.00    -0.320 N 
ATOM      3  O   UNL d   1       2.224   0.179  -0.176  0.00  0.00    -0.267 OA
ATOM      4  H   UNL d   1      -0.585  -0.998   0.780  0.00  0.00     0.169 HD
ENDROOT
BRANCH   2   5
ATOM      5  C   UNL d   1       1.043  -1.507   1.934  0.00  0.00     0.077 A 
ATOM      6  C   UNL d   1       2.376  -1.318   2.300  0.00  0.00     0.076 A 
ATOM      7  C   UNL d   1       2.948  -2.132   3.277  0.00  0.00     0.136 A 
ATOM      8  F   UNL d   1       4.234  -1.936   3.599  0.00  0.00    -0.205 F 
ATOM      9  C   UNL d   1       2.204  -3.133   3.901  0.00  0.00     0.052 A 
ATOM     10  C   UNL d   1       0.863  -3.308   3.572  0.00  0.00     0.067 A 
ATOM     11 BR   UNL d   1       3.005  -4.266   5.184  0.00  0.00    -0.048 Br
ATOM     12  C   UNL d   1       0.295  -2.488   2.601  0.00  0.00     0.144 A 
ATOM     13  F   UNL d   1      -0.995  -2.668   2.276  0.00  0.00    -0.204 F 
ENDBRANCH   2   5
BRANCH   1  14
ATOM     14  C   UNL d   1       0.106   0.587  -1.064  0.00  0.00     0.032 A 
ATOM     15  C   UNL d   1      -1.147   1.104  -0.711  0.00  0.00     0.018 A 
ATOM     16  C   UNL d   1      -1.988   1.615  -1.702  0.00  0.00     0.025 A 
ATOM     17  C   UNL d   1      -1.576   1.612  -3.036  0.00  0.00     0.034 A 
ATOM     18  C   UNL d   1      -0.318   1.125  -3.387  0.00  0.00     0.025 A 
ATOM     19 CL   UNL d   1      -2.630   2.213  -4.255  0.00  0.00    -0.084 Cl
ATOM     20  C   UNL d   1       0.528   0.618  -2.400  0.00  0.00     0.018 A 
ENDBRANCH   1  14
TORSDOF 2
