REMARK  8 active torsions:
REMARK  status: ('A' for Active; 'I' for Inactive)
REMARK    1  A    between atoms: C_18  and  C_3 
REMARK    2  A    between atoms: C_7  and  C_4 
REMARK    3  A    between atoms: C_13  and  C_7 
REMARK    4  A    between atoms: O_21  and  C_8 
REMARK    5  A    between atoms: C_9  and  C_10 
REMARK       I    between atoms: C_10  and  N_16 
REMARK    6  A    between atoms: O_22  and  C_11 
REMARK    7  A    between atoms: O_23  and  C_12 
REMARK       I    between atoms: N_17  and  C_13 
REMARK    8  A    between atoms: N_16  and  N_17 
ROOT
ATOM      1  C   UNL d   1       1.848  -2.807  -0.567  0.00  0.00     0.241 C 
ATOM      2  N   UNL d   1       2.724  -1.753  -0.684  0.00  0.00    -0.267 N 
ATOM      3  O   UNL d   1       0.650  -2.676  -0.838  0.00  0.00    -0.271 OA
ATOM      4  H   UNL d   1       3.735  -1.925  -0.697  0.00  0.00     0.190 HD
ENDROOT
BRANCH   2   5
ATOM      5  N   UNL d   1       2.272  -0.554  -1.256  0.00  0.00    -0.263 N 
ATOM      6  C   UNL d   1       3.057   0.577  -1.117  0.00  0.00     0.270 C 
ATOM      7  O   UNL d   1       4.173   0.546  -0.600  0.00  0.00    -0.266 OA
ATOM      8  H   UNL d   1       1.288  -0.544  -1.511  0.00  0.00     0.190 HD
BRANCH   6   9
ATOM      9  C   UNL d   1       2.502   1.875  -1.610  0.00  0.00     0.039 A 
ATOM     10  C   UNL d   1       1.378   1.958  -2.437  0.00  0.00     0.057 A 
ATOM     11  C   UNL d   1       0.905   3.202  -2.901  0.00  0.00     0.105 A 
ATOM     12  C   UNL d   1       1.591   4.385  -2.564  0.00  0.00     0.135 A 
ATOM     13  C   UNL d   1       2.711   4.293  -1.714  0.00  0.00     0.105 A 
ATOM     14  C   UNL d   1       3.173   3.051  -1.262  0.00  0.00     0.057 A 
BRANCH  11  15
ATOM     15  O   UNL d   1      -0.167   3.272  -3.753  0.00  0.00    -0.353 OA
ATOM     16  C   UNL d   1      -1.194   2.305  -3.562  0.00  0.00     0.210 C 
ENDBRANCH  11  15
BRANCH  12  17
ATOM     17  O   UNL d   1       1.321   5.654  -3.011  0.00  0.00    -0.351 OA
ATOM     18  C   UNL d   1       0.103   5.915  -3.691  0.00  0.00     0.210 C 
ENDBRANCH  12  17
BRANCH  13  19
ATOM     19  O   UNL d   1       3.485   5.371  -1.360  0.00  0.00    -0.353 OA
ATOM     20  C   UNL d   1       2.780   6.377  -0.631  0.00  0.00     0.210 C 
ENDBRANCH  13  19
ENDBRANCH   6   9
ENDBRANCH   2   5
BRANCH   1  21
ATOM     21  C   UNL d   1       2.395  -4.133  -0.050  0.00  0.00     0.162 C 
BRANCH  21  22
ATOM     22  C   UNL d   1       3.878  -4.234   0.173  0.00  0.00     0.031 A 
ATOM     23  N   UNL d   1       4.733  -3.495  -0.639  0.00  0.00    -0.352 N 
ATOM     24  C   UNL d   1       5.996  -3.697  -0.312  0.00  0.00     0.085 A 
ATOM     25  HN  UNL d   1       4.424  -2.878  -1.390  1.00  0.00     0.166 HD
ATOM     26  S   UNL d   1       6.227  -4.851   0.939  0.00  0.00    -0.075 SA
ATOM     27  C   UNL d   1       4.530  -5.013   1.118  0.00  0.00     0.004 A 
ATOM     28  C   UNL d   1       3.986  -5.909   2.177  0.00  0.00     0.058 C 
BRANCH  24  29
ATOM     29  C   UNL d   1       7.128  -2.931  -0.851  0.00  0.00    -0.002 A 
ATOM     30  C   UNL d   1       6.932  -1.580  -1.178  0.00  0.00     0.014 A 
ATOM     31  C   UNL d   1       7.994  -0.779  -1.601  0.00  0.00     0.001 A 
ATOM     32  C   UNL d   1       9.268  -1.323  -1.719  0.00  0.00     0.000 A 
ATOM     33  C   UNL d   1       9.476  -2.672  -1.438  0.00  0.00     0.001 A 
ATOM     34  C   UNL d   1       8.412  -3.474  -1.010  0.00  0.00     0.014 A 
ENDBRANCH  24  29
ENDBRANCH  21  22
ENDBRANCH   1  21
TORSDOF 8
