REMARK  2 active torsions:
REMARK  status: ('A' for Active; 'I' for Inactive)
REMARK       I    between atoms: N_2  and  C_1 
REMARK    1  A    between atoms: C_6  and  C_1 
REMARK    2  A    between atoms: C_3  and  N_2 
ROOT
ATOM      1  C   UNL d   1       1.079   0.083   0.015  0.00  0.00     0.256 C 
ATOM      2  N   UNL d   1       0.389  -0.928   0.654  0.00  0.00    -0.322 N 
ATOM      3  O   UNL d   1       2.298   0.220  -0.005  0.00  0.00    -0.267 OA
ATOM      4  H   UNL d   1      -0.526  -1.165   0.284  0.00  0.00     0.169 HD
ENDROOT
BRANCH   2   5
ATOM      5  C   UNL d   1       1.024  -1.928   1.432  0.00  0.00     0.051 A 
ATOM      6  C   UNL d   1       0.565  -3.252   1.401  0.00  0.00     0.034 A 
ATOM      7  C   UNL d   1       1.218  -4.248   2.138  0.00  0.00     0.038 A 
ATOM      8  I   UNL d   1      -1.028  -3.844   0.165  0.00  0.00    -0.042 I 
ATOM      9  C   UNL d   1       2.309  -3.911   2.938  0.00  0.00     0.007 A 
ATOM     10  C   UNL d   1       2.753  -2.591   3.008  0.00  0.00     0.020 A 
ATOM     11  I   UNL d   1       3.292  -5.386   4.024  0.00  0.00    -0.045 I 
ATOM     12  C   UNL d   1       2.114  -1.607   2.252  0.00  0.00     0.032 A 
ENDBRANCH   2   5
BRANCH   1  13
ATOM     13  C   UNL d   1       0.253   1.022  -0.777  0.00  0.00     0.032 A 
ATOM     14  C   UNL d   1      -0.933   1.554  -0.259  0.00  0.00     0.018 A 
ATOM     15  C   UNL d   1      -1.640   2.509  -0.995  0.00  0.00     0.025 A 
ATOM     16  C   UNL d   1      -1.165   2.920  -2.243  0.00  0.00     0.034 A 
ATOM     17  C   UNL d   1       0.010   2.384  -2.766  0.00  0.00     0.025 A 
ATOM     18 CL   UNL d   1      -2.029   4.112  -3.133  0.00  0.00    -0.084 Cl
ATOM     19  C   UNL d   1       0.725   1.438  -2.029  0.00  0.00     0.018 A 
ENDBRANCH   1  13
TORSDOF 2
