REMARK  7 active torsions:
REMARK  status: ('A' for Active; 'I' for Inactive)
REMARK    1  A    between atoms: C_6  and  C_1 
REMARK    2  A    between atoms: C_19  and  C_5 
REMARK       I    between atoms: C_9  and  N_11 
REMARK    3  A    between atoms: C_20  and  C_9 
REMARK    4  A    between atoms: O_23  and  C_10 
REMARK    5  A    between atoms: N_11  and  C_19 
REMARK    6  A    between atoms: O_24  and  C_13 
REMARK    7  A    between atoms: C_16  and  C_20 
ROOT
ATOM      1  C   UNL d   1       4.922   1.584   0.017  0.00  0.00     0.222 C 
ATOM      2  N   UNL d   1       4.379   1.824   1.260  0.00  0.00    -0.355 N 
ATOM      3  O   UNL d   1       4.380   1.971  -1.019  0.00  0.00    -0.273 OA
ATOM      4  H   UNL d   1       4.868   1.609   2.122  0.00  0.00     0.162 HD
ENDROOT
BRANCH   2   5
ATOM      5  C   UNL d   1       3.136   2.549   1.347  0.00  0.00     0.180 C 
BRANCH   5   6
ATOM      6  C   UNL d   1       2.678   2.755   2.757  0.00  0.00     0.034 A 
ATOM      7  N   UNL d   1       3.398   2.263   3.846  0.00  0.00    -0.351 N 
ATOM      8  C   UNL d   1       2.782   2.575   4.978  0.00  0.00     0.091 A 
ATOM      9  HN  UNL d   1       4.270   1.738   3.781  1.00  0.00     0.166 HD
ATOM     10  S   UNL d   1       1.324   3.470   4.786  0.00  0.00    -0.081 SA
ATOM     11  C   UNL d   1       1.525   3.439   3.095  0.00  0.00     0.078 A 
BRANCH   8  12
ATOM     12  C   UNL d   1       3.309   2.185   6.270  0.00  0.00     0.038 A 
ATOM     13  S   UNL d   1       2.526   2.534   7.762  0.00  0.00    -0.099 SA
ATOM     14  C   UNL d   1       3.748   1.770   8.675  0.00  0.00     0.050 A 
ATOM     15  C   UNL d   1       4.740   1.253   7.875  0.00  0.00     0.008 A 
ATOM     16  C   UNL d   1       4.486   1.492   6.494  0.00  0.00     0.022 A 
ENDBRANCH   8  12
ENDBRANCH   5   6
ENDBRANCH   2   5
BRANCH   1  17
ATOM     17  C   UNL d   1       6.207   0.781  -0.010  0.00  0.00     0.141 C 
BRANCH  17  18
ATOM     18  C   UNL d   1       7.468   1.613  -0.002  0.00  0.00    -0.047 A 
ATOM     19  C   UNL d   1       8.442   1.401   0.990  0.00  0.00     0.047 A 
ATOM     20  C   UNL d   1       9.640   2.137   1.021  0.00  0.00     0.102 A 
ATOM     21  C   UNL d   1       9.874   3.091   0.017  0.00  0.00     0.101 A 
ATOM     22  C   UNL d   1       8.907   3.300  -0.975  0.00  0.00     0.040 A 
ATOM     23  C   UNL d   1       7.720   2.563  -0.995  0.00  0.00     0.010 A 
BRANCH  20  24
ATOM     24  O   UNL d   1      10.582   1.993   2.004  0.00  0.00    -0.353 OA
ATOM     25  C   UNL d   1      10.350   1.030   3.024  0.00  0.00     0.210 C 
ENDBRANCH  20  24
BRANCH  21  26
ATOM     26  O   UNL d   1      10.955   3.928  -0.104  0.00  0.00    -0.353 OA
ATOM     27  C   UNL d   1      12.207   3.450   0.371  0.00  0.00     0.210 C 
ENDBRANCH  21  26
ENDBRANCH  17  18
ENDBRANCH   1  17
TORSDOF 7
