REMARK  3 active torsions:
REMARK  status: ('A' for Active; 'I' for Inactive)
REMARK    1  A    between atoms: O_11  and  C_10 
REMARK    2  A    between atoms: C_15  and  O_11 
REMARK    3  A    between atoms: C_16  and  C_15 
ROOT
ATOM      1  C   UNL d   1      -0.425  -0.791   0.178  0.00  0.00     0.086 A 
ATOM      2  C   UNL d   1      -0.691   0.575   0.141  0.00  0.00     0.043 A 
ATOM      3  C   UNL d   1       0.434   1.516   0.272  0.00  0.00     0.165 C 
ATOM      4  O   UNL d   1       0.824  -1.333   0.291  0.00  0.00    -0.340 OA
ATOM      5  C   UNL d   1       1.916  -0.460  -0.043  0.00  0.00     0.067 C 
ATOM      6  C   UNL d   1       1.765   0.909   0.623  0.00  0.00     0.121 C 
ATOM      7  C   UNL d   1      -1.471  -1.707   0.093  0.00  0.00     0.074 A 
ATOM      8  C   UNL d   1      -2.003   1.034   0.003  0.00  0.00     0.021 A 
ATOM      9  O   UNL d   1       0.267   2.725   0.159  0.00  0.00    -0.292 OA
ATOM     10  C   UNL d   1      -2.781  -1.261  -0.095  0.00  0.00     0.071 A 
ATOM     11  C   UNL d   1      -3.047   0.111  -0.113  0.00  0.00     0.038 A 
ATOM     12  C   UNL d   1       2.061  -0.361  -1.572  0.00  0.00     0.046 C 
ATOM     13  C   UNL d   1       3.166  -1.156   0.515  0.00  0.00     0.046 C 
ENDROOT
BRANCH  10  14
ATOM     14  O   UNL d   1      -3.864  -2.078  -0.280  0.00  0.00    -0.347 OA
BRANCH  14  15
ATOM     15  C   UNL d   1      -3.554  -3.392  -0.757  0.00  0.00     0.214 C 
BRANCH  15  16
ATOM     16  C   UNL d   1      -4.762  -4.028  -1.402  0.00  0.00    -0.031 A 
ATOM     17  C   UNL d   1      -4.587  -4.877  -2.504  0.00  0.00     0.051 A 
ATOM     18  C   UNL d   1      -5.687  -5.491  -3.094  0.00  0.00     0.117 A 
ATOM     19  F   UNL d   1      -5.504  -6.292  -4.151  0.00  0.00    -0.206 F 
ATOM     20  C   UNL d   1      -6.968  -5.290  -2.598  0.00  0.00     0.042 A 
ATOM     21  C   UNL d   1      -7.153  -4.461  -1.493  0.00  0.00     0.004 A 
ATOM     22  C   UNL d   1      -6.056  -3.840  -0.892  0.00  0.00     0.009 A 
ENDBRANCH  15  16
ENDBRANCH  14  15
ENDBRANCH  10  14
TORSDOF 3
