REMARK  5 active torsions:
REMARK  status: ('A' for Active; 'I' for Inactive)
REMARK    1  A    between atoms: C_7  and  C_4 
REMARK    2  A    between atoms: C_14  and  C_5 
REMARK    3  A    between atoms: C_10  and  C_7 
REMARK    4  A    between atoms: O_26  and  C_15 
REMARK    5  A    between atoms: O_27  and  C_18 
ROOT
ATOM      1  C   UNL d   1      -0.763   0.607   0.054  0.00  0.00     0.068 A 
ATOM      2  N   UNL d   1      -1.583  -0.517   0.045  0.00  0.00    -0.341 N 
ATOM      3  C   UNL d   1      -1.623   1.696   0.030  0.00  0.00     0.085 A 
ATOM      4  C   UNL d   1      -2.930  -0.182   0.080  0.00  0.00     0.100 A 
ATOM      5  C   UNL d   1      -2.977   1.215   0.043  0.00  0.00     0.028 A 
ATOM      6  C   UNL d   1       0.706   0.449   0.043  0.00  0.00     0.002 A 
ATOM      7  C   UNL d   1       1.229  -0.804  -0.326  0.00  0.00    -0.041 A 
ATOM      8  C   UNL d   1       1.607   1.454   0.421  0.00  0.00     0.054 A 
ATOM      9  C   UNL d   1      -1.216   3.069  -0.022  0.00  0.00     0.102 C 
ATOM     10  C   UNL d   1      -1.010  -1.858  -0.008  0.00  0.00     0.134 C 
ATOM     11  N   UNL d   1      -0.876   4.177  -0.084  0.00  0.00    -0.191 NA
ATOM     12  C   UNL d   1       2.998   1.216   0.429  0.00  0.00     0.102 A 
ATOM     13  C   UNL d   1       2.610  -1.033  -0.307  0.00  0.00     0.047 A 
ATOM     14  C   UNL d   1       3.509  -0.040   0.089  0.00  0.00     0.102 A 
ATOM     15  C   UNL d   1       0.300  -1.900  -0.781  0.00  0.00     0.060 C 
ENDROOT
BRANCH   5  16
ATOM     16  C   UNL d   1      -4.208   2.016   0.036  0.00  0.00    -0.022 A 
ATOM     17  C   UNL d   1      -4.347   3.095  -0.844  0.00  0.00     0.013 A 
ATOM     18  C   UNL d   1      -5.461   3.943  -0.781  0.00  0.00     0.007 A 
ATOM     19  C   UNL d   1      -6.476   3.709   0.151  0.00  0.00    -0.062 A 
ATOM     20  C   UNL d   1      -6.361   2.614   1.013  0.00  0.00     0.007 A 
ATOM     21  C   UNL d   1      -7.628   4.664   0.268  0.00  0.00     0.048 C 
ATOM     22  C   UNL d   1      -5.238   1.778   0.960  0.00  0.00     0.013 A 
ENDBRANCH   5  16
BRANCH   4  23
ATOM     23  C   UNL d   1      -4.048  -1.130   0.029  0.00  0.00     0.216 C 
ATOM     24  O   UNL d   1      -4.991  -0.978  -0.741  0.00  0.00    -0.284 OA
BRANCH  23  25
ATOM     25  C   UNL d   1      -3.938  -2.276   0.931  0.00  0.00     0.057 A 
ATOM     26  S   UNL d   1      -4.568  -3.791   0.413  0.00  0.00    -0.098 SA
ATOM     27  C   UNL d   1      -3.957  -4.597   1.791  0.00  0.00     0.050 A 
ATOM     28  C   UNL d   1      -3.352  -3.728   2.669  0.00  0.00     0.009 A 
ATOM     29  C   UNL d   1      -3.369  -2.383   2.190  0.00  0.00     0.023 A 
ENDBRANCH  23  25
ENDBRANCH   4  23
BRANCH  12  30
ATOM     30  O   UNL d   1       3.806   2.220   0.895  0.00  0.00    -0.353 OA
ATOM     31  C   UNL d   1       4.106   3.170  -0.130  0.00  0.00     0.210 C 
ENDBRANCH  12  30
BRANCH  14  32
ATOM     32  O   UNL d   1       4.799  -0.490   0.101  0.00  0.00    -0.353 OA
ATOM     33  C   UNL d   1       5.854   0.423   0.347  0.00  0.00     0.210 C 
ENDBRANCH  14  32
TORSDOF 5
