REMARK  4 active torsions:
REMARK  status: ('A' for Active; 'I' for Inactive)
REMARK       I    between atoms: N_2  and  C_1 
REMARK       I    between atoms: N_6  and  C_1 
REMARK    1  A    between atoms: C_4  and  N_2 
REMARK    2  A    between atoms: N_3  and  C_5 
REMARK    3  A    between atoms: C_12  and  N_6 
REMARK    4  A    between atoms: C_7  and  C_8 
ROOT
ATOM      1  C   UNL d   1       1.078  -0.123  -0.079  0.00  0.00     0.303 C 
ATOM      2  N   UNL d   1       0.319  -1.285   0.077  0.00  0.00    -0.208 NA
ATOM      3  N   UNL d   1       0.254   0.901  -0.527  0.00  0.00    -0.313 N 
ATOM      4  O   UNL d   1       2.287  -0.040   0.091  0.00  0.00    -0.253 OA
ATOM      5  H   UNL d   1      -0.276  -1.381  -0.734  0.00  0.00     0.138 HD
ATOM      6  H   UNL d   1      -0.701   0.846  -0.204  0.00  0.00     0.170 HD
ENDROOT
BRANCH   2   7
ATOM      7  C   UNL d   1       0.983  -2.490   0.432  0.00  0.00     0.043 A 
ATOM      8  C   UNL d   1       1.421  -2.765   1.748  0.00  0.00     0.052 A 
ATOM      9  C   UNL d   1       2.152  -3.959   1.931  0.00  0.00     0.031 A 
ATOM     10  C   UNL d   1       2.408  -4.851   0.886  0.00  0.00     0.002 A 
ATOM     11  C   UNL d   1       1.926  -4.579  -0.385  0.00  0.00     0.002 A 
ATOM     12  C   UNL d   1       1.208  -3.407  -0.612  0.00  0.00     0.026 A 
BRANCH   8  13
ATOM     13  N   UNL d   1       1.104  -2.027   2.883  0.00  0.00    -0.379 N 
ATOM     14  C   UNL d   1      -0.153  -1.299   3.004  0.00  0.00     0.123 C 
ATOM     15  C   UNL d   1      -0.636  -1.405   4.455  0.00  0.00     0.020 C 
ATOM     16  C   UNL d   1       0.438  -0.956   5.447  0.00  0.00     0.003 C 
ATOM     17  C   UNL d   1       1.766  -1.670   5.193  0.00  0.00     0.020 C 
ATOM     18  C   UNL d   1       2.197  -1.544   3.729  0.00  0.00     0.123 C 
ENDBRANCH   8  13
ENDBRANCH   2   7
BRANCH   3  19
ATOM     19  C   UNL d   1       0.656   2.095  -1.157  0.00  0.00     0.035 A 
ATOM     20  C   UNL d   1       1.909   2.268  -1.737  0.00  0.00     0.030 A 
ATOM     21  C   UNL d   1       2.223   3.455  -2.414  0.00  0.00     0.010 A 
ATOM     22  C   UNL d   1       1.298   4.511  -2.530  0.00  0.00    -0.051 A 
ATOM     23  C   UNL d   1       0.042   4.321  -1.934  0.00  0.00     0.010 A 
ATOM     24  C   UNL d   1      -0.278   3.128  -1.267  0.00  0.00     0.030 A 
BRANCH  22  25
ATOM     25  C   UNL d   1       1.678   5.791  -3.295  0.00  0.00    -0.024 C 
ATOM     26  C   UNL d   1       0.559   6.857  -3.329  0.00  0.00     0.019 C 
ATOM     27  C   UNL d   1       2.912   6.449  -2.638  0.00  0.00     0.019 C 
ATOM     28  C   UNL d   1       2.014   5.441  -4.761  0.00  0.00     0.019 C 
ENDBRANCH  22  25
ENDBRANCH   3  19
TORSDOF 4
