REMARK  0 active torsions:
REMARK  status: ('A' for Active; 'I' for Inactive)
ROOT
ATOM      1  C   UNL d   1       1.678  -1.585   0.004  0.00  0.00     0.186 A 
ATOM      2  N   UNL d   1       0.433  -1.925  -0.061  0.00  0.00    -0.333 N 
ATOM      3  HN  UNL d   1       0.150  -2.904  -0.115  1.00  0.00     0.168 HD
ATOM      4  O   UNL d   1       2.171  -0.325   0.058  0.00  0.00    -0.254 OA
ATOM      5  C   UNL d   1       1.322   0.724   0.023  0.00  0.00     0.302 A 
ATOM      6  C   UNL d   1      -0.115   0.434  -0.016  0.00  0.00     0.066 A 
ATOM      7  C   UNL d   1      -0.503  -0.896  -0.054  0.00  0.00     0.050 A 
ATOM      8  C   UNL d   1       2.731  -2.567   0.027  0.00  0.00     0.126 A 
ATOM      9  O   UNL d   1       4.033  -2.159   0.147  0.00  0.00    -0.318 OA
ATOM     10  O   UNL d   1       1.722   1.881   0.037  0.00  0.00    -0.259 OA
ATOM     11  C   UNL d   1       2.694  -3.949  -0.046  0.00  0.00     0.043 A 
ATOM     12  C   UNL d   1       4.810  -3.272   0.146  0.00  0.00     0.142 A 
ATOM     13  C   UNL d   1       4.035  -4.399   0.025  0.00  0.00     0.027 A 
ATOM     14  C   UNL d   1      -1.063   1.464   0.003  0.00  0.00     0.020 A 
ATOM     15  C   UNL d   1      -1.865  -1.204  -0.065  0.00  0.00     0.030 A 
ATOM     16  C   UNL d   1      -2.421   1.149  -0.004  0.00  0.00     0.001 A 
ATOM     17  C   UNL d   1      -2.822  -0.186  -0.035  0.00  0.00     0.002 A 
ENDROOT
TORSDOF 0
