REMARK  6 active torsions:
REMARK  status: ('A' for Active; 'I' for Inactive)
REMARK    1  A    between atoms: C_6  and  C_1 
REMARK    2  A    between atoms: C_11  and  C_4 
REMARK       I    between atoms: N_8  and  C_6 
REMARK    3  A    between atoms: N_10  and  N_8 
REMARK       I    between atoms: C_9  and  N_10 
REMARK    4  A    between atoms: C_15  and  C_9 
REMARK    5  A    between atoms: C_14  and  C_15 
REMARK    6  A    between atoms: O_18  and  C_17 
ROOT
ATOM      1  C   UNL d   1       0.228  -2.647  -0.012  0.00  0.00     0.275 C 
ATOM      2  N   UNL d   1      -0.504  -3.793  -0.278  0.00  0.00    -0.263 N 
ATOM      3  O   UNL d   1      -0.263  -1.526  -0.165  0.00  0.00    -0.266 OA
ATOM      4  H   UNL d   1      -0.150  -4.735  -0.150  0.00  0.00     0.190 HD
ENDROOT
BRANCH   1   5
ATOM      5  C   UNL d   1       1.604  -2.865   0.413  0.00  0.00     0.094 A 
ATOM      6  C   UNL d   1       2.777  -2.045   0.244  0.00  0.00     0.083 A 
ATOM      7  N   UNL d   1       3.846  -2.660   0.785  0.00  0.00    -0.259 N 
ATOM      8  O   UNL d   1       3.397  -3.808   1.368  0.00  0.00    -0.241 OA
ATOM      9  HN  UNL d   1       4.810  -2.328   0.764  1.00  0.00     0.195 HD
ATOM     10  C   UNL d   1       2.062  -3.924   1.186  0.00  0.00     0.090 A 
ATOM     11  C   UNL d   1       1.446  -5.066   1.894  0.00  0.00     0.080 C 
BRANCH   6  12
ATOM     12  C   UNL d   1       2.981  -0.726  -0.375  0.00  0.00    -0.006 A 
ATOM     13  C   UNL d   1       2.220  -0.274  -1.457  0.00  0.00     0.014 A 
ATOM     14  C   UNL d   1       2.450   0.990  -2.014  0.00  0.00     0.001 A 
ATOM     15  C   UNL d   1       3.460   1.810  -1.510  0.00  0.00     0.000 A 
ATOM     16  C   UNL d   1       4.241   1.374  -0.452  0.00  0.00     0.001 A 
ATOM     17  C   UNL d   1       4.004   0.113   0.110  0.00  0.00     0.014 A 
ENDBRANCH   6  12
ENDBRANCH   1   5
BRANCH   2  18
ATOM     18  N   UNL d   1      -1.867  -3.701  -0.620  0.00  0.00    -0.267 N 
ATOM     19  C   UNL d   1      -2.700  -4.752  -0.263  0.00  0.00     0.240 C 
ATOM     20  O   UNL d   1      -2.256  -5.790   0.227  0.00  0.00    -0.272 OA
ATOM     21  H   UNL d   1      -2.201  -2.793  -0.940  0.00  0.00     0.190 HD
BRANCH  19  22
ATOM     22  C   UNL d   1      -4.183  -4.479  -0.460  0.00  0.00     0.143 C 
BRANCH  22  23
ATOM     23  C   UNL d   1      -4.950  -5.467  -1.313  0.00  0.00    -0.047 A 
ATOM     24  C   UNL d   1      -5.080  -6.803  -0.907  0.00  0.00     0.044 A 
ATOM     25  C   UNL d   1      -5.969  -7.667  -1.555  0.00  0.00     0.068 A 
ATOM     26  C   UNL d   1      -6.672  -7.226  -2.673  0.00  0.00     0.037 A 
ATOM     27  C   UNL d   1      -6.516  -5.914  -3.120  0.00  0.00     0.003 A 
ATOM     28  C   UNL d   1      -5.669  -5.036  -2.439  0.00  0.00     0.007 A 
BRANCH  25  29
ATOM     29  O   UNL d   1      -6.224  -8.953  -1.156  0.00  0.00    -0.356 OA
ATOM     30  C   UNL d   1      -6.097  -9.169   0.247  0.00  0.00     0.210 C 
ENDBRANCH  25  29
ENDBRANCH  22  23
ENDBRANCH  19  22
ENDBRANCH   2  18
TORSDOF 6
