REMARK  3 active torsions:
REMARK  status: ('A' for Active; 'I' for Inactive)
REMARK    1  A    between atoms: C_6  and  C_1 
REMARK    2  A    between atoms: N_9  and  C_2 
REMARK       I    between atoms: C_8  and  N_9 
REMARK       I    between atoms: N_11  and  C_8 
REMARK    3  A    between atoms: C_12  and  N_11 
ROOT
ATOM      1  C   UNL d   1      -1.701  -0.826  -0.099  0.00  0.00     0.096 C 
ATOM      2  C   UNL d   1      -0.282  -1.046  -0.157  0.00  0.00     0.097 C 
ATOM      3  N   UNL d   1      -1.965   0.485  -0.221  0.00  0.00    -0.258 N 
ATOM      4  HN  UNL d   1      -2.871   0.940  -0.111  1.00  0.00     0.195 HD
ATOM      5  C   UNL d   1       0.230   0.169  -0.549  0.00  0.00     0.101 C 
ATOM      6  O   UNL d   1      -0.767   1.094  -0.524  0.00  0.00    -0.240 OA
ATOM      7  C   UNL d   1       1.490   0.637  -1.157  0.00  0.00     0.081 C 
ENDROOT
BRANCH   2   8
ATOM      8  N   UNL d   1       0.354  -2.272  -0.096  0.00  0.00    -0.304 N 
ATOM      9  C   UNL d   1       1.343  -2.732   0.702  0.00  0.00     0.325 C 
ATOM     10  N   UNL d   1       2.041  -1.868   1.494  0.00  0.00    -0.307 N 
ATOM     11  O   UNL d   1       1.512  -3.956   0.676  0.00  0.00    -0.247 OA
ATOM     12  H   UNL d   1       2.141  -0.924   1.143  0.00  0.00     0.170 HD
ATOM     13  H   UNL d   1      -0.214  -3.063  -0.377  0.00  0.00     0.171 HD
BRANCH  10  14
ATOM     14  C   UNL d   1       3.114  -2.341   2.315  0.00  0.00     0.059 A 
ATOM     15  C   UNL d   1       4.325  -1.630   2.377  0.00  0.00     0.082 A 
ATOM     16  C   UNL d   1       5.441  -2.219   2.997  0.00  0.00     0.058 A 
ATOM     17 CL   UNL d   1       4.433  -0.076   1.611  0.00  0.00    -0.080 Cl
ATOM     18 CL   UNL d   1       7.003  -1.473   2.992  0.00  0.00    -0.082 Cl
ATOM     19  C   UNL d   1       5.335  -3.472   3.609  0.00  0.00     0.026 A 
ATOM     20  C   UNL d   1       4.110  -4.130   3.639  0.00  0.00     0.004 A 
ATOM     21  C   UNL d   1       3.006  -3.563   3.002  0.00  0.00     0.031 A 
ENDBRANCH  10  14
ENDBRANCH   2   8
BRANCH   1  22
ATOM     22  C   UNL d   1      -2.791  -1.787   0.124  0.00  0.00     0.017 A 
ATOM     23  C   UNL d   1      -2.902  -3.023  -0.541  0.00  0.00     0.046 A 
ATOM     24 CL   UNL d   1      -1.824  -3.541  -1.793  0.00  0.00    -0.083 Cl
ATOM     25  C   UNL d   1      -3.962  -3.896  -0.255  0.00  0.00     0.025 A 
ATOM     26  C   UNL d   1      -4.951  -3.533   0.655  0.00  0.00     0.002 A 
ATOM     27  C   UNL d   1      -4.880  -2.298   1.290  0.00  0.00     0.001 A 
ATOM     28  C   UNL d   1      -3.807  -1.439   1.036  0.00  0.00     0.015 A 
ENDBRANCH   1  22
TORSDOF 3
