REMARK  4 active torsions:
REMARK  status: ('A' for Active; 'I' for Inactive)
REMARK    1  A    between atoms: S_11  and  C_1 
REMARK    2  A    between atoms: C_19  and  C_7 
REMARK    3  A    between atoms: C_8  and  S_11 
REMARK    4  A    between atoms: N_22  and  C_12 
ROOT
ATOM      1  N   UNL d   1      -2.492  -4.127  -1.468  0.00  0.00    -0.326 N 
ATOM      2  HN  UNL d   1      -2.353  -4.874  -0.787  1.00  0.00     0.169 HD
ATOM      3  C   UNL d   1      -1.956  -2.905  -1.275  0.00  0.00     0.153 A 
ATOM      4  C   UNL d   1      -3.215  -4.332  -2.582  0.00  0.00     0.102 A 
ATOM      5  C   UNL d   1      -3.414  -3.341  -3.524  0.00  0.00     0.098 A 
ATOM      6  N   UNL d   1      -2.117  -1.878  -2.124  0.00  0.00    -0.345 N 
ATOM      7  HN  UNL d   1      -1.713  -0.959  -1.939  1.00  0.00     0.167 HD
ATOM      8  C   UNL d   1      -4.168  -3.533  -4.717  0.00  0.00     0.104 C 
ATOM      9  N   UNL d   1      -4.805  -3.661  -5.678  0.00  0.00    -0.191 NA
ATOM     10  C   UNL d   1      -2.841  -2.124  -3.237  0.00  0.00     0.116 A 
ENDROOT
BRANCH   4  11
ATOM     11  N   UNL d   1      -3.676  -5.636  -2.750  0.00  0.00    -0.287 NA
ATOM     12  H   UNL d   1      -3.450  -6.176  -1.917  0.00  0.00     0.125 HD
ATOM     13  H   UNL d   1      -4.657  -5.712  -3.000  0.00  0.00     0.125 HD
ENDBRANCH   4  11
BRANCH   3  14
ATOM     14  S   UNL d   1      -1.007  -2.712   0.210  0.00  0.00    -0.009 SA
BRANCH  14  15
ATOM     15  C   UNL d   1      -0.434  -1.094  -0.005  0.00  0.00     0.211 A 
ATOM     16  O   UNL d   1      -1.236   0.017   0.093  0.00  0.00    -0.267 OA
ATOM     17  C   UNL d   1      -0.331   1.035  -0.050  0.00  0.00     0.175 A 
ATOM     18  N   UNL d   1       0.903   0.599  -0.201  0.00  0.00    -0.277 N 
ATOM     19  N   UNL d   1       0.837  -0.778  -0.161  0.00  0.00    -0.272 N 
ATOM     20  HN  UNL d   1       1.741   1.167  -0.324  1.00  0.00     0.189 HD
ATOM     21  HN  UNL d   1       1.620  -1.428  -0.237  1.00  0.00     0.189 HD
BRANCH  17  22
ATOM     22  C   UNL d   1      -0.837   2.399   0.005  0.00  0.00     0.019 A 
ATOM     23  C   UNL d   1      -2.200   2.680   0.132  0.00  0.00     0.033 A 
ATOM     24  C   UNL d   1      -2.604   4.004   0.178  0.00  0.00     0.088 A 
ATOM     25  N   UNL d   1      -1.754   5.049   0.106  0.00  0.00    -0.375 N 
ATOM     26  C   UNL d   1      -0.442   4.762  -0.016  0.00  0.00     0.088 A 
ATOM     27  HN  UNL d   1      -2.088   6.012   0.142  1.00  0.00     0.164 HD
ATOM     28  C   UNL d   1       0.058   3.472  -0.070  0.00  0.00     0.033 A 
ENDBRANCH  17  22
ENDBRANCH  14  15
ENDBRANCH   3  14
TORSDOF 4
