REMARK  3 active torsions:
REMARK  status: ('A' for Active; 'I' for Inactive)
REMARK    1  A    between atoms: C_2  and  C_1 
REMARK    2  A    between atoms: N_6  and  C_3 
REMARK       I    between atoms: C_8  and  N_6 
REMARK       I    between atoms: N_13  and  C_8 
REMARK    3  A    between atoms: C_16  and  N_13 
ROOT
ATOM      1  C   UNL d   1      -3.930  -1.029   0.344  0.00  0.00     0.032 A 
ATOM      2  C   UNL d   1      -4.397  -0.915  -0.964  0.00  0.00     0.090 A 
ATOM      3  S   UNL d   1      -5.824  -1.824  -1.202  0.00  0.00    -0.083 SA
ATOM      4  C   UNL d   1      -4.760  -1.929   1.106  0.00  0.00     0.024 A 
ATOM      5  C   UNL d   1      -5.815  -2.430   0.384  0.00  0.00     0.053 A 
ENDROOT
BRANCH   2   6
ATOM      6  N   UNL d   1      -3.825  -0.231  -2.018  0.00  0.00    -0.302 N 
ATOM      7  C   UNL d   1      -4.098  -0.193  -3.365  0.00  0.00     0.325 C 
ATOM      8  N   UNL d   1      -5.348  -0.523  -3.824  0.00  0.00    -0.309 N 
ATOM      9  O   UNL d   1      -3.183   0.199  -4.101  0.00  0.00    -0.247 OA
ATOM     10  H   UNL d   1      -6.107  -0.320  -3.187  0.00  0.00     0.170 HD
ATOM     11  H   UNL d   1      -2.913   0.172  -1.818  0.00  0.00     0.171 HD
BRANCH   8  12
ATOM     12  C   UNL d   1      -5.667  -0.630  -5.206  0.00  0.00     0.036 A 
ATOM     13  C   UNL d   1      -4.757  -1.170  -6.121  0.00  0.00     0.029 A 
ATOM     14  C   UNL d   1      -5.049  -1.217  -7.488  0.00  0.00     0.002 A 
ATOM     15  C   UNL d   1      -6.259  -0.718  -7.958  0.00  0.00     0.000 A 
ATOM     16  C   UNL d   1      -7.194  -0.216  -7.054  0.00  0.00     0.002 A 
ATOM     17  C   UNL d   1      -6.912  -0.197  -5.678  0.00  0.00     0.029 A 
ENDBRANCH   8  12
ENDBRANCH   2   6
BRANCH   1  18
ATOM     18  C   UNL d   1      -2.702  -0.356   0.963  0.00  0.00     0.088 A 
ATOM     19  N   UNL d   1      -1.878   0.462   0.341  0.00  0.00    -0.349 N 
ATOM     20  C   UNL d   1      -0.877   0.908   1.228  0.00  0.00     0.050 A 
ATOM     21  HN  UNL d   1      -1.953   0.734  -0.640  1.00  0.00     0.166 HD
ATOM     22  C   UNL d   1       0.188   1.795   0.946  0.00  0.00     0.031 A 
ATOM     23  C   UNL d   1      -0.962   0.403   2.525  0.00  0.00     0.033 A 
ATOM     24  C   UNL d   1       1.104   2.146   1.953  0.00  0.00     0.002 A 
ATOM     25  C   UNL d   1       0.983   1.627   3.236  0.00  0.00     0.002 A 
ATOM     26  C   UNL d   1      -0.051   0.744   3.542  0.00  0.00     0.021 A 
ATOM     27  S   UNL d   1      -2.305  -0.646   2.626  0.00  0.00    -0.069 SA
ENDBRANCH   1  18
TORSDOF 3
