REMARK  3 active torsions:
REMARK  status: ('A' for Active; 'I' for Inactive)
REMARK    1  A    between atoms: C_14  and  C_5 
REMARK    2  A    between atoms: O_16  and  C_14 
REMARK    3  A    between atoms: C_18  and  O_16 
ROOT
ATOM      1  C   UNL d   1       0.217  -1.157   0.036  0.00  0.00     0.095 A 
ATOM      2  C   UNL d   1       0.044  -2.581   0.042  0.00  0.00     0.080 A 
ATOM      3  N   UNL d   1       1.411  -0.601   0.069  0.00  0.00    -0.344 N 
ATOM      4  HN  UNL d   1       2.290  -1.116   0.117  1.00  0.00     0.167 HD
ATOM      5  C   UNL d   1       1.307   0.793   0.029  0.00  0.00     0.115 A 
ATOM      6  N   UNL d   1      -0.737  -4.901  -0.309  0.00  0.00    -0.269 N 
ATOM      7  HN  UNL d   1      -1.223  -5.760  -0.564  1.00  0.00     0.195 HD
ATOM      8  C   UNL d   1       0.829  -3.573   0.620  0.00  0.00     0.043 A 
ATOM      9  S   UNL d   1      -1.097  -0.048   0.006  0.00  0.00    -0.080 SA
ATOM     10  N   UNL d   1       0.366  -4.872   0.416  0.00  0.00    -0.298 N 
ATOM     11  HN  UNL d   1       0.827  -5.705   0.783  1.00  0.00     0.187 HD
ATOM     12  S   UNL d   1      -1.249  -3.381  -0.763  0.00  0.00     0.006 SA
ATOM     13  C   UNL d   1       0.005   1.258   0.016  0.00  0.00     0.087 A 
ATOM     14  C   UNL d   1       2.060  -3.425   1.437  0.00  0.00     0.071 C 
ENDROOT
BRANCH   5  15
ATOM     15  C   UNL d   1       2.471   1.674  -0.061  0.00  0.00     0.310 C 
ATOM     16  O   UNL d   1       2.380   2.892  -0.151  0.00  0.00    -0.258 OA
BRANCH  15  17
ATOM     17  O   UNL d   1       3.644   0.978  -0.133  0.00  0.00    -0.317 OA
BRANCH  17  18
ATOM     18  C   UNL d   1       4.757   1.705  -0.667  0.00  0.00     0.175 C 
ATOM     19  C   UNL d   1       4.735   1.559  -2.179  0.00  0.00     0.034 C 
ENDBRANCH  17  18
ENDBRANCH  15  17
ENDBRANCH   5  15
TORSDOF 3
