REMARK  6 active torsions:
REMARK  status: ('A' for Active; 'I' for Inactive)
REMARK    1  A    between atoms: N_5  and  C_1 
REMARK    2  A    between atoms: C_8  and  C_2 
REMARK       I    between atoms: C_7  and  N_5 
REMARK    3  A    between atoms: C_11  and  C_6 
REMARK       I    between atoms: N_9  and  C_7 
REMARK    4  A    between atoms: O_14  and  C_8 
REMARK    5  A    between atoms: C_13  and  N_9 
REMARK    6  A    between atoms: C_23  and  O_14 
ROOT
ATOM      1  C   UNL d   1       0.460   1.228   0.070  0.00  0.00     0.074 A 
ATOM      2  C   UNL d   1       1.718   0.678  -0.073  0.00  0.00     0.069 A 
ATOM      3  S   UNL d   1      -0.757   0.060   0.314  0.00  0.00    -0.076 SA
ATOM      4  C   UNL d   1       1.607  -0.769  -0.012  0.00  0.00     0.040 A 
ATOM      5  C   UNL d   1       0.316  -1.256   0.095  0.00  0.00     0.018 A 
ENDROOT
BRANCH   1   6
ATOM      6  N   UNL d   1      -0.063   2.506   0.194  0.00  0.00    -0.208 NA
ATOM      7  C   UNL d   1      -0.330   3.280  -0.913  0.00  0.00     0.282 C 
ATOM      8  N   UNL d   1       0.704   3.449  -1.796  0.00  0.00    -0.215 NA
ATOM      9  O   UNL d   1      -1.422   3.843  -0.981  0.00  0.00    -0.260 OA
ATOM     10  H   UNL d   1       1.583   3.385  -1.299  0.00  0.00     0.138 HD
ATOM     11  H   UNL d   1      -0.952   2.479   0.690  0.00  0.00     0.138 HD
BRANCH   8  12
ATOM     12  C   UNL d   1       0.630   4.474  -2.760  0.00  0.00     0.016 A 
ATOM     13  C   UNL d   1       1.518   5.547  -2.658  0.00  0.00     0.025 A 
ATOM     14  C   UNL d   1       1.420   6.620  -3.544  0.00  0.00     0.025 A 
ATOM     15  C   UNL d   1       0.460   6.596  -4.554  0.00  0.00     0.034 A 
ATOM     16  C   UNL d   1      -0.404   5.508  -4.685  0.00  0.00     0.025 A 
ATOM     17 CL   UNL d   1       0.332   7.928  -5.635  0.00  0.00    -0.084 Cl
ATOM     18  C   UNL d   1      -0.327   4.447  -3.777  0.00  0.00     0.025 A 
ENDBRANCH   8  12
ENDBRANCH   1   6
BRANCH   2  19
ATOM     19  C   UNL d   1       3.024   1.326  -0.230  0.00  0.00     0.295 C 
ATOM     20  O   UNL d   1       4.074   0.697  -0.127  0.00  0.00    -0.259 OA
BRANCH  19  21
ATOM     21  O   UNL d   1       2.967   2.638  -0.594  0.00  0.00    -0.318 OA
BRANCH  21  22
ATOM     22  C   UNL d   1       4.196   3.183  -1.123  0.00  0.00     0.174 C 
ATOM     23  C   UNL d   1       4.935   3.977  -0.067  0.00  0.00     0.034 C 
ENDBRANCH  21  22
ENDBRANCH  19  21
ENDBRANCH   2  19
BRANCH   5  24
ATOM     24  C   UNL d   1      -0.169  -2.655   0.032  0.00  0.00    -0.019 A 
ATOM     25  C   UNL d   1       0.691  -3.678  -0.405  0.00  0.00     0.013 A 
ATOM     26  C   UNL d   1       0.248  -4.999  -0.539  0.00  0.00     0.001 A 
ATOM     27  C   UNL d   1      -1.069  -5.327  -0.239  0.00  0.00     0.000 A 
ATOM     28  C   UNL d   1      -1.938  -4.338   0.209  0.00  0.00     0.001 A 
ATOM     29  C   UNL d   1      -1.491  -3.018   0.347  0.00  0.00     0.013 A 
ENDBRANCH   5  24
TORSDOF 6
