REMARK  4 active torsions:
REMARK  status: ('A' for Active; 'I' for Inactive)
REMARK    1  A    between atoms: C_2  and  C_1 
REMARK       I    between atoms: N_5  and  C_2 
REMARK    2  A    between atoms: C_3  and  C_4 
REMARK    3  A    between atoms: C_7  and  N_5 
REMARK    4  A    between atoms: O_17  and  C_15 
ROOT
ATOM      1  C   UNL d   1       1.269   2.590  -0.223  0.00  0.00     0.258 C 
ATOM      2  N   UNL d   1       0.533   3.747  -0.043  0.00  0.00    -0.323 N 
ATOM      3  O   UNL d   1       0.828   1.442  -0.185  0.00  0.00    -0.267 OA
ATOM      4  H   UNL d   1       0.996   4.640  -0.156  0.00  0.00     0.169 HD
ENDROOT
BRANCH   1   5
ATOM      5  C   UNL d   1       2.736   2.725  -0.434  0.00  0.00     0.062 A 
ATOM      6  C   UNL d   1       3.414   3.686  -1.198  0.00  0.00     0.066 A 
ATOM      7  C   UNL d   1       4.826   3.645  -1.218  0.00  0.00     0.034 A 
ATOM      8  C   UNL d   1       5.497   2.640  -0.545  0.00  0.00     0.088 A 
ATOM      9  N   UNL d   1       4.865   1.676   0.144  0.00  0.00    -0.374 N 
ATOM     10  C   UNL d   1       3.511   1.736   0.178  0.00  0.00     0.105 A 
ATOM     11  HN  UNL d   1       5.380   0.934   0.618  1.00  0.00     0.164 HD
BRANCH   6  12
ATOM     12  C   UNL d   1       2.767   4.748  -2.037  0.00  0.00     0.418 C 
ATOM     13  F   UNL d   1       1.436   4.601  -2.241  0.00  0.00    -0.166 F 
ATOM     14  F   UNL d   1       2.916   5.981  -1.476  0.00  0.00    -0.166 F 
ATOM     15  F   UNL d   1       3.318   4.837  -3.279  0.00  0.00    -0.166 F 
ENDBRANCH   6  12
ENDBRANCH   1   5
BRANCH   2  16
ATOM     16  C   UNL d   1      -0.872   3.831   0.124  0.00  0.00     0.037 A 
ATOM     17  C   UNL d   1      -1.692   2.726   0.384  0.00  0.00     0.066 A 
ATOM     18  C   UNL d   1      -3.081   2.865   0.467  0.00  0.00     0.070 A 
ATOM     19  C   UNL d   1      -3.654   4.128   0.315  0.00  0.00     0.037 A 
ATOM     20  C   UNL d   1      -2.849   5.243   0.091  0.00  0.00     0.005 A 
ATOM     21  C   UNL d   1      -1.462   5.095   0.002  0.00  0.00     0.029 A 
BRANCH  18  22
ATOM     22  O   UNL d   1      -3.975   1.851   0.684  0.00  0.00    -0.356 OA
ATOM     23  C   UNL d   1      -3.438   0.537   0.797  0.00  0.00     0.210 C 
ENDBRANCH  18  22
ENDBRANCH   2  16
TORSDOF 4
