REMARK  1 active torsions:
REMARK  status: ('A' for Active; 'I' for Inactive)
REMARK    1  A    between atoms: C_7  and  N_1 
ROOT
ATOM      1  N   UNL d   1      -1.399  -0.149  -0.064  0.00  0.00    -0.218 N 
ATOM      2  N   UNL d   1      -0.756   1.111  -0.104  0.00  0.00    -0.257 N 
ATOM      3  C   UNL d   1      -0.626  -1.312   0.062  0.00  0.00     0.267 A 
ATOM      4  C   UNL d   1       0.592   1.288  -0.030  0.00  0.00     0.260 A 
ATOM      5  C   UNL d   1       0.843  -1.122   0.068  0.00  0.00     0.082 A 
ATOM      6  C   UNL d   1       1.416   0.079  -0.002  0.00  0.00     0.081 A 
ATOM      7  O   UNL d   1      -1.020  -2.475   0.115  0.00  0.00    -0.266 OA
ATOM      8  O   UNL d   1       1.108   2.398   0.030  0.00  0.00    -0.267 OA
ATOM      9  H   UNL d   1      -1.310   1.933   0.099  0.00  0.00     0.191 HD
ENDROOT
BRANCH   1  10
ATOM     10  C   UNL d   1      -2.830  -0.171  -0.239  0.00  0.00     0.060 A 
ATOM     11  C   UNL d   1      -3.610  -1.288   0.096  0.00  0.00     0.031 A 
ATOM     12  C   UNL d   1      -4.994  -1.306  -0.118  0.00  0.00     0.002 A 
ATOM     13  C   UNL d   1      -5.633  -0.200  -0.666  0.00  0.00     0.000 A 
ATOM     14  C   UNL d   1      -4.889   0.927  -0.991  0.00  0.00     0.002 A 
ATOM     15  C   UNL d   1      -3.504   0.942  -0.779  0.00  0.00     0.031 A 
ENDBRANCH   1  10
TORSDOF 1
