REMARK  12 active torsions:
REMARK  status: ('A' for Active; 'I' for Inactive)
REMARK    1  A    between atoms: C_8  and  S_1 
REMARK    2  A    between atoms: N_9  and  S_1 
REMARK    3  A    between atoms: O_23  and  C_2 
REMARK    4  A    between atoms: C_3  and  C_4 
REMARK       I    between atoms: C_4  and  N_10 
REMARK    5  A    between atoms: O_24  and  C_5 
REMARK    6  A    between atoms: O_25  and  C_6 
REMARK    7  A    between atoms: C_7  and  C_16 
REMARK       I    between atoms: N_11  and  C_7 
REMARK    8  A    between atoms: C_26  and  N_9 
REMARK    9  A    between atoms: C_27  and  N_9 
REMARK   10  A    between atoms: N_10  and  N_11 
REMARK   11  A    between atoms: C_31  and  C_26 
REMARK   12  A    between atoms: C_32  and  C_27 
ROOT
ATOM      1  C   UNL d   1      -0.363   3.712   4.735  0.00  0.00     0.270 C 
ATOM      2  N   UNL d   1       0.107   5.009   4.769  0.00  0.00    -0.263 N 
ATOM      3  O   UNL d   1      -1.127   3.274   5.594  0.00  0.00    -0.266 OA
ATOM      4  H   UNL d   1       0.824   5.393   4.160  0.00  0.00     0.190 HD
ENDROOT
BRANCH   1   5
ATOM      5  C   UNL d   1       0.069   2.854   3.584  0.00  0.00     0.033 A 
ATOM      6  C   UNL d   1       0.820   3.340   2.505  0.00  0.00     0.018 A 
ATOM      7  C   UNL d   1       1.165   2.498   1.440  0.00  0.00     0.026 A 
ATOM      8  C   UNL d   1       0.705   1.178   1.407  0.00  0.00     0.074 A 
ATOM      9  C   UNL d   1      -0.016   0.672   2.493  0.00  0.00     0.026 A 
ATOM     10  C   UNL d   1      -0.326   1.506   3.577  0.00  0.00     0.018 A 
BRANCH   8  11
ATOM     11  S   UNL d   1       1.195   0.092   0.079  0.00  0.00     0.243 S 
ATOM     12  O   UNL d   1       0.890  -1.258   0.518  0.00  0.00    -0.206 OA
ATOM     13  O   UNL d   1       2.547   0.448  -0.296  0.00  0.00    -0.206 OA
BRANCH  11  14
ATOM     14  N   UNL d   1       0.151   0.496  -1.271  0.00  0.00    -0.206 NA
BRANCH  14  15
ATOM     15  C   UNL d   1       0.484   1.854  -1.846  0.00  0.00     0.107 C 
BRANCH  15  16
ATOM     16  C   UNL d   1      -0.405   2.336  -2.995  0.00  0.00     0.011 C 
ATOM     17  C   UNL d   1      -1.880   2.401  -2.643  0.00  0.00     0.006 C 
ENDBRANCH  15  16
ENDBRANCH  14  15
BRANCH  14  18
ATOM     18  C   UNL d   1       0.149  -0.574  -2.335  0.00  0.00     0.107 C 
BRANCH  18  19
ATOM     19  C   UNL d   1      -0.661  -1.819  -1.973  0.00  0.00     0.011 C 
ATOM     20  C   UNL d   1      -2.080  -1.522  -1.516  0.00  0.00     0.006 C 
ENDBRANCH  18  19
ENDBRANCH  14  18
ENDBRANCH  11  14
ENDBRANCH   8  11
ENDBRANCH   1   5
BRANCH   2  21
ATOM     21  N   UNL d   1      -0.325   5.862   5.790  0.00  0.00    -0.263 N 
ATOM     22  C   UNL d   1       0.394   7.022   5.992  0.00  0.00     0.270 C 
ATOM     23  O   UNL d   1       1.412   7.295   5.361  0.00  0.00    -0.266 OA
ATOM     24  H   UNL d   1      -1.051   5.512   6.410  0.00  0.00     0.190 HD
BRANCH  22  25
ATOM     25  C   UNL d   1      -0.146   7.973   6.996  0.00  0.00     0.039 A 
ATOM     26  C   UNL d   1       0.743   8.747   7.743  0.00  0.00     0.057 A 
ATOM     27  C   UNL d   1       0.269   9.717   8.634  0.00  0.00     0.105 A 
ATOM     28  C   UNL d   1      -1.115   9.954   8.740  0.00  0.00     0.135 A 
ATOM     29  C   UNL d   1      -2.006   9.223   7.922  0.00  0.00     0.105 A 
ATOM     30  C   UNL d   1      -1.521   8.199   7.097  0.00  0.00     0.057 A 
BRANCH  27  31
ATOM     31  O   UNL d   1       1.282  10.402   9.258  0.00  0.00    -0.353 OA
ATOM     32  C   UNL d   1       1.023  10.891  10.567  0.00  0.00     0.210 C 
ENDBRANCH  27  31
BRANCH  28  33
ATOM     33  O   UNL d   1      -1.533  11.021   9.496  0.00  0.00    -0.351 OA
ATOM     34  C   UNL d   1      -2.582  10.751  10.426  0.00  0.00     0.210 C 
ENDBRANCH  28  33
BRANCH  29  35
ATOM     35  O   UNL d   1      -3.330   9.593   7.940  0.00  0.00    -0.353 OA
ATOM     36  C   UNL d   1      -4.121   9.220   6.817  0.00  0.00     0.210 C 
ENDBRANCH  29  35
ENDBRANCH  22  25
ENDBRANCH   2  21
TORSDOF 12
