REMARK  1 active torsions:
REMARK  status: ('A' for Active; 'I' for Inactive)
REMARK       I    between atoms: C_8  and  N_1 
REMARK    1  A    between atoms: C_10  and  C_6 
ROOT
ATOM      1  N   UNL d   1      -3.009   1.082  -0.175  0.00  0.00    -0.251 N 
ATOM      2  N   UNL d   1      -1.697   1.495  -0.273  0.00  0.00    -0.298 N 
ATOM      3  HN  UNL d   1      -1.360   2.411  -0.570  1.00  0.00     0.187 HD
ATOM      4  C   UNL d   1      -0.981   0.478   0.090  0.00  0.00     0.043 C 
ATOM      5  C   UNL d   1      -1.741  -0.694   0.658  0.00  0.00     0.068 C 
ATOM      6  C   UNL d   1      -3.140  -0.353   0.122  0.00  0.00     0.154 C 
ATOM      7  C   UNL d   1       0.477   0.414   0.042  0.00  0.00    -0.005 A 
ATOM      8  C   UNL d   1      -4.078   1.947  -0.283  0.00  0.00     0.234 C 
ATOM      9  C   UNL d   1      -1.092  -2.058   0.417  0.00  0.00     0.018 C 
ATOM     10  C   UNL d   1       1.050  -0.847  -0.163  0.00  0.00    -0.046 A 
ATOM     11  O   UNL d   1      -5.246   1.586  -0.117  0.00  0.00    -0.272 OA
ATOM     12  C   UNL d   1       0.161  -2.026  -0.468  0.00  0.00     0.040 C 
ATOM     13  C   UNL d   1       1.256   1.560   0.192  0.00  0.00     0.014 A 
ATOM     14  C   UNL d   1      -3.759   3.394  -0.574  0.00  0.00     0.119 C 
ATOM     15  C   UNL d   1       2.444  -0.952  -0.186  0.00  0.00     0.008 A 
ATOM     16  C   UNL d   1       2.644   1.439   0.183  0.00  0.00     0.001 A 
ATOM     17  C   UNL d   1       3.236   0.187   0.004  0.00  0.00     0.001 A 
ENDROOT
BRANCH   6  18
ATOM     18  C   UNL d   1      -3.598  -1.155  -1.085  0.00  0.00    -0.033 A 
ATOM     19  C   UNL d   1      -4.758  -1.945  -0.999  0.00  0.00     0.011 A 
ATOM     20  C   UNL d   1      -5.142  -2.770  -2.062  0.00  0.00     0.024 A 
ATOM     21  C   UNL d   1      -4.373  -2.806  -3.221  0.00  0.00     0.034 A 
ATOM     22  C   UNL d   1      -3.247  -1.996  -3.344  0.00  0.00     0.024 A 
ATOM     23 CL   UNL d   1      -4.806  -3.866  -4.504  0.00  0.00    -0.084 Cl
ATOM     24  C   UNL d   1      -2.873  -1.163  -2.288  0.00  0.00     0.011 A 
ENDBRANCH   6  18
TORSDOF 1
