REMARK  8 active torsions:
REMARK  status: ('A' for Active; 'I' for Inactive)
REMARK    1  A    between atoms: N_2  and  C_1 
REMARK    2  A    between atoms: N_3  and  C_1 
REMARK    3  A    between atoms: C_7  and  N_3 
REMARK    4  A    between atoms: C_4  and  O_5 
REMARK    5  A    between atoms: O_5  and  C_8 
REMARK    6  A    between atoms: C_6  and  C_12 
REMARK    7  A    between atoms: O_19  and  C_6 
REMARK    8  A    between atoms: C_22  and  O_19 
ROOT
ATOM      1  C   UNL d   1       0.828   0.565   0.369  0.00  0.00     0.174 C 
ATOM      2  S   UNL d   1       2.494   0.354   0.337  0.00  0.00    -0.041 SA
ENDROOT
BRANCH   1   3
ATOM      3  N   UNL d   1       0.095   1.397  -0.478  0.00  0.00    -0.358 N 
ATOM      4  C   UNL d   1      -1.089   2.126   0.007  0.00  0.00     0.126 C 
ATOM      5  C   UNL d   1      -2.163   2.231  -1.065  0.00  0.00     0.034 C 
ATOM      6  C   UNL d   1      -1.620   2.763  -2.391  0.00  0.00     0.088 C 
ATOM      7  C   UNL d   1      -0.295   2.125  -2.797  0.00  0.00     0.034 C 
ATOM      8  C   UNL d   1       0.702   2.046  -1.645  0.00  0.00     0.126 C 
BRANCH   6   9
ATOM      9  C   UNL d   1      -1.524   4.274  -2.341  0.00  0.00     0.263 C 
ATOM     10  O   UNL d   1      -1.246   4.929  -1.339  0.00  0.00    -0.265 OA
BRANCH   9  11
ATOM     11  O   UNL d   1      -1.883   4.790  -3.543  0.00  0.00    -0.322 OA
BRANCH  11  12
ATOM     12  C   UNL d   1      -2.295   6.166  -3.513  0.00  0.00     0.174 C 
ATOM     13  C   UNL d   1      -3.765   6.208  -3.128  0.00  0.00     0.034 C 
ENDBRANCH  11  12
ENDBRANCH   9  11
ENDBRANCH   6   9
ENDBRANCH   1   3
BRANCH   1  14
ATOM     14  N   UNL d   1       0.167  -0.094   1.374  0.00  0.00    -0.331 N 
ATOM     15  H   UNL d   1       0.773  -0.413   2.123  0.00  0.00     0.168 HD
BRANCH  14  16
ATOM     16  C   UNL d   1      -1.113  -0.689   1.344  0.00  0.00     0.068 A 
ATOM     17  C   UNL d   1      -1.826  -0.900   2.533  0.00  0.00     0.105 A 
ATOM     18  C   UNL d   1      -3.023  -1.631   2.490  0.00  0.00     0.039 A 
ATOM     19  C   UNL d   1      -3.533  -2.111   1.284  0.00  0.00     0.003 A 
ATOM     20  C   UNL d   1      -2.850  -1.861   0.100  0.00  0.00     0.002 A 
ATOM     21  C   UNL d   1      -1.646  -1.155   0.130  0.00  0.00     0.032 A 
BRANCH  17  22
ATOM     22  O   UNL d   1      -1.488  -0.494   3.790  0.00  0.00    -0.253 OA
BRANCH  22  23
ATOM     23  C   UNL d   1      -0.866   0.767   4.011  0.00  0.00     0.530 C 
ATOM     24  F   UNL d   1      -0.922   1.616   2.966  0.00  0.00    -0.144 F 
ATOM     25  F   UNL d   1      -1.487   1.372   5.046  0.00  0.00    -0.144 F 
ATOM     26  F   UNL d   1       0.423   0.563   4.353  0.00  0.00    -0.144 F 
ENDBRANCH  22  23
ENDBRANCH  17  22
ENDBRANCH  14  16
ENDBRANCH   1  14
TORSDOF 8
