REMARK  6 active torsions:
REMARK  status: ('A' for Active; 'I' for Inactive)
REMARK    1  A    between atoms: C_9  and  C_1 
REMARK    2  A    between atoms: N_19  and  C_3 
REMARK    3  A    between atoms: C_12  and  C_6 
REMARK       I    between atoms: N_18  and  C_9 
REMARK    4  A    between atoms: C_13  and  C_10 
REMARK    5  A    between atoms: N_14  and  N_18 
REMARK    6  A    between atoms: C_30  and  C_29 
ROOT
ATOM      1  C   UNL d   1       2.398   0.083  -0.021  0.00  0.00     0.174 A 
ATOM      2  C   UNL d   1       0.275   0.876   0.008  0.00  0.00     0.058 A 
ATOM      3  C   UNL d   1       1.645   1.236   0.074  0.00  0.00     0.081 A 
ATOM      4  C   UNL d   1       0.276  -0.519  -0.093  0.00  0.00     0.162 A 
ATOM      5  O   UNL d   1       1.562  -0.999  -0.110  0.00  0.00    -0.285 OA
ATOM      6  C   UNL d   1      -0.980   1.519   0.032  0.00  0.00     0.017 A 
ATOM      7  N   UNL d   1      -0.799  -1.331  -0.175  0.00  0.00    -0.334 N 
ATOM      8  HN  UNL d   1      -0.726  -2.346  -0.250  1.00  0.00     0.168 HD
ATOM      9  C   UNL d   1      -1.984  -0.672  -0.147  0.00  0.00     0.069 A 
ATOM     10  C   UNL d   1      -2.116   0.709  -0.036  0.00  0.00     0.048 A 
ENDROOT
BRANCH   1  11
ATOM     11  C   UNL d   1       3.841  -0.054  -0.052  0.00  0.00     0.296 C 
ATOM     12  N   UNL d   1       4.333  -1.354  -0.098  0.00  0.00    -0.264 N 
ATOM     13  H   UNL d   1       3.700  -2.146  -0.104  0.00  0.00     0.190 HD
ATOM     14  O   UNL d   1       4.586   0.930  -0.046  0.00  0.00    -0.264 OA
BRANCH  12  15
ATOM     15  N   UNL d   1       5.687  -1.520  -0.099  0.00  0.00    -0.308 N 
ATOM     16  C   UNL d   1       6.157  -2.722  -0.140  0.00  0.00     0.120 C 
ATOM     17  HN  UNL d   1       6.313  -0.715  -0.067  1.00  0.00     0.186 HD
BRANCH  16  18
ATOM     18  C   UNL d   1       7.617  -2.940  -0.122  0.00  0.00    -0.004 A 
ATOM     19  C   UNL d   1       8.127  -4.228  -0.165  0.00  0.00     0.100 A 
ATOM     20  N   UNL d   1       9.452  -4.513  -0.137  0.00  0.00    -0.374 N 
ATOM     21  C   UNL d   1      10.300  -3.460  -0.065  0.00  0.00     0.087 A 
ATOM     22  HN  UNL d   1       9.794  -5.473  -0.169  1.00  0.00     0.164 HD
ATOM     23  C   UNL d   1       9.885  -2.138  -0.022  0.00  0.00     0.018 A 
ATOM     24  C   UNL d   1       8.518  -1.875  -0.052  0.00  0.00     0.015 A 
ENDBRANCH  16  18
ENDBRANCH  12  15
ENDBRANCH   1  11
BRANCH   3  25
ATOM     25  N   UNL d   1       2.158   2.477   0.199  0.00  0.00    -0.396 N 
ATOM     26  H   UNL d   1       1.584   3.289  -0.023  0.00  0.00     0.156 HD
ATOM     27  H   UNL d   1       3.158   2.632   0.047  0.00  0.00     0.156 HD
ENDBRANCH   3  25
BRANCH   6  28
ATOM     28  C   UNL d   1      -1.113   2.965   0.130  0.00  0.00     0.086 A 
ATOM     29  O   UNL d   1      -0.172   3.725  -0.505  0.00  0.00    -0.322 OA
ATOM     30  C   UNL d   1      -0.498   5.028  -0.308  0.00  0.00     0.142 A 
ATOM     31  C   UNL d   1      -1.654   5.126   0.427  0.00  0.00     0.027 A 
ATOM     32  C   UNL d   1      -2.060   3.797   0.698  0.00  0.00     0.040 A 
ENDBRANCH   6  28
BRANCH   9  33
ATOM     33  C   UNL d   1      -3.173  -1.515  -0.281  0.00  0.00     0.101 A 
ATOM     34  O   UNL d   1      -4.383  -0.870  -0.229  0.00  0.00    -0.321 OA
ATOM     35  C   UNL d   1      -5.353  -1.801  -0.403  0.00  0.00     0.142 A 
ATOM     36  C   UNL d   1      -4.796  -3.047  -0.564  0.00  0.00     0.027 A 
ATOM     37  C   UNL d   1      -3.391  -2.865  -0.477  0.00  0.00     0.041 A 
ENDBRANCH   9  33
TORSDOF 6
