REMARK  6 active torsions:
REMARK  status: ('A' for Active; 'I' for Inactive)
REMARK    1  A    between atoms: O_5  and  C_1 
REMARK    2  A    between atoms: C_3  and  C_2 
REMARK    3  A    between atoms: C_6  and  C_3 
REMARK    4  A    between atoms: C_4  and  N_8 
REMARK    5  A    between atoms: C_14  and  O_5 
REMARK    6  A    between atoms: N_8  and  C_15 
ROOT
ATOM      1  N   UNL d   1       4.168   4.084  -3.547  0.00  0.00    -0.366 N 
ATOM      2  H   UNL d   1       5.165   4.276  -3.411  0.00  0.00     0.165 HD
ENDROOT
BRANCH   1   3
ATOM      3  C   UNL d   1       3.595   4.732  -4.609  0.00  0.00     0.092 C 
ATOM      4  C   UNL d   1       4.165   5.560  -5.493  0.00  0.00     0.072 C 
BRANCH   4   5
ATOM      5  C   UNL d   1       5.601   5.945  -5.418  0.00  0.00     0.183 C 
ATOM      6  O   UNL d   1       6.261   5.830  -4.393  0.00  0.00    -0.288 OA
BRANCH   5   7
ATOM      7  C   UNL d   1       6.220   6.498  -6.652  0.00  0.00     0.014 A 
ATOM      8  C   UNL d   1       7.186   7.507  -6.527  0.00  0.00     0.018 A 
ATOM      9  C   UNL d   1       7.825   8.006  -7.664  0.00  0.00     0.043 A 
ATOM     10  C   UNL d   1       7.505   7.488  -8.915  0.00  0.00     0.116 A 
ATOM     11  C   UNL d   1       6.553   6.484  -9.051  0.00  0.00     0.043 A 
ATOM     12  F   UNL d   1       8.131   7.954 -10.002  0.00  0.00    -0.206 F 
ATOM     13  C   UNL d   1       5.907   5.985  -7.920  0.00  0.00     0.018 A 
ENDBRANCH   5   7
ENDBRANCH   4   5
ENDBRANCH   1   3
BRANCH   1  14
ATOM     14  C   UNL d   1       3.564   3.209  -2.635  0.00  0.00     0.032 A 
ATOM     15  C   UNL d   1       4.350   2.233  -2.006  0.00  0.00     0.032 A 
ATOM     16  C   UNL d   1       3.768   1.252  -1.197  0.00  0.00     0.039 A 
ATOM     17  C   UNL d   1       2.386   1.214  -0.998  0.00  0.00     0.078 A 
ATOM     18  C   UNL d   1       1.601   2.212  -1.565  0.00  0.00     0.039 A 
ATOM     19  C   UNL d   1       2.185   3.181  -2.395  0.00  0.00     0.032 A 
BRANCH  17  20
ATOM     20  O   UNL d   1       1.952   0.163  -0.247  0.00  0.00    -0.255 OA
BRANCH  20  21
ATOM     21  C   UNL d   1       0.579  -0.191  -0.289  0.00  0.00     0.530 C 
ATOM     22  F   UNL d   1       0.012   0.025  -1.496  0.00  0.00    -0.144 F 
ATOM     23  F   UNL d   1      -0.105   0.489   0.654  0.00  0.00    -0.144 F 
ATOM     24  F   UNL d   1       0.472  -1.512  -0.019  0.00  0.00    -0.144 F 
ENDBRANCH  20  21
ENDBRANCH  17  20
ENDBRANCH   1  14
TORSDOF 6
