REMARK  3 active torsions:
REMARK  status: ('A' for Active; 'I' for Inactive)
REMARK    1  A    between atoms: C_2  and  C_1 
REMARK       I    between atoms: N_5  and  C_2 
REMARK    2  A    between atoms: C_12  and  C_9 
REMARK    3  A    between atoms: O_18  and  C_9 
ROOT
ATOM      1  C   UNL d   1      -0.216  -2.568  -0.122  0.00  0.00     0.263 C 
ATOM      2  N   UNL d   1       0.898  -3.417  -0.092  0.00  0.00    -0.347 N 
ATOM      3  C   UNL d   1       1.798  -6.092   0.688  0.00  0.00     0.088 C 
ATOM      4  C   UNL d   1       0.836  -5.848  -0.496  0.00  0.00     0.063 C 
ATOM      5  C   UNL d   1       1.686  -4.918   1.685  0.00  0.00     0.063 C 
ATOM      6  C   UNL d   1       1.025  -4.459  -1.106  0.00  0.00     0.129 C 
ATOM      7  C   UNL d   1       1.842  -3.555   1.015  0.00  0.00     0.129 C 
ATOM      8  O   UNL d   1      -1.153  -2.803  -0.889  0.00  0.00    -0.267 OA
ENDROOT
BRANCH   1   9
ATOM      9  C   UNL d   1      -0.267  -1.426   0.761  0.00  0.00     0.110 C 
ATOM     10  C   UNL d   1      -1.333  -0.898   1.479  0.00  0.00     0.043 C 
ATOM     11  N   UNL d   1      -1.028   0.254   2.200  0.00  0.00    -0.296 N 
ATOM     12  C   UNL d   1      -2.726  -1.404   1.561  0.00  0.00     0.071 C 
ATOM     13  N   UNL d   1       0.211   0.659   1.985  0.00  0.00    -0.061 NA
ATOM     14  HN  UNL d   1      -1.684   0.729   2.820  1.00  0.00     0.183 HD
ATOM     15  S   UNL d   1       1.021  -0.299   0.885  0.00  0.00     0.007 SA
ENDBRANCH   1   9
BRANCH   3  16
ATOM     16  C   UNL d   1       1.565  -7.471   1.323  0.00  0.00    -0.024 A 
ATOM     17  C   UNL d   1       1.292  -7.646   2.691  0.00  0.00     0.012 A 
ATOM     18  C   UNL d   1       1.091  -8.919   3.236  0.00  0.00     0.024 A 
ATOM     19  C   UNL d   1       1.164 -10.043   2.421  0.00  0.00     0.034 A 
ATOM     20  C   UNL d   1       1.448  -9.905   1.066  0.00  0.00     0.024 A 
ATOM     21 CL   UNL d   1       0.910 -11.606   3.092  0.00  0.00    -0.084 Cl
ATOM     22  C   UNL d   1       1.652  -8.630   0.525  0.00  0.00     0.012 A 
ENDBRANCH   3  16
BRANCH   3  23
ATOM     23  O   UNL d   1       3.142  -6.080   0.181  0.00  0.00    -0.385 OA
ATOM     24  H   UNL d   1       3.675  -6.675   0.739  0.00  0.00     0.211 HD
ENDBRANCH   3  23
TORSDOF 3
