REMARK  6 active torsions:
REMARK  status: ('A' for Active; 'I' for Inactive)
REMARK    1  A    between atoms: C_11  and  N_3 
REMARK    2  A    between atoms: N_14  and  C_9 
REMARK    3  A    between atoms: C_17  and  C_11 
REMARK    4  A    between atoms: C_19  and  N_14 
REMARK    5  A    between atoms: O_18  and  C_20 
REMARK    6  A    between atoms: C_20  and  C_19 
ROOT
ATOM      1  C   UNL d   1      -0.207  -0.829  -0.016  0.00  0.00     0.160 A 
ATOM      2  C   UNL d   1      -0.440   0.518  -0.062  0.00  0.00     0.164 A 
ATOM      3  N   UNL d   1       1.894   0.882   0.015  0.00  0.00    -0.260 N 
ATOM      4  N   UNL d   1      -1.347  -1.554   0.001  0.00  0.00    -0.174 N 
ATOM      5  HN  UNL d   1      -1.434  -2.570   0.038  1.00  0.00     0.186 HD
ATOM      6  N   UNL d   1       1.053  -1.355   0.056  0.00  0.00    -0.287 N 
ATOM      7  C   UNL d   1       2.145  -0.502   0.129  0.00  0.00     0.333 A 
ATOM      8  C   UNL d   1       0.618   1.473  -0.075  0.00  0.00     0.283 A 
ATOM      9  C   UNL d   1      -2.320  -0.670  -0.041  0.00  0.00     0.682 A 
ATOM     10  N   UNL d   1      -1.814   0.618  -0.075  0.00  0.00    -0.178 N 
ATOM     11  O   UNL d   1       3.280  -0.946   0.320  0.00  0.00    -0.246 OA
ATOM     12  O   UNL d   1       0.439   2.687  -0.139  0.00  0.00    -0.265 OA
ATOM     13  C   UNL d   1       1.272  -2.787   0.070  0.00  0.00     0.163 C 
ATOM     14  C   UNL d   1      -2.603   1.823  -0.052  0.00  0.00     0.176 C 
ENDROOT
BRANCH   3  15
ATOM     15  C   UNL d   1       3.061   1.758   0.023  0.00  0.00     0.175 C 
BRANCH  15  16
ATOM     16  C   UNL d   1       3.692   1.902  -1.349  0.00  0.00    -0.040 A 
ATOM     17  C   UNL d   1       3.308   2.943  -2.204  0.00  0.00     0.009 A 
ATOM     18  C   UNL d   1       3.863   3.053  -3.481  0.00  0.00     0.001 A 
ATOM     19  C   UNL d   1       4.802   2.121  -3.921  0.00  0.00     0.000 A 
ATOM     20  C   UNL d   1       5.199   1.087  -3.078  0.00  0.00     0.001 A 
ATOM     21  C   UNL d   1       4.651   0.980  -1.798  0.00  0.00     0.009 A 
ENDBRANCH  15  16
ENDBRANCH   3  15
BRANCH   9  22
ATOM     22  N   UNL d   1      -3.639  -0.959  -0.028  0.00  0.00    -0.224 N 
ATOM     23  H   UNL d   1      -4.342  -0.242   0.129  0.00  0.00     0.177 HD
BRANCH  22  24
ATOM     24  C   UNL d   1      -4.038  -2.261   0.519  0.00  0.00     0.164 C 
BRANCH  24  25
ATOM     25  C   UNL d   1      -4.285  -2.161   2.029  0.00  0.00     0.184 C 
BRANCH  25  26
ATOM     26  O   UNL d   1      -5.416  -1.324   2.285  0.00  0.00    -0.399 OA
ATOM     27  H   UNL d   1      -5.545  -1.323   3.250  0.00  0.00     0.209 HD
ENDBRANCH  25  26
ENDBRANCH  24  25
ENDBRANCH  22  24
ENDBRANCH   9  22
TORSDOF 6
