REMARK  8 active torsions:
REMARK  status: ('A' for Active; 'I' for Inactive)
REMARK    1  A    between atoms: N_9  and  C_1 
REMARK    2  A    between atoms: C_6  and  O_24 
REMARK    3  A    between atoms: C_8  and  C_6 
REMARK    4  A    between atoms: C_14  and  N_9 
REMARK    5  A    between atoms: C_10  and  C_11 
REMARK    6  A    between atoms: O_25  and  C_10 
REMARK    7  A    between atoms: O_24  and  N_15 
REMARK    8  A    between atoms: C_26  and  O_25 
ROOT
ATOM      1  C   UNL d   1      -2.095  -0.737  -0.044  0.00  0.00     0.150 A 
ATOM      2  N   UNL d   1      -1.045  -1.527  -0.027  0.00  0.00    -0.335 N 
ATOM      3  HN  UNL d   1      -1.088  -2.546  -0.038  1.00  0.00     0.168 HD
ATOM      4  S   UNL d   1      -1.721   0.945  -0.021  0.00  0.00    -0.052 SA
ATOM      5  C   UNL d   1      -0.044   0.591   0.014  0.00  0.00     0.036 A 
ATOM      6  C   UNL d   1       0.128  -0.792   0.008  0.00  0.00     0.051 A 
ATOM      7  C   UNL d   1       2.344   0.949   0.043  0.00  0.00     0.041 A 
ATOM      8  C   UNL d   1       1.044   1.478   0.036  0.00  0.00     0.038 A 
ATOM      9  C   UNL d   1       1.439  -1.309   0.029  0.00  0.00     0.032 A 
ATOM     10  C   UNL d   1       2.537  -0.436   0.046  0.00  0.00     0.020 A 
ENDROOT
BRANCH   1  11
ATOM     11  N   UNL d   1      -3.358  -1.228  -0.080  0.00  0.00    -0.331 N 
ATOM     12  H   UNL d   1      -3.430  -2.240  -0.095  0.00  0.00     0.168 HD
BRANCH  11  13
ATOM     13  C   UNL d   1      -4.560  -0.587  -0.088  0.00  0.00     0.207 C 
ATOM     14  N   UNL d   1      -5.708  -1.180  -0.113  0.00  0.00    -0.253 N 
ATOM     15  HN  UNL d   1      -5.856  -2.189  -0.136  1.00  0.00     0.195 HD
BRANCH  14  16
ATOM     16  O   UNL d   1      -6.723  -0.197  -0.105  0.00  0.00    -0.194 OA
BRANCH  16  17
ATOM     17  C   UNL d   1      -7.976  -0.772  -0.132  0.00  0.00     0.322 C 
ATOM     18  O   UNL d   1      -8.208  -1.976  -0.172  0.00  0.00    -0.257 OA
BRANCH  17  19
ATOM     19  C   UNL d   1      -9.015   0.254  -0.109  0.00  0.00     0.082 A 
ATOM     20  S   UNL d   1      -8.662   1.934  -0.063  0.00  0.00    -0.096 SA
ATOM     21  C   UNL d   1     -10.317   2.360  -0.061  0.00  0.00     0.050 A 
ATOM     22  C   UNL d   1     -11.134   1.253  -0.093  0.00  0.00     0.009 A 
ATOM     23  C   UNL d   1     -10.384   0.041  -0.120  0.00  0.00     0.026 A 
ENDBRANCH  17  19
ENDBRANCH  16  17
ENDBRANCH  14  16
ENDBRANCH  11  13
ENDBRANCH   1  11
BRANCH   7  24
ATOM     24  C   UNL d   1       3.470   1.917  -0.037  0.00  0.00     0.293 C 
ATOM     25  O   UNL d   1       3.308   3.127  -0.087  0.00  0.00    -0.259 OA
BRANCH  24  26
ATOM     26  O   UNL d   1       4.650   1.263  -0.166  0.00  0.00    -0.318 OA
BRANCH  26  27
ATOM     27  C   UNL d   1       5.727   2.048  -0.699  0.00  0.00     0.174 C 
ATOM     28  C   UNL d   1       5.693   1.912  -2.211  0.00  0.00     0.034 C 
ENDBRANCH  26  27
ENDBRANCH  24  26
ENDBRANCH   7  24
TORSDOF 8
