REMARK  3 active torsions:
REMARK  status: ('A' for Active; 'I' for Inactive)
REMARK    1  A    between atoms: C_2  and  C_1 
REMARK       I    between atoms: N_10  and  C_2 
REMARK    2  A    between atoms: C_13  and  C_4 
REMARK    3  A    between atoms: C_9  and  N_10 
ROOT
ATOM      1  C   UNL d   1      -2.707   3.745   0.228  0.00  0.00     0.017 A 
ATOM      2  C   UNL d   1      -1.464   3.146   0.340  0.00  0.00     0.049 A 
ATOM      3  S   UNL d   1      -2.534   5.444   0.070  0.00  0.00    -0.099 SA
ATOM      4  C   UNL d   1      -0.371   4.042   0.143  0.00  0.00     0.042 A 
ATOM      5  C   UNL d   1      -0.827   5.337   0.021  0.00  0.00     0.080 A 
ENDROOT
BRANCH   4   6
ATOM      6  N   UNL d   1       0.984   3.728   0.048  0.00  0.00    -0.322 N 
ATOM      7  C   UNL d   1       1.502   2.443   0.109  0.00  0.00     0.258 C 
ATOM      8  O   UNL d   1       0.834   1.439   0.342  0.00  0.00    -0.267 OA
ATOM      9  H   UNL d   1       1.608   4.494  -0.153  0.00  0.00     0.169 HD
BRANCH   7  10
ATOM     10  C   UNL d   1       2.938   2.344  -0.153  0.00  0.00     0.064 A 
ATOM     11  C   UNL d   1       3.655   1.152  -0.189  0.00  0.00     0.065 A 
ATOM     12  O   UNL d   1       4.959   1.387  -0.505  0.00  0.00    -0.319 OA
ATOM     13  C   UNL d   1       3.325  -0.276   0.028  0.00  0.00     0.077 C 
ATOM     14  C   UNL d   1       5.106   2.725  -0.665  0.00  0.00     0.050 A 
ATOM     15  C   UNL d   1       3.906   3.361  -0.433  0.00  0.00     0.051 A 
ATOM     16  C   UNL d   1       6.456   3.186  -1.041  0.00  0.00     0.076 C 
ENDBRANCH   7  10
ENDBRANCH   4   6
BRANCH   1  17
ATOM     17  C   UNL d   1      -4.025   3.087   0.162  0.00  0.00    -0.019 A 
ATOM     18  C   UNL d   1      -5.203   3.691   0.626  0.00  0.00     0.014 A 
ATOM     19  C   UNL d   1      -6.440   3.049   0.485  0.00  0.00     0.024 A 
ATOM     20  C   UNL d   1      -6.510   1.794  -0.115  0.00  0.00     0.034 A 
ATOM     21  C   UNL d   1      -5.354   1.167  -0.563  0.00  0.00     0.024 A 
ATOM     22 CL   UNL d   1      -8.033   1.020  -0.315  0.00  0.00    -0.084 Cl
ATOM     23  C   UNL d   1      -4.122   1.810  -0.423  0.00  0.00     0.014 A 
ENDBRANCH   1  17
TORSDOF 3
