REMARK  1 active torsions:
REMARK  status: ('A' for Active; 'I' for Inactive)
REMARK    1  A    between atoms: C_13  and  C_6 
ROOT
ATOM      1  C   UNL d   1       1.651   1.573   0.428  0.00  0.00     0.027 C 
ATOM      2  N   UNL d   1       0.823   1.593  -0.572  0.00  0.00    -0.357 N 
ATOM      3  HN  UNL d   1       0.961   2.286  -1.308  1.00  0.00     0.166 HD
ATOM      4  C   UNL d   1       1.593   0.492   1.481  0.00  0.00     0.065 C 
ATOM      5  S   UNL d   1       1.159  -1.786  -0.066  0.00  0.00    -0.117 SA
ATOM      6  C   UNL d   1       2.348  -0.643   0.757  0.00  0.00     0.096 C 
ATOM      7  C   UNL d   1       2.854   2.470   0.405  0.00  0.00     0.004 A 
ATOM      8  S   UNL d   1       3.513   1.848   3.092  0.00  0.00    -0.128 SA
ATOM      9  C   UNL d   1      -0.262   0.694  -0.683  0.00  0.00     0.049 A 
ATOM     10  C   UNL d   1       1.956   0.979   2.871  0.00  0.00     0.091 C 
ATOM     11  C   UNL d   1      -0.235  -0.719  -0.535  0.00  0.00     0.028 A 
ATOM     12  C   UNL d   1       3.698   2.635   1.510  0.00  0.00     0.012 A 
ATOM     13  C   UNL d   1       3.215   3.044  -0.827  0.00  0.00     0.015 A 
ATOM     14  C   UNL d   1      -1.483   1.312  -1.011  0.00  0.00     0.031 A 
ATOM     15  C   UNL d   1      -1.437  -1.435  -0.708  0.00  0.00     0.021 A 
ATOM     16  C   UNL d   1       4.857   3.419   1.376  0.00  0.00     0.019 A 
ATOM     17  C   UNL d   1       4.392   3.784  -0.955  0.00  0.00     0.001 A 
ATOM     18  C   UNL d   1      -2.662   0.585  -1.161  0.00  0.00     0.002 A 
ATOM     19  C   UNL d   1      -2.639  -0.792  -1.008  0.00  0.00     0.002 A 
ATOM     20  C   UNL d   1       5.206   3.985   0.152  0.00  0.00     0.001 A 
ENDROOT
BRANCH   6  21
ATOM     21  C   UNL d   1       3.437  -1.345   1.542  0.00  0.00    -0.043 A 
ATOM     22  C   UNL d   1       4.778  -1.015   1.264  0.00  0.00     0.008 A 
ATOM     23  C   UNL d   1       5.821  -1.568   2.007  0.00  0.00     0.001 A 
ATOM     24  C   UNL d   1       5.537  -2.464   3.030  0.00  0.00     0.000 A 
ATOM     25  C   UNL d   1       4.217  -2.812   3.305  0.00  0.00     0.001 A 
ATOM     26  C   UNL d   1       3.167  -2.256   2.567  0.00  0.00     0.008 A 
ENDBRANCH   6  21
TORSDOF 1
