REMARK  6 active torsions:
REMARK  status: ('A' for Active; 'I' for Inactive)
REMARK    1  A    between atoms: N_2  and  S_1 
REMARK    2  A    between atoms: C_3  and  S_1 
REMARK    3  A    between atoms: C_6  and  N_2 
REMARK    4  A    between atoms: C_7  and  N_2 
REMARK    5  A    between atoms: C_20  and  C_6 
REMARK    6  A    between atoms: C_21  and  C_7 
ROOT
ATOM      1  N   UNL d   1       0.292  -1.391  -0.653  0.00  0.00    -0.195 NA
ENDROOT
BRANCH   1   2
ATOM      2  S   UNL d   1       1.011   0.029   0.038  0.00  0.00     0.244 S 
ATOM      3  O   UNL d   1       0.386   1.179  -0.574  0.00  0.00    -0.206 OA
ATOM      4  O   UNL d   1       2.446  -0.154   0.004  0.00  0.00    -0.206 OA
BRANCH   2   5
ATOM      5  C   UNL d   1       0.572   0.111   1.769  0.00  0.00     0.075 A 
ATOM      6  C   UNL d   1      -0.744   0.387   2.156  0.00  0.00     0.034 A 
ATOM      7  C   UNL d   1      -1.056   0.650   3.498  0.00  0.00    -0.023 A 
ATOM      8  C   UNL d   1      -2.474   0.927   3.900  0.00  0.00     0.044 C 
ATOM      9  C   UNL d   1      -0.027   0.663   4.445  0.00  0.00     0.076 A 
ATOM     10  C   UNL d   1      -2.503   1.694   5.213  0.00  0.00     0.042 C 
ATOM     11  C   UNL d   1      -1.560   1.058   6.246  0.00  0.00     0.061 C 
ATOM     12  O   UNL d   1      -0.208   0.956   5.767  0.00  0.00    -0.340 OA
ATOM     13  C   UNL d   1      -1.492   1.965   7.484  0.00  0.00     0.046 C 
ATOM     14  C   UNL d   1      -2.031  -0.336   6.680  0.00  0.00     0.046 C 
ATOM     15  C   UNL d   1       1.290   0.428   4.056  0.00  0.00     0.039 A 
ATOM     16  C   UNL d   1       1.597   0.155   2.721  0.00  0.00     0.027 A 
ENDBRANCH   2   5
ENDBRANCH   1   2
BRANCH   1  17
ATOM     17  C   UNL d   1      -1.181  -1.513  -0.418  0.00  0.00     0.164 C 
BRANCH  17  18
ATOM     18  C   UNL d   1      -1.860  -2.744  -0.991  0.00  0.00     0.023 A 
ATOM     19  N   UNL d   1      -2.873  -2.531  -1.879  0.00  0.00    -0.368 N 
ATOM     20  C   UNL d   1      -3.516  -3.616  -2.360  0.00  0.00     0.088 A 
ATOM     21  HN  UNL d   1      -3.134  -1.589  -2.168  1.00  0.00     0.165 HD
ATOM     22  C   UNL d   1      -3.206  -4.918  -2.010  0.00  0.00     0.017 A 
ATOM     23  C   UNL d   1      -2.166  -5.121  -1.110  0.00  0.00     0.003 A 
ATOM     24  C   UNL d   1      -1.478  -4.024  -0.584  0.00  0.00     0.026 A 
ENDBRANCH  17  18
ENDBRANCH   1  17
BRANCH   1  25
ATOM     25  C   UNL d   1       0.534  -1.378  -2.158  0.00  0.00     0.164 C 
BRANCH  25  26
ATOM     26  C   UNL d   1       1.979  -1.402  -2.608  0.00  0.00     0.023 A 
ATOM     27  N   UNL d   1       2.420  -0.350  -3.339  0.00  0.00    -0.368 N 
ATOM     28  C   UNL d   1       3.716  -0.357  -3.718  0.00  0.00     0.088 A 
ATOM     29  HN  UNL d   1       1.797   0.417  -3.593  1.00  0.00     0.165 HD
ATOM     30  C   UNL d   1       4.590  -1.392  -3.431  0.00  0.00     0.017 A 
ATOM     31  C   UNL d   1       4.120  -2.477  -2.703  0.00  0.00     0.003 A 
ATOM     32  C   UNL d   1       2.794  -2.483  -2.274  0.00  0.00     0.026 A 
ENDBRANCH  25  26
ENDBRANCH   1  25
TORSDOF 6
