REMARK  2 active torsions:
REMARK  status: ('A' for Active; 'I' for Inactive)
REMARK    1  A    between atoms: C_5  and  C_2 
REMARK    2  A    between atoms: C_3  and  C_5 
REMARK       I    between atoms: N_9  and  C_3 
ROOT
ATOM      1  C   UNL d   1       0.822  -0.111   0.015  0.00  0.00     0.043 A 
ATOM      2  C   UNL d   1       0.506  -1.480  -0.027  0.00  0.00    -0.028 A 
ATOM      3  C   UNL d   1      -0.188   0.854   0.051  0.00  0.00     0.066 A 
ATOM      4  C   UNL d   1      -0.850  -1.858   0.007  0.00  0.00     0.012 A 
ATOM      5  C   UNL d   1      -1.516   0.452   0.058  0.00  0.00     0.118 A 
ATOM      6 CL   UNL d   1       2.458   0.449   0.021  0.00  0.00    -0.084 Cl
ATOM      7  C   UNL d   1      -1.857  -0.894   0.043  0.00  0.00     0.043 A 
ATOM      8  F   UNL d   1      -2.484   1.377   0.081  0.00  0.00    -0.206 F 
ENDROOT
BRANCH   2   9
ATOM      9  C   UNL d   1       1.559  -2.562  -0.092  0.00  0.00     0.142 C 
BRANCH   9  10
ATOM     10  C   UNL d   1       2.032  -3.009   1.275  0.00  0.00     0.219 C 
ATOM     11  O   UNL d   1       1.442  -3.843   1.954  0.00  0.00    -0.273 OA
ATOM     12  N   UNL d   1       3.182  -2.426   1.722  0.00  0.00    -0.370 N 
ATOM     13  H   UNL d   1       3.528  -1.565   1.317  0.00  0.00     0.159 HD
ATOM     14  H   UNL d   1       3.470  -2.652   2.666  0.00  0.00     0.159 HD
ENDBRANCH   9  10
ENDBRANCH   2   9
TORSDOF 2
