REMARK  4 active torsions:
REMARK  status: ('A' for Active; 'I' for Inactive)
REMARK    1  A    between atoms: C_9  and  C_2 
REMARK    2  A    between atoms: O_14  and  C_5 
REMARK    3  A    between atoms: O_16  and  C_7 
REMARK    4  A    between atoms: N_15  and  C_12 
ROOT
ATOM      1  C   UNL d   1      -0.043   0.606  -0.117  0.00  0.00    -0.012 A 
ATOM      2  C   UNL d   1       1.306   1.197  -0.506  0.00  0.00     0.287 C 
ATOM      3  C   UNL d   1      -1.198   1.400  -0.025  0.00  0.00     0.049 A 
ATOM      4  C   UNL d   1      -0.149  -0.780   0.041  0.00  0.00    -0.045 A 
ATOM      5  C   UNL d   1      -2.459   0.829   0.196  0.00  0.00     0.102 A 
ATOM      6  C   UNL d   1      -1.405  -1.361   0.213  0.00  0.00     0.047 A 
ATOM      7  C   UNL d   1      -2.566  -0.574   0.282  0.00  0.00     0.102 A 
ATOM      8  N   UNL d   1       2.438   0.589   0.221  0.00  0.00     0.097 N 
ATOM      9  C   UNL d   1       2.262  -0.816   0.616  0.00  0.00     0.275 C 
ATOM     10  C   UNL d   1       1.112  -1.592  -0.039  0.00  0.00     0.069 C 
ATOM     11  H   UNL d   1       2.606   1.136   1.063  0.00  0.00     0.317 HD
ENDROOT
BRANCH   2  12
ATOM     12  C   UNL d   1       1.582   1.248  -2.015  0.00  0.00    -0.021 A 
ATOM     13  C   UNL d   1       0.674   0.790  -2.983  0.00  0.00     0.011 A 
ATOM     14  C   UNL d   1       0.948   0.913  -4.351  0.00  0.00     0.024 A 
ATOM     15  C   UNL d   1       2.153   1.456  -4.795  0.00  0.00     0.005 A 
ATOM     16  C   UNL d   1       3.036   1.969  -3.846  0.00  0.00     0.024 A 
ATOM     17  C   UNL d   1       2.768   1.848  -2.477  0.00  0.00     0.011 A 
BRANCH  15  18
ATOM     18  N   UNL d   1       2.359   1.697  -6.159  0.00  0.00    -0.303 NA
ATOM     19  H   UNL d   1       3.338   1.787  -6.409  0.00  0.00     0.124 HD
ATOM     20  H   UNL d   1       1.866   1.046  -6.762  0.00  0.00     0.124 HD
ENDBRANCH  15  18
ENDBRANCH   2  12
BRANCH   5  21
ATOM     21  O   UNL d   1      -3.603   1.575   0.305  0.00  0.00    -0.353 OA
ATOM     22  C   UNL d   1      -3.484   2.990   0.353  0.00  0.00     0.210 C 
ENDBRANCH   5  21
BRANCH   7  23
ATOM     23  O   UNL d   1      -3.692  -1.343   0.432  0.00  0.00    -0.353 OA
ATOM     24  C   UNL d   1      -4.960  -0.710   0.483  0.00  0.00     0.210 C 
ENDBRANCH   7  23
TORSDOF 4
