REMARK  3 active torsions:
REMARK  status: ('A' for Active; 'I' for Inactive)
REMARK    1  A    between atoms: C_7  and  N_1 
REMARK    2  A    between atoms: C_13  and  C_7 
REMARK    3  A    between atoms: C_8  and  C_13 
ROOT
ATOM      1  C   UNL d   1       0.238  -2.248   0.013  0.00  0.00     0.140 C 
ENDROOT
BRANCH   1   2
ATOM      2  N   UNL d   1       0.433  -0.800   0.057  0.00  0.00    -0.293 N 
ATOM      3  C   UNL d   1       0.536  -0.006   1.166  0.00  0.00     0.176 A 
ATOM      4  N   UNL d   1       0.671   1.304   0.757  0.00  0.00    -0.358 N 
ATOM      5  S   UNL d   1       0.515  -0.415   2.770  0.00  0.00    -0.041 SA
ATOM      6  C   UNL d   1       0.648   1.428  -0.673  0.00  0.00     0.225 A 
ATOM      7  H   UNL d   1       0.733   2.071   1.417  0.00  0.00     0.162 HD
ATOM      8  C   UNL d   1       0.522  -0.031  -1.080  0.00  0.00     0.243 A 
ATOM      9  O   UNL d   1       0.498  -0.432  -2.236  0.00  0.00    -0.271 OA
ENDBRANCH   1   2
BRANCH   1  10
ATOM     10  C   UNL d   1       1.555  -3.026  -0.004  0.00  0.00     0.079 C 
BRANCH  10  11
ATOM     11  C   UNL d   1       1.320  -4.498   0.012  0.00  0.00     0.027 A 
ATOM     12  N   UNL d   1       0.631  -5.081   1.051  0.00  0.00    -0.355 N 
ATOM     13  C   UNL d   1       0.588  -6.363   0.774  0.00  0.00     0.180 A 
ATOM     14  HN  UNL d   1       0.235  -4.614   1.866  1.00  0.00     0.166 HD
ATOM     15  N   UNL d   1       1.224  -6.639  -0.403  0.00  0.00    -0.360 N 
ATOM     16  C   UNL d   1       1.696  -5.457  -0.903  0.00  0.00     0.114 A 
ATOM     17  H   UNL d   1       1.321  -7.554  -0.821  0.00  0.00     0.166 HD
ENDBRANCH  10  11
ENDBRANCH   1  10
TORSDOF 3
