REMARK  6 active torsions:
REMARK  status: ('A' for Active; 'I' for Inactive)
REMARK    1  A    between atoms: C_9  and  N_1 
REMARK    2  A    between atoms: C_8  and  C_2 
REMARK    3  A    between atoms: C_13  and  N_6 
REMARK    4  A    between atoms: C_16  and  C_13 
REMARK    5  A    between atoms: O_23  and  C_17 
REMARK    6  A    between atoms: O_24  and  C_18 
ROOT
ATOM      1  N   UNL d   1      -0.329   1.066  -0.030  0.00  0.00    -0.291 N 
ATOM      2  C   UNL d   1      -1.221  -0.027  -0.002  0.00  0.00     0.058 A 
ATOM      3  C   UNL d   1       1.022   0.665  -0.045  0.00  0.00     0.152 A 
ATOM      4  S   UNL d   1       1.091  -1.131  -0.065  0.00  0.00    -0.063 SA
ATOM      5  C   UNL d   1      -0.641  -1.240  -0.021  0.00  0.00     0.084 A 
ATOM      6  N   UNL d   1       2.067   1.409  -0.018  0.00  0.00    -0.366 N 
ATOM      7  HN  UNL d   1       1.951   2.422   0.002  1.00  0.00     0.162 HD
ENDROOT
BRANCH   1   8
ATOM      8  C   UNL d   1      -0.685   2.452   0.039  0.00  0.00     0.042 A 
ATOM      9  C   UNL d   1      -1.729   2.918   0.850  0.00  0.00     0.033 A 
ATOM     10  C   UNL d   1      -2.065   4.276   0.934  0.00  0.00     0.039 A 
ATOM     11  C   UNL d   1      -1.335   5.223   0.226  0.00  0.00     0.068 A 
ATOM     12  C   UNL d   1      -0.280   4.792  -0.572  0.00  0.00     0.039 A 
ATOM     13  C   UNL d   1       0.034   3.429  -0.672  0.00  0.00     0.033 A 
BRANCH  11  14
ATOM     14  O   UNL d   1      -1.547   6.573   0.243  0.00  0.00    -0.356 OA
ATOM     15  C   UNL d   1      -2.627   7.037   1.045  0.00  0.00     0.210 C 
ENDBRANCH  11  14
ENDBRANCH   1   8
BRANCH   6  16
ATOM     16  C   UNL d   1       3.413   0.855  -0.016  0.00  0.00     0.161 C 
BRANCH  16  17
ATOM     17  C   UNL d   1       4.459   1.942  -0.017  0.00  0.00    -0.025 A 
ATOM     18  C   UNL d   1       5.721   1.707  -0.550  0.00  0.00     0.096 A 
ATOM     19  N   UNL d   1       6.725   2.617  -0.570  0.00  0.00    -0.375 N 
ATOM     20  C   UNL d   1       6.457   3.821  -0.023  0.00  0.00     0.087 A 
ATOM     21  HN  UNL d   1       7.636   2.403  -0.976  1.00  0.00     0.164 HD
ATOM     22  C   UNL d   1       5.243   4.156   0.548  0.00  0.00     0.018 A 
ATOM     23  C   UNL d   1       4.234   3.198   0.557  0.00  0.00     0.011 A 
ENDBRANCH  16  17
ENDBRANCH   6  16
BRANCH   2  24
ATOM     24  C   UNL d   1      -2.683   0.069  -0.047  0.00  0.00    -0.006 A 
ATOM     25  C   UNL d   1      -3.349   0.179  -1.278  0.00  0.00     0.050 A 
ATOM     26  C   UNL d   1      -4.743   0.257  -1.318  0.00  0.00     0.069 A 
ATOM     27  C   UNL d   1      -5.467   0.251  -0.123  0.00  0.00     0.037 A 
ATOM     28  C   UNL d   1      -4.816   0.122   1.104  0.00  0.00     0.004 A 
ATOM     29  C   UNL d   1      -3.430  -0.001   1.139  0.00  0.00     0.014 A 
BRANCH  26  30
ATOM     30  O   UNL d   1      -5.512   0.344  -2.446  0.00  0.00    -0.356 OA
ATOM     31  C   UNL d   1      -4.837   0.250  -3.694  0.00  0.00     0.210 C 
ENDBRANCH  26  30
ENDBRANCH   2  24
TORSDOF 6
