REMARK  4 active torsions:
REMARK  status: ('A' for Active; 'I' for Inactive)
REMARK    1  A    between atoms: C_2  and  C_1 
REMARK       I    between atoms: N_3  and  C_1 
REMARK    2  A    between atoms: C_5  and  N_3 
REMARK    3  A    between atoms: N_8  and  C_4 
REMARK    4  A    between atoms: C_7  and  C_5 
ROOT
ATOM      1  C   UNL d   1       0.944  -0.797   0.266  0.00  0.00     0.254 C 
ATOM      2  N   UNL d   1       0.353  -0.653  -0.968  0.00  0.00    -0.349 N 
ATOM      3  O   UNL d   1       0.323  -0.861   1.322  0.00  0.00    -0.268 OA
ATOM      4  H   UNL d   1       0.963  -0.467  -1.759  0.00  0.00     0.163 HD
ENDROOT
BRANCH   1   5
ATOM      5  C   UNL d   1       2.434  -0.889   0.259  0.00  0.00     0.052 A 
ATOM      6  C   UNL d   1       3.154  -1.551  -0.759  0.00  0.00     0.021 A 
ATOM      7  C   UNL d   1       4.556  -1.496  -0.728  0.00  0.00     0.024 A 
ATOM      8  C   UNL d   1       5.230  -0.911   0.347  0.00  0.00     0.002 A 
ATOM      9  C   UNL d   1       4.512  -0.341   1.393  0.00  0.00     0.001 A 
ATOM     10  C   UNL d   1       3.117  -0.325   1.349  0.00  0.00     0.019 A 
BRANCH   6  11
ATOM     11  N   UNL d   1       2.537  -2.097  -1.908  0.00  0.00    -0.302 NA
ATOM     12  H   UNL d   1       1.607  -2.461  -1.694  0.00  0.00     0.124 HD
ATOM     13  H   UNL d   1       3.107  -2.812  -2.354  0.00  0.00     0.124 HD
ENDBRANCH   6  11
ENDBRANCH   1   5
BRANCH   2  14
ATOM     14  C   UNL d   1      -1.085  -0.622  -1.167  0.00  0.00     0.114 C 
ATOM     15  C   UNL d   1      -1.454  -1.429  -2.414  0.00  0.00     0.037 C 
BRANCH  14  16
ATOM     16  C   UNL d   1      -1.626   0.791  -1.286  0.00  0.00    -0.036 A 
ATOM     17  C   UNL d   1      -1.128   1.697  -2.236  0.00  0.00     0.009 A 
ATOM     18  C   UNL d   1      -1.720   2.951  -2.402  0.00  0.00     0.001 A 
ATOM     19  C   UNL d   1      -2.812   3.318  -1.618  0.00  0.00     0.000 A 
ATOM     20  C   UNL d   1      -3.303   2.439  -0.656  0.00  0.00     0.001 A 
ATOM     21  C   UNL d   1      -2.713   1.185  -0.488  0.00  0.00     0.009 A 
ENDBRANCH  14  16
ENDBRANCH   2  14
TORSDOF 4
