REMARK  5 active torsions:
REMARK  status: ('A' for Active; 'I' for Inactive)
REMARK    1  A    between atoms: C_2  and  C_1 
REMARK    2  A    between atoms: C_4  and  C_1 
REMARK    3  A    between atoms: C_6  and  C_2 
REMARK    4  A    between atoms: C_3  and  O_5 
REMARK       I    between atoms: N_13  and  C_3 
REMARK    5  A    between atoms: O_5  and  C_4 
ROOT
ATOM      1  C   UNL d   1       1.063   0.006   0.077  0.00  0.00    -0.063 C 
ENDROOT
BRANCH   1   2
ATOM      2  C   UNL d   1      -0.241   0.006   0.077  0.00  0.00    -0.061 C 
BRANCH   2   3
ATOM      3  C   UNL d   1      -1.665  -0.007   0.083  0.00  0.00     0.048 A 
ATOM      4  C   UNL d   1      -2.415   1.149   0.074  0.00  0.00     0.111 A 
ATOM      5  N   UNL d   1      -3.766   1.168   0.071  0.00  0.00    -0.361 N 
ATOM      6  C   UNL d   1      -4.362  -0.036   0.080  0.00  0.00     0.180 A 
ATOM      7  HN  UNL d   1      -4.298   2.039   0.063  1.00  0.00     0.166 HD
ATOM      8  N   UNL d   1      -3.741  -1.226   0.091  0.00  0.00    -0.361 N 
ATOM      9  C   UNL d   1      -2.390  -1.179   0.096  0.00  0.00     0.111 A 
ATOM     10  HN  UNL d   1      -4.254  -2.107   0.097  1.00  0.00     0.166 HD
ENDBRANCH   2   3
ENDBRANCH   1   2
BRANCH   1  11
ATOM     11  C   UNL d   1       2.583   0.006   0.077  0.00  0.00     0.128 C 
ATOM     12  C   UNL d   1       3.094   0.965  -0.999  0.00  0.00     0.061 C 
ATOM     13  C   UNL d   1       3.126   0.465   1.441  0.00  0.00     0.061 C 
BRANCH  11  14
ATOM     14  O   UNL d   1       3.075  -1.325  -0.243  0.00  0.00    -0.280 OA
BRANCH  14  15
ATOM     15  C   UNL d   1       2.683  -2.354   0.558  0.00  0.00     0.361 C 
ATOM     16  O   UNL d   1       1.948  -2.262   1.535  0.00  0.00    -0.238 OA
ATOM     17  N   UNL d   1       3.228  -3.526   0.129  0.00  0.00    -0.341 N 
ATOM     18  C   UNL d   1       2.989  -4.774   0.807  0.00  0.00     0.151 C 
ATOM     19  H   UNL d   1       3.789  -3.494  -0.709  0.00  0.00     0.164 HD
ENDBRANCH  14  15
ENDBRANCH  11  14
ENDBRANCH   1  11
TORSDOF 5
