REMARK  4 active torsions:
REMARK  status: ('A' for Active; 'I' for Inactive)
REMARK       I    between atoms: C_7  and  N_1 
REMARK    1  A    between atoms: C_8  and  C_4 
REMARK       I    between atoms: N_12  and  C_7 
REMARK    2  A    between atoms: O_16  and  N_9 
REMARK    3  A    between atoms: C_14  and  C_17 
REMARK    4  A    between atoms: C_17  and  O_16 
ROOT
ATOM      1  N   UNL d   1       4.265   5.363   2.732  0.00  0.00    -0.215 N 
ATOM      2  N   UNL d   1       4.424   4.204   2.019  0.00  0.00    -0.288 N 
ATOM      3  HN  UNL d   1       5.298   3.755   1.744  1.00  0.00     0.188 HD
ATOM      4  C   UNL d   1       3.164   3.790   1.759  0.00  0.00     0.084 C 
ATOM      5  C   UNL d   1       2.953   5.748   2.801  0.00  0.00     0.143 C 
ATOM      6  C   UNL d   1       2.237   4.782   2.160  0.00  0.00     0.058 C 
ATOM      7  C   UNL d   1       5.366   6.018   3.343  0.00  0.00     0.340 C 
ATOM      8  O   UNL d   1       5.163   6.853   4.218  0.00  0.00    -0.245 OA
ATOM      9  N   UNL d   1       6.569   5.642   2.803  0.00  0.00    -0.346 N 
ATOM     10 BR   UNL d   1       0.382   4.763   1.905  0.00  0.00    -0.047 Br
ATOM     11  C   UNL d   1       7.791   6.287   3.206  0.00  0.00     0.151 C 
ATOM     12  H   UNL d   1       6.543   5.047   1.974  0.00  0.00     0.163 HD
ENDROOT
BRANCH   4  13
ATOM     13  C   UNL d   1       2.813   2.470   1.239  0.00  0.00     0.146 C 
ATOM     14  N   UNL d   1       3.554   1.608   0.607  0.00  0.00    -0.275 N 
ATOM     15  HN  UNL d   1       3.241   0.669   0.359  1.00  0.00     0.193 HD
BRANCH  14  16
ATOM     16  O   UNL d   1       4.823   2.105   0.301  0.00  0.00    -0.276 OA
BRANCH  16  17
ATOM     17  C   UNL d   1       5.737   1.009   0.201  0.00  0.00     0.240 C 
BRANCH  17  18
ATOM     18  C   UNL d   1       6.925   1.392  -0.652  0.00  0.00    -0.026 A 
ATOM     19  C   UNL d   1       8.231   0.946  -0.363  0.00  0.00    -0.053 A 
ATOM     20  C   UNL d   1       8.540   0.063   0.816  0.00  0.00     0.049 C 
ATOM     21  C   UNL d   1       9.295   1.370  -1.178  0.00  0.00     0.007 A 
ATOM     22  C   UNL d   1       9.067   2.165  -2.299  0.00  0.00     0.001 A 
ATOM     23  C   UNL d   1       7.772   2.550  -2.627  0.00  0.00     0.001 A 
ATOM     24  C   UNL d   1       6.710   2.163  -1.810  0.00  0.00     0.010 A 
ENDBRANCH  17  18
ENDBRANCH  16  17
ENDBRANCH  14  16
ENDBRANCH   4  13
TORSDOF 4
