REMARK  5 active torsions:
REMARK  status: ('A' for Active; 'I' for Inactive)
REMARK    1  A    between atoms: O_5  and  C_1 
REMARK    2  A    between atoms: C_12  and  C_1 
REMARK    3  A    between atoms: O_4  and  C_12 
REMARK    4  A    between atoms: C_13  and  O_4 
REMARK    5  A    between atoms: C_6  and  C_13 
ROOT
ATOM      1  C   UNL d   1       5.552  -4.830   2.523  0.00  0.00     0.011 A 
ATOM      2  C   UNL d   1       4.840  -2.413   1.301  0.00  0.00    -0.035 A 
ATOM      3 BR   UNL d   1       5.997  -6.459   3.373  0.00  0.00    -0.051 Br
ATOM      4  C   UNL d   1       4.768  -4.844   1.372  0.00  0.00     0.019 A 
ATOM      5  C   UNL d   1       6.002  -3.625   3.058  0.00  0.00     0.019 A 
ATOM      6  C   UNL d   1       4.417  -3.638   0.761  0.00  0.00     0.011 A 
ATOM      7  C   UNL d   1       5.648  -2.419   2.447  0.00  0.00     0.011 A 
ENDROOT
BRANCH   2   8
ATOM      8  C   UNL d   1       4.407  -1.119   0.665  0.00  0.00     0.206 C 
BRANCH   8   9
ATOM      9  O   UNL d   1       2.980  -1.069   0.721  0.00  0.00    -0.376 OA
BRANCH   9  10
ATOM     10  C   UNL d   1       2.476   0.135   0.130  0.00  0.00     0.277 C 
BRANCH  10  11
ATOM     11  C   UNL d   1       0.957   0.112   0.213  0.00  0.00     0.164 C 
ATOM     12  O   UNL d   1       0.229   0.998  -0.211  0.00  0.00    -0.648 OA
BRANCH  11  13
ATOM     13  O   UNL d   1       0.490  -1.010   0.818  0.00  0.00    -0.775 OA
ATOM     14  H   UNL d   1       1.268  -1.560   1.073  0.00  0.00     0.167 HD
ENDBRANCH  11  13
ENDBRANCH  10  11
ENDBRANCH   9  10
ENDBRANCH   8   9
ENDBRANCH   2   8
TORSDOF 5
