REMARK  6 active torsions:
REMARK  status: ('A' for Active; 'I' for Inactive)
REMARK    1  A    between atoms: CA_1  and  C_5 
REMARK    2  A    between atoms: OXT_13  and  C_5 
REMARK    3  A    between atoms: C_11  and  C_6 
REMARK       I    between atoms: C_7  and  N_8 
REMARK    4  A    between atoms: C_12  and  C_7 
REMARK    5  A    between atoms: N_8  and  C_11 
REMARK    6  A    between atoms: C_16  and  C_12 
ROOT
ATOM      1  CA  UNL d   1      -3.206   0.767   1.584  0.00  0.00     0.336 C 
ATOM      2  C   UNL d   1      -2.221   1.948   1.516  0.00  0.00     0.044 C 
ATOM      3  N   UNL d   1      -2.494  -0.493   1.176  0.00  0.00     0.115 N 
ATOM      4  S   UNL d   1      -1.260   1.573   0.004  0.00  0.00    -0.120 SA
ATOM      5  C   UNL d   1      -1.768  -0.173  -0.074  0.00  0.00     0.301 C 
ATOM      6  C   UNL d   1      -1.225   2.026   2.680  0.00  0.00     0.029 C 
ATOM      7  C   UNL d   1      -2.947   3.282   1.333  0.00  0.00     0.029 C 
ATOM      8  H   UNL d   1      -3.205  -1.197   0.951  0.00  0.00     0.318 HD
ENDROOT
BRANCH   5   9
ATOM      9  C   UNL d   1      -2.600  -0.490  -1.351  0.00  0.00     0.169 C 
BRANCH   9  10
ATOM     10  N   UNL d   1      -1.906  -0.218  -2.599  0.00  0.00    -0.358 N 
ATOM     11  C   UNL d   1      -2.316   0.783  -3.456  0.00  0.00     0.221 C 
ATOM     12  O   UNL d   1      -3.322   1.462  -3.264  0.00  0.00    -0.273 OA
ATOM     13  H   UNL d   1      -1.126  -0.803  -2.871  0.00  0.00     0.162 HD
BRANCH  11  14
ATOM     14  C   UNL d   1      -1.418   0.983  -4.664  0.00  0.00     0.141 C 
BRANCH  14  15
ATOM     15  C   UNL d   1      -1.753   0.087  -5.831  0.00  0.00    -0.050 A 
ATOM     16  C   UNL d   1      -3.038   0.097  -6.397  0.00  0.00     0.007 A 
ATOM     17  C   UNL d   1      -3.328  -0.685  -7.516  0.00  0.00     0.001 A 
ATOM     18  C   UNL d   1      -2.339  -1.480  -8.087  0.00  0.00     0.000 A 
ATOM     19  C   UNL d   1      -1.059  -1.501  -7.535  0.00  0.00     0.001 A 
ATOM     20  C   UNL d   1      -0.766  -0.721  -6.415  0.00  0.00     0.007 A 
ENDBRANCH  14  15
ENDBRANCH  11  14
ENDBRANCH   9  10
ENDBRANCH   5   9
BRANCH   1  21
ATOM     21  C   UNL d   1      -3.789   0.586   2.992  0.00  0.00     0.175 C 
ATOM     22  O   UNL d   1      -4.539   1.373   3.544  0.00  0.00    -0.648 OA
BRANCH  21  23
ATOM     23  OXT UNL d   1      -3.366  -0.565   3.578  0.00  0.00    -0.775 OA
ATOM     24  HXT UNL d   1      -2.718  -0.987   2.965  0.00  0.00     0.167 HD
ENDBRANCH  21  23
ENDBRANCH   1  21
TORSDOF 6
