REMARK  7 active torsions:
REMARK  status: ('A' for Active; 'I' for Inactive)
REMARK    1  A    between atoms: C_3  and  N_1 
REMARK       I    between atoms: C_2  and  N_12 
REMARK    2  A    between atoms: O_6  and  C_2 
REMARK    3  A    between atoms: C_11  and  O_6 
REMARK    4  A    between atoms: C_17  and  N_9 
REMARK    5  A    between atoms: N_12  and  C_18 
REMARK    6  A    between atoms: C_13  and  C_14 
REMARK    7  A    between atoms: C_18  and  C_17 
ROOT
ATOM      1  N   UNL d   1       1.020   2.885  -4.451  0.00  0.00    -0.397 N 
ATOM      2  HN  UNL d   1       1.812   2.519  -3.922  1.00  0.00     0.158 HD
ATOM      3  C   UNL d   1      -0.178   2.853  -3.985  0.00  0.00     0.094 C 
ENDROOT
BRANCH   1   4
ATOM      4  C   UNL d   1       1.188   3.475  -5.786  0.00  0.00     0.139 C 
BRANCH   4   5
ATOM      5  C   UNL d   1       2.350   2.740  -6.462  0.00  0.00     0.144 C 
BRANCH   5   6
ATOM      6  N   UNL d   1       2.911   3.409  -7.617  0.00  0.00    -0.335 N 
ATOM      7  C   UNL d   1       2.471   3.307  -8.902  0.00  0.00     0.361 C 
ATOM      8  O   UNL d   1       3.218   3.572  -9.834  0.00  0.00    -0.238 OA
ATOM      9  H   UNL d   1       3.890   3.662  -7.574  0.00  0.00     0.164 HD
BRANCH   7  10
ATOM     10  O   UNL d   1       1.183   2.900  -9.007  0.00  0.00    -0.294 OA
BRANCH  10  11
ATOM     11  C   UNL d   1       0.606   2.687 -10.326  0.00  0.00     0.061 C 
ATOM     12  C   UNL d   1       1.303   1.517 -11.034  0.00  0.00     0.046 C 
ATOM     13  C   UNL d   1      -0.862   2.310 -10.070  0.00  0.00     0.046 C 
ATOM     14  C   UNL d   1       0.627   3.961 -11.184  0.00  0.00     0.046 C 
ENDBRANCH  10  11
ENDBRANCH   7  10
ENDBRANCH   5   6
ENDBRANCH   4   5
ENDBRANCH   1   4
BRANCH   3  15
ATOM     15  C   UNL d   1      -0.460   2.240  -2.668  0.00  0.00    -0.019 A 
ATOM     16  C   UNL d   1       0.577   1.687  -1.906  0.00  0.00     0.048 A 
ATOM     17  C   UNL d   1       0.274   1.084  -0.677  0.00  0.00     0.103 A 
ATOM     18  C   UNL d   1      -1.048   1.031  -0.212  0.00  0.00     0.036 A 
ATOM     19  C   UNL d   1      -2.072   1.591  -0.981  0.00  0.00     0.003 A 
ATOM     20  C   UNL d   1      -1.780   2.195  -2.208  0.00  0.00     0.013 A 
BRANCH  17  21
ATOM     21  N   UNL d   1       1.352   0.495   0.127  0.00  0.00    -0.116 N 
ATOM     22  O   UNL d   1       2.508   0.577  -0.307  0.00  0.00    -0.532 OA
ATOM     23  O   UNL d   1       1.038  -0.053   1.194  0.00  0.00    -0.532 OA
ENDBRANCH  17  21
ENDBRANCH   3  15
TORSDOF 7
