REMARK  5 active torsions:
REMARK  status: ('A' for Active; 'I' for Inactive)
REMARK    1  A    between atoms: C_2  and  C_1 
REMARK       I    between atoms: N_7  and  C_2 
REMARK    2  A    between atoms: O_15  and  C_6 
REMARK    3  A    between atoms: C_11  and  N_7 
REMARK    4  A    between atoms: O_16  and  C_9 
REMARK    5  A    between atoms: O_17  and  C_10 
ROOT
ATOM      1  C   UNL d   1      -3.202   4.544   0.468  0.00  0.00     0.135 A 
ATOM      2  C   UNL d   1      -2.521   3.521   1.162  0.00  0.00     0.106 A 
ATOM      3  C   UNL d   1      -2.490   5.339  -0.443  0.00  0.00     0.106 A 
ATOM      4  C   UNL d   1      -0.429   4.141   0.070  0.00  0.00     0.040 A 
ATOM      5  C   UNL d   1      -1.117   5.123  -0.639  0.00  0.00     0.069 A 
ATOM      6  C   UNL d   1      -1.136   3.364   0.992  0.00  0.00     0.069 A 
ENDROOT
BRANCH   4   7
ATOM      7  N   UNL d   1       0.936   3.829  -0.133  0.00  0.00    -0.323 N 
ATOM      8  C   UNL d   1       1.821   4.462  -0.989  0.00  0.00     0.258 C 
ATOM      9  O   UNL d   1       1.578   5.493  -1.609  0.00  0.00    -0.267 OA
ATOM     10  H   UNL d   1       1.297   3.049   0.395  0.00  0.00     0.169 HD
BRANCH   8  11
ATOM     11  C   UNL d   1       3.126   3.808  -1.102  0.00  0.00     0.064 A 
ATOM     12  C   UNL d   1       4.236   4.356  -1.735  0.00  0.00     0.065 A 
ATOM     13  O   UNL d   1       5.297   3.506  -1.662  0.00  0.00    -0.319 OA
ATOM     14  C   UNL d   1       4.509   5.624  -2.449  0.00  0.00     0.077 C 
ATOM     15  C   UNL d   1       4.886   2.395  -1.003  0.00  0.00     0.050 A 
ATOM     16  C   UNL d   1       3.558   2.518  -0.655  0.00  0.00     0.051 A 
ATOM     17  C   UNL d   1       5.902   1.340  -0.816  0.00  0.00     0.076 C 
ENDBRANCH   8  11
ENDBRANCH   4   7
BRANCH   3  18
ATOM     18  O   UNL d   1      -3.002   6.292  -1.287  0.00  0.00    -0.353 OA
ATOM     19  C   UNL d   1      -4.046   7.105  -0.773  0.00  0.00     0.210 C 
ENDBRANCH   3  18
BRANCH   2  20
ATOM     20  O   UNL d   1      -3.276   2.685   1.948  0.00  0.00    -0.353 OA
ATOM     21  C   UNL d   1      -2.701   1.438   2.318  0.00  0.00     0.210 C 
ENDBRANCH   2  20
BRANCH   1  22
ATOM     22  O   UNL d   1      -4.572   4.646   0.492  0.00  0.00    -0.351 OA
ATOM     23  C   UNL d   1      -5.145   4.879   1.777  0.00  0.00     0.210 C 
ENDBRANCH   1  22
TORSDOF 5
