REMARK  1 active torsions:
REMARK  status: ('A' for Active; 'I' for Inactive)
REMARK    1  A    between atoms: C_3  and  C_1 
REMARK       I    between atoms: N_5  and  C_3 
ROOT
ATOM      1  C   UNL d   1       0.098   1.261   0.124  0.00  0.00     0.073 A 
ATOM      2  S   UNL d   1       1.370   0.535  -0.773  0.00  0.00    -0.084 SA
ATOM      3  C   UNL d   1       1.240  -0.959   0.060  0.00  0.00     0.022 A 
ATOM      4  C   UNL d   1       2.095  -2.083  -0.242  0.00  0.00     0.021 A 
ATOM      5  C   UNL d   1      -0.352   0.392   1.104  0.00  0.00     0.026 A 
ATOM      6  C   UNL d   1       0.247  -0.898   1.017  0.00  0.00     0.022 A 
ATOM      7  S   UNL d   1       1.550  -3.701  -0.040  0.00  0.00    -0.101 SA
ATOM      8  C   UNL d   1       3.404  -2.059  -0.692  0.00  0.00     0.021 A 
ATOM      9  C   UNL d   1       3.048  -4.349  -0.542  0.00  0.00     0.050 A 
ATOM     10  C   UNL d   1       3.954  -3.364  -0.861  0.00  0.00     0.008 A 
ENDROOT
BRANCH   1  11
ATOM     11  C   UNL d   1      -0.285   2.637  -0.189  0.00  0.00     0.260 C 
ATOM     12  N   UNL d   1      -1.620   3.029  -0.016  0.00  0.00    -0.344 N 
ATOM     13  C   UNL d   1      -2.771   2.176   0.312  0.00  0.00     0.152 C 
ATOM     14  C   UNL d   1      -1.982   4.435  -0.221  0.00  0.00     0.152 C 
ATOM     15  C   UNL d   1      -3.934   2.402  -0.659  0.00  0.00     0.187 C 
ATOM     16  O   UNL d   1      -4.275   3.789  -0.761  0.00  0.00    -0.388 OA
ATOM     17  C   UNL d   1      -3.144   4.552  -1.212  0.00  0.00     0.187 C 
ATOM     18  O   UNL d   1       0.541   3.448  -0.608  0.00  0.00    -0.267 OA
ENDBRANCH   1  11
TORSDOF 1
