REMARK  3 active torsions:
REMARK  status: ('A' for Active; 'I' for Inactive)
REMARK    1  A    between atoms: C_2  and  C_1 
REMARK    2  A    between atoms: C_14  and  N_3 
REMARK    3  A    between atoms: C_12  and  C_4 
ROOT
ATOM      1  C   UNL d   1      -0.452  -2.762   0.042  0.00  0.00     0.056 A 
ATOM      2  C   UNL d   1       0.067  -3.598   1.018  0.00  0.00     0.073 A 
ATOM      3  N   UNL d   1      -1.200  -4.868  -0.403  0.00  0.00    -0.310 N 
ATOM      4  HN  UNL d   1      -1.674  -5.668  -0.823  1.00  0.00     0.186 HD
ATOM      5  N   UNL d   1      -0.413  -4.845   0.683  0.00  0.00    -0.299 N 
ATOM      6  C   UNL d   1      -1.215  -3.597  -0.802  0.00  0.00     0.124 A 
ATOM      7  H   UNL d   1      -0.271  -5.714   1.186  0.00  0.00     0.187 HD
ENDROOT
BRANCH   1   8
ATOM      8  C   UNL d   1      -0.238  -1.300  -0.119  0.00  0.00     0.152 C 
ATOM      9  N   UNL d   1      -1.097  -0.384  -0.704  0.00  0.00    -0.224 N 
ATOM     10  N   UNL d   1      -0.380   0.722  -1.010  0.00  0.00     0.001 NA
ATOM     11  N   UNL d   1       0.790   0.565  -0.406  0.00  0.00    -0.007 NA
ATOM     12  N   UNL d   1       0.883  -0.673   0.178  0.00  0.00    -0.269 N 
ATOM     13  HN  UNL d   1       1.661  -1.035   0.729  1.00  0.00     0.185 HD
BRANCH   9  14
ATOM     14  C   UNL d   1      -2.504  -0.421  -0.852  0.00  0.00     0.056 A 
ATOM     15  C   UNL d   1      -3.289  -1.211   0.004  0.00  0.00     0.031 A 
ATOM     16  C   UNL d   1      -4.676  -1.231  -0.139  0.00  0.00     0.002 A 
ATOM     17  C   UNL d   1      -5.285  -0.464  -1.129  0.00  0.00     0.000 A 
ATOM     18  C   UNL d   1      -4.512   0.341  -1.965  0.00  0.00     0.002 A 
ATOM     19  C   UNL d   1      -3.123   0.379  -1.820  0.00  0.00     0.031 A 
ENDBRANCH   9  14
ENDBRANCH   1   8
BRANCH   2  20
ATOM     20  C   UNL d   1       0.822  -3.369   2.251  0.00  0.00    -0.005 A 
ATOM     21  C   UNL d   1       0.571  -2.239   3.042  0.00  0.00     0.037 A 
ATOM     22  C   UNL d   1       1.236  -2.062   4.255  0.00  0.00     0.035 A 
ATOM     23 CL   UNL d   1       0.900  -0.674   5.216  0.00  0.00    -0.084 Cl
ATOM     24  C   UNL d   1       2.154  -3.007   4.703  0.00  0.00     0.024 A 
ATOM     25  C   UNL d   1       2.417  -4.133   3.926  0.00  0.00     0.003 A 
ATOM     26  C   UNL d   1       1.758  -4.311   2.706  0.00  0.00     0.014 A 
ENDBRANCH   2  20
TORSDOF 3
