REMARK  4 active torsions:
REMARK  status: ('A' for Active; 'I' for Inactive)
REMARK    1  A    between atoms: C_2  and  C_1 
REMARK       I    between atoms: N_3  and  C_1 
REMARK    2  A    between atoms: C_10  and  N_3 
REMARK    3  A    between atoms: C_4  and  C_5 
REMARK    4  A    between atoms: C_12  and  C_4 
ROOT
ATOM      1  C   UNL d   1      -3.388  -0.517   0.780  0.00  0.00     0.017 A 
ATOM      2  C   UNL d   1      -1.988  -0.536   0.674  0.00  0.00     0.045 A 
ATOM      3  C   UNL d   1      -1.230   0.617   0.894  0.00  0.00     0.035 A 
ATOM      4  C   UNL d   1      -4.042   0.678   1.089  0.00  0.00     0.015 A 
ATOM      5  C   UNL d   1      -3.293   1.830   1.340  0.00  0.00     0.003 A 
ATOM      6  C   UNL d   1      -1.897   1.797   1.250  0.00  0.00     0.029 A 
ENDROOT
BRANCH   3   7
ATOM      7  N   UNL d   1       0.177   0.670   0.757  0.00  0.00    -0.323 N 
ATOM      8  C   UNL d   1       0.999  -0.356   0.320  0.00  0.00     0.261 C 
ATOM      9  O   UNL d   1       0.653  -1.493   0.021  0.00  0.00    -0.267 OA
ATOM     10  H   UNL d   1       0.616   1.553   0.990  0.00  0.00     0.169 HD
BRANCH   8  11
ATOM     11  C   UNL d   1       2.443  -0.054   0.234  0.00  0.00     0.092 A 
ATOM     12  C   UNL d   1       3.085   0.520   1.332  0.00  0.00     0.133 A 
ATOM     13  F   UNL d   1       2.383   0.933   2.397  0.00  0.00    -0.205 F 
ATOM     14  C   UNL d   1       4.471   0.670   1.360  0.00  0.00     0.043 A 
ATOM     15  C   UNL d   1       5.236   0.242   0.279  0.00  0.00     0.005 A 
ATOM     16  C   UNL d   1       4.607  -0.307  -0.839  0.00  0.00     0.025 A 
ATOM     17  C   UNL d   1       3.213  -0.452  -0.868  0.00  0.00     0.052 A 
ATOM     18 CL   UNL d   1       2.526  -1.069  -2.330  0.00  0.00    -0.083 Cl
ENDBRANCH   8  11
ENDBRANCH   3   7
BRANCH   1  19
ATOM     19  C   UNL d   1      -4.120  -1.773   0.467  0.00  0.00     0.192 C 
ATOM     20  O   UNL d   1      -3.634  -2.551  -0.352  0.00  0.00    -0.287 OA
BRANCH  19  21
ATOM     21  C   UNL d   1      -5.421  -2.132   1.087  0.00  0.00     0.015 A 
ATOM     22  C   UNL d   1      -5.782  -1.730   2.378  0.00  0.00     0.015 A 
ATOM     23  C   UNL d   1      -7.014  -2.120   2.910  0.00  0.00     0.001 A 
ATOM     24  C   UNL d   1      -7.877  -2.927   2.167  0.00  0.00     0.000 A 
ATOM     25  C   UNL d   1      -7.510  -3.354   0.893  0.00  0.00     0.001 A 
ATOM     26  C   UNL d   1      -6.284  -2.961   0.356  0.00  0.00     0.015 A 
ENDBRANCH  19  21
ENDBRANCH   1  19
TORSDOF 4
