REMARK  5 active torsions:
REMARK  status: ('A' for Active; 'I' for Inactive)
REMARK    1  A    between atoms: C_6  and  C_1 
REMARK    2  A    between atoms: C_2  and  C_6 
REMARK    3  A    between atoms: C_15  and  N_3 
REMARK    4  A    between atoms: C_17  and  N_4 
REMARK    5  A    between atoms: C_16  and  N_5 
ROOT
ATOM      1  C   UNL d   1      -0.273  -1.207  -0.314  0.00  0.00     0.194 C 
ATOM      2  N   UNL d   1      -1.227  -0.104  -0.571  0.00  0.00    -0.357 N 
ATOM      3  N   UNL d   1       0.986  -0.553   0.079  0.00  0.00    -0.357 N 
ATOM      4  C   UNL d   1       0.881   0.890  -0.113  0.00  0.00     0.145 C 
ATOM      5  C   UNL d   1      -0.623   1.150  -0.095  0.00  0.00     0.145 C 
ENDROOT
BRANCH   1   6
ATOM      6  C   UNL d   1      -0.131  -2.150  -1.541  0.00  0.00     0.127 C 
BRANCH   6   7
ATOM      7  C   UNL d   1       0.329  -1.517  -2.818  0.00  0.00     0.124 C 
ATOM      8  N   UNL d   1      -0.076  -1.904  -4.089  0.00  0.00    -0.227 N 
ATOM      9  N   UNL d   1       0.290  -0.926  -4.954  0.00  0.00    -0.220 N 
ATOM     10  N   UNL d   1       1.070  -0.109  -4.271  0.00  0.00    -0.226 N 
ATOM     11  HN  UNL d   1       0.019  -0.839  -5.933  1.00  0.00     0.210 HD
ATOM     12  N   UNL d   1       1.112  -0.465  -2.955  0.00  0.00    -0.272 N 
ATOM     13  HN  UNL d   1       1.573   0.683  -4.672  1.00  0.00     0.210 HD
ATOM     14  HN  UNL d   1       1.648  -0.006  -2.218  1.00  0.00     0.190 HD
BRANCH   8  15
ATOM     15  C   UNL d   1      -0.653  -3.099  -4.583  0.00  0.00     0.059 A 
ATOM     16  C   UNL d   1      -1.387  -3.050  -5.781  0.00  0.00     0.033 A 
ATOM     17  C   UNL d   1      -1.891  -4.223  -6.351  0.00  0.00     0.026 A 
ATOM     18  C   UNL d   1      -1.635  -5.448  -5.746  0.00  0.00     0.034 A 
ATOM     19  C   UNL d   1      -0.898  -5.512  -4.562  0.00  0.00     0.026 A 
ATOM     20 CL   UNL d   1      -2.206  -6.897  -6.478  0.00  0.00    -0.084 Cl
ATOM     21  C   UNL d   1      -0.416  -4.337  -3.969  0.00  0.00     0.033 A 
ENDBRANCH   8  15
ENDBRANCH   6   7
ENDBRANCH   1   6
BRANCH   2  22
ATOM     22  C   UNL d   1      -2.610  -0.219  -0.481  0.00  0.00     0.031 A 
ATOM     23  C   UNL d   1      -3.264  -1.423  -0.182  0.00  0.00     0.029 A 
ATOM     24  C   UNL d   1      -4.663  -1.511  -0.116  0.00  0.00     0.002 A 
ATOM     25  C   UNL d   1      -5.450  -0.394  -0.357  0.00  0.00     0.000 A 
ATOM     26  C   UNL d   1      -4.838   0.813  -0.671  0.00  0.00     0.002 A 
ATOM     27  C   UNL d   1      -3.442   0.888  -0.737  0.00  0.00     0.029 A 
ENDBRANCH   2  22
BRANCH   3  28
ATOM     28  C   UNL d   1       2.150  -1.165   0.475  0.00  0.00     0.031 A 
ATOM     29  C   UNL d   1       2.180  -2.486   0.945  0.00  0.00     0.029 A 
ATOM     30  C   UNL d   1       3.370  -3.100   1.359  0.00  0.00     0.002 A 
ATOM     31  C   UNL d   1       4.569  -2.401   1.320  0.00  0.00     0.000 A 
ATOM     32  C   UNL d   1       4.576  -1.089   0.866  0.00  0.00     0.002 A 
ATOM     33  C   UNL d   1       3.383  -0.489   0.450  0.00  0.00     0.029 A 
ENDBRANCH   3  28
TORSDOF 5
