REMARK  5 active torsions:
REMARK  status: ('A' for Active; 'I' for Inactive)
REMARK    1  A    between atoms: C_13  and  N_1 
REMARK    2  A    between atoms: C_10  and  C_2 
REMARK    3  A    between atoms: N_7  and  C_14 
REMARK    4  A    between atoms: O_23  and  C_10 
REMARK    5  A    between atoms: C_25  and  O_23 
ROOT
ATOM      1  N   UNL d   1      -0.281  -1.102   0.052  0.00  0.00    -0.260 N 
ATOM      2  C   UNL d   1      -0.349   1.130  -0.044  0.00  0.00     0.087 C 
ATOM      3  N   UNL d   1       0.999  -0.694   0.227  0.00  0.00    -0.297 N 
ATOM      4  HN  UNL d   1       1.810  -1.276   0.436  1.00  0.00     0.187 HD
ATOM      5  C   UNL d   1      -1.147  -0.016  -0.055  0.00  0.00     0.049 C 
ATOM      6  C   UNL d   1       0.976   0.630   0.067  0.00  0.00     0.041 C 
ATOM      7  C   UNL d   1      -2.631  -0.146  -0.049  0.00  0.00     0.071 C 
ATOM      8  C   UNL d   1       2.260   1.381   0.061  0.00  0.00     0.071 C 
ENDROOT
BRANCH   1   9
ATOM      9  C   UNL d   1      -0.547  -2.503   0.011  0.00  0.00     0.056 A 
ATOM     10  C   UNL d   1       0.258  -3.370   0.761  0.00  0.00     0.034 A 
ATOM     11  C   UNL d   1       0.028  -4.754   0.745  0.00  0.00     0.032 A 
ATOM     12  C   UNL d   1      -0.965  -5.319  -0.069  0.00  0.00     0.046 A 
ATOM     13  C   UNL d   1      -1.736  -4.440  -0.845  0.00  0.00     0.032 A 
ATOM     14  C   UNL d   1      -1.546  -3.048  -0.794  0.00  0.00     0.034 A 
BRANCH  12  15
ATOM     15  N   UNL d   1      -1.167  -6.728  -0.118  0.00  0.00    -0.245 N 
ATOM     16  C   UNL d   1      -1.782  -7.407  -1.137  0.00  0.00     0.255 A 
ATOM     17  C   UNL d   1      -1.759  -8.834  -0.794  0.00  0.00     0.080 A 
ATOM     18  O   UNL d   1      -2.255  -7.021  -2.191  0.00  0.00    -0.268 OA
ATOM     19  C   UNL d   1      -1.164  -8.962   0.387  0.00  0.00     0.080 A 
ATOM     20  C   UNL d   1      -0.777  -7.620   0.843  0.00  0.00     0.255 A 
ATOM     21  O   UNL d   1      -0.251  -7.453   1.931  0.00  0.00    -0.268 OA
ENDBRANCH  12  15
ENDBRANCH   1   9
BRANCH   2  22
ATOM     22  C   UNL d   1      -0.792   2.522  -0.094  0.00  0.00     0.297 C 
ATOM     23  O   UNL d   1      -1.968   2.862  -0.160  0.00  0.00    -0.259 OA
BRANCH  22  24
ATOM     24  O   UNL d   1       0.244   3.411  -0.042  0.00  0.00    -0.318 OA
BRANCH  24  25
ATOM     25  C   UNL d   1      -0.105   4.802  -0.019  0.00  0.00     0.174 C 
ATOM     26  C   UNL d   1      -0.366   5.313  -1.423  0.00  0.00     0.034 C 
ENDBRANCH  24  25
ENDBRANCH  22  24
ENDBRANCH   2  22
TORSDOF 5
