REMARK  3 active torsions:
REMARK  status: ('A' for Active; 'I' for Inactive)
REMARK    1  A    between atoms: C_10  and  C_2 
REMARK    2  A    between atoms: N_17  and  C_10 
REMARK    3  A    between atoms: O_19  and  N_11 
ROOT
ATOM      1  C   UNL d   1      -5.478   3.276   0.004  0.00  0.00     0.059 A 
ATOM      2  C   UNL d   1      -4.524   2.197   0.024  0.00  0.00     0.049 A 
ATOM      3  C   UNL d   1      -6.737   2.686  -0.002  0.00  0.00     0.132 A 
ATOM      4  C   UNL d   1      -5.293   1.037   0.028  0.00  0.00     0.064 A 
ATOM      5  O   UNL d   1      -6.622   1.336   0.009  0.00  0.00    -0.310 OA
ATOM      6  C   UNL d   1      -5.434   4.684   0.013  0.00  0.00     0.172 A 
ATOM      7  C   UNL d   1      -7.935   3.400  -0.011  0.00  0.00     0.192 A 
ATOM      8  C   UNL d   1      -6.619   5.424   0.003  0.00  0.00     0.197 A 
ATOM      9  C   UNL d   1      -7.851   4.789  -0.009  0.00  0.00     0.199 A 
ATOM     10  F   UNL d   1      -4.257   5.327   0.035  0.00  0.00    -0.202 F 
ATOM     11  F   UNL d   1      -9.123   2.784  -0.016  0.00  0.00    -0.200 F 
ATOM     12  F   UNL d   1      -6.559   6.763   0.009  0.00  0.00    -0.199 F 
ATOM     13  F   UNL d   1      -8.975   5.521  -0.014  0.00  0.00    -0.199 F 
ATOM     14  C   UNL d   1      -4.999  -0.415   0.023  0.00  0.00     0.077 C 
ENDROOT
BRANCH   2  15
ATOM     15  C   UNL d   1      -3.071   2.245   0.046  0.00  0.00     0.111 C 
ATOM     16  N   UNL d   1      -2.412   1.281   0.610  0.00  0.00    -0.257 N 
ATOM     17  HN  UNL d   1      -2.838   0.461   1.041  1.00  0.00     0.195 HD
BRANCH  16  18
ATOM     18  O   UNL d   1      -1.029   1.525   0.543  0.00  0.00    -0.289 OA
ATOM     19  H   UNL d   1      -0.659   0.726   0.964  0.00  0.00     0.244 HD
ENDBRANCH  16  18
BRANCH  15  20
ATOM     20  N   UNL d   1      -2.508   3.332  -0.556  0.00  0.00    -0.286 NA
ATOM     21  H   UNL d   1      -2.964   4.225  -0.411  0.00  0.00     0.125 HD
ATOM     22  H   UNL d   1      -1.518   3.376  -0.330  0.00  0.00     0.125 HD
ENDBRANCH  15  20
ENDBRANCH   2  15
TORSDOF 3
