REMARK  1 active torsions:
REMARK  status: ('A' for Active; 'I' for Inactive)
REMARK    1  A    between atoms: N_3  and  N_1 
REMARK       I    between atoms: N_11  and  C_5 
REMARK       I    between atoms: N_12  and  C_5 
ROOT
ATOM      1  N   UNL d   1       2.250   1.629  -0.032  0.00  0.00    -0.302 N 
ATOM      2  HN  UNL d   1       1.814   2.549   0.031  1.00  0.00     0.186 HD
ATOM      3  C   UNL d   1       1.587   0.517  -0.028  0.00  0.00     0.037 A 
ATOM      4  C   UNL d   1       0.135   0.460   0.014  0.00  0.00    -0.006 A 
ATOM      5  C   UNL d   1      -0.249  -0.876   0.029  0.00  0.00    -0.046 A 
ATOM      6  C   UNL d   1       2.143  -0.886  -0.095  0.00  0.00     0.064 A 
ATOM      7  C   UNL d   1       0.922  -1.806   0.059  0.00  0.00     0.045 A 
ATOM      8  C   UNL d   1      -0.775   1.502   0.005  0.00  0.00     0.014 A 
ATOM      9  C   UNL d   1      -1.595  -1.207   0.036  0.00  0.00     0.008 A 
ATOM     10  C   UNL d   1      -2.131   1.173   0.008  0.00  0.00     0.001 A 
ATOM     11  C   UNL d   1      -2.537  -0.172   0.022  0.00  0.00     0.001 A 
ENDROOT
BRANCH   1  12
ATOM     12  N   UNL d   1       3.633   1.429  -0.133  0.00  0.00    -0.281 N 
ATOM     13  C   UNL d   1       4.289   2.542  -0.061  0.00  0.00     0.141 C 
ATOM     14  N   UNL d   1       3.744   3.767   0.139  0.00  0.00    -0.278 NA
ATOM     15  N   UNL d   1       5.633   2.622  -0.183  0.00  0.00    -0.278 NA
ATOM     16  H   UNL d   1       2.733   3.642   0.093  0.00  0.00     0.126 HD
ATOM     17  H   UNL d   1       4.047   4.426  -0.566  0.00  0.00     0.126 HD
ATOM     18  H   UNL d   1       6.058   1.704  -0.120  0.00  0.00     0.126 HD
ATOM     19  H   UNL d   1       6.036   3.266   0.487  0.00  0.00     0.126 HD
ATOM     20  HN  UNL d   1       4.070   0.515  -0.249  1.00  0.00     0.189 HD
ENDBRANCH   1  12
TORSDOF 1
