REMARK  3 active torsions:
REMARK  status: ('A' for Active; 'I' for Inactive)
REMARK    1  A    between atoms: N_12  and  C_1 
REMARK    2  A    between atoms: C_6  and  C_8 
REMARK       I    between atoms: C_8  and  N_12 
REMARK    3  A    between atoms: C_20  and  C_10 
ROOT
ATOM      1  C   UNL d   1       3.522  -0.849  -0.362  0.00  0.00     0.257 C 
ATOM      2  N   UNL d   1       2.204  -1.345  -0.078  0.00  0.00    -0.308 N 
ATOM      3  O   UNL d   1       3.713   0.291  -0.754  0.00  0.00    -0.267 OA
ATOM      4  H   UNL d   1       2.083  -2.325   0.142  0.00  0.00     0.170 HD
ENDROOT
BRANCH   2   5
ATOM      5  C   UNL d   1       1.062  -0.554  -0.091  0.00  0.00     0.124 A 
ATOM      6  C   UNL d   1       0.922   0.783  -0.376  0.00  0.00     0.081 A 
ATOM      7  C   UNL d   1      -0.442   1.095  -0.119  0.00  0.00     0.062 A 
ATOM      8  N   UNL d   1      -1.116  -0.008   0.246  0.00  0.00    -0.298 N 
ATOM      9  N   UNL d   1      -0.201  -0.984   0.220  0.00  0.00    -0.285 N 
ATOM     10  HN  UNL d   1      -2.103  -0.084   0.489  1.00  0.00     0.187 HD
ATOM     11  H   UNL d   1      -0.508  -1.919   0.462  0.00  0.00     0.188 HD
BRANCH   7  12
ATOM     12  C   UNL d   1      -1.083   2.409  -0.170  0.00  0.00    -0.008 A 
ATOM     13  C   UNL d   1      -0.612   3.411  -1.030  0.00  0.00     0.015 A 
ATOM     14  C   UNL d   1      -1.204   4.678  -1.034  0.00  0.00     0.024 A 
ATOM     15  C   UNL d   1      -2.267   4.950  -0.174  0.00  0.00     0.034 A 
ATOM     16  C   UNL d   1      -2.750   3.965   0.682  0.00  0.00     0.024 A 
ATOM     17 CL   UNL d   1      -2.984   6.513  -0.170  0.00  0.00    -0.084 Cl
ATOM     18  C   UNL d   1      -2.162   2.697   0.680  0.00  0.00     0.015 A 
ENDBRANCH   7  12
ENDBRANCH   2   5
BRANCH   1  19
ATOM     19  C   UNL d   1       4.631  -1.828  -0.219  0.00  0.00     0.034 A 
ATOM     20  C   UNL d   1       4.544  -2.834   0.765  0.00  0.00     0.049 A 
ATOM     21  C   UNL d   1       5.599  -3.778   0.770  0.00  0.00     0.067 A 
ATOM     22  N   UNL d   1       5.689  -4.833   1.590  0.00  0.00    -0.310 N 
ATOM     23  C   UNL d   1       6.748  -3.671  -0.196  0.00  0.00     0.067 A 
ATOM     24  S   UNL d   1       7.091  -5.630   1.175  0.00  0.00     0.068 SA
ATOM     25  HN  UNL d   1       5.030  -5.097   2.323  1.00  0.00     0.176 HD
ATOM     26  N   UNL d   1       7.641  -4.662  -0.060  0.00  0.00    -0.310 N 
ATOM     27  HN  UNL d   1       8.491  -4.795  -0.607  1.00  0.00     0.176 HD
ATOM     28  C   UNL d   1       6.813  -2.611  -1.129  0.00  0.00     0.033 A 
ATOM     29  C   UNL d   1       5.734  -1.706  -1.109  0.00  0.00     0.019 A 
ENDBRANCH   1  19
TORSDOF 3
