REMARK  4 active torsions:
REMARK  status: ('A' for Active; 'I' for Inactive)
REMARK    1  A    between atoms: C_6  and  N_1 
REMARK    2  A    between atoms: C_5  and  C_6 
REMARK       I    between atoms: N_14  and  C_5 
REMARK    3  A    between atoms: C_8  and  C_17 
REMARK    4  A    between atoms: N_10  and  N_14 
ROOT
ATOM      1  C   UNL d   1       2.551   2.989  -0.369  0.00  0.00     0.254 C 
ATOM      2  N   UNL d   1       3.483   2.304  -1.141  0.00  0.00    -0.269 N 
ATOM      3  O   UNL d   1       2.800   3.893   0.421  0.00  0.00    -0.270 OA
ATOM      4  H   UNL d   1       3.195   1.390  -1.506  0.00  0.00     0.190 HD
ENDROOT
BRANCH   1   5
ATOM      5  C   UNL d   1       1.090   2.530  -0.641  0.00  0.00     0.236 C 
BRANCH   5   6
ATOM      6  N   UNL d   1       0.658   1.261  -0.019  0.00  0.00    -0.307 N 
ATOM      7  C   UNL d   1       1.393   0.124  -0.376  0.00  0.00     0.234 C 
ATOM      8  C   UNL d   1       1.207  -1.081   0.504  0.00  0.00     0.182 C 
ATOM      9  O   UNL d   1       2.215   0.117  -1.294  0.00  0.00    -0.272 OA
ATOM     10  S   UNL d   1      -0.437  -1.733   0.245  0.00  0.00    -0.118 SA
ATOM     11  C   UNL d   1      -1.315  -0.200   0.518  0.00  0.00     0.028 A 
ATOM     12  C   UNL d   1      -0.723   1.088   0.416  0.00  0.00     0.054 A 
ATOM     13  C   UNL d   1      -2.679  -0.351   0.823  0.00  0.00     0.021 A 
ATOM     14  C   UNL d   1      -1.555   2.188   0.690  0.00  0.00     0.031 A 
ATOM     15  C   UNL d   1      -2.914   2.026   1.000  0.00  0.00     0.002 A 
ATOM     16  C   UNL d   1      -3.479   0.759   1.056  0.00  0.00     0.002 A 
ENDBRANCH   5   6
ENDBRANCH   1   5
BRANCH   2  17
ATOM     17  N   UNL d   1       4.809   2.558  -1.339  0.00  0.00    -0.308 N 
ATOM     18  C   UNL d   1       5.277   3.749  -1.150  0.00  0.00     0.120 C 
ATOM     19  HN  UNL d   1       5.432   1.808  -1.638  1.00  0.00     0.186 HD
BRANCH  18  20
ATOM     20  C   UNL d   1       6.676   4.071  -1.540  0.00  0.00     0.003 A 
ATOM     21  C   UNL d   1       7.143   5.393  -1.565  0.00  0.00     0.047 A 
ATOM     22  C   UNL d   1       8.411   5.680  -2.086  0.00  0.00     0.048 A 
ATOM     23 CL   UNL d   1       6.206   6.733  -1.007  0.00  0.00    -0.083 Cl
ATOM     24  C   UNL d   1       9.216   4.651  -2.568  0.00  0.00     0.035 A 
ATOM     25  C   UNL d   1       8.780   3.329  -2.514  0.00  0.00     0.025 A 
ATOM     26 CL   UNL d   1      10.747   5.019  -3.259  0.00  0.00    -0.084 Cl
ATOM     27  C   UNL d   1       7.512   3.040  -2.001  0.00  0.00     0.016 A 
ENDBRANCH  18  20
ENDBRANCH   2  17
TORSDOF 4
