REMARK  3 active torsions:
REMARK  status: ('A' for Active; 'I' for Inactive)
REMARK    1  A    between atoms: N_16  and  C_2 
REMARK    2  A    between atoms: C_12  and  C_4 
REMARK    3  A    between atoms: C_14  and  C_6 
ROOT
ATOM      1  C   UNL d   1      -2.696  -0.801   0.056  0.00  0.00     0.056 A 
ATOM      2  C   UNL d   1      -4.114  -0.658   0.171  0.00  0.00     0.079 A 
ATOM      3  C   UNL d   1      -2.223   0.502  -0.056  0.00  0.00     0.162 A 
ATOM      4  C   UNL d   1      -4.416   0.684   0.049  0.00  0.00     0.150 A 
ATOM      5  C   UNL d   1      -0.031  -0.085  -0.068  0.00  0.00     0.052 A 
ATOM      6  C   UNL d   1      -1.734  -1.848   0.039  0.00  0.00    -0.001 A 
ATOM      7  N   UNL d   1      -0.950   0.907  -0.127  0.00  0.00    -0.335 N 
ATOM      8  HN  UNL d   1      -0.692   1.890  -0.218  1.00  0.00     0.168 HD
ATOM      9  O   UNL d   1      -3.255   1.390  -0.086  0.00  0.00    -0.287 OA
ATOM     10  C   UNL d   1      -0.362  -1.452  -0.006  0.00  0.00    -0.018 A 
ATOM     11  C   UNL d   1       1.378   0.371  -0.048  0.00  0.00    -0.003 A 
ATOM     12  C   UNL d   1       0.760  -2.461   0.117  0.00  0.00     0.046 C 
ATOM     13  C   UNL d   1       2.431  -0.557  -0.139  0.00  0.00    -0.045 A 
ATOM     14  C   UNL d   1       2.129  -2.008  -0.394  0.00  0.00     0.044 C 
ATOM     15  C   UNL d   1       1.718   1.734   0.061  0.00  0.00     0.014 A 
ATOM     16  C   UNL d   1       3.769  -0.129  -0.105  0.00  0.00     0.008 A 
ATOM     17  C   UNL d   1       3.050   2.158   0.090  0.00  0.00     0.001 A 
ATOM     18  C   UNL d   1       4.077   1.223   0.015  0.00  0.00     0.001 A 
ENDROOT
BRANCH   6  19
ATOM     19  C   UNL d   1      -2.194  -3.254   0.032  0.00  0.00    -0.024 A 
ATOM     20  C   UNL d   1      -3.122  -3.698  -0.931  0.00  0.00     0.014 A 
ATOM     21  C   UNL d   1      -3.593  -5.015  -0.946  0.00  0.00     0.024 A 
ATOM     22  C   UNL d   1      -3.099  -5.932  -0.026  0.00  0.00     0.034 A 
ATOM     23  C   UNL d   1      -2.162  -5.534   0.921  0.00  0.00     0.024 A 
ATOM     24 CL   UNL d   1      -3.655  -7.559  -0.054  0.00  0.00    -0.084 Cl
ATOM     25  C   UNL d   1      -1.734  -4.201   0.964  0.00  0.00     0.014 A 
ENDBRANCH   6  19
BRANCH   2  26
ATOM     26  N   UNL d   1      -5.032  -1.628   0.375  0.00  0.00    -0.396 N 
ATOM     27  H   UNL d   1      -4.778  -2.540   0.746  0.00  0.00     0.156 HD
ATOM     28  H   UNL d   1      -6.007  -1.379   0.561  0.00  0.00     0.156 HD
ENDBRANCH   2  26
BRANCH   4  29
ATOM     29  C   UNL d   1      -5.689   1.375   0.074  0.00  0.00     0.181 C 
ATOM     30  O   UNL d   1      -6.762   0.785   0.240  0.00  0.00    -0.291 OA
ATOM     31  C   UNL d   1      -5.703   2.870  -0.129  0.00  0.00     0.099 C 
ENDBRANCH   4  29
TORSDOF 3
