REMARK  5 active torsions:
REMARK  status: ('A' for Active; 'I' for Inactive)
REMARK    1  A    between atoms: N_2  and  C_1 
REMARK    2  A    between atoms: C_4  and  C_11 
REMARK    3  A    between atoms: C_5  and  N_7 
REMARK    4  A    between atoms: N_10  and  C_6 
REMARK    5  A    between atoms: N_7  and  C_17 
ROOT
ATOM      1  C   UNL d   1       0.561  -4.928  -0.093  0.00  0.00     0.059 A 
ATOM      2  C   UNL d   1      -0.496  -5.420  -0.924  0.00  0.00     0.057 A 
ATOM      3  C   UNL d   1       1.191  -7.218   0.557  0.00  0.00     0.050 A 
ATOM      4  C   UNL d   1       1.397  -5.836   0.596  0.00  0.00     0.048 A 
ATOM      5  C   UNL d   1      -0.706  -6.818  -0.894  0.00  0.00     0.032 A 
ATOM      6  C   UNL d   1       0.117  -7.700  -0.184  0.00  0.00     0.018 A 
ENDROOT
BRANCH   1   7
ATOM      7  N   UNL d   1       0.835  -3.541   0.011  0.00  0.00    -0.363 N 
ATOM      8  HN  UNL d   1       0.822  -2.951  -0.821  1.00  0.00     0.165 HD
BRANCH   7   9
ATOM      9  C   UNL d   1       1.101  -3.026   1.170  0.00  0.00     0.107 C 
ATOM     10  C   UNL d   1       1.352  -1.606   1.293  0.00  0.00     0.022 A 
ATOM     11  S   UNL d   1       1.897  -0.972   2.784  0.00  0.00    -0.065 SA
ATOM     12  C   UNL d   1       1.203  -0.619   0.338  0.00  0.00     0.023 A 
ATOM     13  C   UNL d   1       1.899   0.616   2.173  0.00  0.00     0.144 A 
ATOM     14  C   UNL d   1       1.507   0.678   0.853  0.00  0.00     0.045 A 
BRANCH  13  15
ATOM     15  N   UNL d   1       2.273   1.728   3.012  0.00  0.00    -0.108 N 
ATOM     16  O   UNL d   1       2.181   2.850   2.502  0.00  0.00    -0.531 OA
ATOM     17  O   UNL d   1       2.655   1.490   4.163  0.00  0.00    -0.531 OA
ENDBRANCH  13  15
ENDBRANCH   7   9
ENDBRANCH   1   7
BRANCH   2  18
ATOM     18  N   UNL d   1      -1.306  -4.615  -1.727  0.00  0.00    -0.379 N 
ATOM     19  C   UNL d   1      -2.290  -5.126  -2.687  0.00  0.00     0.123 C 
ATOM     20  C   UNL d   1      -2.130  -4.228  -3.908  0.00  0.00     0.021 C 
ATOM     21  C   UNL d   1      -1.769  -2.888  -3.305  0.00  0.00     0.021 C 
ATOM     22  C   UNL d   1      -0.905  -3.251  -2.097  0.00  0.00     0.123 C 
ENDBRANCH   2  18
BRANCH   3  23
ATOM     23  C   UNL d   1       2.105  -8.167   1.288  0.00  0.00     0.417 C 
ATOM     24  F   UNL d   1       3.075  -7.538   2.011  0.00  0.00    -0.166 F 
ATOM     25  F   UNL d   1       1.437  -8.957   2.174  0.00  0.00    -0.166 F 
ATOM     26  F   UNL d   1       2.758  -9.015   0.447  0.00  0.00    -0.166 F 
ENDBRANCH   3  23
TORSDOF 5
