REMARK  7 active torsions:
REMARK  status: ('A' for Active; 'I' for Inactive)
REMARK       I    between atoms: C_2  and  N_1 
REMARK    1  A    between atoms: C_3  and  N_1 
REMARK    2  A    between atoms: C_4  and  C_2 
REMARK    3  A    between atoms: O_5  and  C_4 
REMARK    4  A    between atoms: C_13  and  O_5 
REMARK    5  A    between atoms: C_6  and  C_7 
REMARK    6  A    between atoms: C_24  and  C_9 
REMARK    7  A    between atoms: C_23  and  C_10 
ROOT
ATOM      1  N   UNL d   1       0.600   0.644  -0.413  0.00  0.00    -0.324 N 
ATOM      2  C   UNL d   1       0.496   0.973   0.932  0.00  0.00     0.251 C 
ATOM      3  O   UNL d   1       0.004   0.249   1.786  0.00  0.00    -0.270 OA
ATOM      4  H   UNL d   1       1.433   0.999  -0.858  0.00  0.00     0.169 HD
ENDROOT
BRANCH   2   5
ATOM      5  C   UNL d   1       1.054   2.388   1.220  0.00  0.00     0.217 C 
ATOM      6  C   UNL d   1       2.555   2.356   1.478  0.00  0.00     0.050 C 
BRANCH   5   7
ATOM      7  O   UNL d   1       0.417   2.964   2.359  0.00  0.00    -0.337 OA
BRANCH   7   8
ATOM      8  C   UNL d   1      -0.602   3.828   2.056  0.00  0.00     0.070 A 
ATOM      9  C   UNL d   1      -1.479   3.674   0.988  0.00  0.00     0.037 A 
ATOM     10  C   UNL d   1      -2.413   4.673   0.699  0.00  0.00     0.011 A 
ATOM     11  C   UNL d   1      -2.501   5.840   1.483  0.00  0.00    -0.050 A 
ATOM     12  C   UNL d   1      -1.672   5.924   2.612  0.00  0.00     0.011 A 
ATOM     13  C   UNL d   1      -0.735   4.925   2.898  0.00  0.00     0.037 A 
BRANCH  11  14
ATOM     14  C   UNL d   1      -3.445   6.976   1.057  0.00  0.00    -0.024 C 
ATOM     15  C   UNL d   1      -3.393   8.206   1.992  0.00  0.00     0.019 C 
ATOM     16  C   UNL d   1      -3.037   7.460  -0.354  0.00  0.00     0.019 C 
ATOM     17  C   UNL d   1      -4.903   6.479   1.023  0.00  0.00     0.019 C 
ENDBRANCH  11  14
ENDBRANCH   7   8
ENDBRANCH   5   7
ENDBRANCH   2   5
BRANCH   1  18
ATOM     18  C   UNL d   1       0.155  -0.590  -0.946  0.00  0.00     0.047 C 
ATOM     19  C   UNL d   1      -1.153  -0.683  -1.462  0.00  0.00    -0.031 C 
ATOM     20  C   UNL d   1      -1.364  -1.537  -2.556  0.00  0.00     0.009 C 
ATOM     21  C   UNL d   1      -0.339  -2.351  -3.041  0.00  0.00     0.001 C 
ATOM     22  C   UNL d   1       0.885  -2.389  -2.384  0.00  0.00     0.009 C 
ATOM     23  C   UNL d   1       1.132  -1.532  -1.306  0.00  0.00    -0.031 C 
BRANCH  19  24
ATOM     24  C   UNL d   1      -2.303   0.103  -0.864  0.00  0.00     0.036 C 
ATOM     25  C   UNL d   1      -3.641  -0.636  -0.871  0.00  0.00     0.010 C 
ENDBRANCH  19  24
BRANCH  23  26
ATOM     26  C   UNL d   1       2.332  -1.772  -0.416  0.00  0.00     0.036 C 
ATOM     27  C   UNL d   1       3.600  -1.051  -0.825  0.00  0.00     0.010 C 
ENDBRANCH  23  26
ENDBRANCH   1  18
TORSDOF 7
