REMARK  7 active torsions:
REMARK  status: ('A' for Active; 'I' for Inactive)
REMARK    1  A    between atoms: C_7  and  C_1 
REMARK    2  A    between atoms: C_2  and  C_5 
REMARK    3  A    between atoms: C_3  and  C_4 
REMARK    4  A    between atoms: C_8  and  O_17 
REMARK       I    between atoms: N_15  and  C_8 
REMARK    5  A    between atoms: C_24  and  C_13 
REMARK    6  A    between atoms: C_25  and  N_15 
REMARK    7  A    between atoms: O_17  and  C_24 
ROOT
ATOM      1  C   UNL d   1       0.089   1.131   0.095  0.00  0.00     0.086 A 
ATOM      2  O   UNL d   1      -0.753   0.058   0.208  0.00  0.00    -0.312 OA
ATOM      3  C   UNL d   1       1.398   0.687   0.127  0.00  0.00     0.040 A 
ATOM      4  C   UNL d   1       0.017  -1.066   0.273  0.00  0.00     0.078 A 
ATOM      5  C   UNL d   1       1.351  -0.724   0.238  0.00  0.00     0.038 A 
ENDROOT
BRANCH   1   6
ATOM      6  C   UNL d   1      -0.545   2.431  -0.119  0.00  0.00    -0.001 A 
ATOM      7  C   UNL d   1      -1.935   2.589  -0.015  0.00  0.00     0.030 A 
ATOM      8  C   UNL d   1      -2.565   3.800  -0.355  0.00  0.00     0.049 A 
ATOM      9  C   UNL d   1      -1.777   4.878  -0.782  0.00  0.00     0.032 A 
ATOM     10  C   UNL d   1      -0.383   4.755  -0.881  0.00  0.00     0.049 A 
ATOM     11  C   UNL d   1       0.219   3.534  -0.527  0.00  0.00     0.030 A 
BRANCH   8  12
ATOM     12  C   UNL d   1      -4.071   3.898  -0.312  0.00  0.00     0.417 C 
ATOM     13  F   UNL d   1      -4.547   5.099  -0.747  0.00  0.00    -0.166 F 
ATOM     14  F   UNL d   1      -4.673   2.958  -1.092  0.00  0.00    -0.166 F 
ATOM     15  F   UNL d   1      -4.575   3.728   0.941  0.00  0.00    -0.166 F 
ENDBRANCH   8  12
BRANCH  10  16
ATOM     16  C   UNL d   1       0.469   5.882  -1.415  0.00  0.00     0.417 C 
ATOM     17  F   UNL d   1      -0.255   6.953  -1.844  0.00  0.00    -0.166 F 
ATOM     18  F   UNL d   1       1.342   6.363  -0.489  0.00  0.00    -0.166 F 
ATOM     19  F   UNL d   1       1.225   5.494  -2.479  0.00  0.00    -0.166 F 
ENDBRANCH  10  16
ENDBRANCH   1   6
BRANCH   4  20
ATOM     20  C   UNL d   1      -0.695  -2.368   0.300  0.00  0.00     0.245 C 
BRANCH  20  21
ATOM     21  O   UNL d   1      -1.018  -2.688   1.657  0.00  0.00    -0.297 OA
BRANCH  21  22
ATOM     22  C   UNL d   1      -0.126  -3.472   2.306  0.00  0.00     0.365 C 
ATOM     23  N   UNL d   1      -0.483  -3.832   3.581  0.00  0.00    -0.303 N 
ATOM     24  H   UNL d   1       0.263  -4.347   4.034  0.00  0.00     0.171 HD
ATOM     25  O   UNL d   1       0.948  -3.834   1.839  0.00  0.00    -0.238 OA
BRANCH  23  26
ATOM     26  C   UNL d   1      -1.632  -3.571   4.349  0.00  0.00     0.036 A 
ATOM     27  C   UNL d   1      -2.789  -2.954   3.875  0.00  0.00     0.029 A 
ATOM     28  C   UNL d   1      -3.858  -2.684   4.736  0.00  0.00     0.002 A 
ATOM     29  C   UNL d   1      -3.785  -3.039   6.080  0.00  0.00     0.000 A 
ATOM     30  C   UNL d   1      -2.656  -3.694   6.557  0.00  0.00     0.002 A 
ATOM     31  C   UNL d   1      -1.589  -3.967   5.696  0.00  0.00     0.029 A 
ENDBRANCH  23  26
ENDBRANCH  21  22
ENDBRANCH  20  21
ENDBRANCH   4  20
TORSDOF 7
