REMARK  1 active torsions:
REMARK  status: ('A' for Active; 'I' for Inactive)
REMARK    1  A    between atoms: C_10  and  C_3 
ROOT
ATOM      1  S   UNL d   1       0.800   1.706   0.918  0.00  0.00     0.186 S 
ATOM      2  C   UNL d   1      -0.477   0.548   0.586  0.00  0.00     0.086 A 
ATOM      3  C   UNL d   1       1.848   1.521  -0.530  0.00  0.00     0.155 C 
ATOM      4  N   UNL d   1       1.088  -1.414   0.410  0.00  0.00    -0.326 N 
ATOM      5  C   UNL d   1       2.276  -1.039  -0.121  0.00  0.00     0.223 C 
ATOM      6  C   UNL d   1      -0.177  -0.798   0.405  0.00  0.00     0.056 A 
ATOM      7  C   UNL d   1       2.803   0.369  -0.290  0.00  0.00     0.128 C 
ATOM      8  O   UNL d   1       0.228   3.042   0.914  0.00  0.00    -0.222 OA
ATOM      9  O   UNL d   1       1.504   1.246   2.103  0.00  0.00    -0.222 OA
ATOM     10  O   UNL d   1       3.007  -1.973  -0.484  0.00  0.00    -0.273 OA
ATOM     11  C   UNL d   1      -1.786   1.031   0.433  0.00  0.00     0.026 A 
ATOM     12  C   UNL d   1      -1.241  -1.668   0.107  0.00  0.00     0.031 A 
ATOM     13  C   UNL d   1      -2.808   0.164   0.059  0.00  0.00     0.002 A 
ATOM     14  C   UNL d   1      -2.535  -1.188  -0.100  0.00  0.00     0.002 A 
ATOM     15  H   UNL d   1       1.063  -2.430   0.420  0.00  0.00     0.169 HD
ENDROOT
BRANCH   3  16
ATOM     16  C   UNL d   1       1.024   1.501  -1.827  0.00  0.00    -0.039 A 
ATOM     17  C   UNL d   1       0.241   2.624  -2.172  0.00  0.00     0.008 A 
ATOM     18  C   UNL d   1      -0.569   2.615  -3.312  0.00  0.00     0.001 A 
ATOM     19  C   UNL d   1      -0.596   1.504  -4.144  0.00  0.00     0.000 A 
ATOM     20  C   UNL d   1       0.197   0.400  -3.843  0.00  0.00     0.001 A 
ATOM     21  C   UNL d   1       1.005   0.409  -2.703  0.00  0.00     0.008 A 
ENDBRANCH   3  16
TORSDOF 1
