REMARK  4 active torsions:
REMARK  status: ('A' for Active; 'I' for Inactive)
REMARK    1  A    between atoms: C_8  and  N_1 
REMARK    2  A    between atoms: C_7  and  C_2 
REMARK    3  A    between atoms: N_13  and  C_10 
REMARK    4  A    between atoms: C_16  and  N_13 
ROOT
ATOM      1  N   UNL d   1      -0.062  -1.359   0.061  0.00  0.00    -0.225 N 
ATOM      2  C   UNL d   1       1.182  -0.732  -0.045  0.00  0.00     0.139 A 
ATOM      3  N   UNL d   1      -0.361   0.770  -0.012  0.00  0.00    -0.007 NA
ATOM      4  N   UNL d   1      -0.996  -0.375   0.163  0.00  0.00     0.001 NA
ATOM      5  N   UNL d   1       0.979   0.569  -0.147  0.00  0.00    -0.270 N 
ATOM      6  HN  UNL d   1       1.690   1.285  -0.298  1.00  0.00     0.185 HD
ENDROOT
BRANCH   2   7
ATOM      7  C   UNL d   1       2.427  -1.397   0.020  0.00  0.00     0.068 C 
ATOM      8  C   UNL d   1       2.939  -1.769   1.204  0.00  0.00     0.092 C 
BRANCH   8   9
ATOM      9  N   UNL d   1       4.194  -2.283   1.417  0.00  0.00    -0.366 N 
ATOM     10  H   UNL d   1       4.833  -2.243   0.629  0.00  0.00     0.165 HD
BRANCH   9  11
ATOM     11  C   UNL d   1       4.769  -2.665   2.644  0.00  0.00     0.033 A 
ATOM     12  C   UNL d   1       6.164  -2.601   2.791  0.00  0.00     0.056 A 
ATOM     13  C   UNL d   1       6.771  -2.925   4.008  0.00  0.00     0.074 A 
ATOM     14 CL   UNL d   1       8.484  -2.822   4.154  0.00  0.00    -0.081 Cl
ATOM     15  C   UNL d   1       5.990  -3.318   5.090  0.00  0.00     0.138 A 
ATOM     16  C   UNL d   1       4.608  -3.386   4.968  0.00  0.00     0.046 A 
ATOM     17  F   UNL d   1       6.552  -3.638   6.265  0.00  0.00    -0.204 F 
ATOM     18  C   UNL d   1       4.001  -3.052   3.753  0.00  0.00     0.032 A 
ENDBRANCH   9  11
ENDBRANCH   8   9
ENDBRANCH   2   7
BRANCH   1  19
ATOM     19  C   UNL d   1      -0.473  -2.722   0.025  0.00  0.00     0.056 A 
ATOM     20  C   UNL d   1      -1.792  -3.037   0.397  0.00  0.00     0.032 A 
ATOM     21  C   UNL d   1      -2.264  -4.349   0.312  0.00  0.00     0.009 A 
ATOM     22  C   UNL d   1      -1.437  -5.369  -0.162  0.00  0.00    -0.062 A 
ATOM     23  C   UNL d   1      -0.120  -5.061  -0.519  0.00  0.00     0.009 A 
ATOM     24  C   UNL d   1      -1.974  -6.763  -0.299  0.00  0.00     0.048 C 
ATOM     25  C   UNL d   1       0.364  -3.749  -0.425  0.00  0.00     0.032 A 
ENDBRANCH   1  19
TORSDOF 4
