REMARK  3 active torsions:
REMARK  status: ('A' for Active; 'I' for Inactive)
REMARK    1  A    between atoms: C_3  and  C_1 
REMARK       I    between atoms: N_16  and  C_3 
REMARK    2  A    between atoms: C_7  and  C_18 
REMARK    3  A    between atoms: C_22  and  N_16 
ROOT
ATOM      1  C   UNL d   1      -0.544  -4.755  -0.842  0.00  0.00     0.258 C 
ATOM      2  N   UNL d   1      -0.175  -3.740   0.028  0.00  0.00    -0.323 N 
ATOM      3  O   UNL d   1       0.233  -5.476  -1.461  0.00  0.00    -0.267 OA
ATOM      4  H   UNL d   1      -0.913  -3.281   0.557  0.00  0.00     0.169 HD
ENDROOT
BRANCH   2   5
ATOM      5  C   UNL d   1       1.145  -3.250   0.206  0.00  0.00     0.035 A 
ATOM      6  C   UNL d   1       2.214  -3.646  -0.601  0.00  0.00     0.030 A 
ATOM      7  C   UNL d   1       3.477  -3.059  -0.470  0.00  0.00     0.016 A 
ATOM      8  C   UNL d   1       3.705  -2.051   0.470  0.00  0.00    -0.009 A 
ATOM      9  C   UNL d   1       2.659  -1.704   1.335  0.00  0.00     0.016 A 
ATOM     10  C   UNL d   1       1.386  -2.290   1.196  0.00  0.00     0.030 A 
BRANCH   8  11
ATOM     11  C   UNL d   1       4.979  -1.338   0.501  0.00  0.00     0.049 A 
ATOM     12  N   UNL d   1       5.482  -0.760   1.657  0.00  0.00    -0.353 N 
ATOM     13  C   UNL d   1       6.624  -0.157   1.396  0.00  0.00     0.047 A 
ATOM     14  HN  UNL d   1       5.034  -0.795   2.573  1.00  0.00     0.166 HD
ATOM     15  C   UNL d   1       7.457   0.565   2.394  0.00  0.00     0.076 C 
ATOM     16  S   UNL d   1       7.145  -0.222  -0.241  0.00  0.00    -0.087 SA
ATOM     17  C   UNL d   1       5.749  -1.128  -0.629  0.00  0.00     0.081 A 
ENDBRANCH   8  11
ENDBRANCH   2   5
BRANCH   1  18
ATOM     18  C   UNL d   1      -1.983  -5.030  -1.050  0.00  0.00     0.061 A 
ATOM     19  C   UNL d   1      -3.052  -4.282  -0.502  0.00  0.00     0.082 A 
ATOM     20  N   UNL d   1      -2.982  -3.209   0.308  0.00  0.00    -0.310 N 
ATOM     21  C   UNL d   1      -4.487  -4.670  -0.825  0.00  0.00     0.068 A 
ATOM     22  S   UNL d   1      -4.547  -2.733   0.611  0.00  0.00     0.068 SA
ATOM     23  HN  UNL d   1      -2.133  -2.773   0.668  1.00  0.00     0.176 HD
ATOM     24  N   UNL d   1      -5.394  -3.870  -0.243  0.00  0.00    -0.310 N 
ATOM     25  HN  UNL d   1      -6.409  -3.947  -0.314  1.00  0.00     0.176 HD
ATOM     26  C   UNL d   1      -4.785  -5.773  -1.661  0.00  0.00     0.032 A 
ATOM     27  C   UNL d   1      -3.690  -6.470  -2.183  0.00  0.00     0.003 A 
ATOM     28  C   UNL d   1      -2.356  -6.112  -1.892  0.00  0.00     0.019 A 
ENDBRANCH   1  18
TORSDOF 3
