REMARK  6 active torsions:
REMARK  status: ('A' for Active; 'I' for Inactive)
REMARK    1  A    between atoms: C_4  and  C_1 
REMARK    2  A    between atoms: O_8  and  C_2 
REMARK    3  A    between atoms: C_11  and  C_4 
REMARK    4  A    between atoms: C_12  and  C_4 
REMARK    5  A    between atoms: C_9  and  O_8 
REMARK    6  A    between atoms: C_14  and  C_11 
ROOT
ATOM      1  C   UNL d   1      -1.730  -1.338  -0.159  0.00  0.00     0.061 C 
ATOM      2  C   UNL d   1      -1.554  -0.565  -1.255  0.00  0.00     0.105 C 
ATOM      3  C   UNL d   1      -0.526  -1.509   0.706  0.00  0.00     0.298 C 
ATOM      4  O   UNL d   1       0.338  -0.432   0.761  0.00  0.00    -0.274 OA
ATOM      5  C   UNL d   1      -0.242   0.031  -1.542  0.00  0.00     0.033 A 
ATOM      6  C   UNL d   1       0.673   0.075  -0.494  0.00  0.00     0.092 A 
ATOM      7  O   UNL d   1      -0.330  -2.506   1.392  0.00  0.00    -0.259 OA
ATOM      8  C   UNL d   1       0.181   0.483  -2.798  0.00  0.00     0.017 A 
ATOM      9  C   UNL d   1       1.970   0.562  -0.656  0.00  0.00     0.038 A 
ATOM     10  C   UNL d   1       1.493   0.933  -2.988  0.00  0.00     0.001 A 
ATOM     11  C   UNL d   1       2.385   0.975  -1.917  0.00  0.00     0.003 A 
ENDROOT
BRANCH   1  12
ATOM     12  C   UNL d   1      -2.971  -2.182   0.146  0.00  0.00     0.067 C 
BRANCH  12  13
ATOM     13  C   UNL d   1      -3.030  -3.078   1.412  0.00  0.00     0.092 C 
BRANCH  13  14
ATOM     14  C   UNL d   1      -2.857  -2.408   2.768  0.00  0.00     0.124 C 
ATOM     15  O   UNL d   1      -2.737  -1.188   2.906  0.00  0.00    -0.298 OA
ATOM     16  C   UNL d   1      -2.767  -3.330   3.958  0.00  0.00     0.091 C 
ENDBRANCH  13  14
ENDBRANCH  12  13
BRANCH  12  17
ATOM     17  C   UNL d   1      -4.324  -1.493  -0.063  0.00  0.00    -0.049 A 
ATOM     18  C   UNL d   1      -5.231  -2.030  -0.998  0.00  0.00     0.008 A 
ATOM     19  C   UNL d   1      -6.486  -1.454  -1.195  0.00  0.00     0.001 A 
ATOM     20  C   UNL d   1      -6.865  -0.341  -0.450  0.00  0.00     0.000 A 
ATOM     21  C   UNL d   1      -5.984   0.199   0.484  0.00  0.00     0.001 A 
ATOM     22  C   UNL d   1      -4.719  -0.367   0.671  0.00  0.00     0.008 A 
ENDBRANCH  12  17
ENDBRANCH   1  12
BRANCH   2  23
ATOM     23  O   UNL d   1      -2.598  -0.242  -2.150  0.00  0.00    -0.277 OA
BRANCH  23  24
ATOM     24  C   UNL d   1      -2.682  -0.983  -3.299  0.00  0.00     0.260 C 
ATOM     25  O   UNL d   1      -1.961  -1.922  -3.613  0.00  0.00    -0.265 OA
ATOM     26  C   UNL d   1      -3.739  -0.404  -4.195  0.00  0.00     0.126 C 
ENDBRANCH  23  24
ENDBRANCH   2  23
TORSDOF 6
