REMARK  2 active torsions:
REMARK  status: ('A' for Active; 'I' for Inactive)
REMARK    1  A    between atoms: C_11  and  C_3 
REMARK    2  A    between atoms: O_14  and  C_11 
ROOT
ATOM      1  C   UNL d   1       1.652  -0.840  -0.021  0.00  0.00     0.148 A 
ATOM      2  N   UNL d   1       0.914   0.328  -0.026  0.00  0.00    -0.238 N 
ATOM      3  C   UNL d   1       2.981  -0.463  -0.006  0.00  0.00     0.100 A 
ATOM      4  N   UNL d   1       1.022  -2.070   0.003  0.00  0.00    -0.306 N 
ATOM      5  N   UNL d   1       1.684   1.433  -0.014  0.00  0.00    -0.302 N 
ATOM      6  HN  UNL d   1       1.386   2.409  -0.032  1.00  0.00     0.186 HD
ATOM      7  C   UNL d   1      -0.358  -2.163   0.005  0.00  0.00     0.259 A 
ATOM      8  C   UNL d   1      -1.141  -0.894  -0.018  0.00  0.00     0.061 A 
ATOM      9  C   UNL d   1      -0.489   0.345  -0.024  0.00  0.00     0.074 A 
ATOM     10  C   UNL d   1       2.929   0.952   0.026  0.00  0.00     0.130 A 
ATOM     11  O   UNL d   1      -0.912  -3.256   0.031  0.00  0.00    -0.267 OA
ATOM     12  C   UNL d   1      -2.539  -0.934  -0.012  0.00  0.00     0.019 A 
ATOM     13  C   UNL d   1      -1.212   1.541  -0.017  0.00  0.00     0.032 A 
ATOM     14  C   UNL d   1      -3.268   0.259  -0.008  0.00  0.00     0.001 A 
ATOM     15  C   UNL d   1      -2.607   1.490  -0.009  0.00  0.00     0.002 A 
ATOM     16  H   UNL d   1       1.520  -2.946   0.121  0.00  0.00     0.170 HD
ENDROOT
BRANCH   3  17
ATOM     17  C   UNL d   1       4.180  -1.271   0.011  0.00  0.00     0.181 C 
ATOM     18  O   UNL d   1       5.242  -0.878   0.471  0.00  0.00    -0.646 OA
BRANCH  17  19
ATOM     19  O   UNL d   1       4.051  -2.495  -0.557  0.00  0.00    -0.773 OA
ATOM     20  H   UNL d   1       3.231  -2.578  -1.076  0.00  0.00     0.167 HD
ENDBRANCH  17  19
ENDBRANCH   3  17
TORSDOF 2
