REMARK  4 active torsions:
REMARK  status: ('A' for Active; 'I' for Inactive)
REMARK    1  A    between atoms: C_11  and  N_4 
REMARK    2  A    between atoms: C_13  and  C_11 
REMARK    3  A    between atoms: O_19  and  C_13 
REMARK    4  A    between atoms: C_20  and  O_19 
ROOT
ATOM      1  C   UNL d   1       0.738   0.377  -0.034  0.00  0.00     0.073 A 
ATOM      2  C   UNL d   1       1.249  -0.905  -0.056  0.00  0.00     0.091 A 
ATOM      3  C   UNL d   1       1.679   1.482   0.035  0.00  0.00     0.262 A 
ATOM      4  N   UNL d   1       3.014   1.084   0.042  0.00  0.00    -0.300 N 
ATOM      5  C   UNL d   1      -0.693   0.395  -0.080  0.00  0.00    -0.026 A 
ATOM      6  N   UNL d   1       2.561  -1.254  -0.025  0.00  0.00    -0.346 N 
ATOM      7  HN  UNL d   1       2.877  -2.224  -0.038  1.00  0.00     0.167 HD
ATOM      8  C   UNL d   1      -1.200  -0.893  -0.070  0.00  0.00    -0.008 A 
ATOM      9  S   UNL d   1       0.015  -2.082  -0.105  0.00  0.00    -0.075 SA
ATOM     10  C   UNL d   1       3.373  -0.252   0.022  0.00  0.00     0.187 A 
ATOM     11  C   UNL d   1      -1.584   1.605  -0.059  0.00  0.00     0.041 C 
ATOM     12  C   UNL d   1      -2.656  -1.250  -0.033  0.00  0.00     0.051 C 
ATOM     13  O   UNL d   1       1.325   2.656   0.074  0.00  0.00    -0.267 OA
ATOM     14  C   UNL d   1      -3.054   1.231  -0.320  0.00  0.00     0.009 C 
ATOM     15  C   UNL d   1      -3.491  -0.039   0.443  0.00  0.00    -0.014 C 
ATOM     16  C   UNL d   1      -3.390   0.145   1.963  0.00  0.00     0.010 C 
ENDROOT
BRANCH   4  17
ATOM     17  C   UNL d   1       4.039   2.114   0.024  0.00  0.00     0.244 C 
BRANCH  17  18
ATOM     18  C   UNL d   1       4.546   2.573   1.378  0.00  0.00     0.277 C 
ATOM     19  O   UNL d   1       5.413   3.439   1.497  0.00  0.00    -0.263 OA
BRANCH  18  20
ATOM     20  O   UNL d   1       4.061   1.824   2.405  0.00  0.00    -0.321 OA
BRANCH  20  21
ATOM     21  C   UNL d   1       4.856   1.846   3.602  0.00  0.00     0.174 C 
ATOM     22  C   UNL d   1       5.886   0.737   3.477  0.00  0.00     0.034 C 
ENDBRANCH  20  21
ENDBRANCH  18  20
ENDBRANCH  17  18
ENDBRANCH   4  17
TORSDOF 4
