REMARK  7 active torsions:
REMARK  status: ('A' for Active; 'I' for Inactive)
REMARK    1  A    between atoms: N_3  and  S_1 
REMARK    2  A    between atoms: C_4  and  S_1 
REMARK    3  A    between atoms: S_2  and  C_5 
REMARK    4  A    between atoms: N_10  and  S_2 
REMARK    5  A    between atoms: C_18  and  N_10 
REMARK    6  A    between atoms: C_17  and  C_19 
REMARK    7  A    between atoms: C_19  and  C_18 
ROOT
ATOM      1  C   UNL d   1       0.603   0.359  -1.821  0.00  0.00     0.079 A 
ATOM      2  C   UNL d   1      -0.475   1.013  -4.310  0.00  0.00     0.074 A 
ATOM      3  C   UNL d   1      -0.149  -0.591  -2.525  0.00  0.00     0.027 A 
ATOM      4  C   UNL d   1       0.818   1.630  -2.370  0.00  0.00     0.027 A 
ATOM      5  C   UNL d   1      -0.691  -0.263  -3.777  0.00  0.00     0.026 A 
ATOM      6  C   UNL d   1       0.294   1.953  -3.622  0.00  0.00     0.026 A 
ENDROOT
BRANCH   2   7
ATOM      7  S   UNL d   1      -1.166   1.464  -5.882  0.00  0.00     0.241 S 
ATOM      8  O   UNL d   1      -0.093   2.058  -6.652  0.00  0.00    -0.206 OA
ATOM      9  O   UNL d   1      -1.945   0.358  -6.381  0.00  0.00    -0.206 OA
BRANCH   7  10
ATOM     10  N   UNL d   1      -2.220   2.721  -5.470  0.00  0.00    -0.215 NA
ATOM     11  H   UNL d   1      -2.176   3.457  -6.189  0.00  0.00     0.139 HD
BRANCH  10  12
ATOM     12  C   UNL d   1      -3.618   2.352  -5.151  0.00  0.00     0.110 C 
BRANCH  12  13
ATOM     13  C   UNL d   1      -4.459   3.601  -4.840  0.00  0.00     0.072 C 
BRANCH  13  14
ATOM     14  C   UNL d   1      -4.563   4.589  -5.983  0.00  0.00     0.010 A 
ATOM     15  N   UNL d   1      -3.860   4.332  -7.114  0.00  0.00    -0.369 N 
ATOM     16  C   UNL d   1      -3.956   5.216  -8.131  0.00  0.00     0.088 A 
ATOM     17  HN  UNL d   1      -3.278   3.498  -7.194  1.00  0.00     0.165 HD
ATOM     18  C   UNL d   1      -4.711   6.372  -8.072  0.00  0.00     0.017 A 
ATOM     19  C   UNL d   1      -5.416   6.635  -6.904  0.00  0.00     0.003 A 
ATOM     20  C   UNL d   1      -5.346   5.734  -5.843  0.00  0.00     0.025 A 
ENDBRANCH  13  14
ENDBRANCH  12  13
ENDBRANCH  10  12
ENDBRANCH   7  10
ENDBRANCH   2   7
BRANCH   1  21
ATOM     21  S   UNL d   1       1.079   0.051  -0.125  0.00  0.00     0.260 S 
ATOM     22  O   UNL d   1       0.645   1.211   0.628  0.00  0.00    -0.200 OA
ATOM     23  O   UNL d   1       0.609  -1.276   0.223  0.00  0.00    -0.200 OA
BRANCH  21  24
ATOM     24  N   UNL d   1       2.757   0.019  -0.099  0.00  0.00    -0.307 N 
ATOM     25  C   UNL d   1       3.556   1.228  -0.329  0.00  0.00     0.135 C 
ATOM     26  C   UNL d   1       4.280   0.940  -1.631  0.00  0.00     0.022 C 
ATOM     27  C   UNL d   1       4.488  -0.568  -1.633  0.00  0.00     0.022 C 
ATOM     28  C   UNL d   1       3.493  -1.137  -0.627  0.00  0.00     0.135 C 
ENDBRANCH  21  24
ENDBRANCH   1  21
TORSDOF 7
