REMARK  4 active torsions:
REMARK  status: ('A' for Active; 'I' for Inactive)
REMARK    1  A    between atoms: N_3  and  S_1 
REMARK    2  A    between atoms: C_10  and  S_1 
REMARK    3  A    between atoms: C_2  and  N_3 
REMARK    4  A    between atoms: C_9  and  C_6 
ROOT
ATOM      1  C   UNL d   1       0.831  -1.906  -2.109  0.00  0.00     0.138 A 
ATOM      2  N   UNL d   1       2.004  -1.624  -2.616  0.00  0.00    -0.339 N 
ATOM      3  HN  UNL d   1       2.768  -1.172  -2.114  1.00  0.00     0.167 HD
ATOM      4  C   UNL d   1       2.050  -2.037  -3.949  0.00  0.00     0.057 A 
ATOM      5  S   UNL d   1      -0.337  -2.510  -3.188  0.00  0.00    -0.062 SA
ATOM      6  C   UNL d   1       0.853  -2.553  -4.436  0.00  0.00     0.009 A 
ATOM      7  C   UNL d   1       0.485  -3.127  -5.761  0.00  0.00     0.059 C 
ENDROOT
BRANCH   1   8
ATOM      8  N   UNL d   1       0.559  -1.572  -0.756  0.00  0.00    -0.160 NA
ATOM      9  H   UNL d   1       1.324  -0.959  -0.466  0.00  0.00     0.148 HD
BRANCH   8  10
ATOM     10  S   UNL d   1       0.697  -2.946   0.237  0.00  0.00     0.247 S 
ATOM     11  O   UNL d   1       1.983  -2.820   0.897  0.00  0.00    -0.205 OA
ATOM     12  O   UNL d   1       0.316  -4.149  -0.465  0.00  0.00    -0.205 OA
BRANCH  10  13
ATOM     13  C   UNL d   1      -0.561  -2.657   1.462  0.00  0.00     0.074 A 
ATOM     14  C   UNL d   1      -1.901  -2.604   1.068  0.00  0.00     0.025 A 
ATOM     15  C   UNL d   1      -2.896  -2.428   2.033  0.00  0.00     0.008 A 
ATOM     16  C   UNL d   1      -2.561  -2.313   3.390  0.00  0.00    -0.062 A 
ATOM     17  C   UNL d   1      -1.214  -2.381   3.772  0.00  0.00     0.008 A 
ATOM     18  C   UNL d   1      -3.642  -2.124   4.415  0.00  0.00     0.048 C 
ATOM     19  C   UNL d   1      -0.214  -2.554   2.812  0.00  0.00     0.025 A 
ENDBRANCH  10  13
ENDBRANCH   8  10
ENDBRANCH   1   8
BRANCH   4  20
ATOM     20  C   UNL d   1       3.310  -1.964  -4.698  0.00  0.00    -0.007 A 
ATOM     21  C   UNL d   1       4.524  -2.181  -4.032  0.00  0.00     0.038 A 
ATOM     22  C   UNL d   1       5.741  -2.160  -4.730  0.00  0.00     0.040 A 
ATOM     23 CL   UNL d   1       7.194  -2.441  -3.837  0.00  0.00    -0.084 Cl
ATOM     24  C   UNL d   1       5.774  -1.923  -6.112  0.00  0.00    -0.040 A 
ATOM     25  C   UNL d   1       4.563  -1.683  -6.771  0.00  0.00     0.009 A 
ATOM     26  C   UNL d   1       7.056  -1.905  -6.898  0.00  0.00     0.050 C 
ATOM     27  C   UNL d   1       3.352  -1.686  -6.069  0.00  0.00     0.014 A 
ENDBRANCH   4  20
TORSDOF 4
