REMARK  5 active torsions:
REMARK  status: ('A' for Active; 'I' for Inactive)
REMARK    1  A    between atoms: S_2  and  C_1 
REMARK    2  A    between atoms: S_3  and  C_1 
REMARK    3  A    between atoms: C_4  and  C_1 
REMARK    4  A    between atoms: C_5  and  S_2 
REMARK    5  A    between atoms: C_6  and  S_3 
ROOT
ATOM      1  C   UNL d   1       1.077  -0.028   0.129  0.00  0.00     0.151 C 
ENDROOT
BRANCH   1   2
ATOM      2  S   UNL d   1       0.545  -0.619   1.792  0.00  0.00    -0.109 SA
BRANCH   2   3
ATOM      3  C   UNL d   1      -1.216  -0.812   1.620  0.00  0.00     0.002 A 
ATOM      4  C   UNL d   1      -1.808  -1.585   0.615  0.00  0.00     0.020 A 
ATOM      5  C   UNL d   1      -3.197  -1.749   0.577  0.00  0.00     0.025 A 
ATOM      6  C   UNL d   1      -3.996  -1.151   1.550  0.00  0.00     0.034 A 
ATOM      7  C   UNL d   1      -3.416  -0.392   2.564  0.00  0.00     0.025 A 
ATOM      8 CL   UNL d   1      -5.701  -1.364   1.512  0.00  0.00    -0.084 Cl
ATOM      9  C   UNL d   1      -2.030  -0.230   2.599  0.00  0.00     0.020 A 
ENDBRANCH   2   3
ENDBRANCH   1   2
BRANCH   1  10
ATOM     10  S   UNL d   1       0.299   1.591  -0.316  0.00  0.00    -0.109 SA
BRANCH  10  11
ATOM     11  C   UNL d   1       0.811   2.689   0.993  0.00  0.00     0.002 A 
ATOM     12  C   UNL d   1       2.146   3.062   1.178  0.00  0.00     0.020 A 
ATOM     13  C   UNL d   1       2.488   4.008   2.151  0.00  0.00     0.025 A 
ATOM     14  C   UNL d   1       1.495   4.596   2.928  0.00  0.00     0.034 A 
ATOM     15  C   UNL d   1       0.160   4.243   2.748  0.00  0.00     0.025 A 
ATOM     16 CL   UNL d   1       1.913   5.785   4.099  0.00  0.00    -0.084 Cl
ATOM     17  C   UNL d   1      -0.179   3.294   1.779  0.00  0.00     0.020 A 
ENDBRANCH  10  11
ENDBRANCH   1  10
BRANCH   1  18
ATOM     18  C   UNL d   1       2.589  -0.065  -0.126  0.00  0.00    -0.034 A 
ATOM     19  C   UNL d   1       3.535  -0.425   0.852  0.00  0.00     0.009 A 
ATOM     20  C   UNL d   1       4.899  -0.500   0.552  0.00  0.00     0.001 A 
ATOM     21  C   UNL d   1       5.352  -0.208  -0.729  0.00  0.00     0.000 A 
ATOM     22  C   UNL d   1       4.442   0.159  -1.714  0.00  0.00     0.001 A 
ATOM     23  C   UNL d   1       3.076   0.221  -1.418  0.00  0.00     0.009 A 
ENDBRANCH   1  18
TORSDOF 5
