REMARK  3 active torsions:
REMARK  status: ('A' for Active; 'I' for Inactive)
REMARK    1  A    between atoms: C_2  and  C_1 
REMARK       I    between atoms: N_4  and  C_2 
REMARK    2  A    between atoms: N_6  and  C_3 
REMARK    3  A    between atoms: C_5  and  N_4 
ROOT
ATOM      1  C   UNL d   1       1.226   2.642   0.170  0.00  0.00     0.259 C 
ATOM      2  N   UNL d   1       2.017   2.895   1.278  0.00  0.00    -0.323 N 
ATOM      3  O   UNL d   1       0.823   3.469  -0.633  0.00  0.00    -0.267 OA
ATOM      4  H   UNL d   1       2.358   2.076   1.774  0.00  0.00     0.169 HD
ENDROOT
BRANCH   1   5
ATOM      5  C   UNL d   1       0.809   1.227  -0.030  0.00  0.00     0.074 A 
ATOM      6  C   UNL d   1       1.607   0.067   0.117  0.00  0.00     0.048 A 
ATOM      7  C   UNL d   1       0.884  -1.145   0.071  0.00  0.00     0.047 A 
ATOM      8  C   UNL d   1      -0.482  -1.168  -0.202  0.00  0.00     0.090 A 
ATOM      9  N   UNL d   1      -1.212  -0.072  -0.448  0.00  0.00    -0.374 N 
ATOM     10  C   UNL d   1      -0.549   1.099  -0.355  0.00  0.00     0.106 A 
ATOM     11  HN  UNL d   1      -2.202  -0.120  -0.688  1.00  0.00     0.164 HD
BRANCH   6  12
ATOM     12  N   UNL d   1       3.004   0.068   0.315  0.00  0.00    -0.389 N 
ATOM     13  C   UNL d   1       3.745  -1.204   0.407  0.00  0.00     0.149 C 
ATOM     14  C   UNL d   1       3.804   1.107  -0.367  0.00  0.00     0.149 C 
ENDBRANCH   6  12
ENDBRANCH   1   5
BRANCH   2  15
ATOM     15  C   UNL d   1       2.526   4.157   1.660  0.00  0.00     0.038 A 
ATOM     16  C   UNL d   1       2.063   5.370   1.139  0.00  0.00     0.053 A 
ATOM     17  C   UNL d   1       2.655   6.579   1.519  0.00  0.00     0.037 A 
ATOM     18 CL   UNL d   1       2.075   8.060   0.859  0.00  0.00    -0.084 Cl
ATOM     19  C   UNL d   1       3.712   6.600   2.420  0.00  0.00     0.048 A 
ATOM     20  C   UNL d   1       4.156   5.398   2.961  0.00  0.00     0.037 A 
ATOM     21  C   UNL d   1       3.564   4.183   2.599  0.00  0.00     0.053 A 
ATOM     22 CL   UNL d   1       5.469   5.405   4.076  0.00  0.00    -0.084 Cl
ENDBRANCH   2  15
TORSDOF 3
