REMARK  4 active torsions:
REMARK  status: ('A' for Active; 'I' for Inactive)
REMARK    1  A    between atoms: C_10  and  C_4 
REMARK    2  A    between atoms: N_19  and  C_6 
REMARK    3  A    between atoms: O_21  and  C_15 
REMARK    4  A    between atoms: O_22  and  C_18 
ROOT
ATOM      1  C   UNL d   1      -0.301   0.951  -0.198  0.00  0.00     0.066 A 
ATOM      2  C   UNL d   1       0.136  -0.312  -0.075  0.00  0.00     0.103 A 
ATOM      3  C   UNL d   1      -2.639   0.001  -0.134  0.00  0.00     0.081 A 
ATOM      4  C   UNL d   1      -1.783   1.259  -0.264  0.00  0.00     0.108 A 
ATOM      5  C   UNL d   1       0.663   2.069  -0.311  0.00  0.00     0.298 C 
ATOM      6  C   UNL d   1      -2.085  -1.224   0.002  0.00  0.00     0.138 A 
ATOM      7  O   UNL d   1      -0.709  -1.398   0.009  0.00  0.00    -0.296 OA
ATOM      8  C   UNL d   1       1.564  -0.612  -0.022  0.00  0.00     0.033 A 
ATOM      9  O   UNL d   1       2.001   1.778  -0.078  0.00  0.00    -0.274 OA
ATOM     10  C   UNL d   1       2.459   0.453   0.005  0.00  0.00     0.092 A 
ATOM     11  C   UNL d   1      -4.058   0.147  -0.164  0.00  0.00     0.100 C 
ATOM     12  N   UNL d   1      -5.214   0.234  -0.203  0.00  0.00    -0.191 NA
ATOM     13  O   UNL d   1       0.312   3.205  -0.603  0.00  0.00    -0.259 OA
ATOM     14  C   UNL d   1       2.082  -1.912   0.010  0.00  0.00     0.017 A 
ATOM     15  C   UNL d   1       3.837   0.260   0.078  0.00  0.00     0.038 A 
ATOM     16  C   UNL d   1       3.463  -2.124   0.071  0.00  0.00     0.001 A 
ATOM     17  C   UNL d   1       4.339  -1.038   0.110  0.00  0.00     0.003 A 
ENDROOT
BRANCH   4  18
ATOM     18  C   UNL d   1      -2.186   2.323   0.758  0.00  0.00    -0.041 A 
ATOM     19  C   UNL d   1      -2.111   2.073   2.140  0.00  0.00     0.047 A 
ATOM     20  C   UNL d   1      -2.382   3.083   3.069  0.00  0.00     0.101 A 
ATOM     21  C   UNL d   1      -2.732   4.356   2.599  0.00  0.00     0.099 A 
ATOM     22  C   UNL d   1      -2.840   4.615   1.234  0.00  0.00     0.040 A 
ATOM     23  C   UNL d   1      -2.576   3.600   0.318  0.00  0.00     0.011 A 
BRANCH  20  24
ATOM     24  O   UNL d   1      -2.312   2.930   4.428  0.00  0.00    -0.353 OA
ATOM     25  C   UNL d   1      -1.947   1.648   4.919  0.00  0.00     0.210 C 
ENDBRANCH  20  24
BRANCH  21  26
ATOM     26  O   UNL d   1      -2.955   5.366   3.498  0.00  0.00    -0.358 OA
ATOM     27  H   UNL d   1      -3.064   6.198   3.012  0.00  0.00     0.217 HD
ENDBRANCH  21  26
ENDBRANCH   4  18
BRANCH   6  28
ATOM     28  N   UNL d   1      -2.765  -2.407   0.145  0.00  0.00    -0.282 NA
ATOM     29  H   UNL d   1      -3.734  -2.417  -0.168  0.00  0.00     0.126 HD
ATOM     30  H   UNL d   1      -2.230  -3.213  -0.174  0.00  0.00     0.126 HD
ENDBRANCH   6  28
TORSDOF 4
