REMARK  7 active torsions:
REMARK  status: ('A' for Active; 'I' for Inactive)
REMARK    1  A    between atoms: C_4  and  C_1 
REMARK    2  A    between atoms: C_2  and  O_7 
REMARK    3  A    between atoms: N_8  and  C_3 
REMARK    4  A    between atoms: O_15  and  C_4 
REMARK    5  A    between atoms: O_7  and  C_9 
REMARK    6  A    between atoms: C_10  and  N_8 
REMARK    7  A    between atoms: C_18  and  O_15 
ROOT
ATOM      1  C   UNL d   1      -0.203   1.496  -0.172  0.00  0.00     0.130 C 
ATOM      2  C   UNL d   1       0.478   0.859   0.796  0.00  0.00     0.091 C 
ATOM      3  C   UNL d   1      -0.592   2.856  -0.056  0.00  0.00     0.106 C 
ATOM      4  N   UNL d   1      -0.919   3.969   0.027  0.00  0.00    -0.191 NA
ENDROOT
BRANCH   1   5
ATOM      5  C   UNL d   1      -0.464   0.747  -1.422  0.00  0.00     0.304 C 
ATOM      6  O   UNL d   1      -0.238  -0.445  -1.573  0.00  0.00    -0.258 OA
BRANCH   5   7
ATOM      7  O   UNL d   1      -0.913   1.592  -2.382  0.00  0.00    -0.317 OA
BRANCH   7   8
ATOM      8  C   UNL d   1      -0.948   1.070  -3.717  0.00  0.00     0.174 C 
ATOM      9  C   UNL d   1       0.426   1.231  -4.341  0.00  0.00     0.034 C 
ENDBRANCH   7   8
ENDBRANCH   5   7
ENDBRANCH   1   5
BRANCH   2  10
ATOM     10  N   UNL d   1       0.913   1.336   2.022  0.00  0.00    -0.266 NA
ATOM     11  H   UNL d   1       1.695   0.778   2.381  0.00  0.00     0.133 HD
BRANCH  10  12
ATOM     12  C   UNL d   1       0.062   1.639   3.123  0.00  0.00     0.046 A 
ATOM     13  C   UNL d   1       0.576   2.276   4.274  0.00  0.00     0.099 A 
ATOM     14  C   UNL d   1      -0.269   2.573   5.353  0.00  0.00     0.039 A 
ATOM     15  C   UNL d   1      -1.626   2.257   5.301  0.00  0.00     0.003 A 
ATOM     16  C   UNL d   1      -2.152   1.660   4.163  0.00  0.00     0.002 A 
ATOM     17  C   UNL d   1      -1.314   1.349   3.089  0.00  0.00     0.026 A 
BRANCH  13  18
ATOM     18  O   UNL d   1       1.808   2.869   4.336  0.00  0.00    -0.254 OA
BRANCH  18  19
ATOM     19  C   UNL d   1       2.962   2.053   4.243  0.00  0.00     0.530 C 
ATOM     20  F   UNL d   1       2.767   0.887   3.587  0.00  0.00    -0.144 F 
ATOM     21  F   UNL d   1       3.922   2.744   3.587  0.00  0.00    -0.144 F 
ATOM     22  F   UNL d   1       3.423   1.769   5.481  0.00  0.00    -0.144 F 
ENDBRANCH  18  19
ENDBRANCH  13  18
ENDBRANCH  10  12
ENDBRANCH   2  10
TORSDOF 7
