REMARK  3 active torsions:
REMARK  status: ('A' for Active; 'I' for Inactive)
REMARK    1  A    between atoms: C_6  and  C_1 
REMARK    2  A    between atoms: C_8  and  C_6 
REMARK    3  A    between atoms: C_12  and  C_9 
ROOT
ATOM      1  C   UNL d   1       0.005  -1.724  -0.025  0.00  0.00     0.065 A 
ATOM      2  C   UNL d   1       1.082  -0.908   0.036  0.00  0.00     0.102 A 
ATOM      3  C   UNL d   1       0.672   0.480   0.056  0.00  0.00     0.010 A 
ATOM      4  O   UNL d   1       2.425  -1.219   0.076  0.00  0.00    -0.308 OA
ATOM      5  C   UNL d   1      -1.192  -0.839  -0.040  0.00  0.00    -0.008 A 
ATOM      6  C   UNL d   1      -0.779   0.513   0.028  0.00  0.00    -0.012 A 
ATOM      7  C   UNL d   1       3.350  -0.164   0.076  0.00  0.00     0.086 A 
ATOM      8  C   UNL d   1       1.560   1.476   0.066  0.00  0.00     0.018 A 
ATOM      9  C   UNL d   1       2.963   1.130   0.055  0.00  0.00     0.039 A 
ATOM     10  C   UNL d   1      -2.552  -1.108  -0.129  0.00  0.00     0.013 A 
ATOM     11  C   UNL d   1      -1.660   1.579   0.040  0.00  0.00     0.013 A 
ATOM     12  C   UNL d   1      -3.461  -0.035  -0.104  0.00  0.00     0.001 A 
ATOM     13  C   UNL d   1      -3.023   1.295  -0.019  0.00  0.00     0.001 A 
ENDROOT
BRANCH   7  14
ATOM     14  C   UNL d   1       4.776  -0.553   0.038  0.00  0.00    -0.002 A 
ATOM     15  C   UNL d   1       5.762   0.234   0.661  0.00  0.00     0.016 A 
ATOM     16  C   UNL d   1       7.118  -0.092   0.560  0.00  0.00     0.024 A 
ATOM     17  C   UNL d   1       7.504  -1.222  -0.152  0.00  0.00     0.034 A 
ATOM     18  C   UNL d   1       6.544  -2.039  -0.743  0.00  0.00     0.024 A 
ATOM     19 CL   UNL d   1       9.174  -1.602  -0.308  0.00  0.00    -0.084 Cl
ATOM     20  C   UNL d   1       5.186  -1.709  -0.643  0.00  0.00     0.016 A 
ENDBRANCH   7  14
BRANCH   1  21
ATOM     21  C   UNL d   1       0.150  -3.198  -0.073  0.00  0.00     0.269 C 
ATOM     22  O   UNL d   1       1.166  -3.684  -0.588  0.00  0.00    -0.282 OA
BRANCH  21  23
ATOM     23  C   UNL d   1      -0.944  -4.091   0.494  0.00  0.00     0.456 C 
ATOM     24  F   UNL d   1      -1.863  -3.449   1.265  0.00  0.00    -0.163 F 
ATOM     25  F   UNL d   1      -1.648  -4.715  -0.494  0.00  0.00    -0.163 F 
ATOM     26  F   UNL d   1      -0.443  -5.084   1.284  0.00  0.00    -0.163 F 
ENDBRANCH  21  23
ENDBRANCH   1  21
TORSDOF 3
