REMARK  3 active torsions:
REMARK  status: ('A' for Active; 'I' for Inactive)
REMARK    1  A    between atoms: C_7  and  C_3 
REMARK    2  A    between atoms: C_10  and  C_7 
REMARK    3  A    between atoms: N_12  and  N_8 
ROOT
ATOM      1  C   UNL d   1      -1.143  -0.477  -0.145  0.00  0.00    -0.041 C 
ATOM      2  C   UNL d   1       0.010   1.669   0.157  0.00  0.00    -0.041 C 
ATOM      3  C   UNL d   1      -1.196   0.934   0.028  0.00  0.00     0.028 C 
ATOM      4  C   UNL d   1       0.101  -1.155  -0.021  0.00  0.00    -0.049 C 
ATOM      5  C   UNL d   1       1.276   0.993   0.051  0.00  0.00    -0.049 C 
ATOM      6  C   UNL d   1       1.312  -0.418   0.027  0.00  0.00    -0.049 C 
ATOM      7  C   UNL d   1       0.045   3.163   0.398  0.00  0.00     0.050 C 
ATOM      8  C   UNL d   1      -2.392  -1.280  -0.446  0.00  0.00     0.050 C 
ATOM      9  C   UNL d   1       0.150  -2.670   0.040  0.00  0.00     0.049 C 
ATOM     10  C   UNL d   1       2.528   1.837  -0.011  0.00  0.00     0.049 C 
ATOM     11  C   UNL d   1       2.614  -1.194   0.054  0.00  0.00     0.049 C 
ENDROOT
BRANCH   3  12
ATOM     12  C   UNL d   1      -2.557   1.560   0.182  0.00  0.00     0.199 C 
ATOM     13  O   UNL d   1      -3.478   0.974   0.755  0.00  0.00    -0.286 OA
BRANCH  12  14
ATOM     14  C   UNL d   1      -2.881   2.959  -0.224  0.00  0.00     0.156 C 
ATOM     15  N   UNL d   1      -2.409   3.491  -1.311  0.00  0.00    -0.331 N 
ATOM     16  HN  UNL d   1      -1.859   2.985  -2.005  1.00  0.00     0.179 HD
BRANCH  15  17
ATOM     17  N   UNL d   1      -2.740   4.809  -1.406  0.00  0.00    -0.250 NA
ATOM     18  H   UNL d   1      -2.022   5.293  -1.952  0.00  0.00     0.143 HD
ATOM     19  H   UNL d   1      -3.587   4.920  -1.974  0.00  0.00     0.143 HD
ENDBRANCH  15  17
ENDBRANCH  12  14
ENDBRANCH   3  12
TORSDOF 3
