REMARK  2 active torsions:
REMARK  status: ('A' for Active; 'I' for Inactive)
REMARK    1  A    between atoms: N_4  and  C_1 
REMARK       I    between atoms: C_6  and  N_4 
REMARK    2  A    between atoms: C_9  and  C_6 
ROOT
ATOM      1  C   UNL d   1      -3.014   0.136  -0.129  0.00  0.00     0.152 A 
ATOM      2  N   UNL d   1      -2.347   1.246   0.074  0.00  0.00    -0.335 N 
ATOM      3  HN  UNL d   1      -2.766   2.159   0.252  1.00  0.00     0.168 HD
ATOM      4  S   UNL d   1      -2.079  -1.263  -0.382  0.00  0.00    -0.052 SA
ATOM      5  C   UNL d   1      -0.639  -0.341  -0.205  0.00  0.00     0.036 A 
ATOM      6  C   UNL d   1      -0.986   0.993   0.013  0.00  0.00     0.051 A 
ATOM      7  C   UNL d   1       0.698  -0.769  -0.255  0.00  0.00     0.045 A 
ATOM      8  C   UNL d   1       0.044   1.945   0.160  0.00  0.00     0.032 A 
ATOM      9  C   UNL d   1       1.696   0.193  -0.086  0.00  0.00     0.035 A 
ATOM     10  C   UNL d   1       1.382   1.535   0.110  0.00  0.00     0.026 A 
ATOM     11 CL   UNL d   1       3.348  -0.295  -0.113  0.00  0.00    -0.084 Cl
ENDROOT
BRANCH   1  12
ATOM     12  N   UNL d   1      -4.384   0.119  -0.087  0.00  0.00    -0.302 N 
ATOM     13  C   UNL d   1      -5.220  -0.920  -0.427  0.00  0.00     0.264 C 
ATOM     14  O   UNL d   1      -4.851  -1.997  -0.886  0.00  0.00    -0.267 OA
ATOM     15  H   UNL d   1      -4.797   1.003   0.177  0.00  0.00     0.171 HD
BRANCH  13  16
ATOM     16  C   UNL d   1      -6.646  -0.640  -0.244  0.00  0.00     0.072 A 
ATOM     17  S   UNL d   1      -7.221   0.761   0.562  0.00  0.00    -0.097 SA
ATOM     18  C   UNL d   1      -8.854   0.307   0.340  0.00  0.00     0.050 A 
ATOM     19  C   UNL d   1      -8.971  -0.887  -0.333  0.00  0.00     0.009 A 
ATOM     20  C   UNL d   1      -7.699  -1.436  -0.662  0.00  0.00     0.025 A 
ENDBRANCH  13  16
ENDBRANCH   1  12
TORSDOF 2
