REMARK  1 active torsions:
REMARK  status: ('A' for Active; 'I' for Inactive)
REMARK    1  A    between atoms: C_2  and  C_5 
ROOT
ATOM      1  C   UNL d   1      -1.291  -0.180   0.011  0.00  0.00     0.058 C 
ATOM      2  C   UNL d   1      -0.415  -1.385   0.144  0.00  0.00     0.164 C 
ATOM      3  C   UNL d   1      -0.688   1.192   0.088  0.00  0.00     0.164 C 
ATOM      4  C   UNL d   1      -2.623  -0.222  -0.178  0.00  0.00     0.056 C 
ATOM      5  C   UNL d   1       1.622   0.107  -0.050  0.00  0.00    -0.034 C 
ATOM      6  C   UNL d   1       0.791   1.319   0.391  0.00  0.00     0.093 C 
ATOM      7  C   UNL d   1       1.018  -1.158   0.569  0.00  0.00     0.093 C 
ATOM      8  O   UNL d   1      -0.806  -2.533  -0.059  0.00  0.00    -0.292 OA
ATOM      9  O   UNL d   1      -1.375   2.207  -0.037  0.00  0.00    -0.292 OA
ATOM     10  C   UNL d   1       3.064   0.265   0.468  0.00  0.00     0.015 C 
ATOM     11  C   UNL d   1       1.678   0.008  -1.588  0.00  0.00     0.015 C 
ENDROOT
BRANCH   4  12
ATOM     12  C   UNL d   1      -3.389  -1.414  -0.225  0.00  0.00     0.077 A 
ATOM     13  O   UNL d   1      -4.024  -1.927   0.879  0.00  0.00    -0.315 OA
ATOM     14  C   UNL d   1      -4.723  -3.029   0.498  0.00  0.00     0.056 A 
ATOM     15  C   UNL d   1      -5.484  -3.723   1.557  0.00  0.00     0.077 C 
ATOM     16  C   UNL d   1      -4.574  -3.250  -0.855  0.00  0.00    -0.030 A 
ATOM     17  C   UNL d   1      -3.705  -2.221  -1.309  0.00  0.00     0.046 A 
ATOM     18  C   UNL d   1      -5.201  -4.322  -1.663  0.00  0.00     0.050 C 
ENDBRANCH   4  12
TORSDOF 1
