REMARK  2 active torsions:
REMARK  status: ('A' for Active; 'I' for Inactive)
REMARK    1  A    between atoms: C_8  and  N_1 
REMARK    2  A    between atoms: S_10  and  C_2 
ROOT
ATOM      1  N   UNL d   1       2.402  -0.702   0.006  0.00  0.00    -0.257 N 
ATOM      2  C   UNL d   1       2.347   0.689   0.020  0.00  0.00     0.154 A 
ATOM      3  C   UNL d   1       1.237  -1.470   0.015  0.00  0.00     0.267 A 
ATOM      4  N   UNL d   1       1.241   1.363   0.007  0.00  0.00    -0.335 N 
ATOM      5  HN  UNL d   1       1.253   2.383   0.011  1.00  0.00     0.168 HD
ATOM      6  C   UNL d   1      -0.032  -0.725   0.002  0.00  0.00     0.059 A 
ATOM      7  C   UNL d   1       0.030   0.665  -0.014  0.00  0.00     0.049 A 
ATOM      8  O   UNL d   1       1.201  -2.699   0.033  0.00  0.00    -0.267 OA
ATOM      9  C   UNL d   1      -1.261  -1.397  -0.006  0.00  0.00     0.019 A 
ATOM     10  C   UNL d   1      -1.165   1.388  -0.047  0.00  0.00     0.030 A 
ATOM     11  C   UNL d   1      -2.446  -0.666  -0.040  0.00  0.00     0.001 A 
ATOM     12  C   UNL d   1      -2.398   0.729  -0.062  0.00  0.00     0.002 A 
ENDROOT
BRANCH   1  13
ATOM     13  C   UNL d   1       3.623  -1.422  -0.042  0.00  0.00     0.060 A 
ATOM     14  C   UNL d   1       4.282  -1.806   1.122  0.00  0.00     0.117 A 
ATOM     15  N   UNL d   1       5.422  -2.537   1.135  0.00  0.00    -0.373 N 
ATOM     16  C   UNL d   1       5.910  -2.916  -0.067  0.00  0.00     0.088 A 
ATOM     17  HN  UNL d   1       5.889  -2.787   2.007  1.00  0.00     0.164 HD
ATOM     18  C   UNL d   1       5.317  -2.595  -1.280  0.00  0.00     0.019 A 
ATOM     19  C   UNL d   1       4.151  -1.835  -1.266  0.00  0.00     0.033 A 
ENDBRANCH   1  13
BRANCH   2  20
ATOM     20  S   UNL d   1       3.865   1.581   0.069  0.00  0.00    -0.098 SA
ATOM     21  C   UNL d   1       3.288   3.292   0.055  0.00  0.00     0.099 C 
ENDBRANCH   2  20
TORSDOF 2
