REMARK  7 active torsions:
REMARK  status: ('A' for Active; 'I' for Inactive)
REMARK    1  A    between atoms: O_3  and  C_1 
REMARK    2  A    between atoms: C_5  and  C_1 
REMARK    3  A    between atoms: C_9  and  O_3 
REMARK    4  A    between atoms: C_18  and  C_13 
REMARK    5  A    between atoms: C_19  and  C_18 
REMARK    6  A    between atoms: C_21  and  C_19 
REMARK    7  A    between atoms: C_20  and  C_21 
ROOT
ATOM      1  N   UNL d   1       3.340  -2.445  -7.066  0.00  0.00    -0.191 NA
ATOM      2  C   UNL d   1       2.889  -2.163  -6.034  0.00  0.00     0.099 C 
ATOM      3  C   UNL d   1       1.258  -1.150  -2.263  0.00  0.00     0.079 A 
ATOM      4  C   UNL d   1       2.333  -1.819  -4.757  0.00  0.00     0.044 A 
ATOM      5  C   UNL d   1       2.754  -0.661  -4.093  0.00  0.00     0.025 A 
ATOM      6  C   UNL d   1       1.363  -2.637  -4.169  0.00  0.00     0.025 A 
ATOM      7  C   UNL d   1       0.824  -2.302  -2.924  0.00  0.00     0.039 A 
ATOM      8  C   UNL d   1       2.213  -0.321  -2.848  0.00  0.00     0.039 A 
ENDROOT
BRANCH   3   9
ATOM      9  O   UNL d   1       0.653  -0.923  -1.002  0.00  0.00    -0.275 OA
BRANCH   9  10
ATOM     10  C   UNL d   1       1.107  -0.019  -0.051  0.00  0.00     0.298 C 
ATOM     11  O   UNL d   1       2.043   0.758  -0.161  0.00  0.00    -0.259 OA
BRANCH  10  12
ATOM     12  C   UNL d   1       0.300  -0.132   1.196  0.00  0.00     0.040 A 
ATOM     13  C   UNL d   1       0.684   0.652   2.292  0.00  0.00     0.018 A 
ATOM     14  C   UNL d   1      -0.031   0.599   3.491  0.00  0.00     0.008 A 
ATOM     15  C   UNL d   1      -1.145  -0.239   3.616  0.00  0.00    -0.058 A 
ATOM     16  C   UNL d   1      -1.527  -1.026   2.520  0.00  0.00     0.008 A 
ATOM     17  C   UNL d   1      -0.808  -0.979   1.320  0.00  0.00     0.018 A 
BRANCH  15  18
ATOM     18  C   UNL d   1      -1.927  -0.269   4.909  0.00  0.00     0.038 C 
BRANCH  18  19
ATOM     19  C   UNL d   1      -2.006  -1.648   5.573  0.00  0.00     0.005 C 
BRANCH  19  20
ATOM     20  C   UNL d   1      -0.637  -2.192   5.994  0.00  0.00    -0.000 C 
BRANCH  20  21
ATOM     21  C   UNL d   1      -0.774  -3.569   6.644  0.00  0.00    -0.005 C 
ATOM     22  C   UNL d   1       0.578  -4.133   7.047  0.00  0.00     0.005 C 
ENDBRANCH  20  21
ENDBRANCH  19  20
ENDBRANCH  18  19
ENDBRANCH  15  18
ENDBRANCH  10  12
ENDBRANCH   9  10
ENDBRANCH   3   9
TORSDOF 7
