REMARK  5 active torsions:
REMARK  status: ('A' for Active; 'I' for Inactive)
REMARK    1  A    between atoms: S_14  and  C_2 
REMARK    2  A    between atoms: N_19  and  C_3 
REMARK    3  A    between atoms: C_10  and  C_21 
REMARK       I    between atoms: N_12  and  C_10 
REMARK    4  A    between atoms: C_16  and  N_12 
REMARK    5  A    between atoms: C_21  and  S_14 
ROOT
ATOM      1  C   UNL d   1       5.631   0.225  -0.039  0.00  0.00     0.231 C 
ATOM      2  N   UNL d   1       5.902  -1.131  -0.006  0.00  0.00    -0.326 N 
ATOM      3  O   UNL d   1       4.512   0.717  -0.203  0.00  0.00    -0.272 OA
ATOM      4  H   UNL d   1       6.841  -1.401   0.264  0.00  0.00     0.169 HD
ENDROOT
BRANCH   1   5
ATOM      5  C   UNL d   1       6.794   1.155   0.253  0.00  0.00     0.184 C 
BRANCH   5   6
ATOM      6  S   UNL d   1       8.383   0.582  -0.411  0.00  0.00    -0.094 SA
BRANCH   6   7
ATOM      7  C   UNL d   1       9.316   2.056  -0.222  0.00  0.00     0.130 A 
ATOM      8  S   UNL d   1      10.921   2.237  -0.790  0.00  0.00    -0.027 SA
ATOM      9  C   UNL d   1      10.868   3.853  -0.203  0.00  0.00     0.159 A 
ATOM     10  N   UNL d   1       9.728   4.172   0.365  0.00  0.00    -0.279 N 
ATOM     11  N   UNL d   1       8.827   3.128   0.361  0.00  0.00    -0.286 N 
ATOM     12  HN  UNL d   1       9.531   5.090   0.765  1.00  0.00     0.189 HD
ATOM     13  HN  UNL d   1       7.891   3.181   0.764  1.00  0.00     0.188 HD
BRANCH   9  14
ATOM     14  N   UNL d   1      11.909   4.695  -0.341  0.00  0.00    -0.379 N 
ATOM     15  H   UNL d   1      12.601   4.497  -1.054  0.00  0.00     0.158 HD
ATOM     16  H   UNL d   1      11.704   5.680  -0.221  0.00  0.00     0.158 HD
ENDBRANCH   9  14
ENDBRANCH   6   7
ENDBRANCH   5   6
ENDBRANCH   1   5
BRANCH   2  17
ATOM     17  C   UNL d   1       5.003  -2.176  -0.328  0.00  0.00     0.037 A 
ATOM     18  C   UNL d   1       3.736  -1.950  -0.880  0.00  0.00     0.069 A 
ATOM     19  C   UNL d   1       2.955  -3.041  -1.204  0.00  0.00     0.107 A 
ATOM     20  O   UNL d   1       1.720  -2.985  -1.772  0.00  0.00    -0.323 OA
ATOM     21  C   UNL d   1       3.378  -4.327  -0.988  0.00  0.00     0.105 A 
ATOM     22  C   UNL d   1       1.439  -4.387  -1.942  0.00  0.00     0.352 A 
ATOM     23  O   UNL d   1       2.460  -5.247  -1.389  0.00  0.00    -0.323 OA
ATOM     24  C   UNL d   1       4.609  -4.594  -0.433  0.00  0.00     0.042 A 
ATOM     25  C   UNL d   1       5.432  -3.504  -0.111  0.00  0.00     0.032 A 
ENDBRANCH   2  17
TORSDOF 5
