REMARK  4 active torsions:
REMARK  status: ('A' for Active; 'I' for Inactive)
REMARK    1  A    between atoms: C_16  and  C_2 
REMARK       I    between atoms: N_3  and  C_12 
REMARK    2  A    between atoms: S_15  and  C_6 
REMARK    3  A    between atoms: C_12  and  C_17 
REMARK    4  A    between atoms: C_17  and  S_15 
ROOT
ATOM      1  C   UNL d   1       2.366  -2.838  -0.003  0.00  0.00     0.186 C 
ENDROOT
BRANCH   1   2
ATOM      2  C   UNL d   1       2.787  -4.314   0.038  0.00  0.00     0.238 C 
ATOM      3  N   UNL d   1       1.816  -5.282  -0.288  0.00  0.00    -0.279 N 
ATOM      4  C   UNL d   1       0.720  -5.021  -1.176  0.00  0.00     0.059 A 
ATOM      5  C   UNL d   1       1.881  -6.626   0.238  0.00  0.00     0.059 A 
ATOM      6  C   UNL d   1      -0.566  -5.532  -0.945  0.00  0.00     0.033 A 
ATOM      7  C   UNL d   1       0.944  -4.292  -2.358  0.00  0.00     0.031 A 
ATOM      8  C   UNL d   1      -1.618  -5.215  -1.815  0.00  0.00     0.021 A 
ATOM      9  S   UNL d   1      -0.904  -6.580   0.448  0.00  0.00    -0.086 SA
ATOM     10  C   UNL d   1      -1.389  -4.435  -2.947  0.00  0.00     0.002 A 
ATOM     11  C   UNL d   1      -0.103  -3.991  -3.231  0.00  0.00     0.002 A 
ATOM     12  C   UNL d   1       0.708  -7.332   0.578  0.00  0.00     0.033 A 
ATOM     13  C   UNL d   1       0.779  -8.638   1.090  0.00  0.00     0.021 A 
ATOM     14  C   UNL d   1       2.008  -9.269   1.247  0.00  0.00     0.002 A 
ATOM     15  C   UNL d   1       3.173  -8.594   0.903  0.00  0.00     0.002 A 
ATOM     16  C   UNL d   1       3.109  -7.284   0.412  0.00  0.00     0.031 A 
ATOM     17  O   UNL d   1       3.909  -4.579   0.491  0.00  0.00    -0.272 OA
ENDBRANCH   1   2
BRANCH   1  18
ATOM     18  S   UNL d   1       1.675  -2.360   1.617  0.00  0.00    -0.083 SA
BRANCH  18  19
ATOM     19  C   UNL d   1       1.149  -0.748   1.262  0.00  0.00     0.163 C 
ATOM     20  N   UNL d   1       0.184  -0.086   1.975  0.00  0.00    -0.315 N 
ATOM     21  C   UNL d   1      -0.059   1.086   1.282  0.00  0.00     0.134 C 
ATOM     22  C   UNL d   1      -0.392  -0.529   3.219  0.00  0.00     0.160 C 
ATOM     23  N   UNL d   1       0.835   1.166   0.307  0.00  0.00    -0.283 N 
ATOM     24  N   UNL d   1       1.571   0.007   0.279  0.00  0.00    -0.278 N 
ATOM     25  HN  UNL d   1       0.956   1.960  -0.322  1.00  0.00     0.188 HD
ATOM     26  HN  UNL d   1       2.311  -0.223  -0.385  1.00  0.00     0.189 HD
BRANCH  21  27
ATOM     27  C   UNL d   1      -1.105   2.086   1.530  0.00  0.00     0.010 A 
ATOM     28  C   UNL d   1      -0.840   3.445   1.290  0.00  0.00     0.017 A 
ATOM     29  C   UNL d   1      -1.832   4.418   1.465  0.00  0.00     0.025 A 
ATOM     30  C   UNL d   1      -3.104   4.039   1.885  0.00  0.00     0.034 A 
ATOM     31  C   UNL d   1      -3.393   2.697   2.115  0.00  0.00     0.025 A 
ATOM     32 CL   UNL d   1      -4.331   5.225   2.099  0.00  0.00    -0.084 Cl
ATOM     33  C   UNL d   1      -2.404   1.726   1.919  0.00  0.00     0.017 A 
ENDBRANCH  21  27
ENDBRANCH  18  19
ENDBRANCH   1  18
TORSDOF 4
