REMARK  3 active torsions:
REMARK  status: ('A' for Active; 'I' for Inactive)
REMARK    1  A    between atoms: C_2  and  S_1 
REMARK    2  A    between atoms: C_13  and  S_1 
REMARK    3  A    between atoms: C_3  and  C_6 
ROOT
ATOM      1  C   UNL d   1       0.340  -0.793  -1.375  0.00  0.00     0.144 C 
ATOM      2  C   UNL d   1       1.271  -1.340  -0.571  0.00  0.00     0.049 C 
ATOM      3  C   UNL d   1      -1.026  -0.664  -1.028  0.00  0.00     0.112 C 
ATOM      4  N   UNL d   1      -2.140  -0.561  -0.725  0.00  0.00    -0.191 NA
ENDROOT
BRANCH   1   5
ATOM      5  S   UNL d   1       0.804  -0.308  -2.971  0.00  0.00     0.216 S 
ATOM      6  O   UNL d   1       0.051  -1.087  -3.937  0.00  0.00    -0.216 OA
ATOM      7  O   UNL d   1       2.254  -0.257  -3.074  0.00  0.00    -0.216 OA
BRANCH   5   8
ATOM      8  C   UNL d   1       0.243   1.380  -3.098  0.00  0.00     0.065 A 
ATOM      9  C   UNL d   1       1.078   2.416  -2.663  0.00  0.00     0.024 A 
ATOM     10  C   UNL d   1       0.680   3.740  -2.849  0.00  0.00     0.002 A 
ATOM     11  C   UNL d   1      -0.536   4.024  -3.471  0.00  0.00     0.000 A 
ATOM     12  C   UNL d   1      -1.363   2.987  -3.906  0.00  0.00     0.002 A 
ATOM     13  C   UNL d   1      -0.974   1.660  -3.726  0.00  0.00     0.024 A 
ENDBRANCH   5   8
ENDBRANCH   1   5
BRANCH   2  14
ATOM     14  C   UNL d   1       1.039  -1.835   0.751  0.00  0.00    -0.003 A 
ATOM     15  C   UNL d   1       1.127  -1.072   1.894  0.00  0.00     0.086 A 
ATOM     16  S   UNL d   1       0.802  -1.951   3.310  0.00  0.00    -0.065 SA
ATOM     17 CL   UNL d   1       1.510   0.602   2.019  0.00  0.00    -0.075 Cl
ATOM     18  C   UNL d   1       0.545  -3.364   2.410  0.00  0.00     0.076 A 
ATOM     19  C   UNL d   1       0.705  -3.191   1.057  0.00  0.00     0.045 A 
ATOM     20 CL   UNL d   1       0.131  -4.824   3.213  0.00  0.00    -0.076 Cl
ENDBRANCH   2  14
TORSDOF 3
