REMARK  3 active torsions:
REMARK  status: ('A' for Active; 'I' for Inactive)
REMARK    1  A    between atoms: C_13  and  N_3 
REMARK    2  A    between atoms: C_10  and  N_4 
REMARK    3  A    between atoms: C_11  and  C_7 
ROOT
ATOM      1  C   UNL d   1       0.024  -0.255  -0.311  0.00  0.00     0.242 C 
ATOM      2  S   UNL d   1      -0.654  -0.676   1.351  0.00  0.00    -0.040 SA
ATOM      3  N   UNL d   1       1.182  -1.052  -0.640  0.00  0.00    -0.270 N 
ATOM      4  N   UNL d   1      -1.148  -0.387  -1.214  0.00  0.00    -0.242 N 
ATOM      5  N   UNL d   1      -2.377  -0.170  -0.574  0.00  0.00    -0.285 N 
ATOM      6  HN  UNL d   1      -3.269   0.004  -1.039  1.00  0.00     0.188 HD
ATOM      7  C   UNL d   1      -2.190  -0.229   0.709  0.00  0.00     0.135 C 
ATOM      8  S   UNL d   1       0.608   1.472  -0.150  0.00  0.00    -0.092 SA
ATOM      9  C   UNL d   1       2.396  -0.502  -0.218  0.00  0.00     0.237 C 
ATOM     10  C   UNL d   1       2.278   0.940   0.220  0.00  0.00     0.182 C 
ATOM     11  O   UNL d   1       3.476  -1.084  -0.168  0.00  0.00    -0.272 OA
ENDROOT
BRANCH   3  12
ATOM     12  C   UNL d   1       1.135  -2.343  -1.245  0.00  0.00     0.041 A 
ATOM     13  C   UNL d   1       0.122  -3.273  -0.985  0.00  0.00     0.030 A 
ATOM     14  C   UNL d   1       0.135  -4.533  -1.597  0.00  0.00     0.002 A 
ATOM     15  C   UNL d   1       1.133  -4.865  -2.509  0.00  0.00     0.000 A 
ATOM     16  C   UNL d   1       2.132  -3.945  -2.799  0.00  0.00     0.002 A 
ATOM     17  C   UNL d   1       2.139  -2.704  -2.160  0.00  0.00     0.030 A 
ENDBRANCH   3  12
BRANCH   4  18
ATOM     18  C   UNL d   1      -1.160  -0.214  -2.604  0.00  0.00     0.055 A 
ATOM     19  C   UNL d   1      -2.217  -0.770  -3.356  0.00  0.00     0.033 A 
ATOM     20  C   UNL d   1      -2.327  -0.586  -4.741  0.00  0.00     0.026 A 
ATOM     21  C   UNL d   1      -1.385   0.186  -5.406  0.00  0.00     0.034 A 
ATOM     22  C   UNL d   1      -0.316   0.729  -4.703  0.00  0.00     0.026 A 
ATOM     23 CL   UNL d   1      -1.542   0.481  -7.092  0.00  0.00    -0.084 Cl
ATOM     24  C   UNL d   1      -0.194   0.505  -3.323  0.00  0.00     0.033 A 
ENDBRANCH   4  18
BRANCH   7  25
ATOM     25  C   UNL d   1      -3.157   0.110   1.805  0.00  0.00     0.180 C 
ATOM     26  O   UNL d   1      -2.771   0.615   2.855  0.00  0.00    -0.291 OA
ATOM     27  C   UNL d   1      -4.613  -0.100   1.517  0.00  0.00     0.099 C 
ENDBRANCH   7  25
TORSDOF 3
