REMARK  4 active torsions:
REMARK  status: ('A' for Active; 'I' for Inactive)
REMARK    1  A    between atoms: C_10  and  N_1 
REMARK    2  A    between atoms: C_12  and  N_5 
REMARK    3  A    between atoms: C_14  and  C_9 
REMARK    4  A    between atoms: C_15  and  C_10 
ROOT
ATOM      1  N   UNL d   1       1.045  -1.384   0.020  0.00  0.00    -0.288 N 
ATOM      2  C   UNL d   1      -0.146  -0.681   0.037  0.00  0.00     0.097 A 
ATOM      3  C   UNL d   1      -0.258   0.678   0.002  0.00  0.00     0.068 A 
ATOM      4  C   UNL d   1       2.234  -0.641  -0.053  0.00  0.00     0.337 A 
ATOM      5  N   UNL d   1       2.135   0.771  -0.045  0.00  0.00    -0.229 N 
ATOM      6  C   UNL d   1       0.932   1.498  -0.036  0.00  0.00     0.269 A 
ATOM      7  S   UNL d   1      -1.642  -1.457   0.121  0.00  0.00    -0.070 SA
ATOM      8  C   UNL d   1      -1.628   1.093   0.016  0.00  0.00     0.039 A 
ATOM      9  C   UNL d   1      -2.510   0.025   0.028  0.00  0.00     0.018 A 
ATOM     10  O   UNL d   1       3.316  -1.232  -0.155  0.00  0.00    -0.246 OA
ATOM     11  O   UNL d   1       0.829   2.720  -0.007  0.00  0.00    -0.266 OA
ENDROOT
BRANCH   1  12
ATOM     12  C   UNL d   1       1.157  -2.851   0.020  0.00  0.00     0.173 C 
BRANCH  12  13
ATOM     13  C   UNL d   1       0.967  -3.471  -1.351  0.00  0.00    -0.040 A 
ATOM     14  C   UNL d   1       1.921  -3.279  -2.364  0.00  0.00     0.012 A 
ATOM     15  C   UNL d   1       1.732  -3.830  -3.633  0.00  0.00     0.043 A 
ATOM     16  C   UNL d   1       0.593  -4.581  -3.891  0.00  0.00     0.116 A 
ATOM     17  C   UNL d   1      -0.353  -4.805  -2.899  0.00  0.00     0.043 A 
ATOM     18  F   UNL d   1       0.405  -5.098  -5.112  0.00  0.00    -0.206 F 
ATOM     19  C   UNL d   1      -0.165  -4.256  -1.629  0.00  0.00     0.012 A 
ENDBRANCH  12  13
ENDBRANCH   1  12
BRANCH   5  20
ATOM     20  C   UNL d   1       3.368   1.519  -0.051  0.00  0.00     0.047 A 
ATOM     21  C   UNL d   1       3.553   2.609  -0.914  0.00  0.00     0.030 A 
ATOM     22  C   UNL d   1       4.767   3.303  -0.935  0.00  0.00     0.002 A 
ATOM     23  C   UNL d   1       5.800   2.934  -0.076  0.00  0.00     0.000 A 
ATOM     24  C   UNL d   1       5.624   1.869   0.801  0.00  0.00     0.002 A 
ATOM     25  C   UNL d   1       4.420   1.161   0.808  0.00  0.00     0.030 A 
ENDBRANCH   5  20
BRANCH   9  26
ATOM     26  C   UNL d   1      -3.983   0.024   0.004  0.00  0.00    -0.019 A 
ATOM     27  C   UNL d   1      -4.706   1.061   0.614  0.00  0.00     0.013 A 
ATOM     28  C   UNL d   1      -6.105   1.068   0.594  0.00  0.00     0.001 A 
ATOM     29  C   UNL d   1      -6.802   0.041  -0.037  0.00  0.00     0.000 A 
ATOM     30  C   UNL d   1      -6.103  -0.992  -0.654  0.00  0.00     0.001 A 
ATOM     31  C   UNL d   1      -4.706  -0.996  -0.638  0.00  0.00     0.013 A 
ENDBRANCH   9  26
TORSDOF 4
