REMARK  5 active torsions:
REMARK  status: ('A' for Active; 'I' for Inactive)
REMARK    1  A    between atoms: O_9  and  C_1 
REMARK    2  A    between atoms: C_7  and  C_8 
REMARK    3  A    between atoms: C_10  and  C_7 
REMARK    4  A    between atoms: C_8  and  O_9 
REMARK    5  A    between atoms: O_23  and  N_11 
ROOT
ATOM      1  C   UNL d   1       3.815  -4.248   0.243  0.00  0.00     0.320 C 
ATOM      2  O   UNL d   1       4.964  -3.846   0.198  0.00  0.00    -0.257 OA
ENDROOT
BRANCH   1   3
ATOM      3  C   UNL d   1       2.584  -3.373  -0.081  0.00  0.00     0.163 C 
ATOM      4  N   UNL d   1       2.796  -2.107  -0.313  0.00  0.00    -0.259 N 
ATOM      5  HN  UNL d   1       3.702  -1.650  -0.212  1.00  0.00     0.194 HD
BRANCH   3   6
ATOM      6  C   UNL d   1       1.291  -4.032  -0.104  0.00  0.00     0.109 A 
ATOM      7  O   UNL d   1       0.245  -3.435   0.556  0.00  0.00    -0.320 OA
ATOM      8  C   UNL d   1      -0.837  -4.242   0.425  0.00  0.00     0.142 A 
ATOM      9  C   UNL d   1      -0.517  -5.363  -0.300  0.00  0.00     0.027 A 
ATOM     10  C   UNL d   1       0.848  -5.224  -0.651  0.00  0.00     0.041 A 
ENDBRANCH   3   6
BRANCH   4  11
ATOM     11  O   UNL d   1       1.621  -1.450  -0.719  0.00  0.00    -0.285 OA
ATOM     12  C   UNL d   1       1.873  -0.056  -0.827  0.00  0.00     0.237 C 
ENDBRANCH   4  11
ENDBRANCH   1   3
BRANCH   1  13
ATOM     13  O   UNL d   1       3.419  -5.528   0.564  0.00  0.00    -0.270 OA
BRANCH  13  14
ATOM     14  C   UNL d   1       4.480  -6.436   0.740  0.00  0.00     0.126 A 
ATOM     15  C   UNL d   1       4.957  -6.684   2.034  0.00  0.00     0.093 A 
ATOM     16  C   UNL d   1       5.932  -7.673   2.231  0.00  0.00     0.082 A 
ATOM     17 CL   UNL d   1       4.292  -5.778   3.356  0.00  0.00    -0.079 Cl
ATOM     18 CL   UNL d   1       6.518  -8.001   3.837  0.00  0.00    -0.081 Cl
ATOM     19  C   UNL d   1       6.413  -8.414   1.131  0.00  0.00     0.081 A 
ATOM     20  C   UNL d   1       5.921  -8.161  -0.166  0.00  0.00     0.082 A 
ATOM     21 CL   UNL d   1       7.599  -9.666   1.379  0.00  0.00    -0.081 Cl
ATOM     22  C   UNL d   1       4.948  -7.169  -0.361  0.00  0.00     0.093 A 
ATOM     23 CL   UNL d   1       6.490  -9.092  -1.522  0.00  0.00    -0.081 Cl
ATOM     24 CL   UNL d   1       4.277  -6.850  -1.929  0.00  0.00    -0.079 Cl
ENDBRANCH  13  14
ENDBRANCH   1  13
TORSDOF 5
