REMARK  9 active torsions:
REMARK  status: ('A' for Active; 'I' for Inactive)
REMARK    1  A    between atoms: N_7  and  C_1 
REMARK    2  A    between atoms: N_3  and  C_20 
REMARK    3  A    between atoms: C_24  and  C_6 
REMARK       I    between atoms: C_16  and  N_7 
REMARK    4  A    between atoms: S_32  and  C_8 
REMARK    5  A    between atoms: C_23  and  C_16 
REMARK    6  A    between atoms: C_17  and  C_21 
REMARK    7  A    between atoms: C_18  and  C_22 
REMARK    8  A    between atoms: C_19  and  C_36 
REMARK    9  A    between atoms: C_36  and  S_32 
ROOT
ATOM      1  C   UNL d   1       0.039   1.142   0.112  0.00  0.00     0.168 A 
ATOM      2  S   UNL d   1       1.193  -0.102   0.252  0.00  0.00    -0.026 SA
ATOM      3  C   UNL d   1      -0.087  -1.217   0.049  0.00  0.00     0.130 A 
ATOM      4  N   UNL d   1      -1.201   0.719  -0.010  0.00  0.00    -0.278 N 
ATOM      5  HN  UNL d   1      -2.012   1.336  -0.063  1.00  0.00     0.189 HD
ATOM      6  N   UNL d   1      -1.276  -0.662  -0.057  0.00  0.00    -0.286 N 
ATOM      7  HN  UNL d   1      -2.145  -1.186  -0.162  1.00  0.00     0.188 HD
ENDROOT
BRANCH   3   8
ATOM      8  S   UNL d   1       0.164  -2.945   0.006  0.00  0.00    -0.095 SA
BRANCH   8   9
ATOM      9  C   UNL d   1      -1.171  -3.467  -1.107  0.00  0.00     0.167 C 
BRANCH   9  10
ATOM     10  C   UNL d   1      -0.972  -3.001  -2.498  0.00  0.00     0.150 A 
ATOM     11  O   UNL d   1      -1.619  -1.855  -2.882  0.00  0.00    -0.277 OA
ATOM     12  C   UNL d   1      -1.226  -1.733  -4.189  0.00  0.00     0.174 A 
ATOM     13  N   UNL d   1      -0.434  -2.715  -4.569  0.00  0.00    -0.277 N 
ATOM     14  N   UNL d   1      -0.270  -3.539  -3.475  0.00  0.00    -0.281 N 
ATOM     15  HN  UNL d   1      -0.022  -2.842  -5.494  1.00  0.00     0.189 HD
ATOM     16  HN  UNL d   1       0.284  -4.394  -3.431  1.00  0.00     0.189 HD
BRANCH  12  17
ATOM     17  C   UNL d   1      -1.721  -0.583  -4.937  0.00  0.00     0.017 A 
ATOM     18  C   UNL d   1      -2.550   0.390  -4.351  0.00  0.00     0.025 A 
ATOM     19  C   UNL d   1      -3.019   1.513  -5.070  0.00  0.00    -0.028 A 
ATOM     20  C   UNL d   1      -3.897   2.490  -4.334  0.00  0.00     0.050 C 
ATOM     21  C   UNL d   1      -2.631   1.647  -6.422  0.00  0.00     0.108 A 
ATOM     22  C   UNL d   1      -1.808   0.674  -7.016  0.00  0.00     0.037 A 
ATOM     23  C   UNL d   1      -1.359  -0.425  -6.279  0.00  0.00     0.018 A 
BRANCH  21  24
ATOM     24  N   UNL d   1      -3.050   2.787  -7.270  0.00  0.00    -0.115 N 
ATOM     25  O   UNL d   1      -3.768   3.667  -6.782  0.00  0.00    -0.532 OA
ATOM     26  O   UNL d   1      -2.648   2.803  -8.444  0.00  0.00    -0.532 OA
ENDBRANCH  21  24
ENDBRANCH  12  17
ENDBRANCH   9  10
ENDBRANCH   8   9
ENDBRANCH   3   8
BRANCH   1  27
ATOM     27  N   UNL d   1       0.357   2.480   0.163  0.00  0.00    -0.302 N 
ATOM     28  C   UNL d   1       1.624   3.015   0.090  0.00  0.00     0.257 C 
ATOM     29  O   UNL d   1       2.668   2.403  -0.096  0.00  0.00    -0.267 OA
ATOM     30  H   UNL d   1      -0.455   3.080   0.122  0.00  0.00     0.171 HD
BRANCH  28  31
ATOM     31  C   UNL d   1       1.702   4.504   0.194  0.00  0.00     0.034 A 
ATOM     32  C   UNL d   1       0.779   5.249   0.940  0.00  0.00     0.033 A 
ATOM     33  C   UNL d   1       0.886   6.649   1.017  0.00  0.00     0.049 A 
ATOM     34  C   UNL d   1       1.951   7.292   0.364  0.00  0.00     0.032 A 
ATOM     35  C   UNL d   1       2.902   6.559  -0.364  0.00  0.00     0.049 A 
ATOM     36  C   UNL d   1       2.762   5.164  -0.448  0.00  0.00     0.033 A 
BRANCH  33  37
ATOM     37  C   UNL d   1      -0.140   7.437   1.800  0.00  0.00     0.417 C 
ATOM     38  F   UNL d   1       0.038   8.784   1.734  0.00  0.00    -0.166 F 
ATOM     39  F   UNL d   1      -1.405   7.200   1.356  0.00  0.00    -0.166 F 
ATOM     40  F   UNL d   1      -0.139   7.116   3.121  0.00  0.00    -0.166 F 
ENDBRANCH  33  37
BRANCH  35  41
ATOM     41  C   UNL d   1       4.064   7.246  -1.048  0.00  0.00     0.417 C 
ATOM     42  F   UNL d   1       4.085   8.593  -0.847  0.00  0.00    -0.166 F 
ATOM     43  F   UNL d   1       5.268   6.785  -0.616  0.00  0.00    -0.166 F 
ATOM     44  F   UNL d   1       4.049   7.070  -2.397  0.00  0.00    -0.166 F 
ENDBRANCH  35  41
ENDBRANCH  28  31
ENDBRANCH   1  27
TORSDOF 9
