REMARK  5 active torsions:
REMARK  status: ('A' for Active; 'I' for Inactive)
REMARK    1  A    between atoms: C_2  and  C_1 
REMARK    2  A    between atoms: C_6  and  C_5 
REMARK    3  A    between atoms: C_10  and  C_6 
REMARK    4  A    between atoms: S_12  and  C_7 
REMARK    5  A    between atoms: C_8  and  S_12 
ROOT
ATOM      1  S   UNL d   1      -0.917   0.633   5.845  0.00  0.00    -0.084 SA
ENDROOT
BRANCH   1   2
ATOM      2  C   UNL d   1      -1.313  -0.929   6.482  0.00  0.00     0.056 C 
ATOM      3  C   UNL d   1      -1.510  -1.116   7.794  0.00  0.00     0.063 C 
BRANCH   3   4
ATOM      4  C   UNL d   1      -1.852  -2.472   8.290  0.00  0.00     0.182 C 
ATOM      5  O   UNL d   1      -2.350  -3.323   7.560  0.00  0.00    -0.288 OA
BRANCH   4   6
ATOM      6  C   UNL d   1      -1.614  -2.767   9.728  0.00  0.00     0.014 A 
ATOM      7  C   UNL d   1      -2.430  -3.720  10.355  0.00  0.00     0.017 A 
ATOM      8  C   UNL d   1      -2.218  -4.058  11.695  0.00  0.00     0.025 A 
ATOM      9  C   UNL d   1      -1.184  -3.452  12.406  0.00  0.00     0.034 A 
ATOM     10  C   UNL d   1      -0.361  -2.509  11.789  0.00  0.00     0.025 A 
ATOM     11 CL   UNL d   1      -0.910  -3.880  14.049  0.00  0.00    -0.084 Cl
ATOM     12  C   UNL d   1      -0.573  -2.167  10.449  0.00  0.00     0.017 A 
ENDBRANCH   4   6
ENDBRANCH   3   4
ENDBRANCH   1   2
BRANCH   1  13
ATOM     13  C   UNL d   1       0.634   0.262   5.037  0.00  0.00     0.073 A 
ATOM     14  C   UNL d   1       1.036   1.034   3.954  0.00  0.00     0.038 A 
ATOM     15  C   UNL d   1       2.269   0.767   3.358  0.00  0.00     0.020 A 
ATOM     16  C   UNL d   1       3.073  -0.261   3.860  0.00  0.00     0.063 A 
ATOM     17  C   UNL d   1       2.590  -0.974   4.946  0.00  0.00     0.105 A 
ATOM     18  N   UNL d   1       1.400  -0.733   5.543  0.00  0.00    -0.360 N 
ATOM     19  HN  UNL d   1       1.092  -1.281   6.345  1.00  0.00     0.166 HD
BRANCH  16  20
ATOM     20  C   UNL d   1       4.408  -0.582   3.261  0.00  0.00     0.418 C 
ATOM     21  F   UNL d   1       5.038  -1.628   3.863  0.00  0.00    -0.166 F 
ATOM     22  F   UNL d   1       5.275   0.465   3.332  0.00  0.00    -0.166 F 
ATOM     23  F   UNL d   1       4.323  -0.907   1.942  0.00  0.00    -0.166 F 
ENDBRANCH  16  20
ENDBRANCH   1  13
TORSDOF 5
