REMARK  3 active torsions:
REMARK  status: ('A' for Active; 'I' for Inactive)
REMARK    1  A    between atoms: N_11  and  N_6 
REMARK    2  A    between atoms: C_17  and  C_9 
REMARK    3  A    between atoms: C_14  and  C_13 
ROOT
ATOM      1  C   UNL d   1      -0.224   0.644  -0.017  0.00  0.00     0.069 A 
ATOM      2  C   UNL d   1      -0.079  -0.721  -0.040  0.00  0.00     0.091 A 
ATOM      3  C   UNL d   1       0.965   1.472   0.009  0.00  0.00     0.280 C 
ATOM      4  N   UNL d   1       1.090  -1.410  -0.044  0.00  0.00    -0.344 N 
ATOM      5  HN  UNL d   1       1.136  -2.427  -0.110  1.00  0.00     0.167 HD
ATOM      6  N   UNL d   1       2.153   0.728   0.142  0.00  0.00    -0.215 N 
ATOM      7  C   UNL d   1      -1.589   1.054  -0.020  0.00  0.00     0.040 A 
ATOM      8  S   UNL d   1      -1.589  -1.506  -0.065  0.00  0.00    -0.071 SA
ATOM      9  C   UNL d   1      -2.460  -0.021  -0.007  0.00  0.00     0.018 A 
ATOM     10  C   UNL d   1       2.144  -0.658   0.045  0.00  0.00     0.211 C 
ATOM     11  O   UNL d   1       0.891   2.695  -0.095  0.00  0.00    -0.265 OA
ENDROOT
BRANCH   6  12
ATOM     12  N   UNL d   1       3.412   1.317   0.214  0.00  0.00    -0.299 N 
ATOM     13  C   UNL d   1       3.500   2.469   0.803  0.00  0.00     0.145 C 
ATOM     14  HN  UNL d   1       4.234   0.861  -0.181  1.00  0.00     0.186 HD
BRANCH  13  15
ATOM     15  C   UNL d   1       4.750   3.168   0.873  0.00  0.00     0.091 A 
ATOM     16  O   UNL d   1       4.774   4.350   1.560  0.00  0.00    -0.321 OA
ATOM     17  C   UNL d   1       6.045   4.822   1.503  0.00  0.00     0.142 A 
ATOM     18  C   UNL d   1       6.844   3.961   0.790  0.00  0.00     0.027 A 
ATOM     19  C   UNL d   1       6.009   2.895   0.378  0.00  0.00     0.040 A 
ENDBRANCH  13  15
ENDBRANCH   6  12
BRANCH   9  20
ATOM     20  C   UNL d   1      -3.930  -0.006   0.037  0.00  0.00    -0.019 A 
ATOM     21  C   UNL d   1      -4.646   1.012  -0.615  0.00  0.00     0.013 A 
ATOM     22  C   UNL d   1      -6.041   1.062  -0.550  0.00  0.00     0.001 A 
ATOM     23  C   UNL d   1      -6.741   0.098   0.171  0.00  0.00     0.000 A 
ATOM     24  C   UNL d   1      -6.048  -0.917   0.825  0.00  0.00     0.001 A 
ATOM     25  C   UNL d   1      -4.654  -0.967   0.758  0.00  0.00     0.013 A 
ENDBRANCH   9  20
TORSDOF 3
