REMARK  4 active torsions:
REMARK  status: ('A' for Active; 'I' for Inactive)
REMARK    1  A    between atoms: N_2  and  C_1 
REMARK    2  A    between atoms: S_9  and  C_3 
REMARK    3  A    between atoms: N_7  and  C_5 
REMARK    4  A    between atoms: C_11  and  S_9 
ROOT
ATOM      1  C   UNL d   1       1.772  -1.218   0.079  0.00  0.00     0.121 A 
ATOM      2  C   UNL d   1       2.468  -0.011  -0.013  0.00  0.00     0.042 A 
ATOM      3  C   UNL d   1       0.372  -1.264   0.126  0.00  0.00     0.063 A 
ATOM      4  C   UNL d   1       0.295   1.158  -0.002  0.00  0.00     0.061 A 
ATOM      5  C   UNL d   1       1.709   1.173  -0.061  0.00  0.00     0.053 A 
ATOM      6  C   UNL d   1      -0.369  -0.079   0.078  0.00  0.00     0.063 A 
ATOM      7 CL   UNL d   1      -2.082  -0.294  -0.052  0.00  0.00    -0.082 Cl
ENDROOT
BRANCH   2   8
ATOM      8  S   UNL d   1       4.246   0.138  -0.103  0.00  0.00    -0.070 SA
BRANCH   8   9
ATOM      9  C   UNL d   1       4.728   0.264   1.614  0.00  0.00     0.074 A 
ATOM     10  N   UNL d   1       3.764   0.259   2.562  0.00  0.00    -0.360 N 
ATOM     11  C   UNL d   1       4.170   0.374   3.849  0.00  0.00     0.089 A 
ATOM     12  HN  UNL d   1       2.777   0.173   2.320  1.00  0.00     0.166 HD
ATOM     13  C   UNL d   1       5.494   0.494   4.239  0.00  0.00     0.017 A 
ATOM     14  C   UNL d   1       6.467   0.491   3.251  0.00  0.00     0.004 A 
ATOM     15  C   UNL d   1       6.083   0.372   1.917  0.00  0.00     0.037 A 
ENDBRANCH   8   9
ENDBRANCH   2   8
BRANCH   1  16
ATOM     16  N   UNL d   1       2.463  -2.492   0.072  0.00  0.00    -0.114 N 
ATOM     17  O   UNL d   1       3.127  -2.774  -0.935  0.00  0.00    -0.532 OA
ATOM     18  O   UNL d   1       2.269  -3.241   1.038  0.00  0.00    -0.532 OA
ENDBRANCH   1  16
BRANCH   4  19
ATOM     19  N   UNL d   1      -0.387   2.413  -0.028  0.00  0.00    -0.331 N 
ATOM     20  C   UNL d   1      -1.577   2.736   0.594  0.00  0.00     0.096 A 
ATOM     21  C   UNL d   1      -1.908   4.041   0.303  0.00  0.00     0.019 A 
ATOM     22  C   UNL d   1      -0.870   4.566  -0.489  0.00  0.00     0.019 A 
ATOM     23  C   UNL d   1       0.063   3.564  -0.653  0.00  0.00     0.096 A 
ENDBRANCH   4  19
TORSDOF 4
