REMARK  2 active torsions:
REMARK  status: ('A' for Active; 'I' for Inactive)
REMARK    1  A    between atoms: C_8  and  N_1 
REMARK    2  A    between atoms: N_14  and  C_2 
ROOT
ATOM      1  C   UNL d   1      -0.697  -4.732  -3.375  0.00  0.00     0.143 A 
ATOM      2  N   UNL d   1      -1.322  -3.603  -3.591  0.00  0.00    -0.336 N 
ATOM      3  HN  UNL d   1      -2.068  -3.470  -4.274  1.00  0.00     0.168 HD
ATOM      4  S   UNL d   1       0.554  -4.676  -2.204  0.00  0.00    -0.052 SA
ATOM      5  C   UNL d   1       0.215  -3.012  -1.918  0.00  0.00     0.037 A 
ATOM      6  C   UNL d   1      -0.827  -2.616  -2.759  0.00  0.00     0.051 A 
ATOM      7  C   UNL d   1       0.351  -0.806  -0.971  0.00  0.00     0.104 A 
ATOM      8  C   UNL d   1       0.828  -2.127  -1.012  0.00  0.00     0.057 A 
ATOM      9  C   UNL d   1      -1.282  -1.282  -2.696  0.00  0.00     0.033 A 
ATOM     10  C   UNL d   1      -0.693  -0.382  -1.800  0.00  0.00     0.038 A 
ENDROOT
BRANCH   1  11
ATOM     11  N   UNL d   1      -0.994  -5.869  -4.021  0.00  0.00    -0.380 N 
ATOM     12  H   UNL d   1      -0.321  -6.625  -4.029  0.00  0.00     0.158 HD
ATOM     13  H   UNL d   1      -1.558  -5.784  -4.859  0.00  0.00     0.158 HD
ENDBRANCH   1  11
BRANCH   7  14
ATOM     14  N   UNL d   1       0.968   0.148  -0.038  0.00  0.00    -0.116 N 
ATOM     15  O   UNL d   1       1.897  -0.262   0.673  0.00  0.00    -0.532 OA
ATOM     16  O   UNL d   1       0.522   1.303  -0.016  0.00  0.00    -0.532 OA
ENDBRANCH   7  14
TORSDOF 2
