REMARK  2 active torsions:
REMARK  status: ('A' for Active; 'I' for Inactive)
REMARK    1  A    between atoms: C_2  and  C_1 
REMARK       I    between atoms: N_3  and  C_1 
REMARK    2  A    between atoms: C_7  and  N_3 
ROOT
ATOM      1  C   UNL d   1       0.314   1.290  -0.387  0.00  0.00     0.043 A 
ATOM      2  C   UNL d   1      -0.823   1.891   0.231  0.00  0.00    -0.010 A 
ATOM      3  C   UNL d   1      -1.510   2.901  -0.495  0.00  0.00    -0.025 A 
ATOM      4  C   UNL d   1       0.777   1.746  -1.634  0.00  0.00     0.018 A 
ATOM      5  C   UNL d   1      -1.308   1.584   1.527  0.00  0.00     0.013 A 
ATOM      6  C   UNL d   1       0.113   2.764  -2.306  0.00  0.00     0.002 A 
ATOM      7  C   UNL d   1      -1.032   3.324  -1.745  0.00  0.00     0.012 A 
ATOM      8  C   UNL d   1      -2.667   3.490   0.037  0.00  0.00     0.012 A 
ATOM      9  C   UNL d   1      -2.464   2.178   2.041  0.00  0.00     0.001 A 
ATOM     10  C   UNL d   1      -3.153   3.118   1.290  0.00  0.00     0.001 A 
ENDROOT
BRANCH   1  11
ATOM     11  C   UNL d   1       1.088   0.153   0.197  0.00  0.00     0.257 C 
ATOM     12  N   UNL d   1       0.327  -0.880   0.714  0.00  0.00    -0.323 N 
ATOM     13  H   UNL d   1      -0.679  -0.777   0.670  0.00  0.00     0.169 HD
ATOM     14  O   UNL d   1       2.311   0.198   0.128  0.00  0.00    -0.267 OA
BRANCH  12  15
ATOM     15  C   UNL d   1       0.793  -2.086   1.282  0.00  0.00     0.035 A 
ATOM     16  C   UNL d   1       2.131  -2.484   1.276  0.00  0.00     0.029 A 
ATOM     17  C   UNL d   1       2.508  -3.716   1.823  0.00  0.00     0.002 A 
ATOM     18  C   UNL d   1       1.554  -4.552   2.396  0.00  0.00     0.000 A 
ATOM     19  C   UNL d   1       0.219  -4.156   2.425  0.00  0.00     0.002 A 
ATOM     20  C   UNL d   1      -0.160  -2.932   1.865  0.00  0.00     0.029 A 
ENDBRANCH  12  15
ENDBRANCH   1  11
TORSDOF 2
