REMARK  3 active torsions:
REMARK  status: ('A' for Active; 'I' for Inactive)
REMARK    1  A    between atoms: N_2  and  S_1 
REMARK    2  A    between atoms: C_4  and  S_1 
REMARK       I    between atoms: C_7  and  N_8 
REMARK    3  A    between atoms: N_8  and  C_14 
ROOT
ATOM      1  S   UNL d   1       0.992   0.071   0.087  0.00  0.00     0.265 S 
ATOM      2  O   UNL d   1       0.446   0.749   1.246  0.00  0.00    -0.200 OA
ATOM      3  O   UNL d   1       2.424   0.083  -0.146  0.00  0.00    -0.200 OA
ENDROOT
BRANCH   1   4
ATOM      4  N   UNL d   1       0.231   0.595  -1.366  0.00  0.00    -0.271 N 
ATOM      5  C   UNL d   1      -1.186   0.903  -1.372  0.00  0.00     0.051 A 
ATOM      6  C   UNL d   1      -2.019   0.399  -2.389  0.00  0.00    -0.031 A 
ATOM      7  C   UNL d   1      -1.742   1.762  -0.417  0.00  0.00     0.031 A 
ATOM      8  C   UNL d   1      -3.389   0.718  -2.395  0.00  0.00     0.009 A 
ATOM      9  C   UNL d   1      -1.475  -0.414  -3.533  0.00  0.00     0.042 C 
ATOM     10  C   UNL d   1      -3.933   1.533  -1.406  0.00  0.00     0.001 A 
ATOM     11  C   UNL d   1      -3.107   2.062  -0.421  0.00  0.00     0.002 A 
ATOM     12  C   UNL d   1      -0.106  -1.000  -3.235  0.00  0.00     0.026 C 
ATOM     13  C   UNL d   1       0.803   0.057  -2.628  0.00  0.00     0.142 C 
ENDBRANCH   1   4
BRANCH   1  14
ATOM     14  C   UNL d   1       0.508  -1.638   0.232  0.00  0.00     0.080 A 
ATOM     15  C   UNL d   1       1.466  -2.655   0.202  0.00  0.00     0.027 A 
ATOM     16  C   UNL d   1       1.058  -3.995   0.281  0.00  0.00     0.031 A 
ATOM     17  C   UNL d   1      -0.302  -4.322   0.385  0.00  0.00     0.034 A 
ATOM     18  C   UNL d   1      -1.238  -3.286   0.457  0.00  0.00     0.031 A 
ATOM     19  C   UNL d   1      -0.839  -1.950   0.395  0.00  0.00     0.027 A 
BRANCH  17  20
ATOM     20  N   UNL d   1      -0.661  -5.690   0.405  0.00  0.00    -0.328 N 
ATOM     21  C   UNL d   1      -1.948  -6.205   0.427  0.00  0.00     0.218 C 
ATOM     22  O   UNL d   1      -2.995  -5.564   0.447  0.00  0.00    -0.274 OA
ATOM     23  C   UNL d   1      -2.007  -7.710   0.406  0.00  0.00     0.117 C 
ATOM     24  H   UNL d   1       0.102  -6.352   0.366  0.00  0.00     0.169 HD
ENDBRANCH  17  20
ENDBRANCH   1  14
TORSDOF 3
