REMARK  7 active torsions:
REMARK  status: ('A' for Active; 'I' for Inactive)
REMARK    1  A    between atoms: C_9  and  N_1 
REMARK    2  A    between atoms: C_4  and  C_10 
REMARK    3  A    between atoms: C_21  and  C_8 
REMARK    4  A    between atoms: C_12  and  S_15 
REMARK    5  A    between atoms: S_15  and  C_21 
REMARK    6  A    between atoms: O_25  and  C_19 
REMARK    7  A    between atoms: O_26  and  C_23 
ROOT
ATOM      1  N   UNL d   1      -1.682  -1.415   5.561  0.00  0.00    -0.277 N 
ATOM      2  HN  UNL d   1      -1.204  -0.537   5.767  1.00  0.00     0.189 HD
ATOM      3  C   UNL d   1      -2.095  -1.826   4.379  0.00  0.00     0.174 A 
ATOM      4  O   UNL d   1      -2.718  -3.052   4.441  0.00  0.00    -0.277 OA
ATOM      5  N   UNL d   1      -2.018  -2.396   6.465  0.00  0.00    -0.281 N 
ATOM      6  HN  UNL d   1      -1.838  -2.385   7.469  1.00  0.00     0.189 HD
ATOM      7  C   UNL d   1      -2.617  -3.352   5.782  0.00  0.00     0.150 A 
ENDROOT
BRANCH   7   8
ATOM      8  C   UNL d   1      -3.198  -4.614   6.321  0.00  0.00     0.165 C 
BRANCH   8   9
ATOM      9  S   UNL d   1      -3.218  -6.003   5.148  0.00  0.00    -0.119 SA
BRANCH   9  10
ATOM     10  C   UNL d   1      -3.611  -7.342   6.286  0.00  0.00     0.036 A 
ATOM     11  C   UNL d   1      -2.501  -7.983   6.881  0.00  0.00     0.058 A 
ATOM     12  C   UNL d   1      -2.671  -9.016   7.810  0.00  0.00     0.069 A 
ATOM     13  C   UNL d   1      -3.955  -9.436   8.131  0.00  0.00     0.039 A 
ATOM     14  C   UNL d   1      -5.064  -8.816   7.548  0.00  0.00     0.041 A 
ATOM     15  C   UNL d   1      -4.904  -7.775   6.622  0.00  0.00     0.085 A 
BRANCH  12  16
ATOM     16  O   UNL d   1      -1.675  -9.680   8.472  0.00  0.00    -0.356 OA
ATOM     17  C   UNL d   1      -0.337  -9.280   8.210  0.00  0.00     0.210 C 
ENDBRANCH  12  16
BRANCH  15  18
ATOM     18  O   UNL d   1      -6.093  -7.211   6.243  0.00  0.00    -0.355 OA
ATOM     19  C   UNL d   1      -6.285  -6.949   4.859  0.00  0.00     0.210 C 
ENDBRANCH  15  18
ENDBRANCH   9  10
ENDBRANCH   8   9
ENDBRANCH   7   8
BRANCH   3  20
ATOM     20  C   UNL d   1      -1.954  -1.174   3.080  0.00  0.00     0.017 A 
ATOM     21  C   UNL d   1      -2.419  -1.755   1.893  0.00  0.00     0.018 A 
ATOM     22  C   UNL d   1      -2.236  -1.109   0.665  0.00  0.00     0.037 A 
ATOM     23  C   UNL d   1      -1.586   0.130   0.623  0.00  0.00     0.108 A 
ATOM     24  C   UNL d   1      -1.102   0.751   1.783  0.00  0.00    -0.028 A 
ATOM     25  C   UNL d   1      -1.306   0.079   3.006  0.00  0.00     0.025 A 
ATOM     26  C   UNL d   1      -0.344   2.051   1.812  0.00  0.00     0.050 C 
BRANCH  23  27
ATOM     27  N   UNL d   1      -1.419   0.743  -0.684  0.00  0.00    -0.115 N 
ATOM     28  O   UNL d   1      -1.970   1.835  -0.874  0.00  0.00    -0.532 OA
ATOM     29  O   UNL d   1      -0.767   0.107  -1.524  0.00  0.00    -0.532 OA
ENDBRANCH  23  27
ENDBRANCH   3  20
TORSDOF 7
