REMARK  2 active torsions:
REMARK  status: ('A' for Active; 'I' for Inactive)
REMARK    1  A    between atoms: C_2  and  C_1 
REMARK    2  A    between atoms: O_6  and  C_2 
ROOT
ATOM      1  C   UNL d   1      -1.343   0.790  -0.018  0.00  0.00     0.092 A 
ATOM      2  C   UNL d   1      -0.463  -0.304  -0.024  0.00  0.00     0.026 A 
ATOM      3  C   UNL d   1      -2.718   0.525  -0.002  0.00  0.00     0.134 A 
ATOM      4  F   UNL d   1      -3.603   1.535   0.030  0.00  0.00    -0.205 F 
ATOM      5  I   UNL d   1       1.637  -0.163   0.029  0.00  0.00    -0.043 I 
ATOM      6  C   UNL d   1      -2.344  -1.850  -0.000  0.00  0.00     0.004 A 
ATOM      7  C   UNL d   1      -3.223  -0.774   0.008  0.00  0.00     0.043 A 
ATOM      8  C   UNL d   1      -0.970  -1.616  -0.014  0.00  0.00     0.019 A 
ENDROOT
BRANCH   1   9
ATOM      9  C   UNL d   1      -0.893   2.209  -0.069  0.00  0.00     0.180 C 
ATOM     10  O   UNL d   1       0.114   2.580  -0.644  0.00  0.00    -0.646 OA
BRANCH   9  11
ATOM     11  O   UNL d   1      -1.688   3.080   0.594  0.00  0.00    -0.773 OA
ATOM     12  H   UNL d   1      -2.542   2.727   0.911  0.00  0.00     0.167 HD
ENDBRANCH   9  11
ENDBRANCH   1   9
TORSDOF 2
