REMARK  3 active torsions:
REMARK  status: ('A' for Active; 'I' for Inactive)
REMARK    1  A    between atoms: C_2  and  C_1 
REMARK       I    between atoms: N_3  and  C_1 
REMARK    2  A    between atoms: C_5  and  N_4 
REMARK    3  A    between atoms: O_16  and  C_13 
ROOT
ATOM      1  C   UNL d   1       0.920  -0.060  -0.192  0.00  0.00     0.260 C 
ATOM      2  N   UNL d   1       0.577   0.361   1.101  0.00  0.00    -0.345 N 
ATOM      3  N   UNL d   1      -0.359   1.619   3.520  0.00  0.00    -0.376 N 
ATOM      4  O   UNL d   1       1.716   0.544  -0.908  0.00  0.00    -0.267 OA
ATOM      5  C   UNL d   1       1.112   1.664   1.535  0.00  0.00     0.146 C 
ATOM      6  C   UNL d   1      -0.670  -0.055   1.753  0.00  0.00     0.146 C 
ATOM      7  C   UNL d   1       1.011   1.919   3.061  0.00  0.00     0.143 C 
ATOM      8  C   UNL d   1      -0.734   0.224   3.257  0.00  0.00     0.143 C 
ENDROOT
BRANCH   1   9
ATOM      9  C   UNL d   1       0.375  -1.328  -0.706  0.00  0.00     0.109 A 
ATOM     10  C   UNL d   1      -0.981  -1.512  -0.970  0.00  0.00     0.135 A 
ATOM     11  F   UNL d   1      -1.857  -0.510  -0.817  0.00  0.00    -0.205 F 
ATOM     12  C   UNL d   1      -1.469  -2.758  -1.366  0.00  0.00     0.043 A 
ATOM     13  C   UNL d   1      -0.587  -3.821  -1.554  0.00  0.00     0.006 A 
ATOM     14  C   UNL d   1       0.781  -3.628  -1.359  0.00  0.00     0.043 A 
ATOM     15  C   UNL d   1       1.253  -2.383  -0.936  0.00  0.00     0.135 A 
ATOM     16  F   UNL d   1       2.570  -2.245  -0.723  0.00  0.00    -0.205 F 
ENDBRANCH   1   9
BRANCH   3  17
ATOM     17  C   UNL d   1      -0.938   2.306   4.585  0.00  0.00     0.064 A 
ATOM     18  C   UNL d   1      -0.987   3.716   4.678  0.00  0.00     0.094 A 
ATOM     19  C   UNL d   1      -1.709   4.363   5.689  0.00  0.00     0.039 A 
ATOM     20  C   UNL d   1      -2.412   3.632   6.644  0.00  0.00     0.003 A 
ATOM     21  C   UNL d   1      -2.347   2.247   6.613  0.00  0.00     0.002 A 
ATOM     22  C   UNL d   1      -1.619   1.603   5.607  0.00  0.00     0.032 A 
BRANCH  18  23
ATOM     23  O   UNL d   1      -0.294   4.559   3.841  0.00  0.00    -0.354 OA
ATOM     24  C   UNL d   1      -0.838   4.612   2.524  0.00  0.00     0.210 C 
ENDBRANCH  18  23
ENDBRANCH   3  17
TORSDOF 3
