REMARK  6 active torsions:
REMARK  status: ('A' for Active; 'I' for Inactive)
REMARK    1  A    between atoms: C_3  and  C_1 
REMARK    2  A    between atoms: C_4  and  C_2 
REMARK    3  A    between atoms: S_8  and  C_3 
REMARK    4  A    between atoms: S_13  and  C_5 
REMARK    5  A    between atoms: C_9  and  S_8 
REMARK    6  A    between atoms: C_10  and  S_13 
ROOT
ATOM      1  C   UNL d   1       0.235  -1.446  -0.699  0.00  0.00     0.068 A 
ATOM      2  C   UNL d   1       1.390  -0.812  -0.264  0.00  0.00     0.134 A 
ATOM      3  C   UNL d   1       0.398   1.273  -0.542  0.00  0.00     0.149 A 
ATOM      4  N   UNL d   1       1.466   0.555  -0.166  0.00  0.00    -0.332 N 
ATOM      5  HN  UNL d   1       2.309   1.010   0.182  1.00  0.00     0.168 HD
ATOM      6  N   UNL d   1      -0.701   0.737  -1.100  0.00  0.00    -0.345 N 
ATOM      7  HN  UNL d   1      -1.454   1.321  -1.462  1.00  0.00     0.167 HD
ATOM      8  C   UNL d   1      -0.762  -0.612  -1.160  0.00  0.00     0.108 A 
ENDROOT
BRANCH   1   9
ATOM      9  C   UNL d   1      -0.014  -2.879  -0.439  0.00  0.00     0.227 C 
ATOM     10  O   UNL d   1       0.392  -3.319   0.629  0.00  0.00    -0.279 OA
BRANCH   9  11
ATOM     11  S   UNL d   1      -1.021  -3.804  -1.531  0.00  0.00    -0.047 SA
BRANCH  11  12
ATOM     12  C   UNL d   1      -0.153  -5.355  -1.822  0.00  0.00     0.015 C 
ATOM     13  C   UNL d   1       0.740  -5.889  -0.878  0.00  0.00     0.027 C 
ATOM     14  C   UNL d   1       1.522  -7.030  -1.136  0.00  0.00    -0.039 C 
ATOM     15  C   UNL d   1       2.454  -7.534  -0.070  0.00  0.00     0.050 C 
ATOM     16  C   UNL d   1       1.431  -7.627  -2.393  0.00  0.00     0.040 C 
ATOM     17  C   UNL d   1       0.482  -7.176  -3.308  0.00  0.00     0.032 C 
ATOM     18 CL   UNL d   1       2.455  -8.936  -2.858  0.00  0.00    -0.084 Cl
ATOM     19  C   UNL d   1      -0.357  -6.080  -3.016  0.00  0.00    -0.043 C 
ATOM     20  C   UNL d   1      -1.436  -5.781  -4.024  0.00  0.00     0.049 C 
ENDBRANCH  11  12
ENDBRANCH   9  11
ENDBRANCH   1   9
BRANCH   2  21
ATOM     21  C   UNL d   1       2.630  -1.604   0.125  0.00  0.00     0.433 C 
ATOM     22  F   UNL d   1       2.701  -2.839  -0.449  0.00  0.00    -0.165 F 
ATOM     23  F   UNL d   1       3.780  -0.982  -0.277  0.00  0.00    -0.165 F 
ATOM     24  F   UNL d   1       2.761  -1.785   1.467  0.00  0.00    -0.165 F 
ENDBRANCH   2  21
BRANCH   3  25
ATOM     25  S   UNL d   1       0.258   2.937   0.062  0.00  0.00    -0.054 SA
BRANCH  25  26
ATOM     26  C   UNL d   1       1.260   3.898  -1.061  0.00  0.00     0.015 A 
ATOM     27  C   UNL d   1       0.914   3.903  -2.424  0.00  0.00     0.027 A 
ATOM     28  C   UNL d   1       1.572   4.728  -3.353  0.00  0.00    -0.039 A 
ATOM     29  C   UNL d   1       1.150   4.705  -4.794  0.00  0.00     0.050 C 
ATOM     30  C   UNL d   1       2.597   5.563  -2.895  0.00  0.00     0.040 A 
ATOM     31  C   UNL d   1       2.948   5.572  -1.544  0.00  0.00     0.032 A 
ATOM     32 CL   UNL d   1       3.447   6.623  -3.961  0.00  0.00    -0.084 Cl
ATOM     33  C   UNL d   1       2.289   4.749  -0.611  0.00  0.00    -0.043 A 
ATOM     34  C   UNL d   1       2.719   4.880   0.827  0.00  0.00     0.049 C 
ENDBRANCH  25  26
ENDBRANCH   3  25
TORSDOF 6
