REMARK  9 active torsions:
REMARK  status: ('A' for Active; 'I' for Inactive)
REMARK    1  A    between atoms: C_2  and  C_1 
REMARK       I    between atoms: N_3  and  C_1 
REMARK       I    between atoms: C_4  and  N_3 
REMARK       I    between atoms: N_8  and  C_4 
REMARK    2  A    between atoms: C_5  and  C_13 
REMARK    3  A    between atoms: C_6  and  C_14 
REMARK    4  A    between atoms: O_12  and  C_7 
REMARK    5  A    between atoms: C_24  and  N_8 
REMARK    6  A    between atoms: C_13  and  O_12 
REMARK    7  A    between atoms: C_14  and  O_23 
REMARK    8  A    between atoms: O_23  and  C_22 
REMARK    9  A    between atoms: O_31  and  C_25 
ROOT
ATOM      1  C   UNL d   1       0.370   0.963   0.270  0.00  0.00     0.068 A 
ATOM      2  C   UNL d   1       0.841   2.042  -0.505  0.00  0.00     0.085 A 
ATOM      3  C   UNL d   1      -0.965   0.973   0.710  0.00  0.00     0.056 A 
ATOM      4  C   UNL d   1      -0.007   3.120  -0.790  0.00  0.00     0.040 A 
ATOM      5  C   UNL d   1      -1.805   2.045   0.404  0.00  0.00     0.070 A 
ATOM      6  C   UNL d   1      -1.324   3.120  -0.335  0.00  0.00     0.039 A 
ENDROOT
BRANCH   1   7
ATOM      7  C   UNL d   1       1.222  -0.238   0.517  0.00  0.00     0.262 C 
ATOM      8  N   UNL d   1       0.932  -1.144   1.527  0.00  0.00    -0.275 N 
ATOM      9  C   UNL d   1       0.695  -0.845   2.866  0.00  0.00     0.327 C 
ATOM     10  H   UNL d   1       1.568  -1.921   1.428  0.00  0.00     0.173 HD
ATOM     11  N   UNL d   1       0.721  -2.008   3.627  0.00  0.00    -0.309 N 
ATOM     12  O   UNL d   1       0.423   0.276   3.273  0.00  0.00    -0.247 OA
ATOM     13  H   UNL d   1       0.890  -2.870   3.130  0.00  0.00     0.170 HD
ATOM     14  O   UNL d   1       2.163  -0.518  -0.231  0.00  0.00    -0.267 OA
BRANCH  11  15
ATOM     15  C   UNL d   1       0.530  -2.144   5.020  0.00  0.00     0.036 A 
ATOM     16  C   UNL d   1       0.221  -1.090   5.879  0.00  0.00     0.032 A 
ATOM     17  C   UNL d   1       0.063  -1.310   7.259  0.00  0.00     0.039 A 
ATOM     18  C   UNL d   1       0.218  -2.588   7.791  0.00  0.00     0.068 A 
ATOM     19  C   UNL d   1       0.519  -3.646   6.935  0.00  0.00     0.039 A 
ATOM     20  C   UNL d   1       0.667  -3.429   5.561  0.00  0.00     0.032 A 
BRANCH  18  21
ATOM     21  O   UNL d   1       0.112  -2.933   9.111  0.00  0.00    -0.356 OA
ATOM     22  C   UNL d   1      -0.224  -1.897  10.025  0.00  0.00     0.210 C 
ENDBRANCH  18  21
ENDBRANCH  11  15
ENDBRANCH   1   7
BRANCH   2  23
ATOM     23  O   UNL d   1       2.163   2.102  -0.859  0.00  0.00    -0.341 OA
BRANCH  23  24
ATOM     24  C   UNL d   1       2.410   2.286  -2.265  0.00  0.00     0.293 C 
BRANCH  24  25
ATOM     25  C   UNL d   1       2.703   3.732  -2.655  0.00  0.00     0.408 C 
ATOM     26  F   UNL d   1       2.921   4.531  -1.587  0.00  0.00    -0.169 F 
ATOM     27  F   UNL d   1       3.795   3.814  -3.450  0.00  0.00    -0.169 F 
ATOM     28  F   UNL d   1       1.667   4.263  -3.349  0.00  0.00    -0.169 F 
ENDBRANCH  24  25
ENDBRANCH  23  24
ENDBRANCH   2  23
BRANCH   5  29
ATOM     29  O   UNL d   1      -3.095   2.142   0.851  0.00  0.00    -0.342 OA
BRANCH  29  30
ATOM     30  C   UNL d   1      -3.860   0.945   0.644  0.00  0.00     0.293 C 
BRANCH  30  31
ATOM     31  C   UNL d   1      -5.338   1.192   0.902  0.00  0.00     0.408 C 
ATOM     32  F   UNL d   1      -5.779   2.327   0.319  0.00  0.00    -0.169 F 
ATOM     33  F   UNL d   1      -6.072   0.169   0.398  0.00  0.00    -0.169 F 
ATOM     34  F   UNL d   1      -5.607   1.263   2.224  0.00  0.00    -0.169 F 
ENDBRANCH  30  31
ENDBRANCH  29  30
ENDBRANCH   5  29
TORSDOF 9
