REMARK  4 active torsions:
REMARK  status: ('A' for Active; 'I' for Inactive)
REMARK    1  A    between atoms: C_2  and  N_1 
REMARK    2  A    between atoms: C_6  and  C_3 
REMARK    3  A    between atoms: O_12  and  C_4 
REMARK    4  A    between atoms: O_13  and  C_10 
ROOT
ATOM      1  C   UNL d   1      -0.943   2.660   2.704  0.00  0.00     0.081 A 
ATOM      2  C   UNL d   1      -1.679   3.672   3.338  0.00  0.00     0.074 A 
ATOM      3  C   UNL d   1       0.185   3.007   1.932  0.00  0.00    -0.001 A 
ATOM      4  C   UNL d   1       0.505   4.368   1.781  0.00  0.00     0.017 A 
ATOM      5  C   UNL d   1      -1.341   5.021   3.190  0.00  0.00     0.070 A 
ATOM      6  C   UNL d   1      -0.246   5.367   2.407  0.00  0.00     0.038 A 
ENDROOT
BRANCH   3   7
ATOM      7  C   UNL d   1       1.052   2.055   1.208  0.00  0.00     0.038 C 
ATOM      8  C   UNL d   1       1.354   0.822   1.637  0.00  0.00     0.168 C 
BRANCH   8   9
ATOM      9  N   UNL d   1       2.272   0.007   0.878  0.00  0.00    -0.127 N 
ATOM     10  O   UNL d   1       2.424  -1.153   1.283  0.00  0.00    -0.532 OA
ATOM     11  O   UNL d   1       2.854   0.502  -0.095  0.00  0.00    -0.532 OA
ENDBRANCH   8   9
ENDBRANCH   3   7
BRANCH   1  12
ATOM     12  O   UNL d   1      -1.258   1.327   2.798  0.00  0.00    -0.355 OA
ATOM     13  C   UNL d   1      -2.558   1.003   3.284  0.00  0.00     0.210 C 
ENDBRANCH   1  12
BRANCH   5  14
ATOM     14  O   UNL d   1      -2.164   5.890   3.853  0.00  0.00    -0.356 OA
ATOM     15  C   UNL d   1      -1.906   7.279   3.687  0.00  0.00     0.210 C 
ENDBRANCH   5  14
TORSDOF 4
