REMARK  3 active torsions:
REMARK  status: ('A' for Active; 'I' for Inactive)
REMARK    1  A    between atoms: C_4  and  C_1 
REMARK    2  A    between atoms: N_2  and  C_3 
REMARK       I    between atoms: N_5  and  C_4 
REMARK    3  A    between atoms: C_6  and  N_5 
ROOT
ATOM      1  C   UNL d   1       3.712  -0.028  -0.217  0.00  0.00     0.258 C 
ATOM      2  N   UNL d   1       4.486  -1.142   0.059  0.00  0.00    -0.322 N 
ATOM      3  O   UNL d   1       2.563  -0.004  -0.639  0.00  0.00    -0.267 OA
ATOM      4  H   UNL d   1       5.325  -1.008   0.606  0.00  0.00     0.169 HD
ENDROOT
BRANCH   1   5
ATOM      5  C   UNL d   1       4.299   1.268   0.170  0.00  0.00     0.065 A 
ATOM      6  C   UNL d   1       5.483   1.762  -0.371  0.00  0.00     0.120 A 
ATOM      7  C   UNL d   1       6.016   2.995   0.019  0.00  0.00     0.060 A 
ATOM      8  C   UNL d   1       5.316   3.755   0.955  0.00  0.00     0.036 A 
ATOM      9  C   UNL d   1       4.107   3.296   1.486  0.00  0.00     0.025 A 
ATOM     10 CL   UNL d   1       5.939   5.278   1.453  0.00  0.00    -0.084 Cl
ATOM     11  C   UNL d   1       3.597   2.054   1.094  0.00  0.00     0.021 A 
BRANCH   6  12
ATOM     12  N   UNL d   1       6.166   1.017  -1.395  0.00  0.00    -0.115 N 
ATOM     13  O   UNL d   1       5.734   1.116  -2.548  0.00  0.00    -0.532 OA
ATOM     14  O   UNL d   1       7.145   0.351  -1.028  0.00  0.00    -0.532 OA
ENDBRANCH   6  12
ENDBRANCH   1   5
BRANCH   2  15
ATOM     15  C   UNL d   1       4.047  -2.478  -0.119  0.00  0.00     0.041 A 
ATOM     16  C   UNL d   1       4.550  -3.511   0.697  0.00  0.00    -0.034 A 
ATOM     17  C   UNL d   1       3.991  -4.802   0.579  0.00  0.00     0.032 A 
ATOM     18  C   UNL d   1       5.572  -3.322   1.786  0.00  0.00     0.050 C 
ATOM     19  C   UNL d   1       3.002  -5.074  -0.364  0.00  0.00     0.034 A 
ATOM     20  C   UNL d   1       2.567  -4.076  -1.222  0.00  0.00     0.026 A 
ATOM     21 CL   UNL d   1       2.308  -6.645  -0.453  0.00  0.00    -0.084 Cl
ATOM     22  C   UNL d   1       3.088  -2.787  -1.097  0.00  0.00     0.032 A 
ENDBRANCH   2  15
TORSDOF 3
