REMARK  5 active torsions:
REMARK  status: ('A' for Active; 'I' for Inactive)
REMARK    1  A    between atoms: C_14  and  C_3 
REMARK    2  A    between atoms: O_16  and  C_7 
REMARK    3  A    between atoms: C_11  and  C_8 
REMARK    4  A    between atoms: O_17  and  C_9 
REMARK    5  A    between atoms: O_18  and  C_10 
ROOT
ATOM      1  N   UNL d   1       1.483  -3.595  -1.276  0.00  0.00    -0.331 N 
ATOM      2  HN  UNL d   1       0.775  -4.291  -1.510  1.00  0.00     0.168 HD
ATOM      3  C   UNL d   1       2.724  -3.552  -1.641  0.00  0.00     0.162 A 
ATOM      4  C   UNL d   1       1.356  -2.478  -0.500  0.00  0.00     0.111 A 
ATOM      5  O   UNL d   1       3.477  -2.526  -1.173  0.00  0.00    -0.256 OA
ATOM      6  C   UNL d   1       2.647  -1.761  -0.404  0.00  0.00     0.316 A 
ATOM      7  C   UNL d   1       0.245  -2.047   0.105  0.00  0.00     0.047 C 
ATOM      8  O   UNL d   1       2.935  -0.751   0.209  0.00  0.00    -0.257 OA
ENDROOT
BRANCH   7   9
ATOM      9  C   UNL d   1      -1.000  -2.812   0.046  0.00  0.00    -0.028 A 
ATOM     10  C   UNL d   1      -1.240  -3.790   1.006  0.00  0.00     0.051 A 
ATOM     11  C   UNL d   1      -2.395  -4.587   0.957  0.00  0.00     0.105 A 
ATOM     12  C   UNL d   1      -3.332  -4.413  -0.091  0.00  0.00     0.135 A 
ATOM     13  C   UNL d   1      -3.056  -3.450  -1.090  0.00  0.00     0.105 A 
ATOM     14  C   UNL d   1      -1.903  -2.651  -1.000  0.00  0.00     0.051 A 
BRANCH  11  15
ATOM     15  O   UNL d   1      -2.571  -5.601   1.870  0.00  0.00    -0.353 OA
ATOM     16  C   UNL d   1      -2.064  -5.351   3.180  0.00  0.00     0.210 C 
ENDBRANCH  11  15
BRANCH  12  17
ATOM     17  O   UNL d   1      -4.502  -5.109  -0.236  0.00  0.00    -0.351 OA
ATOM     18  C   UNL d   1      -4.999  -5.923   0.815  0.00  0.00     0.210 C 
ENDBRANCH  12  17
BRANCH  13  19
ATOM     19  O   UNL d   1      -3.756  -3.151  -2.232  0.00  0.00    -0.353 OA
ATOM     20  C   UNL d   1      -5.000  -3.769  -2.510  0.00  0.00     0.210 C 
ENDBRANCH  13  19
ENDBRANCH   7   9
BRANCH   3  21
ATOM     21  C   UNL d   1       3.402  -4.489  -2.546  0.00  0.00     0.015 A 
ATOM     22  C   UNL d   1       2.653  -5.513  -3.140  0.00  0.00     0.016 A 
ATOM     23  C   UNL d   1       3.253  -6.379  -4.055  0.00  0.00     0.001 A 
ATOM     24  C   UNL d   1       4.602  -6.229  -4.374  0.00  0.00     0.000 A 
ATOM     25  C   UNL d   1       5.357  -5.223  -3.768  0.00  0.00     0.001 A 
ATOM     26  C   UNL d   1       4.761  -4.354  -2.852  0.00  0.00     0.016 A 
ENDBRANCH   3  21
TORSDOF 5
