REMARK  2 active torsions:
REMARK  status: ('A' for Active; 'I' for Inactive)
REMARK    1  A    between atoms: C_10  and  C_1 
REMARK    2  A    between atoms: O_12  and  C_4 
ROOT
ATOM      1  C   UNL d   1      -1.480   2.421  -0.009  0.00  0.00     0.076 A 
ATOM      2  C   UNL d   1       0.017   2.428  -0.006  0.00  0.00     0.262 A 
ATOM      3  N   UNL d   1       0.676   1.203  -0.016  0.00  0.00    -0.312 N 
ATOM      4  C   UNL d   1      -2.150   1.253  -0.028  0.00  0.00     0.094 A 
ATOM      5  C   UNL d   1      -1.424  -0.026  -0.025  0.00  0.00     0.026 A 
ATOM      6  C   UNL d   1      -0.016  -0.028  -0.019  0.00  0.00     0.057 A 
ATOM      7  C   UNL d   1       0.676  -1.242  -0.010  0.00  0.00    -0.030 A 
ATOM      8  C   UNL d   1      -2.119  -1.247  -0.023  0.00  0.00     0.023 A 
ATOM      9  O   UNL d   1       0.623   3.502   0.002  0.00  0.00    -0.267 OA
ATOM     10  C   UNL d   1      -0.043  -2.452  -0.008  0.00  0.00     0.016 A 
ATOM     11  C   UNL d   1      -1.437  -2.466  -0.014  0.00  0.00    -0.060 A 
ATOM     12  C   UNL d   1       2.122   1.264  -0.025  0.00  0.00     0.133 A 
ATOM     13  C   UNL d   1       2.168  -1.329   0.029  0.00  0.00     0.042 A 
ATOM     14  C   UNL d   1       2.925  -0.021  -0.049  0.00  0.00     0.025 A 
ATOM     15  C   UNL d   1      -2.198  -3.757  -0.005  0.00  0.00     0.048 C 
ENDROOT
BRANCH   1  16
ATOM     16  C   UNL d   1      -2.191   3.712   0.005  0.00  0.00    -0.018 A 
ATOM     17  C   UNL d   1      -2.533   4.312   1.224  0.00  0.00     0.012 A 
ATOM     18  C   UNL d   1      -3.188   5.544   1.236  0.00  0.00     0.001 A 
ATOM     19  C   UNL d   1      -3.506   6.177   0.035  0.00  0.00     0.000 A 
ATOM     20  C   UNL d   1      -3.179   5.577  -1.181  0.00  0.00     0.001 A 
ATOM     21  C   UNL d   1      -2.524   4.345  -1.197  0.00  0.00     0.012 A 
ENDBRANCH   1  16
BRANCH   4  22
ATOM     22  O   UNL d   1      -3.532   1.153  -0.049  0.00  0.00    -0.359 OA
ATOM     23  H   UNL d   1      -3.913   2.048  -0.076  0.00  0.00     0.217 HD
ENDBRANCH   4  22
TORSDOF 2
