REMARK  4 active torsions:
REMARK  status: ('A' for Active; 'I' for Inactive)
REMARK    1  A    between atoms: N_5  and  C_1 
REMARK    2  A    between atoms: C_10  and  C_4 
REMARK       I    between atoms: C_8  and  N_5 
REMARK    3  A    between atoms: C_11  and  C_8 
REMARK    4  A    between atoms: N_9  and  C_11 
ROOT
ATOM      1  C   UNL d   1      -1.403  -1.534   0.206  0.00  0.00     0.151 A 
ATOM      2  N   UNL d   1      -2.467  -2.286   0.091  0.00  0.00    -0.335 N 
ATOM      3  HN  UNL d   1      -2.459  -3.282  -0.131  1.00  0.00     0.168 HD
ATOM      4  C   UNL d   1      -3.613  -1.527   0.316  0.00  0.00     0.051 A 
ATOM      5  S   UNL d   1      -1.683   0.123   0.510  0.00  0.00    -0.063 SA
ATOM      6  C   UNL d   1      -3.371  -0.186   0.554  0.00  0.00     0.083 A 
ENDROOT
BRANCH   1   7
ATOM      7  N   UNL d   1      -0.075  -1.865   0.156  0.00  0.00    -0.306 N 
ATOM      8  C   UNL d   1       0.399  -3.153   0.122  0.00  0.00     0.252 C 
ATOM      9  O   UNL d   1      -0.256  -4.185   0.014  0.00  0.00    -0.271 OA
ATOM     10  H   UNL d   1       0.604  -1.131   0.303  0.00  0.00     0.171 HD
BRANCH   8  11
ATOM     11  C   UNL d   1       1.952  -3.212   0.191  0.00  0.00     0.374 C 
BRANCH  11  12
ATOM     12  N   UNL d   1       2.483  -1.938   0.704  0.00  0.00     0.097 N 
ATOM     13  C   UNL d   1       2.412  -1.809   2.164  0.00  0.00     0.273 C 
ATOM     14  C   UNL d   1       2.502  -0.314   2.475  0.00  0.00     0.030 C 
ATOM     15  C   UNL d   1       3.704   0.373   1.815  0.00  0.00     0.003 C 
ATOM     16  C   UNL d   1       4.034  -0.147   0.411  0.00  0.00     0.030 C 
ATOM     17  C   UNL d   1       3.857  -1.658   0.280  0.00  0.00     0.273 C 
ENDBRANCH  11  12
ENDBRANCH   8  11
ENDBRANCH   1   7
BRANCH   4  18
ATOM     18  C   UNL d   1      -4.929  -2.163   0.387  0.00  0.00    -0.009 A 
ATOM     19  C   UNL d   1      -5.120  -3.424  -0.198  0.00  0.00     0.015 A 
ATOM     20  C   UNL d   1      -6.295  -4.149   0.029  0.00  0.00     0.024 A 
ATOM     21  C   UNL d   1      -7.294  -3.612   0.836  0.00  0.00     0.034 A 
ATOM     22  C   UNL d   1      -7.156  -2.330   1.362  0.00  0.00     0.024 A 
ATOM     23 CL   UNL d   1      -8.680  -4.551   1.229  0.00  0.00    -0.084 Cl
ATOM     24  C   UNL d   1      -5.983  -1.603   1.129  0.00  0.00     0.015 A 
ENDBRANCH   4  18
TORSDOF 4
