REMARK  4 active torsions:
REMARK  status: ('A' for Active; 'I' for Inactive)
REMARK    1  A    between atoms: C_2  and  S_1 
REMARK    2  A    between atoms: C_4  and  S_1 
REMARK    3  A    between atoms: C_5  and  C_3 
REMARK    4  A    between atoms: C_8  and  C_5 
ROOT
ATOM      1  C   UNL d   1       0.611   1.584   0.492  0.00  0.00     0.118 C 
ATOM      2  C   UNL d   1       0.754   1.990   1.762  0.00  0.00     0.067 C 
ENDROOT
BRANCH   1   3
ATOM      3  S   UNL d   1       1.146  -0.009   0.084  0.00  0.00     0.197 S 
ATOM      4  O   UNL d   1       0.018  -0.909   0.233  0.00  0.00    -0.218 OA
ATOM      5  O   UNL d   1       2.402  -0.286   0.752  0.00  0.00    -0.218 OA
BRANCH   3   6
ATOM      6  C   UNL d   1       1.522   0.095  -1.654  0.00  0.00     0.063 A 
ATOM      7  C   UNL d   1       2.502   0.995  -2.089  0.00  0.00     0.025 A 
ATOM      8  C   UNL d   1       2.829   1.050  -3.447  0.00  0.00     0.025 A 
ATOM      9  C   UNL d   1       2.188   0.204  -4.353  0.00  0.00     0.034 A 
ATOM     10  C   UNL d   1       1.215  -0.696  -3.915  0.00  0.00     0.025 A 
ATOM     11 CL   UNL d   1       2.607   0.264  -6.020  0.00  0.00    -0.084 Cl
ATOM     12  C   UNL d   1       0.879  -0.753  -2.560  0.00  0.00     0.025 A 
ENDBRANCH   3   6
ENDBRANCH   1   3
BRANCH   2  13
ATOM     13  C   UNL d   1       0.306   3.353   2.133  0.00  0.00     0.182 C 
ATOM     14  O   UNL d   1       0.134   4.218   1.281  0.00  0.00    -0.288 OA
BRANCH  13  15
ATOM     15  C   UNL d   1       0.104   3.658   3.575  0.00  0.00     0.014 A 
ATOM     16  C   UNL d   1       0.278   4.982   4.006  0.00  0.00     0.018 A 
ATOM     17  C   UNL d   1       0.056   5.322   5.342  0.00  0.00     0.043 A 
ATOM     18  C   UNL d   1      -0.349   4.341   6.240  0.00  0.00     0.116 A 
ATOM     19  C   UNL d   1      -0.533   3.026   5.828  0.00  0.00     0.043 A 
ATOM     20  F   UNL d   1      -0.577   4.669   7.518  0.00  0.00    -0.206 F 
ATOM     21  C   UNL d   1      -0.309   2.679   4.492  0.00  0.00     0.018 A 
ENDBRANCH  13  15
ENDBRANCH   2  13
TORSDOF 4
