REMARK  4 active torsions:
REMARK  status: ('A' for Active; 'I' for Inactive)
REMARK    1  A    between atoms: C_8  and  N_1 
REMARK    2  A    between atoms: C_2  and  C_10 
REMARK    3  A    between atoms: C_19  and  N_11 
REMARK    4  A    between atoms: C_15  and  C_20 
ROOT
ATOM      1  C   UNL d   1      -4.353   5.562   6.404  0.00  0.00     0.019 A 
ATOM      2  C   UNL d   1      -3.387   4.836   5.690  0.00  0.00     0.045 A 
ATOM      3  C   UNL d   1      -2.823   5.330   4.507  0.00  0.00     0.032 A 
ATOM      4  C   UNL d   1      -4.708   6.837   5.947  0.00  0.00     0.016 A 
ATOM      5  C   UNL d   1      -4.122   7.362   4.793  0.00  0.00     0.003 A 
ATOM      6  C   UNL d   1      -3.189   6.606   4.078  0.00  0.00     0.029 A 
ENDROOT
BRANCH   3   7
ATOM      7  N   UNL d   1      -1.875   4.613   3.755  0.00  0.00    -0.365 N 
ATOM      8  C   UNL d   1      -2.060   3.342   3.591  0.00  0.00     0.099 C 
ATOM      9  HN  UNL d   1      -1.064   5.081   3.351  1.00  0.00     0.165 HD
BRANCH   8  10
ATOM     10  C   UNL d   1      -1.115   2.498   2.836  0.00  0.00    -0.021 A 
ATOM     11  C   UNL d   1      -0.077   3.067   2.092  0.00  0.00     0.015 A 
ATOM     12  C   UNL d   1       0.798   2.244   1.375  0.00  0.00     0.037 A 
ATOM     13  C   UNL d   1       0.629   0.852   1.418  0.00  0.00     0.102 A 
ATOM     14  C   UNL d   1      -0.407   0.281   2.170  0.00  0.00     0.037 A 
ATOM     15  C   UNL d   1      -1.282   1.109   2.878  0.00  0.00     0.015 A 
BRANCH  13  16
ATOM     16  N   UNL d   1       1.545  -0.017   0.667  0.00  0.00    -0.116 N 
ATOM     17  O   UNL d   1       1.365  -1.241   0.740  0.00  0.00    -0.532 OA
ATOM     18  O   UNL d   1       2.439   0.525   0.004  0.00  0.00    -0.532 OA
ENDBRANCH  13  16
ENDBRANCH   8  10
ENDBRANCH   3   7
BRANCH   1  19
ATOM     19  C   UNL d   1      -4.968   4.949   7.575  0.00  0.00     0.173 A 
ATOM     20  N   UNL d   1      -4.781   3.750   8.091  0.00  0.00    -0.278 N 
ATOM     21  N   UNL d   1      -5.643   3.644   9.162  0.00  0.00    -0.288 N 
ATOM     22  HN  UNL d   1      -4.128   3.039   7.762  1.00  0.00     0.189 HD
ATOM     23  C   UNL d   1      -6.287   4.784   9.220  0.00  0.00     0.251 A 
ATOM     24  HN  UNL d   1      -5.755   2.843   9.783  1.00  0.00     0.188 HD
ATOM     25  O   UNL d   1      -5.919   5.668   8.251  0.00  0.00    -0.286 OA
ENDBRANCH   1  19
TORSDOF 4
