REMARK  2 active torsions:
REMARK  status: ('A' for Active; 'I' for Inactive)
REMARK       I    between atoms: C_2  and  N_1 
REMARK    1  A    between atoms: C_8  and  C_2 
REMARK    2  A    between atoms: N_3  and  C_9 
ROOT
ATOM      1  C   UNL d   1       3.681   2.877   0.390  0.00  0.00     0.032 A 
ATOM      2  C   UNL d   1       3.889   5.677   0.215  0.00  0.00     0.056 A 
ATOM      3  C   UNL d   1       3.284   4.942  -0.815  0.00  0.00     0.032 A 
ATOM      4  C   UNL d   1       4.436   5.003   1.312  0.00  0.00     0.032 A 
ATOM      5  C   UNL d   1       4.326   3.607   1.399  0.00  0.00     0.019 A 
ATOM      6  C   UNL d   1       3.215   3.547  -0.742  0.00  0.00     0.019 A 
ENDROOT
BRANCH   1   7
ATOM      7  C   UNL d   1       3.563   1.399   0.541  0.00  0.00     0.254 C 
ATOM      8  N   UNL d   1       2.401   0.733   0.130  0.00  0.00    -0.343 N 
ATOM      9  C   UNL d   1       1.131   1.409  -0.165  0.00  0.00     0.165 C 
ATOM     10  C   UNL d   1       2.385  -0.725   0.284  0.00  0.00     0.131 C 
ATOM     11  C   UNL d   1      -0.106   0.581   0.073  0.00  0.00    -0.034 A 
ATOM     12  C   UNL d   1      -1.324   1.196   0.390  0.00  0.00     0.009 A 
ATOM     13  C   UNL d   1      -0.059  -0.808  -0.121  0.00  0.00    -0.049 A 
ATOM     14  C   UNL d   1      -2.479   0.428   0.528  0.00  0.00     0.001 A 
ATOM     15  C   UNL d   1      -2.428  -0.950   0.332  0.00  0.00     0.001 A 
ATOM     16  C   UNL d   1      -1.223  -1.571   0.001  0.00  0.00     0.008 A 
ATOM     17  C   UNL d   1       1.264  -1.421  -0.491  0.00  0.00     0.059 C 
ATOM     18  O   UNL d   1       4.516   0.807   1.050  0.00  0.00    -0.267 OA
ENDBRANCH   1   7
BRANCH   2  19
ATOM     19  N   UNL d   1       3.923   7.097   0.117  0.00  0.00    -0.268 N 
ATOM     20  N   UNL d   1       3.261   7.739  -0.883  0.00  0.00    -0.305 N 
ATOM     21  C   UNL d   1       3.462   9.035  -0.649  0.00  0.00     0.109 A 
ATOM     22  HN  UNL d   1       2.728   7.319  -1.645  1.00  0.00     0.186 HD
ATOM     23  C   UNL d   1       4.268   9.258   0.474  0.00  0.00     0.038 A 
ATOM     24  C   UNL d   1       4.552   7.999   0.951  0.00  0.00     0.118 A 
ENDBRANCH   2  19
TORSDOF 2
