REMARK  3 active torsions:
REMARK  status: ('A' for Active; 'I' for Inactive)
REMARK       I    between atoms: C_3  and  N_1 
REMARK    1  A    between atoms: C_9  and  C_3 
REMARK    2  A    between atoms: C_11  and  C_4 
REMARK    3  A    between atoms: O_19  and  C_16 
ROOT
ATOM      1  N   UNL d   1      -2.512   0.386  -0.351  0.00  0.00    -0.338 N 
ATOM      2  C   UNL d   1      -0.126   0.784   0.024  0.00  0.00    -0.017 A 
ATOM      3  C   UNL d   1      -3.648   0.644  -1.108  0.00  0.00     0.228 C 
ATOM      4  C   UNL d   1      -1.521   1.361   0.158  0.00  0.00     0.154 C 
ATOM      5  C   UNL d   1       0.107  -0.566  -0.172  0.00  0.00    -0.007 A 
ATOM      6  C   UNL d   1      -2.324  -1.006   0.124  0.00  0.00     0.132 C 
ATOM      7  S   UNL d   1       1.759  -0.956  -0.253  0.00  0.00    -0.106 SA
ATOM      8  C   UNL d   1      -0.969  -1.593  -0.312  0.00  0.00     0.067 C 
ATOM      9  C   UNL d   1       1.111   1.508   0.082  0.00  0.00     0.018 A 
ATOM     10  C   UNL d   1       2.208   0.682  -0.042  0.00  0.00     0.051 A 
ATOM     11  O   UNL d   1      -4.521  -0.233  -1.185  0.00  0.00    -0.273 OA
ENDROOT
BRANCH   4  12
ATOM     12  C   UNL d   1      -1.723   1.707   1.643  0.00  0.00    -0.031 A 
ATOM     13  C   UNL d   1      -2.488   2.832   1.998  0.00  0.00     0.012 A 
ATOM     14  C   UNL d   1      -2.748   3.163   3.335  0.00  0.00     0.037 A 
ATOM     15  C   UNL d   1      -2.232   2.387   4.367  0.00  0.00     0.068 A 
ATOM     16  C   UNL d   1      -1.459   1.274   4.042  0.00  0.00     0.037 A 
ATOM     17  C   UNL d   1      -1.216   0.936   2.705  0.00  0.00     0.012 A 
BRANCH  15  18
ATOM     18  O   UNL d   1      -2.400   2.604   5.704  0.00  0.00    -0.356 OA
ATOM     19  C   UNL d   1      -3.220   3.701   6.081  0.00  0.00     0.210 C 
ENDBRANCH  15  18
ENDBRANCH   4  12
BRANCH   3  20
ATOM     20  C   UNL d   1      -3.828   1.921  -1.992  0.00  0.00     0.030 C 
ATOM     21  C   UNL d   1      -2.804   1.898  -3.136  0.00  0.00     0.025 C 
ATOM     22  C   UNL d   1      -5.244   1.848  -2.631  0.00  0.00     0.025 C 
ATOM     23  C   UNL d   1      -3.793   3.265  -1.263  0.00  0.00     0.025 C 
ENDBRANCH   3  20
TORSDOF 3
