REMARK  1 active torsions:
REMARK  status: ('A' for Active; 'I' for Inactive)
REMARK    1  A    between atoms: C_11  and  C_4 
ROOT
ATOM      1  C   UNL d   1      -1.323   0.007  -0.257  0.00  0.00     0.077 C 
ATOM      2  S   UNL d   1      -0.411   1.502  -0.087  0.00  0.00    -0.080 SA
ATOM      3  C   UNL d   1      -2.634  -0.006  -0.584  0.00  0.00     0.148 C 
ATOM      4  C   UNL d   1       1.115   0.693  -0.081  0.00  0.00     0.023 C 
ATOM      5  S   UNL d   1      -0.389  -1.468  -0.009  0.00  0.00    -0.091 SA
ATOM      6  C   UNL d   1       1.132  -0.643  -0.035  0.00  0.00     0.070 C 
ATOM      7  C   UNL d   1      -3.353  -1.221  -0.768  0.00  0.00     0.112 C 
ATOM      8  C   UNL d   1      -3.367   1.197  -0.796  0.00  0.00     0.112 C 
ATOM      9  N   UNL d   1      -3.946  -2.204  -0.934  0.00  0.00    -0.191 NA
ATOM     10  N   UNL d   1      -3.970   2.173  -0.977  0.00  0.00    -0.191 NA
ENDROOT
BRANCH   4  11
ATOM     11  C   UNL d   1       2.316   1.516  -0.209  0.00  0.00    -0.018 A 
ATOM     12  C   UNL d   1       2.759   1.896  -1.485  0.00  0.00     0.014 A 
ATOM     13  C   UNL d   1       3.892   2.699  -1.630  0.00  0.00     0.024 A 
ATOM     14  C   UNL d   1       4.589   3.120  -0.499  0.00  0.00     0.034 A 
ATOM     15  C   UNL d   1       4.166   2.739   0.774  0.00  0.00     0.024 A 
ATOM     16 CL   UNL d   1       5.977   4.120  -0.678  0.00  0.00    -0.084 Cl
ATOM     17  C   UNL d   1       3.031   1.935   0.920  0.00  0.00     0.014 A 
ENDBRANCH   4  11
TORSDOF 1
