REMARK  9 active torsions:
REMARK  status: ('A' for Active; 'I' for Inactive)
REMARK    1  A    between atoms: C_8  and  C_1 
REMARK    2  A    between atoms: C_13  and  N_3 
REMARK    3  A    between atoms: C_6  and  O_11 
REMARK    4  A    between atoms: C_7  and  C_6 
REMARK    5  A    between atoms: O_22  and  C_8 
REMARK    6  A    between atoms: S_19  and  C_9 
REMARK    7  A    between atoms: O_11  and  C_17 
REMARK    8  A    between atoms: C_27  and  S_19 
REMARK    9  A    between atoms: C_28  and  O_22 
ROOT
ATOM      1  C   UNL d   1       1.603  -1.091   0.133  0.00  0.00     0.074 A 
ATOM      2  C   UNL d   1       2.472   0.001   0.137  0.00  0.00     0.030 A 
ATOM      3  N   UNL d   1       1.722   1.169   0.270  0.00  0.00    -0.314 N 
ATOM      4  C   UNL d   1       0.287  -0.585   0.397  0.00  0.00     0.012 A 
ATOM      5  C   UNL d   1       0.382   0.812   0.468  0.00  0.00     0.051 A 
ATOM      6  C   UNL d   1      -0.778   1.599   0.628  0.00  0.00     0.034 A 
ATOM      7  C   UNL d   1      -0.997  -1.185   0.539  0.00  0.00     0.052 A 
ATOM      8  C   UNL d   1      -2.134  -0.393   0.725  0.00  0.00     0.080 A 
ATOM      9  C   UNL d   1      -2.019   0.985   0.800  0.00  0.00     0.040 A 
ATOM     10  C   UNL d   1       3.970  -0.022   0.079  0.00  0.00     0.070 C 
ENDROOT
BRANCH   8  11
ATOM     11  O   UNL d   1      -3.370  -1.077   0.852  0.00  0.00    -0.275 OA
BRANCH  11  12
ATOM     12  C   UNL d   1      -4.564  -0.473   0.457  0.00  0.00     0.301 C 
ATOM     13  O   UNL d   1      -4.690   0.641  -0.030  0.00  0.00    -0.259 OA
BRANCH  12  14
ATOM     14  C   UNL d   1      -5.711  -1.359   0.755  0.00  0.00     0.073 A 
ATOM     15  C   UNL d   1      -6.863  -1.368  -0.045  0.00  0.00     0.086 A 
ATOM     16  N   UNL d   1      -7.965  -2.093   0.293  0.00  0.00    -0.360 N 
ATOM     17  C   UNL d   1      -7.935  -2.815   1.432  0.00  0.00     0.089 A 
ATOM     18  HN  UNL d   1      -8.794  -2.090  -0.302  1.00  0.00     0.166 HD
ATOM     19  C   UNL d   1      -6.837  -2.878   2.265  0.00  0.00     0.018 A 
ATOM     20  C   UNL d   1      -5.710  -2.137   1.923  0.00  0.00     0.022 A 
BRANCH  15  21
ATOM     21  S   UNL d   1      -6.971  -0.551  -1.635  0.00  0.00    -0.112 SA
BRANCH  21  22
ATOM     22  C   UNL d   1      -8.764  -0.246  -1.737  0.00  0.00     0.076 C 
ATOM     23  C   UNL d   1      -9.077   0.569  -2.981  0.00  0.00     0.016 C 
ENDBRANCH  21  22
ENDBRANCH  15  21
ENDBRANCH  12  14
ENDBRANCH  11  12
ENDBRANCH   8  11
BRANCH   1  24
ATOM     24  C   UNL d   1       2.010  -2.477  -0.129  0.00  0.00     0.296 C 
ATOM     25  O   UNL d   1       3.131  -2.795  -0.510  0.00  0.00    -0.259 OA
BRANCH  24  26
ATOM     26  O   UNL d   1       0.982  -3.361   0.007  0.00  0.00    -0.318 OA
BRANCH  26  27
ATOM     27  C   UNL d   1       1.185  -4.647  -0.594  0.00  0.00     0.174 C 
ATOM     28  C   UNL d   1       0.834  -4.554  -2.069  0.00  0.00     0.034 C 
ENDBRANCH  26  27
ENDBRANCH  24  26
ENDBRANCH   1  24
BRANCH   3  29
ATOM     29  C   UNL d   1       2.226   2.513   0.207  0.00  0.00     0.039 A 
ATOM     30  C   UNL d   1       3.235   2.856  -0.704  0.00  0.00     0.030 A 
ATOM     31  C   UNL d   1       3.723   4.165  -0.761  0.00  0.00     0.002 A 
ATOM     32  C   UNL d   1       3.192   5.147   0.070  0.00  0.00     0.000 A 
ATOM     33  C   UNL d   1       2.182   4.820   0.971  0.00  0.00     0.002 A 
ATOM     34  C   UNL d   1       1.711   3.506   1.051  0.00  0.00     0.030 A 
ENDBRANCH   3  29
TORSDOF 9
