REMARK  6 active torsions:
REMARK  status: ('A' for Active; 'I' for Inactive)
REMARK    1  A    between atoms: C_17  and  C_7 
REMARK    2  A    between atoms: C_26  and  C_17 
REMARK    3  A    between atoms: C_18  and  C_25 
REMARK    4  A    between atoms: O_23  and  C_21 
REMARK    5  A    between atoms: C_24  and  C_26 
REMARK    6  A    between atoms: C_25  and  C_24 
ROOT
ATOM      1  C   UNL d   1      -6.709  -2.756  -1.563  0.00  0.00    -0.036 C 
ATOM      2  C   UNL d   1      -5.543  -0.073   1.861  0.00  0.00    -0.017 C 
ATOM      3  C   UNL d   1      -3.633  -0.193   1.967  0.00  0.00    -0.072 C 
ATOM      4  C   UNL d   1      -5.682  -2.033  -2.455  0.00  0.00    -0.001 C 
ATOM      5  C   UNL d   1      -6.324  -0.482   0.046  0.00  0.00     0.003 C 
ATOM      6  C   UNL d   1      -5.036  -1.020  -1.436  0.00  0.00    -0.001 C 
ATOM      7  C   UNL d   1      -5.632  -3.155  -0.426  0.00  0.00    -0.002 C 
ATOM      8  C   UNL d   1      -2.680  -0.574   0.871  0.00  0.00    -0.023 C 
ATOM      9  C   UNL d   1      -7.881  -1.853  -1.178  0.00  0.00     0.010 C 
ATOM     10  C   UNL d   1      -3.115  -0.925  -0.936  0.00  0.00     0.033 C 
ATOM     11  C   UNL d   1      -7.633  -1.249   0.159  0.00  0.00     0.007 C 
ATOM     12  C   UNL d   1      -4.668  -3.208  -2.745  0.00  0.00     0.006 C 
ATOM     13  C   UNL d   1      -5.854   1.407   2.405  0.00  0.00     0.016 C 
ATOM     14  C   UNL d   1      -4.607  -3.961  -1.363  0.00  0.00     0.006 C 
ATOM     15  C   UNL d   1      -3.027   0.369   3.239  0.00  0.00     0.066 C 
ATOM     16  C   UNL d   1      -7.374  -3.964  -2.284  0.00  0.00     0.016 C 
ATOM     17  C   UNL d   1      -5.128   1.726   3.735  0.00  0.00     0.033 C 
ATOM     18  C   UNL d   1      -3.603   1.728   3.631  0.00  0.00     0.122 C 
ATOM     19  C   UNL d   1      -6.347  -0.920   2.963  0.00  0.00     0.020 C 
ENDROOT
BRANCH   7  20
ATOM     20  C   UNL d   1      -4.695  -1.777   0.545  0.00  0.00    -0.014 C 
ATOM     21  C   UNL d   1      -4.480   0.282   0.016  0.00  0.00     0.010 C 
BRANCH  20  22
ATOM     22  C   UNL d   1      -3.650  -2.874   1.375  0.00  0.00     0.005 C 
BRANCH  22  23
ATOM     23  C   UNL d   1      -3.642  -2.894   2.930  0.00  0.00     0.008 C 
BRANCH  23  24
ATOM     24  C   UNL d   1      -4.288  -4.115   3.590  0.00  0.00     0.077 C 
BRANCH  24  25
ATOM     25  C   UNL d   1      -4.277  -3.984   5.115  0.00  0.00     0.123 C 
ATOM     26  O   UNL d   1      -4.314  -2.896   5.692  0.00  0.00    -0.298 OA
ATOM     27  C   UNL d   1      -4.287  -5.272   5.901  0.00  0.00     0.091 C 
ENDBRANCH  24  25
ENDBRANCH  23  24
ENDBRANCH  22  23
ENDBRANCH  20  22
ENDBRANCH   7  20
BRANCH  18  28
ATOM     28  O   UNL d   1      -3.175   2.751   2.730  0.00  0.00    -0.395 OA
ATOM     29  H   UNL d   1      -3.275   2.406   1.826  0.00  0.00     0.210 HD
ENDBRANCH  18  28
TORSDOF 6
