REMARK  3 active torsions:
REMARK  status: ('A' for Active; 'I' for Inactive)
REMARK    1  A    between atoms: C_2  and  C_1 
REMARK       I    between atoms: N_3  and  C_1 
REMARK       I    between atoms: C_5  and  N_3 
REMARK    2  A    between atoms: C_4  and  C_6 
REMARK       I    between atoms: N_7  and  C_5 
REMARK    3  A    between atoms: C_16  and  N_7 
ROOT
ATOM      1  C   UNL d   1       0.809   0.777   0.413  0.00  0.00     0.261 C 
ATOM      2  N   UNL d   1       0.230  -0.249   1.132  0.00  0.00    -0.275 N 
ATOM      3  C   UNL d   1      -1.031  -0.795   1.015  0.00  0.00     0.327 C 
ATOM      4  N   UNL d   1      -1.850  -0.244   0.067  0.00  0.00    -0.309 N 
ATOM      5  O   UNL d   1       0.256   1.378  -0.503  0.00  0.00    -0.267 OA
ATOM      6  O   UNL d   1      -1.296  -1.735   1.765  0.00  0.00    -0.247 OA
ATOM      7  H   UNL d   1       0.772  -0.749   1.822  0.00  0.00     0.173 HD
ATOM      8  H   UNL d   1      -1.419   0.466  -0.525  0.00  0.00     0.170 HD
ENDROOT
BRANCH   1   9
ATOM      9  C   UNL d   1       2.188   1.160   0.796  0.00  0.00     0.062 A 
ATOM     10  C   UNL d   1       3.163   1.474  -0.162  0.00  0.00     0.066 A 
ATOM     11  C   UNL d   1       4.385   2.013   0.277  0.00  0.00     0.034 A 
ATOM     12  C   UNL d   1       4.608   2.154   1.636  0.00  0.00     0.088 A 
ATOM     13  N   UNL d   1       3.710   1.794   2.573  0.00  0.00    -0.374 N 
ATOM     14  C   UNL d   1       2.516   1.323   2.138  0.00  0.00     0.105 A 
ATOM     15  HN  UNL d   1       3.919   1.873   3.569  1.00  0.00     0.164 HD
BRANCH  10  16
ATOM     16  C   UNL d   1       2.949   1.231  -1.632  0.00  0.00     0.418 C 
ATOM     17  F   UNL d   1       2.200   0.127  -1.897  0.00  0.00    -0.166 F 
ATOM     18  F   UNL d   1       2.372   2.278  -2.273  0.00  0.00    -0.166 F 
ATOM     19  F   UNL d   1       4.131   1.011  -2.282  0.00  0.00    -0.166 F 
ENDBRANCH  10  16
ENDBRANCH   1   9
BRANCH   4  20
ATOM     20  C   UNL d   1      -3.166  -0.642  -0.265  0.00  0.00     0.036 A 
ATOM     21  C   UNL d   1      -3.916  -1.547   0.492  0.00  0.00     0.029 A 
ATOM     22  C   UNL d   1      -5.196  -1.935   0.082  0.00  0.00     0.002 A 
ATOM     23  C   UNL d   1      -5.745  -1.420  -1.089  0.00  0.00     0.000 A 
ATOM     24  C   UNL d   1      -5.017  -0.499  -1.839  0.00  0.00     0.002 A 
ATOM     25  C   UNL d   1      -3.740  -0.104  -1.424  0.00  0.00     0.029 A 
ENDBRANCH   4  20
TORSDOF 3
