REMARK  4 active torsions:
REMARK  status: ('A' for Active; 'I' for Inactive)
REMARK    1  A    between atoms: C_5  and  C_1 
REMARK    2  A    between atoms: C_6  and  C_2 
REMARK       I    between atoms: N_10  and  C_5 
REMARK    3  A    between atoms: C_7  and  C_11 
REMARK    4  A    between atoms: C_13  and  N_12 
ROOT
ATOM      1  C   UNL d   1       0.434  -2.814  -0.180  0.00  0.00     0.258 C 
ATOM      2  N   UNL d   1      -0.499  -3.866  -0.014  0.00  0.00    -0.346 N 
ATOM      3  N   UNL d   1      -1.767  -6.511   0.523  0.00  0.00    -0.366 N 
ATOM      4  O   UNL d   1       1.305  -2.608   0.675  0.00  0.00    -0.267 OA
ATOM      5  C   UNL d   1      -0.584  -4.493   1.335  0.00  0.00     0.146 C 
ATOM      6  C   UNL d   1      -0.669  -6.038   1.374  0.00  0.00     0.144 C 
ATOM      7  C   UNL d   1      -1.608  -5.430  -1.660  0.00  0.00     0.040 C 
ATOM      8  C   UNL d   1      -1.666  -4.115  -0.868  0.00  0.00     0.127 C 
ATOM      9  C   UNL d   1      -1.431  -6.716  -0.870  0.00  0.00     0.126 C 
ENDROOT
BRANCH   1  10
ATOM     10  C   UNL d   1       0.382  -1.911  -1.337  0.00  0.00     0.093 C 
ATOM     11  C   UNL d   1       0.607  -0.476  -1.374  0.00  0.00     0.088 C 
ATOM     12  N   UNL d   1       0.381  -0.016  -2.618  0.00  0.00    -0.259 N 
ATOM     13  O   UNL d   1       0.223  -1.098  -3.421  0.00  0.00    -0.241 OA
ATOM     14  HN  UNL d   1       0.336   0.963  -2.903  1.00  0.00     0.195 HD
ATOM     15  C   UNL d   1       0.275  -2.230  -2.682  0.00  0.00     0.090 C 
ATOM     16  C   UNL d   1       0.225  -3.444  -3.510  0.00  0.00     0.080 C 
BRANCH  11  17
ATOM     17  C   UNL d   1       0.954   0.520  -0.349  0.00  0.00     0.054 A 
ATOM     18  C   UNL d   1       0.333   0.500   0.902  0.00  0.00     0.130 A 
ATOM     19  F   UNL d   1      -0.537  -0.473   1.218  0.00  0.00    -0.205 F 
ATOM     20  C   UNL d   1       0.538   1.512   1.848  0.00  0.00     0.043 A 
ATOM     21  C   UNL d   1       1.356   2.598   1.549  0.00  0.00     0.005 A 
ATOM     22  C   UNL d   1       1.999   2.643   0.318  0.00  0.00     0.025 A 
ATOM     23  C   UNL d   1       1.823   1.608  -0.615  0.00  0.00     0.049 A 
ATOM     24 CL   UNL d   1       2.764   1.759  -2.069  0.00  0.00    -0.083 Cl
ENDBRANCH  11  17
ENDBRANCH   1  10
BRANCH   3  25
ATOM     25  C   UNL d   1      -2.820  -7.239   1.046  0.00  0.00     0.102 A 
ATOM     26  N   UNL d   1      -2.672  -7.908   2.205  0.00  0.00    -0.352 N 
ATOM     27  C   UNL d   1      -3.718  -8.641   2.668  0.00  0.00     0.106 A 
ATOM     28  HN  UNL d   1      -1.795  -7.866   2.723  1.00  0.00     0.166 HD
ATOM     29  C   UNL d   1      -4.953  -8.723   2.046  0.00  0.00     0.063 A 
ATOM     30  C   UNL d   1      -5.114  -7.999   0.868  0.00  0.00     0.021 A 
ATOM     31  C   UNL d   1      -4.043  -7.264   0.369  0.00  0.00     0.049 A 
BRANCH  29  32
ATOM     32  C   UNL d   1      -6.066  -9.541   2.616  0.00  0.00     0.418 C 
ATOM     33  F   UNL d   1      -5.724 -10.221   3.745  0.00  0.00    -0.166 F 
ATOM     34  F   UNL d   1      -7.149  -8.786   2.949  0.00  0.00    -0.166 F 
ATOM     35  F   UNL d   1      -6.524 -10.479   1.742  0.00  0.00    -0.166 F 
ENDBRANCH  29  32
ENDBRANCH   3  25
TORSDOF 4
