REMARK  0 active torsions:
REMARK  status: ('A' for Active; 'I' for Inactive)
ROOT
ATOM      1  C   UNL d   1       1.258  -1.447   0.016  0.00  0.00     0.066 A 
ATOM      2  C   UNL d   1      -0.019  -0.717   0.009  0.00  0.00     0.023 A 
ATOM      3  C   UNL d   1       2.402  -0.745   0.001  0.00  0.00     0.069 A 
ATOM      4  C   UNL d   1       3.679  -1.388   0.002  0.00  0.00     0.099 C 
ATOM      5  O   UNL d   1       1.144   1.429   0.033  0.00  0.00    -0.345 OA
ATOM      6  C   UNL d   1       0.002   0.683   0.017  0.00  0.00     0.081 A 
ATOM      7  N   UNL d   1       4.728  -1.880   0.002  0.00  0.00    -0.192 NA
ATOM      8  C   UNL d   1       2.407   0.755  -0.021  0.00  0.00     0.227 A 
ATOM      9  C   UNL d   1      -1.270  -1.357   0.001  0.00  0.00     0.058 A 
ATOM     10 CL   UNL d   1       1.243  -3.180   0.039  0.00  0.00    -0.082 Cl
ATOM     11  C   UNL d   1      -1.190   1.423   0.019  0.00  0.00     0.040 A 
ATOM     12  C   UNL d   1      -2.448  -0.614   0.001  0.00  0.00     0.117 A 
ATOM     13  C   UNL d   1      -2.420   0.772   0.010  0.00  0.00     0.045 A 
ATOM     14  F   UNL d   1      -3.626  -1.250  -0.005  0.00  0.00    -0.206 F 
ENDROOT
TORSDOF 0
