REMARK  7 active torsions:
REMARK  status: ('A' for Active; 'I' for Inactive)
REMARK    1  A    between atoms: C_7  and  C_1 
REMARK    2  A    between atoms: C_8  and  C_1 
REMARK    3  A    between atoms: C_6  and  C_2 
REMARK    4  A    between atoms: C_4  and  C_5 
REMARK    5  A    between atoms: O_19  and  C_7 
REMARK    6  A    between atoms: N_10  and  C_8 
REMARK    7  A    between atoms: C_20  and  O_19 
ROOT
ATOM      1  C   UNL d   1       1.071  -0.015   0.068  0.00  0.00     0.102 C 
ATOM      2  C   UNL d   1       0.380  -0.380   1.165  0.00  0.00     0.046 C 
ENDROOT
BRANCH   2   3
ATOM      3  C   UNL d   1       1.042  -0.802   2.357  0.00  0.00     0.007 A 
ATOM      4  S   UNL d   1       1.379   0.326   3.608  0.00  0.00    -0.089 SA
ATOM      5  C   UNL d   1       2.182  -0.847   4.577  0.00  0.00     0.022 A 
ATOM      6  C   UNL d   1       2.156  -2.086   3.962  0.00  0.00     0.021 A 
ATOM      7  C   UNL d   1       1.503  -2.061   2.694  0.00  0.00     0.020 A 
BRANCH   5   8
ATOM      8  C   UNL d   1       2.773  -0.508   5.850  0.00  0.00     0.021 A 
ATOM      9  S   UNL d   1       2.819  -1.636   7.149  0.00  0.00    -0.101 SA
ATOM     10  C   UNL d   1       3.617  -0.535   8.184  0.00  0.00     0.050 A 
ATOM     11  C   UNL d   1       3.857   0.671   7.563  0.00  0.00     0.008 A 
ATOM     12  C   UNL d   1       3.368   0.687   6.223  0.00  0.00     0.021 A 
ENDBRANCH   5   8
ENDBRANCH   2   3
BRANCH   1  13
ATOM     13  C   UNL d   1       0.347   0.293  -1.180  0.00  0.00     0.302 C 
ATOM     14  O   UNL d   1      -0.861   0.183  -1.318  0.00  0.00    -0.259 OA
BRANCH  13  15
ATOM     15  O   UNL d   1       1.237   0.609  -2.152  0.00  0.00    -0.317 OA
BRANCH  15  16
ATOM     16  C   UNL d   1       0.752   0.530  -3.498  0.00  0.00     0.174 C 
ATOM     17  C   UNL d   1       0.938  -0.897  -3.982  0.00  0.00     0.034 C 
ENDBRANCH  15  16
ENDBRANCH  13  15
ENDBRANCH   1  13
BRANCH   1  18
ATOM     18  C   UNL d   1       2.591  -0.015   0.068  0.00  0.00    -0.031 C 
BRANCH  18  19
ATOM     19  N   UNL d   1       3.853  -0.015   0.068  0.00  0.00    -0.365 N 
ATOM     20  HN2 UNL d   1       2.833  -0.015   0.068  1.00  0.00     0.165 HD
ATOM     21  HN1 UNL d   1       4.873  -0.015   0.068  1.00  0.00     0.165 HD
ENDBRANCH  18  19
ENDBRANCH   1  18
TORSDOF 7
