REMARK  8 active torsions:
REMARK  status: ('A' for Active; 'I' for Inactive)
REMARK    1  A    between atoms: C_1  and  O_6 
REMARK    2  A    between atoms: S_2  and  O_6 
REMARK    3  A    between atoms: C_14  and  S_2 
REMARK    4  A    between atoms: S_3  and  O_8 
REMARK    5  A    between atoms: C_15  and  S_3 
REMARK    6  A    between atoms: C_4  and  O_8 
REMARK    7  A    between atoms: C_9  and  O_26 
REMARK    8  A    between atoms: C_12  and  C_21 
ROOT
ATOM      1  C   UNL d   1      -1.606   1.647   0.062  0.00  0.00     0.209 C 
ATOM      2  C   UNL d   1      -2.842   0.717  -0.199  0.00  0.00     0.230 C 
ATOM      3  C   UNL d   1      -0.351   0.973   0.704  0.00  0.00     0.189 C 
ATOM      4  O   UNL d   1       0.853   1.597   0.212  0.00  0.00    -0.346 OA
ATOM      5  C   UNL d   1      -2.603  -0.819  -0.096  0.00  0.00     0.292 C 
ATOM      6  C   UNL d   1      -0.350  -0.485   0.266  0.00  0.00     0.180 C 
ATOM      7  O   UNL d   1      -1.513  -1.119   0.775  0.00  0.00    -0.348 OA
ATOM      8  C   UNL d   1       2.061   0.874   0.531  0.00  0.00     0.295 C 
ATOM      9  O   UNL d   1       2.009  -0.494   0.116  0.00  0.00    -0.354 OA
ATOM     10  C   UNL d   1       0.917  -1.184   0.696  0.00  0.00     0.206 C 
ENDROOT
BRANCH   1  11
ATOM     11  O   UNL d   1      -1.940   2.960   0.599  0.00  0.00    -0.261 OA
BRANCH  11  12
ATOM     12  S   UNL d   1      -2.831   3.195   1.952  0.00  0.00     0.298 S 
ATOM     13  O   UNL d   1      -4.151   2.628   1.756  0.00  0.00    -0.193 OA
ATOM     14  O   UNL d   1      -2.020   2.811   3.085  0.00  0.00    -0.193 OA
BRANCH  12  15
ATOM     15  C   UNL d   1      -3.128   4.960   2.067  0.00  0.00     0.086 A 
ATOM     16  C   UNL d   1      -3.205   5.746   0.916  0.00  0.00     0.026 A 
ATOM     17  C   UNL d   1      -3.487   7.116   1.025  0.00  0.00     0.008 A 
ATOM     18  C   UNL d   1      -3.706   7.711   2.278  0.00  0.00    -0.062 A 
ATOM     19  C   UNL d   1      -3.638   6.913   3.425  0.00  0.00     0.008 A 
ATOM     20  C   UNL d   1      -3.958   9.190   2.378  0.00  0.00     0.048 C 
ATOM     21  C   UNL d   1      -3.356   5.541   3.324  0.00  0.00     0.026 A 
ENDBRANCH  12  15
ENDBRANCH  11  12
ENDBRANCH   1  11
BRANCH   2  22
ATOM     22  O   UNL d   1      -3.357   1.100  -1.486  0.00  0.00    -0.259 OA
BRANCH  22  23
ATOM     23  S   UNL d   1      -4.819   0.587  -1.974  0.00  0.00     0.298 S 
ATOM     24  O   UNL d   1      -4.720  -0.748  -2.524  0.00  0.00    -0.193 OA
ATOM     25  O   UNL d   1      -5.771   0.878  -0.919  0.00  0.00    -0.193 OA
BRANCH  23  26
ATOM     26  C   UNL d   1      -5.171   1.658  -3.348  0.00  0.00     0.086 A 
ATOM     27  C   UNL d   1      -4.500   1.458  -4.559  0.00  0.00     0.026 A 
ATOM     28  C   UNL d   1      -4.851   2.226  -5.670  0.00  0.00     0.008 A 
ATOM     29  C   UNL d   1      -5.871   3.184  -5.575  0.00  0.00    -0.062 A 
ATOM     30  C   UNL d   1      -6.507   3.394  -4.345  0.00  0.00     0.008 A 
ATOM     31  C   UNL d   1      -6.288   3.958  -6.791  0.00  0.00     0.048 C 
ATOM     32  C   UNL d   1      -6.162   2.631  -3.230  0.00  0.00     0.026 A 
ENDBRANCH  23  26
ENDBRANCH  22  23
ENDBRANCH   2  22
BRANCH   5  33
ATOM     33  O   UNL d   1      -2.344  -1.414  -1.365  0.00  0.00    -0.363 OA
ATOM     34  C   UNL d   1      -2.543  -2.825  -1.352  0.00  0.00     0.204 C 
ENDBRANCH   5  33
BRANCH   8  35
ATOM     35  C   UNL d   1       3.251   1.513  -0.179  0.00  0.00    -0.004 A 
ATOM     36  C   UNL d   1       3.326   2.902  -0.356  0.00  0.00     0.012 A 
ATOM     37  C   UNL d   1       4.426   3.489  -0.988  0.00  0.00     0.001 A 
ATOM     38  C   UNL d   1       5.480   2.701  -1.451  0.00  0.00     0.000 A 
ATOM     39  C   UNL d   1       5.436   1.322  -1.277  0.00  0.00     0.001 A 
ATOM     40  C   UNL d   1       4.337   0.737  -0.640  0.00  0.00     0.012 A 
ENDBRANCH   8  35
TORSDOF 8
