REMARK  5 active torsions:
REMARK  status: ('A' for Active; 'I' for Inactive)
REMARK    1  A    between atoms: C_8  and  C_3 
REMARK    2  A    between atoms: C_14  and  C_4 
REMARK    3  A    between atoms: C_11  and  O_12 
REMARK    4  A    between atoms: O_12  and  C_14 
REMARK    5  A    between atoms: O_21  and  C_18 
ROOT
ATOM      1  N   UNL d   1       1.307   0.119  -0.018  0.00  0.00    -0.321 N 
ATOM      2  HN  UNL d   1       2.304   0.252   0.153  1.00  0.00     0.169 HD
ATOM      3  C   UNL d   1       0.631  -1.004  -0.132  0.00  0.00     0.182 A 
ATOM      4  C   UNL d   1       0.328   1.067  -0.187  0.00  0.00     0.128 A 
ATOM      5  N   UNL d   1      -0.906   0.574  -0.370  0.00  0.00    -0.245 N 
ATOM      6  HN  UNL d   1      -1.780   1.085  -0.497  1.00  0.00     0.196 HD
ATOM      7  O   UNL d   1      -0.705  -0.807  -0.344  0.00  0.00    -0.217 OA
ENDROOT
BRANCH   4   8
ATOM      8  C   UNL d   1       0.592   2.530  -0.075  0.00  0.00     0.254 C 
BRANCH   8   9
ATOM      9  O   UNL d   1       0.852   3.126  -1.352  0.00  0.00    -0.342 OA
BRANCH   9  10
ATOM     10  C   UNL d   1       1.045   4.485  -1.357  0.00  0.00     0.091 A 
ATOM     11  C   UNL d   1       1.916   5.019  -2.322  0.00  0.00     0.069 A 
ATOM     12  C   UNL d   1       2.120   6.399  -2.416  0.00  0.00     0.050 A 
ATOM     13 CL   UNL d   1       2.780   3.998  -3.417  0.00  0.00    -0.081 Cl
ATOM     14  C   UNL d   1       1.443   7.253  -1.551  0.00  0.00     0.035 A 
ATOM     15  C   UNL d   1       0.566   6.741  -0.599  0.00  0.00     0.026 A 
ATOM     16 CL   UNL d   1       1.677   8.953  -1.662  0.00  0.00    -0.084 Cl
ATOM     17  C   UNL d   1       0.363   5.362  -0.506  0.00  0.00     0.040 A 
ENDBRANCH   9  10
ENDBRANCH   8   9
ENDBRANCH   4   8
BRANCH   3  18
ATOM     18  C   UNL d   1       1.098  -2.381  -0.031  0.00  0.00     0.020 A 
ATOM     19  C   UNL d   1       2.459  -2.615   0.234  0.00  0.00     0.052 A 
ATOM     20  C   UNL d   1       2.954  -3.914   0.355  0.00  0.00     0.069 A 
ATOM     21  C   UNL d   1       2.081  -4.992   0.202  0.00  0.00     0.037 A 
ATOM     22  C   UNL d   1       0.729  -4.779  -0.064  0.00  0.00     0.004 A 
ATOM     23  C   UNL d   1       0.238  -3.478  -0.179  0.00  0.00     0.016 A 
BRANCH  20  24
ATOM     24  O   UNL d   1       4.252  -4.255   0.618  0.00  0.00    -0.356 OA
ATOM     25  C   UNL d   1       5.172  -3.182   0.792  0.00  0.00     0.210 C 
ENDBRANCH  20  24
ENDBRANCH   3  18
TORSDOF 5
