REMARK  4 active torsions:
REMARK  status: ('A' for Active; 'I' for Inactive)
REMARK    1  A    between atoms: C_5  and  C_1 
REMARK       I    between atoms: N_11  and  C_5 
REMARK    2  A    between atoms: C_12  and  N_11 
REMARK    3  A    between atoms: O_24  and  C_13 
REMARK    4  A    between atoms: O_25  and  C_21 
ROOT
ATOM      1  C   UNL d   1      -3.937   1.735   1.031  0.00  0.00     0.077 A 
ATOM      2  C   UNL d   1      -4.939   2.675   1.453  0.00  0.00     0.061 A 
ATOM      3  C   UNL d   1      -5.896   1.938   2.146  0.00  0.00     0.132 A 
ATOM      4  C   UNL d   1      -4.399   0.494   1.459  0.00  0.00     0.066 A 
ATOM      5  O   UNL d   1      -5.563   0.624   2.151  0.00  0.00    -0.310 OA
ATOM      6  C   UNL d   1      -5.172   4.057   1.324  0.00  0.00     0.172 A 
ATOM      7  C   UNL d   1      -7.032   2.490   2.736  0.00  0.00     0.192 A 
ATOM      8  C   UNL d   1      -6.313   4.633   1.889  0.00  0.00     0.197 A 
ATOM      9  C   UNL d   1      -7.225   3.860   2.592  0.00  0.00     0.199 A 
ATOM     10  F   UNL d   1      -4.301   4.832   0.664  0.00  0.00    -0.202 F 
ATOM     11  F   UNL d   1      -7.909   1.739   3.413  0.00  0.00    -0.200 F 
ATOM     12  F   UNL d   1      -6.524   5.950   1.752  0.00  0.00    -0.199 F 
ATOM     13  F   UNL d   1      -8.304   4.438   3.140  0.00  0.00    -0.199 F 
ATOM     14  C   UNL d   1      -3.910  -0.899   1.327  0.00  0.00     0.078 C 
ENDROOT
BRANCH   1  15
ATOM     15  C   UNL d   1      -2.693   1.930   0.285  0.00  0.00     0.259 C 
ATOM     16  N   UNL d   1      -2.134   3.187   0.413  0.00  0.00    -0.320 N 
ATOM     17  H   UNL d   1      -2.541   3.838   1.068  0.00  0.00     0.169 HD
ATOM     18  O   UNL d   1      -2.173   0.999  -0.319  0.00  0.00    -0.267 OA
BRANCH  16  19
ATOM     19  C   UNL d   1      -0.928   3.615  -0.186  0.00  0.00     0.068 A 
ATOM     20  C   UNL d   1      -0.157   4.617   0.428  0.00  0.00     0.097 A 
ATOM     21  C   UNL d   1       0.961   5.164  -0.233  0.00  0.00     0.075 A 
ATOM     22  C   UNL d   1       1.312   4.707  -1.506  0.00  0.00     0.070 A 
ATOM     23  C   UNL d   1       0.572   3.682  -2.091  0.00  0.00     0.039 A 
ATOM     24  C   UNL d   1      -0.533   3.131  -1.435  0.00  0.00     0.035 A 
BRANCH  20  25
ATOM     25  O   UNL d   1      -0.429   5.164   1.661  0.00  0.00    -0.354 OA
ATOM     26  C   UNL d   1      -0.626   4.219   2.715  0.00  0.00     0.210 C 
ENDBRANCH  20  25
BRANCH  22  27
ATOM     27  O   UNL d   1       2.343   5.170  -2.275  0.00  0.00    -0.356 OA
ATOM     28  C   UNL d   1       3.038   6.319  -1.807  0.00  0.00     0.210 C 
ENDBRANCH  22  27
ENDBRANCH  16  19
ENDBRANCH   1  15
TORSDOF 4
