REMARK  3 active torsions:
REMARK  status: ('A' for Active; 'I' for Inactive)
REMARK    1  A    between atoms: C_2  and  C_1 
REMARK    2  A    between atoms: C_12  and  N_3 
REMARK    3  A    between atoms: C_14  and  C_8 
ROOT
ATOM      1  C   UNL d   1      -0.083  -1.276  -0.003  0.00  0.00     0.153 C 
ATOM      2  N   UNL d   1       1.030  -0.690   0.579  0.00  0.00    -0.224 N 
ATOM      3  N   UNL d   1       0.759   0.624   0.761  0.00  0.00     0.001 NA
ATOM      4  N   UNL d   1      -0.363   0.853   0.096  0.00  0.00    -0.007 NA
ATOM      5  N   UNL d   1      -0.883  -0.310  -0.409  0.00  0.00    -0.269 N 
ATOM      6  HN  UNL d   1      -1.720  -0.408  -0.984  1.00  0.00     0.185 HD
ENDROOT
BRANCH   1   7
ATOM      7  C   UNL d   1      -0.419  -2.716  -0.067  0.00  0.00     0.065 A 
ATOM      8  C   UNL d   1      -1.163  -3.366  -1.029  0.00  0.00     0.124 A 
ATOM      9  O   UNL d   1      -1.255  -4.687  -0.673  0.00  0.00    -0.236 OA
ATOM     10  N   UNL d   1      -0.567  -4.911   0.509  0.00  0.00    -0.271 N 
ATOM     11  C   UNL d   1      -0.076  -3.723   0.858  0.00  0.00     0.132 A 
ATOM     12  HN  UNL d   1      -0.459  -5.796   1.005  1.00  0.00     0.194 HD
BRANCH   8  13
ATOM     13  C   UNL d   1      -1.746  -3.038  -2.323  0.00  0.00     0.001 A 
ATOM     14  C   UNL d   1      -1.177  -2.051  -3.142  0.00  0.00     0.014 A 
ATOM     15  C   UNL d   1      -1.704  -1.774  -4.405  0.00  0.00     0.001 A 
ATOM     16  C   UNL d   1      -2.807  -2.485  -4.870  0.00  0.00     0.000 A 
ATOM     17  C   UNL d   1      -3.385  -3.468  -4.072  0.00  0.00     0.001 A 
ATOM     18  C   UNL d   1      -2.858  -3.744  -2.808  0.00  0.00     0.014 A 
ENDBRANCH   8  13
ENDBRANCH   1   7
BRANCH   2  19
ATOM     19  C   UNL d   1       2.317  -1.223   0.829  0.00  0.00     0.056 A 
ATOM     20  C   UNL d   1       2.788  -2.325   0.099  0.00  0.00     0.032 A 
ATOM     21  C   UNL d   1       4.067  -2.833   0.342  0.00  0.00     0.021 A 
ATOM     22  C   UNL d   1       4.874  -2.239   1.308  0.00  0.00     0.011 A 
ATOM     23  C   UNL d   1       4.424  -1.127   2.020  0.00  0.00     0.021 A 
ATOM     24 BR   UNL d   1       6.598  -2.937   1.641  0.00  0.00    -0.051 Br
ATOM     25  C   UNL d   1       3.151  -0.606   1.771  0.00  0.00     0.032 A 
ENDBRANCH   2  19
TORSDOF 3
