REMARK  3 active torsions:
REMARK  status: ('A' for Active; 'I' for Inactive)
REMARK    1  A    between atoms: C_7  and  N_2 
REMARK    2  A    between atoms: C_10  and  C_5 
REMARK    3  A    between atoms: N_6  and  C_9 
ROOT
ATOM      1  C   UNL d   1      -0.460  -1.111  -0.061  0.00  0.00     0.183 A 
ATOM      2  N   UNL d   1       0.920  -0.728   0.022  0.00  0.00    -0.297 N 
ATOM      3  N   UNL d   1      -1.172   0.105  -0.064  0.00  0.00    -0.331 N 
ATOM      4  C   UNL d   1       0.946   0.661   0.099  0.00  0.00     0.130 A 
ATOM      5  C   UNL d   1      -0.299   1.156   0.029  0.00  0.00     0.060 A 
ATOM      6  S   UNL d   1      -1.236  -2.576  -0.059  0.00  0.00    -0.040 SA
ATOM      7  H   UNL d   1      -2.178   0.163  -0.120  0.00  0.00     0.168 HD
ENDROOT
BRANCH   5   8
ATOM      8  C   UNL d   1      -0.713   2.558   0.045  0.00  0.00    -0.008 A 
ATOM      9  C   UNL d   1       0.104   3.542  -0.538  0.00  0.00     0.016 A 
ATOM     10  C   UNL d   1      -0.258   4.892  -0.506  0.00  0.00     0.037 A 
ATOM     11  C   UNL d   1      -1.456   5.268   0.110  0.00  0.00     0.102 A 
ATOM     12  C   UNL d   1      -2.296   4.301   0.676  0.00  0.00     0.037 A 
ATOM     13  C   UNL d   1      -1.922   2.953   0.638  0.00  0.00     0.016 A 
BRANCH  11  14
ATOM     14  N   UNL d   1      -1.825   6.687   0.172  0.00  0.00    -0.116 N 
ATOM     15  O   UNL d   1      -1.045   7.508  -0.329  0.00  0.00    -0.532 OA
ATOM     16  O   UNL d   1      -2.895   6.980   0.726  0.00  0.00    -0.532 OA
ENDBRANCH  11  14
ENDBRANCH   5   8
BRANCH   2  17
ATOM     17  C   UNL d   1       2.066  -1.567   0.027  0.00  0.00     0.041 A 
ATOM     18  C   UNL d   1       2.100  -2.779  -0.675  0.00  0.00     0.033 A 
ATOM     19  C   UNL d   1       3.247  -3.579  -0.675  0.00  0.00     0.044 A 
ATOM     20  C   UNL d   1       4.370  -3.171   0.029  0.00  0.00     0.116 A 
ATOM     21  C   UNL d   1       4.372  -1.969   0.723  0.00  0.00     0.044 A 
ATOM     22  F   UNL d   1       5.465  -3.940   0.034  0.00  0.00    -0.206 F 
ATOM     23  C   UNL d   1       3.228  -1.165   0.712  0.00  0.00     0.033 A 
ENDBRANCH   2  17
TORSDOF 3
