REMARK  7 active torsions:
REMARK  status: ('A' for Active; 'I' for Inactive)
REMARK    1  A    between atoms: C_10  and  N_1 
REMARK    2  A    between atoms: S_9  and  C_2 
REMARK    3  A    between atoms: O_23  and  C_3 
REMARK    4  A    between atoms: N_8  and  C_11 
REMARK    5  A    between atoms: C_14  and  S_9 
REMARK    6  A    between atoms: C_12  and  C_14 
REMARK    7  A    between atoms: C_13  and  C_12 
ROOT
ATOM      1  N   UNL d   1       0.610  -6.168   1.098  0.00  0.00    -0.254 N 
ATOM      2  C   UNL d   1       1.763  -6.303   0.339  0.00  0.00     0.169 A 
ATOM      3  C   UNL d   1       0.958  -6.800   2.289  0.00  0.00     0.245 A 
ATOM      4  N   UNL d   1       2.664  -7.013   0.981  0.00  0.00    -0.276 N 
ATOM      5  HN  UNL d   1       3.585  -7.274   0.628  1.00  0.00     0.189 HD
ATOM      6  N   UNL d   1       2.149  -7.340   2.204  0.00  0.00    -0.263 N 
ATOM      7  HN  UNL d   1       2.607  -7.903   2.920  1.00  0.00     0.190 HD
ENDROOT
BRANCH   2   8
ATOM      8  S   UNL d   1       1.993  -5.752  -1.286  0.00  0.00    -0.084 SA
BRANCH   8   9
ATOM      9  C   UNL d   1       3.645  -5.027  -1.138  0.00  0.00     0.166 C 
BRANCH   9  10
ATOM     10  C   UNL d   1       3.744  -3.893  -0.121  0.00  0.00     0.169 C 
ATOM     11  O   UNL d   1       2.795  -3.487   0.550  0.00  0.00    -0.291 OA
BRANCH  10  12
ATOM     12  C   UNL d   1       5.077  -3.219   0.015  0.00  0.00     0.011 A 
ATOM     13  C   UNL d   1       6.156  -3.567  -0.799  0.00  0.00     0.017 A 
ATOM     14  C   UNL d   1       7.362  -2.863  -0.714  0.00  0.00     0.030 A 
ATOM     15  C   UNL d   1       7.546  -1.798   0.178  0.00  0.00     0.030 A 
ATOM     16  C   UNL d   1       6.476  -1.502   1.029  0.00  0.00     0.030 A 
ATOM     17  C   UNL d   1       5.250  -2.192   0.947  0.00  0.00     0.017 A 
BRANCH  15  18
ATOM     18  N   UNL d   1       8.733  -1.098   0.181  0.00  0.00    -0.377 N 
ATOM     19  C   UNL d   1       9.308  -0.449   1.367  0.00  0.00     0.149 C 
ATOM     20  C   UNL d   1       9.452   1.064   1.138  0.00  0.00     0.187 C 
ATOM     21  O   UNL d   1      10.175   1.359  -0.069  0.00  0.00    -0.388 OA
ATOM     22  C   UNL d   1       9.500   0.791  -1.202  0.00  0.00     0.187 C 
ATOM     23  C   UNL d   1       9.395  -0.739  -1.085  0.00  0.00     0.149 C 
ENDBRANCH  15  18
ENDBRANCH  10  12
ENDBRANCH   9  10
ENDBRANCH   8   9
ENDBRANCH   2   8
BRANCH   1  24
ATOM     24  C   UNL d   1      -0.652  -5.595   0.773  0.00  0.00     0.060 A 
ATOM     25  C   UNL d   1      -0.782  -4.561  -0.148  0.00  0.00     0.117 A 
ATOM     26  N   UNL d   1      -1.971  -4.035  -0.535  0.00  0.00    -0.373 N 
ATOM     27  C   UNL d   1      -3.083  -4.544   0.028  0.00  0.00     0.088 A 
ATOM     28  HN  UNL d   1      -2.020  -3.284  -1.224  1.00  0.00     0.164 HD
ATOM     29  C   UNL d   1      -3.062  -5.545   0.981  0.00  0.00     0.019 A 
ATOM     30  C   UNL d   1      -1.830  -6.080   1.357  0.00  0.00     0.033 A 
ENDBRANCH   1  24
BRANCH   3  31
ATOM     31  O   UNL d   1       0.258  -6.805   3.417  0.00  0.00    -0.331 OA
ATOM     32  H   UNL d   1      -0.274  -5.994   3.442  0.00  0.00     0.221 HD
ENDBRANCH   3  31
TORSDOF 7
