REMARK  5 active torsions:
REMARK  status: ('A' for Active; 'I' for Inactive)
REMARK    1  A    between atoms: C_8  and  C_3 
REMARK    2  A    between atoms: C_4  and  C_6 
REMARK    3  A    between atoms: C_5  and  C_7 
REMARK    4  A    between atoms: C_21  and  C_9 
REMARK    5  A    between atoms: O_22  and  C_21 
ROOT
ATOM      1  C   UNL d   1       4.585   2.229  -1.075  0.00  0.00     0.049 A 
ATOM      2  C   UNL d   1       3.943   3.172   1.084  0.00  0.00     0.049 A 
ATOM      3  C   UNL d   1       2.479   1.556  -0.027  0.00  0.00    -0.007 A 
ATOM      4  C   UNL d   1       4.847   3.073   0.015  0.00  0.00     0.032 A 
ATOM      5  C   UNL d   1       2.757   2.417   1.045  0.00  0.00     0.030 A 
ATOM      6  C   UNL d   1       3.394   1.483  -1.087  0.00  0.00     0.030 A 
ENDROOT
BRANCH   3   7
ATOM      7  C   UNL d   1       1.283   0.717  -0.049  0.00  0.00     0.049 A 
ATOM      8  N   UNL d   1       0.723   0.289  -1.246  0.00  0.00    -0.351 N 
ATOM      9  C   UNL d   1      -0.319  -0.485  -1.004  0.00  0.00     0.075 A 
ATOM     10  HN  UNL d   1       1.066   0.537  -2.174  1.00  0.00     0.166 HD
ATOM     11  S   UNL d   1      -0.686  -0.739   0.653  0.00  0.00    -0.084 SA
ATOM     12  C   UNL d   1       0.654   0.241   1.085  0.00  0.00     0.082 A 
BRANCH   9  13
ATOM     13  C   UNL d   1      -1.161  -1.119  -2.068  0.00  0.00     0.229 C 
BRANCH  13  14
ATOM     14  O   UNL d   1      -0.361  -1.279  -3.240  0.00  0.00    -0.394 OA
ATOM     15  H   UNL d   1       0.307  -0.565  -3.205  0.00  0.00     0.209 HD
ENDBRANCH  13  14
ENDBRANCH   9  13
ENDBRANCH   3   7
BRANCH   2  16
ATOM     16  C   UNL d   1       4.236   4.049   2.278  0.00  0.00     0.417 C 
ATOM     17  F   UNL d   1       5.441   4.677   2.210  0.00  0.00    -0.166 F 
ATOM     18  F   UNL d   1       3.308   5.030   2.446  0.00  0.00    -0.166 F 
ATOM     19  F   UNL d   1       4.248   3.342   3.442  0.00  0.00    -0.166 F 
ENDBRANCH   2  16
BRANCH   1  20
ATOM     20  C   UNL d   1       5.574   2.088  -2.208  0.00  0.00     0.417 C 
ATOM     21  F   UNL d   1       6.683   2.865  -2.055  0.00  0.00    -0.166 F 
ATOM     22  F   UNL d   1       6.030   0.813  -2.341  0.00  0.00    -0.166 F 
ATOM     23  F   UNL d   1       5.044   2.429  -3.414  0.00  0.00    -0.166 F 
ENDBRANCH   1  20
TORSDOF 5
