REMARK  4 active torsions:
REMARK  status: ('A' for Active; 'I' for Inactive)
REMARK    1  A    between atoms: C_6  and  C_1 
REMARK    2  A    between atoms: N_15  and  C_2 
REMARK       I    between atoms: N_14  and  C_6 
REMARK    3  A    between atoms: N_10  and  N_14 
REMARK    4  A    between atoms: C_18  and  C_17 
ROOT
ATOM      1  C   UNL d   1       2.480  -0.041   0.016  0.00  0.00     0.103 A 
ATOM      2  C   UNL d   1       1.636   1.066   0.001  0.00  0.00     0.062 A 
ATOM      3  C   UNL d   1       0.226   0.734   0.009  0.00  0.00     0.032 A 
ATOM      4  S   UNL d   1       1.581  -1.490   0.039  0.00  0.00    -0.064 SA
ATOM      5  C   UNL d   1       0.097  -0.656   0.022  0.00  0.00     0.088 A 
ATOM      6  N   UNL d   1      -1.043  -1.377   0.023  0.00  0.00    -0.354 N 
ATOM      7  HN  UNL d   1      -1.046  -2.396   0.034  1.00  0.00     0.166 HD
ATOM      8  C   UNL d   1      -0.996   1.476   0.004  0.00  0.00    -0.045 A 
ATOM      9  C   UNL d   1      -2.196   0.735   0.002  0.00  0.00     0.032 A 
ATOM     10  C   UNL d   1      -2.174  -0.653   0.008  0.00  0.00     0.006 A 
ATOM     11  C   UNL d   1      -1.155   2.974   0.000  0.00  0.00     0.049 C 
ATOM     12  C   UNL d   1      -3.467  -1.415   0.002  0.00  0.00     0.068 C 
ENDROOT
BRANCH   1  13
ATOM     13  C   UNL d   1       3.945  -0.035   0.014  0.00  0.00     0.279 C 
ATOM     14  N   UNL d   1       4.585  -1.280   0.021  0.00  0.00    -0.266 N 
ATOM     15  H   UNL d   1       4.044  -2.136   0.019  0.00  0.00     0.190 HD
ATOM     16  O   UNL d   1       4.586   1.020   0.003  0.00  0.00    -0.265 OA
BRANCH  14  17
ATOM     17  N   UNL d   1       5.949  -1.318  -0.045  0.00  0.00    -0.308 N 
ATOM     18  C   UNL d   1       6.527  -2.476  -0.040  0.00  0.00     0.118 C 
ATOM     19  HN  UNL d   1       6.495  -0.458  -0.097  1.00  0.00     0.186 HD
BRANCH  18  20
ATOM     20  C   UNL d   1       8.003  -2.576  -0.154  0.00  0.00    -0.019 A 
ATOM     21  C   UNL d   1       8.781  -1.415  -0.245  0.00  0.00     0.013 A 
ATOM     22  C   UNL d   1      10.166  -1.509  -0.392  0.00  0.00     0.001 A 
ATOM     23  C   UNL d   1      10.777  -2.761  -0.447  0.00  0.00     0.000 A 
ATOM     24  C   UNL d   1      10.005  -3.920  -0.346  0.00  0.00     0.001 A 
ATOM     25  C   UNL d   1       8.616  -3.831  -0.197  0.00  0.00     0.013 A 
ENDBRANCH  18  20
ENDBRANCH  14  17
ENDBRANCH   1  13
BRANCH   2  26
ATOM     26  N   UNL d   1       2.144   2.318  -0.026  0.00  0.00    -0.397 N 
ATOM     27  H   UNL d   1       3.161   2.463  -0.015  0.00  0.00     0.156 HD
ATOM     28  H   UNL d   1       1.619   3.178   0.007  0.00  0.00     0.156 HD
ENDBRANCH   2  26
TORSDOF 4
