REMARK  0 active torsions:
REMARK  status: ('A' for Active; 'I' for Inactive)
ROOT
ATOM      1  C   UNL d   1      -1.208  -0.755   0.055  0.00  0.00     0.033 A 
ATOM      2  C   UNL d   1       1.196  -0.750   0.009  0.00  0.00     0.033 A 
ATOM      3  N   UNL d   1      -0.008   1.337   0.130  0.00  0.00    -0.361 N 
ATOM      4  HN  UNL d   1      -0.010   2.355   0.185  1.00  0.00     0.165 HD
ATOM      5  C   UNL d   1      -0.006  -1.460  -0.000  0.00  0.00     0.034 A 
ATOM      6  C   UNL d   1      -1.172   0.634   0.124  0.00  0.00     0.023 A 
ATOM      7  C   UNL d   1       1.158   0.642   0.059  0.00  0.00     0.023 A 
ATOM      8  C   UNL d   1      -2.502  -1.473   0.048  0.00  0.00     0.161 C 
ATOM      9  C   UNL d   1       2.488  -1.472  -0.015  0.00  0.00     0.161 C 
ATOM     10  O   UNL d   1      -2.527  -2.690   0.203  0.00  0.00    -0.292 OA
ATOM     11  O   UNL d   1       2.517  -2.690  -0.151  0.00  0.00    -0.292 OA
ATOM     12  C   UNL d   1       2.420   1.464   0.090  0.00  0.00     0.058 C 
ATOM     13  C   UNL d   1      -2.445   1.423   0.246  0.00  0.00     0.058 C 
ATOM     14  C   UNL d   1       3.742  -0.660   0.210  0.00  0.00     0.084 C 
ATOM     15  C   UNL d   1      -3.780  -0.673  -0.111  0.00  0.00     0.084 C 
ATOM     16  C   UNL d   1      -3.549   0.762  -0.567  0.00  0.00     0.014 C 
ATOM     17  C   UNL d   1       3.623   0.702  -0.454  0.00  0.00     0.014 C 
ENDROOT
TORSDOF 0
