REMARK  7 active torsions:
REMARK  status: ('A' for Active; 'I' for Inactive)
REMARK    1  A    between atoms: C_16  and  C_8 
REMARK    2  A    between atoms: O_17  and  C_9 
REMARK    3  A    between atoms: C_24  and  C_16 
REMARK    4  A    between atoms: O_22  and  C_21 
REMARK    5  A    between atoms: C_23  and  C_24 
REMARK    6  A    between atoms: C_26  and  C_23 
REMARK    7  A    between atoms: C_27  and  C_26 
ROOT
ATOM      1  C   UNL d   1       0.046  -0.926   1.265  0.00  0.00    -0.066 C 
ATOM      2  C   UNL d   1      -0.188   0.266   0.651  0.00  0.00    -0.072 C 
ATOM      3  C   UNL d   1       1.479  -1.573   1.271  0.00  0.00     0.008 C 
ATOM      4  C   UNL d   1      -0.282   2.880  -0.963  0.00  0.00    -0.035 C 
ATOM      5  C   UNL d   1       0.831   0.594  -0.382  0.00  0.00     0.022 C 
ATOM      6  C   UNL d   1       0.449   1.618  -1.409  0.00  0.00     0.002 C 
ATOM      7  C   UNL d   1       2.182   0.738   0.294  0.00  0.00     0.042 C 
ATOM      8  C   UNL d   1      -0.579   3.454  -2.425  0.00  0.00    -0.002 C 
ATOM      9  C   UNL d   1       2.621  -0.709   0.555  0.00  0.00     0.131 C 
ATOM     10  C   UNL d   1      -1.540   2.427  -0.128  0.00  0.00     0.014 C 
ATOM     11  C   UNL d   1      -1.327   1.231   0.865  0.00  0.00     0.036 C 
ATOM     12  C   UNL d   1      -0.518   1.036  -2.484  0.00  0.00     0.006 C 
ATOM     13  C   UNL d   1      -1.046  -1.783   1.848  0.00  0.00     0.038 C 
ATOM     14  C   UNL d   1      -1.283   2.236  -3.051  0.00  0.00     0.006 C 
ATOM     15  C   UNL d   1       1.385  -2.933   0.525  0.00  0.00     0.048 C 
ATOM     16  C   UNL d   1       1.931  -1.769   2.738  0.00  0.00     0.023 C 
ATOM     17  C   UNL d   1       0.504   3.879  -0.111  0.00  0.00     0.016 C 
ATOM     18  C   UNL d   1      -1.126  -3.075   1.013  0.00  0.00     0.036 C 
ATOM     19  C   UNL d   1       0.202  -3.826   0.907  0.00  0.00     0.119 C 
ENDROOT
BRANCH   8  20
ATOM     20  C   UNL d   1       0.759   3.868  -3.236  0.00  0.00    -0.014 C 
ATOM     21  C   UNL d   1       1.015   5.377  -3.158  0.00  0.00     0.010 C 
BRANCH  20  22
ATOM     22  C   UNL d   1       0.831   3.363  -4.710  0.00  0.00     0.005 C 
BRANCH  22  23
ATOM     23  C   UNL d   1       2.226   3.308  -5.358  0.00  0.00     0.001 C 
BRANCH  23  24
ATOM     24  C   UNL d   1       3.218   2.282  -4.771  0.00  0.00     0.004 C 
BRANCH  24  25
ATOM     25  C   UNL d   1       2.813   0.792  -4.833  0.00  0.00    -0.023 C 
ATOM     26  C   UNL d   1       2.507   0.298  -6.246  0.00  0.00     0.009 C 
ATOM     27  C   UNL d   1       3.922  -0.079  -4.221  0.00  0.00     0.009 C 
ENDBRANCH  24  25
ENDBRANCH  23  24
ENDBRANCH  22  23
ENDBRANCH  20  22
ENDBRANCH   8  20
BRANCH   9  28
ATOM     28  O   UNL d   1       3.864  -0.702   1.256  0.00  0.00    -0.394 OA
ATOM     29  H   UNL d   1       4.486  -0.149   0.749  0.00  0.00     0.210 HD
ENDBRANCH   9  28
BRANCH  19  30
ATOM     30  O   UNL d   1       0.480  -4.554   2.098  0.00  0.00    -0.396 OA
ATOM     31  H   UNL d   1       0.335  -3.974   2.860  0.00  0.00     0.210 HD
ENDBRANCH  19  30
TORSDOF 7
