REMARK  3 active torsions:
REMARK  status: ('A' for Active; 'I' for Inactive)
REMARK    1  A    between atoms: C_2  and  S_1 
REMARK    2  A    between atoms: N_4  and  S_1 
REMARK    3  A    between atoms: C_15  and  C_11 
ROOT
ATOM      1  S   UNL d   1       0.825  -0.213  -0.290  0.00  0.00     0.263 S 
ATOM      2  O   UNL d   1      -0.164  -1.196  -0.686  0.00  0.00    -0.200 OA
ATOM      3  O   UNL d   1       0.784   1.101  -0.884  0.00  0.00    -0.200 OA
ENDROOT
BRANCH   1   4
ATOM      4  C   UNL d   1       2.409  -0.879  -0.680  0.00  0.00     0.110 A 
ATOM      5  C   UNL d   1       2.620  -2.244  -0.959  0.00  0.00     0.108 A 
ATOM      6  C   UNL d   1       3.908  -2.735  -1.444  0.00  0.00     0.086 A 
ATOM      7  N   UNL d   1       1.807  -3.304  -0.856  0.00  0.00    -0.238 N 
ATOM      8  N   UNL d   1       3.822  -4.058  -1.623  0.00  0.00    -0.239 N 
ATOM      9  C   UNL d   1       5.010  -1.890  -1.666  0.00  0.00     0.034 A 
ATOM     10  O   UNL d   1       2.528  -4.401  -1.279  0.00  0.00    -0.156 OA
ATOM     11  HN  UNL d   1       4.559  -4.684  -1.947  1.00  0.00     0.197 HD
ATOM     12  C   UNL d   1       4.774  -0.531  -1.387  0.00  0.00     0.004 A 
ATOM     13  C   UNL d   1       3.523  -0.039  -0.923  0.00  0.00     0.028 A 
ATOM     14  HN  UNL d   1       0.842  -3.301  -0.528  1.00  0.00     0.197 HD
ENDBRANCH   1   4
BRANCH   1  15
ATOM     15  N   UNL d   1       0.754  -0.121   1.394  0.00  0.00    -0.297 N 
ATOM     16  C   UNL d   1       1.216   1.003   2.239  0.00  0.00     0.129 C 
ATOM     17  C   UNL d   1       2.455   0.421   2.913  0.00  0.00     0.032 C 
ATOM     18  C   UNL d   1       2.022  -1.005   3.232  0.00  0.00     0.023 C 
ATOM     19  C   UNL d   1       0.986  -1.369   2.165  0.00  0.00     0.136 C 
BRANCH  16  20
ATOM     20  C   UNL d   1       1.287   2.387   1.645  0.00  0.00    -0.035 A 
ATOM     21  C   UNL d   1       0.082   3.001   1.238  0.00  0.00     0.012 A 
ATOM     22  C   UNL d   1       0.084   4.251   0.618  0.00  0.00     0.043 A 
ATOM     23  C   UNL d   1       1.288   4.910   0.428  0.00  0.00     0.116 A 
ATOM     24  C   UNL d   1       2.483   4.353   0.868  0.00  0.00     0.043 A 
ATOM     25  F   UNL d   1       1.302   6.098  -0.189  0.00  0.00    -0.206 F 
ATOM     26  C   UNL d   1       2.485   3.097   1.481  0.00  0.00     0.012 A 
ENDBRANCH  16  20
ENDBRANCH   1  15
TORSDOF 3
