REMARK  5 active torsions:
REMARK  status: ('A' for Active; 'I' for Inactive)
REMARK    1  A    between atoms: C_5  and  C_2 
REMARK       I    between atoms: N_3  and  C_5 
REMARK       I    between atoms: C_6  and  N_3 
REMARK    2  A    between atoms: C_7  and  C_4 
REMARK    3  A    between atoms: S_13  and  C_6 
REMARK    4  A    between atoms: C_12  and  C_22 
REMARK    5  A    between atoms: C_22  and  S_13 
ROOT
ATOM      1  N   UNL d   1      -1.842   2.696  -0.073  0.00  0.00    -0.284 N 
ATOM      2  C   UNL d   1      -0.507   2.786  -0.433  0.00  0.00     0.265 C 
ATOM      3  C   UNL d   1      -2.648   3.743   0.280  0.00  0.00     0.286 C 
ATOM      4  O   UNL d   1       0.046   3.850  -0.697  0.00  0.00    -0.267 OA
ATOM      5  O   UNL d   1      -2.380   4.925   0.370  0.00  0.00    -0.260 OA
ATOM      6  H   UNL d   1      -2.245   1.777   0.020  0.00  0.00     0.172 HD
ENDROOT
BRANCH   2   7
ATOM      7  C   UNL d   1       0.202   1.511  -0.526  0.00  0.00     0.073 C 
ATOM      8  S   UNL d   1      -0.432   0.047   0.097  0.00  0.00    -0.084 SA
ATOM      9  C   UNL d   1       1.037  -0.812  -0.171  0.00  0.00     0.022 C 
ATOM     10  C   UNL d   1       1.921  -0.026  -0.891  0.00  0.00     0.022 C 
ATOM     11  C   UNL d   1       1.456   1.310  -1.065  0.00  0.00     0.026 C 
BRANCH   9  12
ATOM     12  C   UNL d   1       1.264  -2.138   0.374  0.00  0.00     0.021 A 
ATOM     13  S   UNL d   1       2.830  -2.860   0.344  0.00  0.00    -0.101 SA
ATOM     14  C   UNL d   1       2.332  -4.179   1.303  0.00  0.00     0.050 A 
ATOM     15  C   UNL d   1       0.989  -4.126   1.590  0.00  0.00     0.008 A 
ATOM     16  C   UNL d   1       0.369  -2.966   1.031  0.00  0.00     0.021 A 
ENDBRANCH   9  12
ENDBRANCH   2   7
BRANCH   3  17
ATOM     17  S   UNL d   1      -4.232   3.099   0.664  0.00  0.00    -0.064 SA
BRANCH  17  18
ATOM     18  C   UNL d   1      -5.111   4.661   0.988  0.00  0.00     0.130 C 
BRANCH  18  19
ATOM     19  C   UNL d   1      -6.560   4.382   1.272  0.00  0.00    -0.008 A 
ATOM     20  S   UNL d   1      -7.684   4.239  -0.018  0.00  0.00    -0.106 SA
ATOM     21  C   UNL d   1      -8.973   3.904   1.054  0.00  0.00     0.050 A 
ATOM     22  C   UNL d   1      -8.570   3.927   2.370  0.00  0.00     0.008 A 
ATOM     23  C   UNL d   1      -7.179   4.213   2.497  0.00  0.00     0.016 A 
ENDBRANCH  18  19
ENDBRANCH  17  18
ENDBRANCH   3  17
TORSDOF 5
