REMARK  6 active torsions:
REMARK  status: ('A' for Active; 'I' for Inactive)
REMARK    1  A    between atoms: C_10  and  C_1 
REMARK    2  A    between atoms: O_13  and  C_9 
REMARK    3  A    between atoms: O_16  and  C_10 
REMARK    4  A    between atoms: C_15  and  O_13 
REMARK    5  A    between atoms: C_23  and  O_16 
REMARK    6  A    between atoms: O_22  and  C_17 
ROOT
ATOM      1  C   UNL d   1      -2.338  -0.197   0.069  0.00  0.00     0.127 A 
ATOM      2  N   UNL d   1      -0.197  -0.666   0.033  0.00  0.00    -0.247 N 
ATOM      3  N   UNL d   1      -1.662   1.017   0.066  0.00  0.00    -0.335 N 
ATOM      4  HN  UNL d   1      -2.070   1.951   0.086  1.00  0.00     0.168 HD
ATOM      5  C   UNL d   1      -0.384   0.707   0.033  0.00  0.00     0.127 A 
ATOM      6  C   UNL d   1      -1.432  -1.241   0.073  0.00  0.00     0.154 A 
ATOM      7  N   UNL d   1       0.976  -1.343  -0.058  0.00  0.00    -0.272 N 
ATOM      8  HN  UNL d   1       1.048  -2.361  -0.058  1.00  0.00     0.189 HD
ATOM      9  C   UNL d   1       1.991  -0.547  -0.144  0.00  0.00     0.163 A 
ATOM     10  C   UNL d   1       0.773   1.517  -0.032  0.00  0.00     0.054 A 
ATOM     11  C   UNL d   1       1.978   0.933  -0.109  0.00  0.00     0.061 A 
ENDROOT
BRANCH   9  12
ATOM     12  O   UNL d   1       3.303  -0.966  -0.311  0.00  0.00    -0.293 OA
BRANCH  12  13
ATOM     13  C   UNL d   1       3.552  -2.279  -0.761  0.00  0.00     0.078 A 
ATOM     14  C   UNL d   1       2.836  -2.839  -1.819  0.00  0.00     0.040 A 
ATOM     15  C   UNL d   1       3.154  -4.120  -2.272  0.00  0.00     0.039 A 
ATOM     16  C   UNL d   1       4.205  -4.827  -1.686  0.00  0.00     0.068 A 
ATOM     17  C   UNL d   1       4.952  -4.234  -0.664  0.00  0.00     0.039 A 
ATOM     18  C   UNL d   1       4.626  -2.959  -0.193  0.00  0.00     0.040 A 
BRANCH  16  19
ATOM     19  O   UNL d   1       4.614  -6.076  -2.070  0.00  0.00    -0.356 OA
ATOM     20  C   UNL d   1       3.591  -6.917  -2.593  0.00  0.00     0.210 C 
ENDBRANCH  16  19
ENDBRANCH  12  13
ENDBRANCH   9  12
BRANCH   1  21
ATOM     21  C   UNL d   1      -3.790  -0.342  -0.021  0.00  0.00     0.311 C 
ATOM     22  O   UNL d   1      -4.351  -1.427  -0.094  0.00  0.00    -0.258 OA
BRANCH  21  23
ATOM     23  O   UNL d   1      -4.419   0.865  -0.128  0.00  0.00    -0.317 OA
BRANCH  23  24
ATOM     24  C   UNL d   1      -5.730   0.820  -0.702  0.00  0.00     0.175 C 
ATOM     25  C   UNL d   1      -5.585   0.904  -2.212  0.00  0.00     0.034 C 
ENDBRANCH  23  24
ENDBRANCH  21  23
ENDBRANCH   1  21
TORSDOF 6
