REMARK  4 active torsions:
REMARK  status: ('A' for Active; 'I' for Inactive)
REMARK    1  A    between atoms: N_7  and  C_1 
REMARK    2  A    between atoms: O_11  and  C_2 
REMARK    3  A    between atoms: C_12  and  N_9 
REMARK    4  A    between atoms: S_15  and  C_14 
ROOT
ATOM      1  N   UNL d   1      -0.460  -2.777   0.057  0.00  0.00    -0.294 N 
ATOM      2  HN  UNL d   1      -1.413  -3.138   0.108  1.00  0.00     0.187 HD
ATOM      3  N   UNL d   1       0.559  -3.497   0.021  0.00  0.00    -0.300 N 
ATOM      4  HN  UNL d   1       1.505  -3.117   0.000  1.00  0.00     0.187 HD
ENDROOT
BRANCH   1   5
ATOM      5  C   UNL d   1      -0.139  -1.409   0.019  0.00  0.00     0.124 A 
ATOM      6  C   UNL d   1       1.030  -0.816  -0.410  0.00  0.00     0.187 A 
ATOM      7  N   UNL d   1       0.836   0.527  -0.236  0.00  0.00    -0.274 N 
ATOM      8  C   UNL d   1       1.784   1.583  -0.500  0.00  0.00     0.180 C 
ATOM      9  N   UNL d   1      -0.386   0.842   0.249  0.00  0.00    -0.299 N 
ATOM     10  C   UNL d   1      -0.988  -0.347   0.404  0.00  0.00     0.054 A 
ATOM     11  HN  UNL d   1      -0.762   1.769   0.449  1.00  0.00     0.187 HD
ATOM     12  C   UNL d   1      -2.372  -0.418   0.930  0.00  0.00     0.072 C 
BRANCH   6  13
ATOM     13  O   UNL d   1       2.163  -1.319  -0.896  0.00  0.00    -0.343 OA
ATOM     14  H   UNL d   1       2.036  -2.290  -0.898  0.00  0.00     0.219 HD
ENDBRANCH   6  13
ENDBRANCH   1   5
BRANCH   3  15
ATOM     15  C   UNL d   1       0.291  -4.878   0.013  0.00  0.00     0.048 A 
ATOM     16  C   UNL d   1      -0.744  -5.471  -0.722  0.00  0.00     0.032 A 
ATOM     17  C   UNL d   1      -0.867  -6.867  -0.792  0.00  0.00     0.021 A 
ATOM     18  C   UNL d   1       0.042  -7.697  -0.128  0.00  0.00    -0.000 A 
ATOM     19  C   UNL d   1       1.071  -7.105   0.611  0.00  0.00     0.021 A 
ATOM     20  C   UNL d   1       1.191  -5.713   0.680  0.00  0.00     0.032 A 
BRANCH  18  21
ATOM     21  S   UNL d   1       0.034  -9.480  -0.233  0.00  0.00    -0.134 SA
ATOM     22  C   UNL d   1      -1.732  -9.854  -0.372  0.00  0.00     0.095 C 
ENDBRANCH  18  21
ENDBRANCH   3  15
TORSDOF 4
