REMARK  6 active torsions:
REMARK  status: ('A' for Active; 'I' for Inactive)
REMARK    1  A    between atoms: C_4  and  N_1 
REMARK    2  A    between atoms: C_12  and  C_2 
REMARK    3  A    between atoms: N_5  and  C_3 
REMARK    4  A    between atoms: C_14  and  C_12 
REMARK    5  A    between atoms: C_18  and  C_14 
REMARK    6  A    between atoms: O_17  and  C_18 
ROOT
ATOM      1  N   UNL d   1       1.533  -4.147   1.675  0.00  0.00    -0.197 NA
ATOM      2  C   UNL d   1       1.611  -4.395   0.544  0.00  0.00     0.066 C 
ATOM      3  C   UNL d   1       1.739  -4.702  -0.890  0.00  0.00     0.120 C 
ENDROOT
BRANCH   3   4
ATOM      4  C   UNL d   1       0.439  -4.404  -1.663  0.00  0.00     0.062 C 
BRANCH   4   5
ATOM      5  C   UNL d   1      -0.136  -2.994  -1.717  0.00  0.00    -0.028 A 
ATOM      6  C   UNL d   1       0.604  -1.919  -1.174  0.00  0.00     0.045 A 
ATOM      7  C   UNL d   1       0.056  -0.638  -1.084  0.00  0.00     0.103 A 
ATOM      8  C   UNL d   1      -1.211  -0.386  -1.591  0.00  0.00     0.038 A 
ATOM      9  C   UNL d   1      -1.933  -1.436  -2.169  0.00  0.00     0.032 A 
ATOM     10  C   UNL d   1      -1.438  -2.760  -2.246  0.00  0.00     0.036 A 
BRANCH   7  11
ATOM     11  N   UNL d   1       0.815   0.428  -0.417  0.00  0.00    -0.116 N 
ATOM     12  O   UNL d   1       1.912   0.139   0.075  0.00  0.00    -0.532 OA
ATOM     13  O   UNL d   1       0.308   1.561  -0.384  0.00  0.00    -0.532 OA
ENDBRANCH   7  11
BRANCH  10  14
ATOM     14  N   UNL d   1      -2.247  -3.762  -2.751  0.00  0.00    -0.380 N 
ATOM     15  C   UNL d   1      -3.705  -3.670  -2.750  0.00  0.00     0.123 C 
ATOM     16  C   UNL d   1      -4.117  -5.112  -3.003  0.00  0.00     0.021 C 
ATOM     17  C   UNL d   1      -3.109  -5.569  -4.043  0.00  0.00     0.021 C 
ATOM     18  C   UNL d   1      -1.823  -4.814  -3.683  0.00  0.00     0.123 C 
ENDBRANCH  10  14
ENDBRANCH   4   5
ENDBRANCH   3   4
BRANCH   3  19
ATOM     19  C   UNL d   1       2.118  -6.184  -1.028  0.00  0.00     0.183 C 
BRANCH  19  20
ATOM     20  O   UNL d   1       2.268  -6.546  -2.397  0.00  0.00    -0.400 OA
ATOM     21  H   UNL d   1       2.557  -7.476  -2.420  0.00  0.00     0.209 HD
ENDBRANCH  19  20
ENDBRANCH   3  19
TORSDOF 6
