REMARK  1 active torsions:
REMARK  status: ('A' for Active; 'I' for Inactive)
REMARK    1  A    between atoms: N_8  and  C_1 
ROOT
ATOM      1  C   UNL d   1       0.002  -1.295  -0.012  0.00  0.00     0.031 A 
ATOM      2  N   UNL d   1      -0.001   1.502  -0.044  0.00  0.00    -0.355 N 
ATOM      3  HN  UNL d   1      -0.002   2.522  -0.082  1.00  0.00     0.166 HD
ATOM      4  C   UNL d   1       1.231  -0.576   0.013  0.00  0.00     0.013 A 
ATOM      5  C   UNL d   1      -1.229  -0.578   0.016  0.00  0.00     0.013 A 
ATOM      6  C   UNL d   1      -1.156   0.828  -0.017  0.00  0.00     0.044 A 
ATOM      7  C   UNL d   1       1.157   0.830  -0.019  0.00  0.00     0.044 A 
ATOM      8  C   UNL d   1       2.519  -1.176   0.050  0.00  0.00     0.015 A 
ATOM      9  C   UNL d   1      -2.514  -1.180   0.056  0.00  0.00     0.015 A 
ATOM     10  C   UNL d   1      -2.331   1.570  -0.018  0.00  0.00     0.030 A 
ATOM     11  C   UNL d   1       2.329   1.573  -0.022  0.00  0.00     0.030 A 
ATOM     12  C   UNL d   1       3.684  -0.409   0.037  0.00  0.00     0.001 A 
ATOM     13  C   UNL d   1      -3.681  -0.414   0.044  0.00  0.00     0.001 A 
ATOM     14  C   UNL d   1      -3.589   0.967   0.007  0.00  0.00     0.002 A 
ATOM     15  C   UNL d   1       3.588   0.973  -0.000  0.00  0.00     0.002 A 
ENDROOT
BRANCH   1  16
ATOM     16  N   UNL d   1       0.003  -2.709   0.148  0.00  0.00    -0.301 NA
ATOM     17  H   UNL d   1       0.835  -3.160  -0.214  0.00  0.00     0.124 HD
ATOM     18  H   UNL d   1      -0.829  -3.161  -0.212  0.00  0.00     0.124 HD
ENDBRANCH   1  16
TORSDOF 1
