REMARK  5 active torsions:
REMARK  status: ('A' for Active; 'I' for Inactive)
REMARK    1  A    between atoms: C_2  and  C_1 
REMARK       I    between atoms: N_6  and  C_1 
REMARK    2  A    between atoms: O_16  and  C_3 
REMARK    3  A    between atoms: O_17  and  C_4 
REMARK    4  A    between atoms: O_18  and  C_5 
REMARK    5  A    between atoms: C_9  and  N_6 
ROOT
ATOM      1  C   UNL d   1       0.831  -0.177   0.023  0.00  0.00     0.252 C 
ATOM      2  N   UNL d   1       0.217  -0.107  -1.219  0.00  0.00    -0.352 N 
ATOM      3  O   UNL d   1       0.266   0.051   1.082  0.00  0.00    -0.268 OA
ATOM      4  H   UNL d   1       0.780  -0.211  -2.059  0.00  0.00     0.163 HD
ENDROOT
BRANCH   1   5
ATOM      5  C   UNL d   1       2.284  -0.529   0.004  0.00  0.00     0.037 A 
ATOM      6  C   UNL d   1       3.119  -0.014   1.003  0.00  0.00     0.057 A 
ATOM      7  C   UNL d   1       4.472  -0.383   1.083  0.00  0.00     0.105 A 
ATOM      8  C   UNL d   1       5.001  -1.316   0.158  0.00  0.00     0.135 A 
ATOM      9  C   UNL d   1       4.139  -1.859  -0.822  0.00  0.00     0.105 A 
ATOM     10  C   UNL d   1       2.807  -1.438  -0.917  0.00  0.00     0.057 A 
BRANCH   7  11
ATOM     11  O   UNL d   1       5.313   0.114   2.046  0.00  0.00    -0.353 OA
ATOM     12  C   UNL d   1       4.823   1.092   2.954  0.00  0.00     0.210 C 
ENDBRANCH   7  11
BRANCH   8  13
ATOM     13  O   UNL d   1       6.305  -1.739   0.081  0.00  0.00    -0.351 OA
ATOM     14  C   UNL d   1       7.276  -1.280   1.006  0.00  0.00     0.210 C 
ENDBRANCH   8  13
BRANCH   9  15
ATOM     15  O   UNL d   1       4.468  -2.785  -1.784  0.00  0.00    -0.353 OA
ATOM     16  C   UNL d   1       5.382  -3.808  -1.399  0.00  0.00     0.210 C 
ENDBRANCH   9  15
ENDBRANCH   1   5
BRANCH   2  17
ATOM     17  C   UNL d   1      -1.219   0.105  -1.384  0.00  0.00     0.085 C 
ATOM     18  C   UNL d   1      -2.015  -1.213  -1.348  0.00  0.00     0.034 C 
ATOM     19  C   UNL d   1      -1.948  -2.070  -2.638  0.00  0.00    -0.045 C 
ATOM     20  C   UNL d   1      -0.574  -2.744  -2.810  0.00  0.00     0.015 C 
ATOM     21  C   UNL d   1      -2.994  -3.201  -2.531  0.00  0.00     0.015 C 
ATOM     22  C   UNL d   1      -2.277  -1.188  -3.863  0.00  0.00     0.013 C 
ATOM     23  C   UNL d   1      -1.406   0.076  -3.946  0.00  0.00    -0.016 C 
ATOM     24  C   UNL d   1      -1.519   0.906  -2.658  0.00  0.00     0.029 C 
ATOM     25  C   UNL d   1      -1.796   0.915  -5.164  0.00  0.00     0.010 C 
ENDBRANCH   2  17
TORSDOF 5
