REMARK  5 active torsions:
REMARK  status: ('A' for Active; 'I' for Inactive)
REMARK    1  A    between atoms: C_16  and  C_5 
REMARK    2  A    between atoms: N_7  and  C_6 
REMARK    3  A    between atoms: C_12  and  N_7 
REMARK    4  A    between atoms: O_20  and  C_13 
REMARK    5  A    between atoms: O_21  and  C_18 
ROOT
ATOM      1  C   UNL d   1       0.179   0.920   0.277  0.00  0.00     0.043 A 
ATOM      2  C   UNL d   1      -0.128  -0.431   0.265  0.00  0.00     0.089 A 
ATOM      3  C   UNL d   1      -1.021   1.702   0.135  0.00  0.00     0.038 A 
ATOM      4  S   UNL d   1      -1.787  -0.739   0.078  0.00  0.00    -0.071 SA
ATOM      5  C   UNL d   1      -2.173   0.934   0.048  0.00  0.00     0.018 A 
ATOM      6  C   UNL d   1       1.547   1.242   0.410  0.00  0.00     0.119 A 
ATOM      7  N   UNL d   1       0.729  -1.457   0.382  0.00  0.00    -0.346 N 
ATOM      8  HN  UNL d   1       0.452  -2.438   0.341  1.00  0.00     0.167 HD
ATOM      9  N   UNL d   1       2.420   0.216   0.589  0.00  0.00    -0.338 N 
ATOM     10  HN  UNL d   1       3.409   0.410   0.748  1.00  0.00     0.168 HD
ATOM     11  C   UNL d   1       1.982  -1.047   0.558  0.00  0.00     0.182 A 
ENDROOT
BRANCH   6  12
ATOM     12  N   UNL d   1       2.041   2.566   0.364  0.00  0.00    -0.339 N 
ATOM     13  H   UNL d   1       1.334   3.237   0.091  0.00  0.00     0.167 HD
BRANCH  12  14
ATOM     14  C   UNL d   1       3.320   2.954  -0.112  0.00  0.00     0.067 A 
ATOM     15  C   UNL d   1       3.964   4.151   0.263  0.00  0.00     0.097 A 
ATOM     16  C   UNL d   1       5.231   4.461  -0.273  0.00  0.00     0.075 A 
ATOM     17  C   UNL d   1       5.869   3.620  -1.185  0.00  0.00     0.070 A 
ATOM     18  C   UNL d   1       5.230   2.452  -1.569  0.00  0.00     0.039 A 
ATOM     19  C   UNL d   1       3.980   2.131  -1.049  0.00  0.00     0.035 A 
BRANCH  15  20
ATOM     20  O   UNL d   1       3.542   5.135   1.121  0.00  0.00    -0.354 OA
ATOM     21  C   UNL d   1       2.377   4.959   1.901  0.00  0.00     0.210 C 
ENDBRANCH  15  20
BRANCH  17  22
ATOM     22  O   UNL d   1       7.085   3.818  -1.767  0.00  0.00    -0.356 OA
ATOM     23  C   UNL d   1       7.785   5.004  -1.413  0.00  0.00     0.210 C 
ENDBRANCH  17  22
ENDBRANCH  12  14
ENDBRANCH   6  12
BRANCH   5  24
ATOM     24  C   UNL d   1      -3.581   1.364  -0.004  0.00  0.00    -0.019 A 
ATOM     25  C   UNL d   1      -4.547   0.667  -0.747  0.00  0.00     0.013 A 
ATOM     26  C   UNL d   1      -5.888   1.058  -0.730  0.00  0.00     0.001 A 
ATOM     27  C   UNL d   1      -6.282   2.162   0.022  0.00  0.00     0.000 A 
ATOM     28  C   UNL d   1      -5.335   2.878   0.750  0.00  0.00     0.001 A 
ATOM     29  C   UNL d   1      -3.994   2.484   0.734  0.00  0.00     0.013 A 
ENDBRANCH   5  24
TORSDOF 5
