REMARK  3 active torsions:
REMARK  status: ('A' for Active; 'I' for Inactive)
REMARK    1  A    between atoms: C_8  and  N_3 
REMARK    2  A    between atoms: C_11  and  C_8 
REMARK       I    between atoms: C_9  and  N_10 
REMARK       I    between atoms: N_15  and  C_9 
REMARK       I    between atoms: N_10  and  C_11 
REMARK    3  A    between atoms: C_19  and  N_15 
ROOT
ATOM      1  N   UNL d   1      -0.664  -0.135  -1.354  0.00  0.00    -0.248 N 
ATOM      2  C   UNL d   1      -1.109  -0.096  -0.076  0.00  0.00     0.117 A 
ATOM      3  N   UNL d   1      -2.857   0.165  -1.238  0.00  0.00    -0.232 N 
ATOM      4  C   UNL d   1      -1.774   0.100  -2.138  0.00  0.00     0.350 A 
ATOM      5  N   UNL d   1      -2.394   0.106   0.056  0.00  0.00    -0.281 N 
ATOM      6  HN  UNL d   1      -2.929   0.198   0.920  1.00  0.00     0.188 HD
ATOM      7  C   UNL d   1       0.674  -0.332  -1.759  0.00  0.00     0.062 A 
ATOM      8  S   UNL d   1       1.163  -1.331   0.816  0.00  0.00    -0.120 SA
ATOM      9  C   UNL d   1      -0.166  -0.141   1.086  0.00  0.00     0.158 C 
ATOM     10  C   UNL d   1       1.613  -0.854  -0.848  0.00  0.00     0.028 A 
ATOM     11  O   UNL d   1      -1.858   0.260  -3.345  0.00  0.00    -0.244 OA
ATOM     12  C   UNL d   1       1.098  -0.044  -3.065  0.00  0.00     0.031 A 
ATOM     13  C   UNL d   1       2.935  -1.089  -1.253  0.00  0.00     0.021 A 
ATOM     14  C   UNL d   1       2.423  -0.260  -3.454  0.00  0.00     0.002 A 
ATOM     15  C   UNL d   1       3.340  -0.786  -2.551  0.00  0.00     0.002 A 
ENDROOT
BRANCH   3  16
ATOM     16  C   UNL d   1      -4.141   0.721  -1.612  0.00  0.00     0.257 C 
BRANCH  16  17
ATOM     17  C   UNL d   1      -5.349   0.401  -0.734  0.00  0.00     0.245 C 
ATOM     18  N   UNL d   1      -5.132  -0.512   0.276  0.00  0.00    -0.278 N 
ATOM     19  C   UNL d   1      -5.929  -0.778   1.372  0.00  0.00     0.327 C 
ATOM     20  H   UNL d   1      -4.163  -0.785   0.423  0.00  0.00     0.173 HD
ATOM     21  N   UNL d   1      -7.200  -0.262   1.306  0.00  0.00    -0.309 N 
ATOM     22  O   UNL d   1      -5.438  -1.408   2.305  0.00  0.00    -0.247 OA
ATOM     23  H   UNL d   1      -7.429   0.205   0.433  0.00  0.00     0.170 HD
ATOM     24  O   UNL d   1      -6.459   0.877  -0.981  0.00  0.00    -0.271 OA
BRANCH  21  25
ATOM     25  C   UNL d   1      -8.196  -0.258   2.304  0.00  0.00     0.036 A 
ATOM     26  C   UNL d   1      -8.026  -0.795   3.580  0.00  0.00     0.029 A 
ATOM     27  C   UNL d   1      -9.055  -0.722   4.526  0.00  0.00     0.002 A 
ATOM     28  C   UNL d   1     -10.266  -0.115   4.201  0.00  0.00     0.000 A 
ATOM     29  C   UNL d   1     -10.450   0.420   2.929  0.00  0.00     0.002 A 
ATOM     30  C   UNL d   1      -9.419   0.349   1.986  0.00  0.00     0.029 A 
ENDBRANCH  21  25
ENDBRANCH  16  17
ENDBRANCH   3  16
TORSDOF 3
