REMARK  6 active torsions:
REMARK  status: ('A' for Active; 'I' for Inactive)
REMARK    1  A    between atoms: C_2  and  C_1 
REMARK    2  A    between atoms: S_15  and  C_3 
REMARK    3  A    between atoms: N_5  and  C_4 
REMARK       I    between atoms: C_6  and  N_5 
REMARK    4  A    between atoms: C_7  and  C_6 
REMARK    5  A    between atoms: C_8  and  C_9 
REMARK    6  A    between atoms: O_17  and  C_8 
ROOT
ATOM      1  C   UNL d   1       3.990  -1.880   0.015  0.00  0.00     0.066 C 
ATOM      2  C   UNL d   1       2.966  -2.732   0.501  0.00  0.00     0.042 C 
ATOM      3  C   UNL d   1       3.146  -4.133   0.404  0.00  0.00     0.052 C 
ATOM      4  C   UNL d   1       5.236  -2.432  -0.352  0.00  0.00     0.018 C 
ATOM      5  C   UNL d   1       4.417  -4.641   0.081  0.00  0.00     0.031 C 
ATOM      6  C   UNL d   1       5.461  -3.799  -0.280  0.00  0.00     0.003 C 
ENDROOT
BRANCH   3   7
ATOM      7  N   UNL d   1       2.170  -5.133   0.611  0.00  0.00    -0.322 N 
ATOM      8  C   UNL d   1       0.844  -5.212   0.304  0.00  0.00     0.245 C 
ATOM      9  O   UNL d   1       0.252  -6.269   0.535  0.00  0.00    -0.268 OA
ATOM     10  H   UNL d   1       2.513  -6.058   0.845  0.00  0.00     0.169 HD
BRANCH   8  11
ATOM     11  C   UNL d   1       0.179  -4.134  -0.453  0.00  0.00     0.081 C 
ATOM     12  C   UNL d   1      -1.122  -3.835  -0.317  0.00  0.00     0.086 C 
BRANCH  12  13
ATOM     13  C   UNL d   1      -2.006  -4.445   0.683  0.00  0.00     0.165 C 
ATOM     14  O   UNL d   1      -1.760  -4.682   1.849  0.00  0.00    -0.647 OA
BRANCH  13  15
ATOM     15  O   UNL d   1      -3.213  -4.666   0.139  0.00  0.00    -0.773 OA
ATOM     16  H   UNL d   1      -3.713  -5.096   0.864  0.00  0.00     0.167 HD
ENDBRANCH  13  15
ENDBRANCH  12  13
ENDBRANCH   8  11
ENDBRANCH   3   7
BRANCH   2  17
ATOM     17  S   UNL d   1       1.591  -1.963   1.387  0.00  0.00    -0.131 SA
ATOM     18  C   UNL d   1       1.455  -2.999   2.877  0.00  0.00     0.095 C 
ENDBRANCH   2  17
BRANCH   1  19
ATOM     19  C   UNL d   1       3.837  -0.379  -0.111  0.00  0.00     0.418 C 
ATOM     20  F   UNL d   1       2.611   0.029  -0.538  0.00  0.00    -0.166 F 
ATOM     21  F   UNL d   1       4.090   0.281   1.053  0.00  0.00    -0.166 F 
ATOM     22  F   UNL d   1       4.708   0.153  -1.022  0.00  0.00    -0.166 F 
ENDBRANCH   1  19
TORSDOF 6
