REMARK  9 active torsions:
REMARK  status: ('A' for Active; 'I' for Inactive)
REMARK    1  A    between atoms: C_4  and  C_1 
REMARK       I    between atoms: N_8  and  C_4 
REMARK    2  A    between atoms: C_6  and  C_10 
REMARK    3  A    between atoms: C_9  and  N_8 
REMARK    4  A    between atoms: O_27  and  C_12 
REMARK    5  A    between atoms: N_24  and  C_13 
REMARK    6  A    between atoms: O_29  and  C_15 
REMARK    7  A    between atoms: C_30  and  N_24 
REMARK    8  A    between atoms: C_25  and  C_32 
REMARK    9  A    between atoms: C_32  and  C_30 
ROOT
ATOM      1  C   UNL d   1       3.986  -2.433  -0.261  0.00  0.00     0.057 A 
ATOM      2  C   UNL d   1       2.479  -4.056  -1.323  0.00  0.00     0.050 A 
ATOM      3  C   UNL d   1       3.060  -2.783  -1.256  0.00  0.00     0.047 A 
ATOM      4  C   UNL d   1       4.452  -3.433   0.638  0.00  0.00     0.035 A 
ATOM      5  C   UNL d   1       2.854  -5.002  -0.374  0.00  0.00     0.018 A 
ATOM      6  C   UNL d   1       3.817  -4.691   0.590  0.00  0.00     0.026 A 
ENDROOT
BRANCH   1   7
ATOM      7  N   UNL d   1       4.457  -1.094  -0.117  0.00  0.00    -0.321 N 
ATOM      8  C   UNL d   1       4.016   0.027  -0.814  0.00  0.00     0.264 C 
ATOM      9  O   UNL d   1       3.140  -0.021  -1.673  0.00  0.00    -0.267 OA
ATOM     10  H   UNL d   1       5.068  -0.929   0.670  0.00  0.00     0.169 HD
BRANCH   8  11
ATOM     11  C   UNL d   1       4.632   1.304  -0.448  0.00  0.00     0.096 A 
ATOM     12  S   UNL d   1       3.893   2.720  -1.090  0.00  0.00    -0.082 SA
ATOM     13  C   UNL d   1       4.995   3.773  -0.317  0.00  0.00     0.017 A 
ATOM     14  C   UNL d   1       4.994   5.179  -0.392  0.00  0.00     0.020 A 
ATOM     15  C   UNL d   1       5.938   3.067   0.431  0.00  0.00     0.004 A 
ATOM     16  C   UNL d   1       5.955   5.895   0.322  0.00  0.00     0.001 A 
ATOM     17  C   UNL d   1       6.897   5.229   1.088  0.00  0.00     0.001 A 
ATOM     18  C   UNL d   1       6.903   3.829   1.143  0.00  0.00     0.014 A 
ATOM     19  C   UNL d   1       5.733   1.639   0.316  0.00  0.00     0.068 A 
ATOM     20 CL   UNL d   1       6.801   0.521   1.079  0.00  0.00    -0.082 Cl
ENDBRANCH   8  11
ENDBRANCH   1   7
BRANCH   4  21
ATOM     21  N   UNL d   1       5.415  -3.127   1.640  0.00  0.00    -0.291 NA
ATOM     22  H   UNL d   1       6.048  -2.410   1.298  0.00  0.00     0.127 HD
BRANCH  21  23
ATOM     23  C   UNL d   1       6.200  -4.256   2.170  0.00  0.00     0.097 C 
BRANCH  23  24
ATOM     24  C   UNL d   1       7.134  -3.800   3.298  0.00  0.00     0.053 C 
BRANCH  24  25
ATOM     25  C   UNL d   1       7.998  -4.947   3.775  0.00  0.00    -0.054 A 
ATOM     26  C   UNL d   1       7.543  -5.827   4.770  0.00  0.00     0.046 A 
ATOM     27  C   UNL d   1       8.307  -6.936   5.177  0.00  0.00     0.102 A 
ATOM     28  C   UNL d   1       9.566  -7.152   4.593  0.00  0.00     0.101 A 
ATOM     29  C   UNL d   1      10.017  -6.266   3.604  0.00  0.00     0.040 A 
ATOM     30  C   UNL d   1       9.245  -5.179   3.192  0.00  0.00     0.010 A 
BRANCH  27  31
ATOM     31  O   UNL d   1       7.881  -7.776   6.173  0.00  0.00    -0.353 OA
ATOM     32  C   UNL d   1       6.478  -8.003   6.248  0.00  0.00     0.210 C 
ENDBRANCH  27  31
BRANCH  28  33
ATOM     33  O   UNL d   1      10.470  -8.151   4.840  0.00  0.00    -0.353 OA
ATOM     34  C   UNL d   1      10.135  -9.170   5.769  0.00  0.00     0.210 C 
ENDBRANCH  28  33
ENDBRANCH  24  25
ENDBRANCH  23  24
ENDBRANCH  21  23
ENDBRANCH   4  21
BRANCH   2  35
ATOM     35  C   UNL d   1       1.442  -4.383  -2.367  0.00  0.00     0.417 C 
ATOM     36  F   UNL d   1       1.180  -3.364  -3.231  0.00  0.00    -0.166 F 
ATOM     37  F   UNL d   1       1.804  -5.443  -3.143  0.00  0.00    -0.166 F 
ATOM     38  F   UNL d   1       0.242  -4.721  -1.815  0.00  0.00    -0.166 F 
ENDBRANCH   2  35
TORSDOF 9
