REMARK  7 active torsions:
REMARK  status: ('A' for Active; 'I' for Inactive)
REMARK    1  A    between atoms: C_13  and  C_3 
REMARK    2  A    between atoms: N_17  and  C_4 
REMARK    3  A    between atoms: C_8  and  C_12 
REMARK    4  A    between atoms: C_14  and  N_22 
REMARK    5  A    between atoms: C_29  and  N_17 
REMARK    6  A    between atoms: N_22  and  C_30 
REMARK    7  A    between atoms: C_30  and  C_29 
ROOT
ATOM      1  N   UNL d   1       0.639   0.387   0.199  0.00  0.00    -0.330 N 
ATOM      2  HN  UNL d   1       1.622   0.652   0.271  1.00  0.00     0.168 HD
ATOM      3  C   UNL d   1       0.270  -0.897   0.325  0.00  0.00     0.134 A 
ATOM      4  C   UNL d   1      -0.301   1.317  -0.021  0.00  0.00     0.105 A 
ATOM      5  N   UNL d   1      -1.012  -1.312   0.266  0.00  0.00    -0.343 N 
ATOM      6  HN  UNL d   1      -1.254  -2.297   0.375  1.00  0.00     0.167 HD
ATOM      7  C   UNL d   1      -1.652   0.970  -0.107  0.00  0.00     0.094 A 
ATOM      8  C   UNL d   1      -1.965  -0.372   0.058  0.00  0.00     0.032 A 
ATOM      9 CL   UNL d   1      -2.856   2.180  -0.382  0.00  0.00    -0.079 Cl
ATOM     10  C   UNL d   1      -3.359  -0.924   0.004  0.00  0.00     0.070 C 
ENDROOT
BRANCH   4  11
ATOM     11  N   UNL d   1       0.120   2.639  -0.275  0.00  0.00    -0.276 NA
ATOM     12  H   UNL d   1      -0.519   3.290   0.178  0.00  0.00     0.129 HD
BRANCH  11  13
ATOM     13  C   UNL d   1       1.529   2.941   0.029  0.00  0.00     0.108 C 
BRANCH  13  14
ATOM     14  C   UNL d   1       2.511   2.364  -1.013  0.00  0.00     0.108 C 
BRANCH  14  15
ATOM     15  N   UNL d   1       3.873   2.856  -0.789  0.00  0.00    -0.278 NA
ATOM     16  H   UNL d   1       4.216   2.733   0.163  0.00  0.00     0.129 HD
BRANCH  15  17
ATOM     17  C   UNL d   1       4.875   2.366  -1.619  0.00  0.00     0.080 A 
ATOM     18  N   UNL d   1       6.081   2.199  -1.036  0.00  0.00    -0.343 N 
ATOM     19  C   UNL d   1       7.131   1.781  -1.804  0.00  0.00     0.117 A 
ATOM     20  HN  UNL d   1       6.206   2.382  -0.041  1.00  0.00     0.167 HD
ATOM     21  C   UNL d   1       6.989   1.500  -3.162  0.00  0.00     0.034 A 
ATOM     22  C   UNL d   1       5.747   1.676  -3.752  0.00  0.00     0.005 A 
ATOM     23  C   UNL d   1       4.686   2.130  -2.975  0.00  0.00     0.042 A 
BRANCH  19  24
ATOM     24  C   UNL d   1       8.512   1.630  -1.181  0.00  0.00     0.432 C 
ATOM     25  F   UNL d   1       8.577   1.933   0.146  0.00  0.00    -0.165 F 
ATOM     26  F   UNL d   1       8.997   0.356  -1.294  0.00  0.00    -0.165 F 
ATOM     27  F   UNL d   1       9.445   2.422  -1.788  0.00  0.00    -0.165 F 
ENDBRANCH  19  24
ENDBRANCH  15  17
ENDBRANCH  14  15
ENDBRANCH  13  14
ENDBRANCH  11  13
ENDBRANCH   4  11
BRANCH   3  28
ATOM     28  C   UNL d   1       1.331  -1.921   0.484  0.00  0.00     0.076 A 
ATOM     29  N   UNL d   1       2.618  -1.480   0.588  0.00  0.00    -0.363 N 
ATOM     30  C   UNL d   1       3.600  -2.398   0.711  0.00  0.00     0.088 A 
ATOM     31  HN  UNL d   1       2.833  -0.483   0.572  1.00  0.00     0.165 HD
ATOM     32  C   UNL d   1       3.377  -3.763   0.739  0.00  0.00     0.017 A 
ATOM     33  C   UNL d   1       2.069  -4.214   0.635  0.00  0.00     0.004 A 
ATOM     34  C   UNL d   1       1.036  -3.288   0.506  0.00  0.00     0.033 A 
ENDBRANCH   3  28
TORSDOF 7
