REMARK  1 active torsions:
REMARK  status: ('A' for Active; 'I' for Inactive)
REMARK    1  A    between atoms: C_11  and  N_3 
ROOT
ATOM      1  C   UNL d   1      -0.254  -0.706   0.033  0.00  0.00     0.147 A 
ATOM      2  C   UNL d   1      -0.269   0.661   0.016  0.00  0.00     0.095 A 
ATOM      3  N   UNL d   1      -1.569  -1.131  -0.066  0.00  0.00    -0.239 N 
ATOM      4  N   UNL d   1       0.946  -1.394   0.056  0.00  0.00    -0.317 N 
ATOM      5  N   UNL d   1       2.083   0.685   0.155  0.00  0.00    -0.299 N 
ATOM      6  C   UNL d   1       0.930   1.434   0.099  0.00  0.00     0.263 A 
ATOM      7  N   UNL d   1      -2.399  -0.070  -0.265  0.00  0.00    -0.302 N 
ATOM      8  HN  UNL d   1      -3.401  -0.092  -0.459  1.00  0.00     0.186 HD
ATOM      9  C   UNL d   1       2.183  -0.681   0.111  0.00  0.00     0.180 A 
ATOM     10  C   UNL d   1      -1.614   1.007  -0.153  0.00  0.00     0.128 A 
ATOM     11  S   UNL d   1       3.638  -1.473   0.114  0.00  0.00    -0.040 SA
ATOM     12  O   UNL d   1       0.948   2.657   0.100  0.00  0.00    -0.267 OA
ATOM     13  H   UNL d   1       0.974  -2.405  -0.033  0.00  0.00     0.170 HD
ATOM     14  H   UNL d   1       2.943   1.216   0.183  0.00  0.00     0.171 HD
ENDROOT
BRANCH   3  15
ATOM     15  C   UNL d   1      -2.078  -2.454  -0.021  0.00  0.00     0.058 A 
ATOM     16  C   UNL d   1      -1.393  -3.474   0.657  0.00  0.00     0.034 A 
ATOM     17  C   UNL d   1      -1.907  -4.773   0.656  0.00  0.00     0.044 A 
ATOM     18  C   UNL d   1      -3.092  -5.048  -0.018  0.00  0.00     0.116 A 
ATOM     19  C   UNL d   1      -3.793  -4.042  -0.671  0.00  0.00     0.044 A 
ATOM     20  F   UNL d   1      -3.568  -6.299  -0.027  0.00  0.00    -0.206 F 
ATOM     21  C   UNL d   1      -3.297  -2.737  -0.659  0.00  0.00     0.034 A 
ENDBRANCH   3  15
TORSDOF 1
