REMARK  4 active torsions:
REMARK  status: ('A' for Active; 'I' for Inactive)
REMARK    1  A    between atoms: C_2  and  C_1 
REMARK       I    between atoms: C_3  and  N_5 
REMARK    2  A    between atoms: O_8  and  C_3 
REMARK    3  A    between atoms: N_5  and  C_4 
REMARK    4  A    between atoms: C_15  and  O_8 
ROOT
ATOM      1  C   UNL d   1       0.998   3.424  -1.115  0.00  0.00    -0.085 C 
ATOM      2  C   UNL d   1       1.930   3.917  -1.692  0.00  0.00     0.015 C 
ATOM      3  C   UNL d   1      -0.147   2.794  -0.432  0.00  0.00     0.207 C 
ATOM      4  C   UNL d   1      -1.415   3.641  -0.511  0.00  0.00     0.054 C 
ENDROOT
BRANCH   3   5
ATOM      5  O   UNL d   1      -0.339   1.427  -0.873  0.00  0.00    -0.286 OA
BRANCH   5   6
ATOM      6  C   UNL d   1      -0.653   1.209  -2.158  0.00  0.00     0.366 C 
ATOM      7  N   UNL d   1      -0.660  -0.092  -2.566  0.00  0.00    -0.301 N 
ATOM      8  H   UNL d   1      -1.052  -0.103  -3.502  0.00  0.00     0.171 HD
ATOM      9  O   UNL d   1      -0.973   2.073  -2.967  0.00  0.00    -0.238 OA
BRANCH   7  10
ATOM     10  C   UNL d   1      -0.266  -1.350  -2.061  0.00  0.00     0.067 A 
ATOM     11  C   UNL d   1       0.484  -1.696  -0.927  0.00  0.00     0.077 A 
ATOM     12  C   UNL d   1       0.739  -3.075  -0.698  0.00  0.00     0.035 A 
ATOM     13  C   UNL d   1       0.288  -4.037  -1.582  0.00  0.00     0.088 A 
ATOM     14  N   UNL d   1      -0.414  -3.736  -2.679  0.00  0.00    -0.373 N 
ATOM     15  C   UNL d   1      -0.667  -2.422  -2.882  0.00  0.00     0.117 A 
ATOM     16  HN  UNL d   1      -0.739  -4.454  -3.325  1.00  0.00     0.164 HD
BRANCH  11  17
ATOM     17  C   UNL d   1       1.102  -0.755   0.072  0.00  0.00     0.419 C 
ATOM     18  F   UNL d   1       1.811   0.259  -0.491  0.00  0.00    -0.166 F 
ATOM     19  F   UNL d   1       2.008  -1.379   0.890  0.00  0.00    -0.166 F 
ATOM     20  F   UNL d   1       0.198  -0.210   0.931  0.00  0.00    -0.166 F 
ENDBRANCH  11  17
ENDBRANCH   7  10
ENDBRANCH   5   6
ENDBRANCH   3   5
TORSDOF 4
