REMARK  9 active torsions:
REMARK  status: ('A' for Active; 'I' for Inactive)
REMARK    1  A    between atoms: C_3  and  C_1 
REMARK    2  A    between atoms: C_4  and  C_1 
REMARK    3  A    between atoms: N_7  and  C_2 
REMARK    4  A    between atoms: O_15  and  C_3 
REMARK    5  A    between atoms: O_14  and  C_4 
REMARK    6  A    between atoms: N_5  and  C_6 
REMARK    7  A    between atoms: C_13  and  N_7 
REMARK    8  A    between atoms: C_23  and  O_14 
REMARK    9  A    between atoms: C_22  and  O_15 
ROOT
ATOM      1  N   UNL d   1       0.910  -0.117  -2.331  0.00  0.00    -0.365 N 
ATOM      2  H   UNL d   1       1.898  -0.381  -2.382  0.00  0.00     0.165 HD
ENDROOT
BRANCH   1   3
ATOM      3  C   UNL d   1       0.401   0.056  -1.061  0.00  0.00     0.112 C 
ATOM      4  C   UNL d   1       1.054  -0.000   0.119  0.00  0.00     0.129 C 
BRANCH   4   5
ATOM      5  C   UNL d   1       0.301   0.009   1.402  0.00  0.00     0.300 C 
ATOM      6  O   UNL d   1       0.720  -0.486   2.439  0.00  0.00    -0.259 OA
BRANCH   5   7
ATOM      7  O   UNL d   1      -0.957   0.504   1.245  0.00  0.00    -0.318 OA
BRANCH   7   8
ATOM      8  C   UNL d   1      -1.905   0.069   2.235  0.00  0.00     0.174 C 
ATOM      9  C   UNL d   1      -2.482  -1.260   1.774  0.00  0.00     0.034 C 
ENDBRANCH   7   8
ENDBRANCH   5   7
ENDBRANCH   4   5
BRANCH   4  10
ATOM     10  C   UNL d   1       2.503  -0.283   0.089  0.00  0.00     0.300 C 
ATOM     11  O   UNL d   1       3.093  -0.742  -0.880  0.00  0.00    -0.259 OA
BRANCH  10  12
ATOM     12  O   UNL d   1       3.080  -0.010   1.282  0.00  0.00    -0.318 OA
BRANCH  12  13
ATOM     13  C   UNL d   1       4.297  -0.717   1.539  0.00  0.00     0.174 C 
ATOM     14  C   UNL d   1       3.937  -2.076   2.115  0.00  0.00     0.034 C 
ENDBRANCH  12  13
ENDBRANCH  10  12
ENDBRANCH   4  10
ENDBRANCH   1   3
BRANCH   1  15
ATOM     15  C   UNL d   1       0.264   0.063  -3.562  0.00  0.00     0.032 A 
ATOM     16  C   UNL d   1      -0.860   0.872  -3.702  0.00  0.00     0.031 A 
ATOM     17  C   UNL d   1      -1.494   1.013  -4.943  0.00  0.00     0.031 A 
ATOM     18  C   UNL d   1      -1.061   0.320  -6.080  0.00  0.00     0.030 A 
ATOM     19  C   UNL d   1       0.036  -0.532  -5.923  0.00  0.00     0.031 A 
ATOM     20  C   UNL d   1       0.694  -0.649  -4.686  0.00  0.00     0.031 A 
BRANCH  18  21
ATOM     21  N   UNL d   1      -1.724   0.488  -7.278  0.00  0.00    -0.377 N 
ATOM     22  C   UNL d   1      -1.851  -0.566  -8.292  0.00  0.00     0.149 C 
ATOM     23  C   UNL d   1      -1.115  -0.176  -9.581  0.00  0.00     0.187 C 
ATOM     24  O   UNL d   1      -1.522   1.118 -10.058  0.00  0.00    -0.388 OA
ATOM     25  C   UNL d   1      -1.248   2.119  -9.064  0.00  0.00     0.187 C 
ATOM     26  C   UNL d   1      -2.018   1.848  -7.762  0.00  0.00     0.149 C 
ENDBRANCH  18  21
ENDBRANCH   1  15
TORSDOF 9
