REMARK  8 active torsions:
REMARK  status: ('A' for Active; 'I' for Inactive)
REMARK    1  A    between atoms: O_21  and  C_17 
REMARK    2  A    between atoms: N_19  and  C_22 
REMARK    3  A    between atoms: C_25  and  O_21 
REMARK    4  A    between atoms: C_22  and  C_26 
REMARK    5  A    between atoms: C_27  and  C_25 
REMARK    6  A    between atoms: C_26  and  C_28 
REMARK    7  A    between atoms: C_29  and  C_27 
REMARK    8  A    between atoms: C_28  and  C_29 
ROOT
ATOM      1  C   UNL d   1      -0.698  -0.787  -0.375  0.00  0.00     0.021 C 
ATOM      2  C   UNL d   1      -0.222   0.277  -1.405  0.00  0.00     0.006 C 
ATOM      3  C   UNL d   1      -0.782   0.007  -2.852  0.00  0.00    -0.000 C 
ATOM      4  C   UNL d   1      -0.159  -1.329  -3.353  0.00  0.00     0.024 C 
ATOM      5  C   UNL d   1      -0.948  -2.106  -4.386  0.00  0.00    -0.047 C 
ATOM      6  C   UNL d   1      -2.340  -2.004  -4.428  0.00  0.00    -0.049 C 
ATOM      7  C   UNL d   1      -1.925  -0.107   0.200  0.00  0.00     0.135 C 
ATOM      8  C   UNL d   1      -0.942  -2.141  -1.052  0.00  0.00     0.018 C 
ATOM      9  C   UNL d   1       0.084  -2.322  -2.173  0.00  0.00     0.011 C 
ATOM     10  C   UNL d   1      -0.605   1.615  -0.775  0.00  0.00     0.013 C 
ATOM     11  C   UNL d   1      -2.327   0.075  -2.965  0.00  0.00     0.010 C 
ATOM     12  C   UNL d   1      -0.306  -3.179  -5.016  0.00  0.00     0.011 C 
ATOM     13  C   UNL d   1      -2.970  -0.675  -4.130  0.00  0.00     0.039 C 
ATOM     14  C   UNL d   1      -3.087  -3.139  -4.801  0.00  0.00     0.044 C 
ATOM     15  C   UNL d   1      -1.910   1.389  -0.024  0.00  0.00     0.079 C 
ATOM     16  O   UNL d   1      -2.831  -0.687   0.797  0.00  0.00    -0.297 OA
ATOM     17  C   UNL d   1      -2.429  -4.308  -5.193  0.00  0.00     0.069 C 
ATOM     18  C   UNL d   1      -1.050  -4.283  -5.397  0.00  0.00     0.037 C 
ATOM     19  C   UNL d   1       0.269  -0.987   0.807  0.00  0.00     0.024 C 
ENDROOT
BRANCH  17  20
ATOM     20  O   UNL d   1      -2.959  -5.547  -5.383  0.00  0.00    -0.351 OA
BRANCH  20  21
ATOM     21  C   UNL d   1      -4.343  -5.770  -5.148  0.00  0.00     0.175 C 
BRANCH  21  22
ATOM     22  C   UNL d   1      -4.513  -7.285  -4.952  0.00  0.00     0.027 C 
BRANCH  22  23
ATOM     23  C   UNL d   1      -5.922  -7.739  -5.304  0.00  0.00     0.002 C 
BRANCH  23  24
ATOM     24  C   UNL d   1      -6.107  -9.252  -5.143  0.00  0.00     0.002 C 
BRANCH  24  25
ATOM     25  C   UNL d   1      -7.481  -9.675  -5.676  0.00  0.00     0.030 C 
BRANCH  25  26
ATOM     26  C   UNL d   1      -7.709 -11.187  -5.575  0.00  0.00     0.271 C 
BRANCH  26  27
ATOM     27  N   UNL d   1      -9.068 -11.579  -5.992  0.00  0.00     0.080 N 
ATOM     28  C   UNL d   1      -9.305 -11.336  -7.416  0.00  0.00     0.309 C 
ATOM     29  C   UNL d   1      -9.299 -12.994  -5.688  0.00  0.00     0.309 C 
ENDBRANCH  26  27
ENDBRANCH  25  26
ENDBRANCH  24  25
ENDBRANCH  23  24
ENDBRANCH  22  23
ENDBRANCH  21  22
ENDBRANCH  20  21
ENDBRANCH  17  20
TORSDOF 8
