REMARK  3 active torsions:
REMARK  status: ('A' for Active; 'I' for Inactive)
REMARK       I    between atoms: N_2  and  C_1 
REMARK       I    between atoms: N_6  and  C_1 
REMARK    1  A    between atoms: C_8  and  N_2 
REMARK    2  A    between atoms: C_3  and  C_10 
REMARK    3  A    between atoms: C_10  and  N_6 
ROOT
ATOM      1  C   UNL d   1       1.027  -0.055   0.088  0.00  0.00     0.320 C 
ATOM      2  N   UNL d   1       0.451  -0.976  -0.762  0.00  0.00    -0.309 N 
ATOM      3  N   UNL d   1       0.118   0.891   0.498  0.00  0.00    -0.342 N 
ATOM      4  O   UNL d   1       2.203  -0.022   0.432  0.00  0.00    -0.247 OA
ATOM      5  H   UNL d   1      -0.472  -0.750  -1.094  0.00  0.00     0.170 HD
ATOM      6  H   UNL d   1      -0.863   0.738   0.335  0.00  0.00     0.164 HD
ENDROOT
BRANCH   2   7
ATOM      7  C   UNL d   1       1.095  -2.070  -1.380  0.00  0.00     0.037 A 
ATOM      8  C   UNL d   1       2.362  -2.529  -1.009  0.00  0.00     0.053 A 
ATOM      9  C   UNL d   1       2.952  -3.591  -1.695  0.00  0.00     0.036 A 
ATOM     10 CL   UNL d   1       4.518  -4.141  -1.234  0.00  0.00    -0.084 Cl
ATOM     11  C   UNL d   1       2.289  -4.212  -2.750  0.00  0.00     0.024 A 
ATOM     12  C   UNL d   1       1.015  -3.778  -3.111  0.00  0.00     0.004 A 
ATOM     13  C   UNL d   1       0.418  -2.718  -2.422  0.00  0.00     0.029 A 
ENDBRANCH   2   7
BRANCH   3  14
ATOM     14  C   UNL d   1       0.491   1.994   1.353  0.00  0.00     0.129 C 
BRANCH  14  15
ATOM     15  C   UNL d   1      -0.197   1.864   2.675  0.00  0.00     0.003 A 
ATOM     16  C   UNL d   1      -1.702   1.899   2.785  0.00  0.00     0.007 A 
ATOM     17  C   UNL d   1      -0.889   3.055   3.293  0.00  0.00     0.007 A 
ENDBRANCH  14  15
ENDBRANCH   3  14
TORSDOF 3
