REMARK  6 active torsions:
REMARK  status: ('A' for Active; 'I' for Inactive)
REMARK    1  A    between atoms: C_2  and  C_1 
REMARK    2  A    between atoms: O_5  and  C_2 
REMARK    3  A    between atoms: C_3  and  C_6 
REMARK    4  A    between atoms: C_6  and  O_5 
REMARK    5  A    between atoms: C_10  and  C_6 
REMARK    6  A    between atoms: C_17  and  C_10 
ROOT
ATOM      1  C   UNL d   1      -1.343  -4.272   0.291  0.00  0.00     0.243 C 
ENDROOT
BRANCH   1   2
ATOM      2  C   UNL d   1      -0.666  -4.065   1.657  0.00  0.00     0.414 C 
ATOM      3  F   UNL d   1      -1.056  -2.914   2.252  0.00  0.00    -0.168 F 
ATOM      4  F   UNL d   1      -0.956  -5.066   2.526  0.00  0.00    -0.168 F 
ATOM      5  F   UNL d   1       0.678  -4.017   1.535  0.00  0.00    -0.168 F 
ENDBRANCH   1   2
BRANCH   1   6
ATOM      6  O   UNL d   1      -2.597  -3.547   0.278  0.00  0.00    -0.303 OA
BRANCH   6   7
ATOM      7  C   UNL d   1      -2.469  -2.230  -0.024  0.00  0.00     0.295 C 
ATOM      8  O   UNL d   1      -1.499  -1.730  -0.588  0.00  0.00    -0.259 OA
BRANCH   7   9
ATOM      9  C   UNL d   1      -3.497  -1.412   0.666  0.00  0.00     0.061 A 
ATOM     10  C   UNL d   1      -4.785  -1.848   1.009  0.00  0.00     0.051 A 
ATOM     11  C   UNL d   1      -5.608  -1.032   1.798  0.00  0.00     0.048 A 
ATOM     12 CL   UNL d   1      -5.464  -3.348   0.485  0.00  0.00    -0.083 Cl
ATOM     13  C   UNL d   1      -5.164   0.219   2.219  0.00  0.00     0.035 A 
ATOM     14  C   UNL d   1      -3.908   0.684   1.845  0.00  0.00     0.025 A 
ATOM     15 CL   UNL d   1      -6.172   1.195   3.214  0.00  0.00    -0.084 Cl
ATOM     16  C   UNL d   1      -3.079  -0.129   1.071  0.00  0.00     0.021 A 
ENDBRANCH   7   9
ENDBRANCH   6   7
ENDBRANCH   1   6
BRANCH   1  17
ATOM     17  C   UNL d   1      -1.587  -5.771   0.071  0.00  0.00     0.080 C 
BRANCH  17  18
ATOM     18  C   UNL d   1      -2.041  -6.151  -1.320  0.00  0.00    -0.055 A 
ATOM     19  C   UNL d   1      -1.108  -6.448  -2.322  0.00  0.00     0.007 A 
ATOM     20  C   UNL d   1      -1.534  -6.887  -3.578  0.00  0.00     0.001 A 
ATOM     21  C   UNL d   1      -2.895  -7.025  -3.847  0.00  0.00     0.000 A 
ATOM     22  C   UNL d   1      -3.831  -6.710  -2.864  0.00  0.00     0.001 A 
ATOM     23  C   UNL d   1      -3.407  -6.271  -1.609  0.00  0.00     0.007 A 
ENDBRANCH  17  18
ENDBRANCH   1  17
TORSDOF 6
