REMARK  1 active torsions:
REMARK  status: ('A' for Active; 'I' for Inactive)
REMARK    1  A    between atoms: C_10  and  N_2 
ROOT
ATOM      1  C   UNL d   1       0.914  -0.190  -0.085  0.00  0.00     0.201 A 
ATOM      2  N   UNL d   1       1.718   0.348  -1.182  0.00  0.00    -0.285 N 
ATOM      3  C   UNL d   1       0.764  -1.752  -0.201  0.00  0.00     0.267 A 
ATOM      4  C   UNL d   1      -0.521   0.249   0.042  0.00  0.00     0.017 A 
ATOM      5  N   UNL d   1      -0.602  -2.036  -0.120  0.00  0.00    -0.323 N 
ATOM      6  S   UNL d   1       1.800   0.165   1.472  0.00  0.00    -0.113 SA
ATOM      7  C   UNL d   1       3.030   0.696  -0.825  0.00  0.00     0.235 C 
ATOM      8  C   UNL d   1      -1.353  -0.875   0.003  0.00  0.00     0.045 A 
ATOM      9  C   UNL d   1       3.352   0.417   0.624  0.00  0.00     0.180 C 
ATOM     10  O   UNL d   1       1.646  -2.583  -0.346  0.00  0.00    -0.269 OA
ATOM     11  O   UNL d   1       3.879   1.189  -1.565  0.00  0.00    -0.272 OA
ATOM     12  C   UNL d   1      -1.063   1.523   0.143  0.00  0.00     0.013 A 
ATOM     13  C   UNL d   1      -2.728  -0.778   0.037  0.00  0.00     0.030 A 
ATOM     14  C   UNL d   1      -2.455   1.643   0.170  0.00  0.00     0.001 A 
ATOM     15  C   UNL d   1      -3.279   0.504   0.114  0.00  0.00     0.002 A 
ATOM     16  H   UNL d   1      -0.968  -2.974  -0.189  0.00  0.00     0.169 HD
ENDROOT
BRANCH   2  17
ATOM     17  C   UNL d   1       1.343   0.171  -2.563  0.00  0.00     0.039 A 
ATOM     18  C   UNL d   1       2.308  -0.148  -3.531  0.00  0.00     0.030 A 
ATOM     19  C   UNL d   1       1.970  -0.331  -4.878  0.00  0.00     0.002 A 
ATOM     20  C   UNL d   1       0.652  -0.198  -5.292  0.00  0.00     0.000 A 
ATOM     21  C   UNL d   1      -0.325   0.110  -4.356  0.00  0.00     0.002 A 
ATOM     22  C   UNL d   1       0.019   0.289  -3.010  0.00  0.00     0.030 A 
ENDBRANCH   2  17
TORSDOF 1
