REMARK  5 active torsions:
REMARK  status: ('A' for Active; 'I' for Inactive)
REMARK    1  A    between atoms: S_7  and  C_1 
REMARK    2  A    between atoms: C_21  and  N_3 
REMARK    3  A    between atoms: C_4  and  S_7 
REMARK    4  A    between atoms: C_22  and  C_6 
REMARK    5  A    between atoms: C_23  and  C_17 
ROOT
ATOM      1  C   UNL d   1       0.009  -1.341  -0.048  0.00  0.00     0.174 A 
ATOM      2  N   UNL d   1       1.220  -0.661  -0.120  0.00  0.00    -0.275 N 
ATOM      3  C   UNL d   1       0.859   0.694  -0.091  0.00  0.00     0.139 A 
ATOM      4  N   UNL d   1      -0.458   0.780  -0.010  0.00  0.00    -0.282 N 
ATOM      5  HN  UNL d   1      -0.993   1.647   0.036  1.00  0.00     0.188 HD
ATOM      6  N   UNL d   1      -0.986  -0.486   0.001  0.00  0.00    -0.277 N 
ATOM      7  HN  UNL d   1      -1.978  -0.721   0.040  1.00  0.00     0.189 HD
ENDROOT
BRANCH   1   8
ATOM      8  S   UNL d   1      -0.131  -3.043   0.303  0.00  0.00    -0.032 SA
BRANCH   8   9
ATOM      9  C   UNL d   1      -1.733  -3.370  -0.308  0.00  0.00     0.121 A 
ATOM     10  N   UNL d   1      -1.919  -3.549  -1.691  0.00  0.00    -0.078 N 
ATOM     11  C   UNL d   1      -3.170  -3.925  -2.201  0.00  0.00     0.706 A 
ATOM     12  N   UNL d   1      -1.026  -3.469  -2.723  0.00  0.00    -0.274 N 
ATOM     13  N   UNL d   1      -3.079  -4.079  -3.502  0.00  0.00    -0.185 N 
ATOM     14  N   UNL d   1      -4.247  -4.129  -1.394  0.00  0.00    -0.189 N 
ATOM     15  C   UNL d   1      -1.782  -3.798  -3.766  0.00  0.00     0.215 A 
ATOM     16  HN  UNL d   1      -3.812  -4.348  -4.158  1.00  0.00     0.185 HD
ATOM     17  C   UNL d   1      -4.068  -3.991  -0.111  0.00  0.00     0.062 A 
ATOM     18  HN  UNL d   1      -5.158  -4.380  -1.778  1.00  0.00     0.184 HD
ATOM     19  C   UNL d   1      -2.769  -3.579   0.526  0.00  0.00     0.071 A 
ATOM     20  HN  UNL d   1      -0.037  -3.221  -2.699  1.00  0.00     0.189 HD
BRANCH  17  21
ATOM     21  C   UNL d   1      -5.231  -4.280   0.787  0.00  0.00    -0.009 A 
ATOM     22  C   UNL d   1      -5.086  -4.956   2.004  0.00  0.00     0.014 A 
ATOM     23  C   UNL d   1      -6.221  -5.289   2.757  0.00  0.00     0.001 A 
ATOM     24  C   UNL d   1      -7.495  -4.946   2.302  0.00  0.00     0.000 A 
ATOM     25  C   UNL d   1      -7.644  -4.280   1.088  0.00  0.00     0.001 A 
ATOM     26  C   UNL d   1      -6.517  -3.950   0.330  0.00  0.00     0.014 A 
ENDBRANCH  17  21
ENDBRANCH   8   9
ENDBRANCH   1   8
BRANCH   2  27
ATOM     27  C   UNL d   1       2.544  -1.176  -0.251  0.00  0.00     0.043 A 
ATOM     28  C   UNL d   1       2.809  -2.187  -1.181  0.00  0.00     0.030 A 
ATOM     29  C   UNL d   1       4.135  -2.506  -1.493  0.00  0.00     0.002 A 
ATOM     30  C   UNL d   1       5.191  -1.831  -0.880  0.00  0.00     0.000 A 
ATOM     31  C   UNL d   1       4.931  -0.868   0.089  0.00  0.00     0.002 A 
ATOM     32  C   UNL d   1       3.612  -0.558   0.422  0.00  0.00     0.030 A 
ENDBRANCH   2  27
BRANCH   3  33
ATOM     33  C   UNL d   1       1.774   1.844  -0.142  0.00  0.00     0.013 A 
ATOM     34  C   UNL d   1       2.772   1.956  -1.117  0.00  0.00     0.032 A 
ATOM     35  C   UNL d   1       3.725   2.951  -0.981  0.00  0.00     0.088 A 
ATOM     36  N   UNL d   1       3.720   3.859   0.016  0.00  0.00    -0.375 N 
ATOM     37  C   UNL d   1       2.702   3.787   0.899  0.00  0.00     0.088 A 
ATOM     38  HN  UNL d   1       4.450   4.567   0.099  1.00  0.00     0.164 HD
ATOM     39  C   UNL d   1       1.716   2.814   0.862  0.00  0.00     0.032 A 
ENDBRANCH   3  33
TORSDOF 5
