REMARK  5 active torsions:
REMARK  status: ('A' for Active; 'I' for Inactive)
REMARK    1  A    between atoms: N_2  and  C_1 
REMARK       I    between atoms: C_3  and  N_2 
REMARK    2  A    between atoms: C_6  and  C_3 
REMARK    3  A    between atoms: S_14  and  C_10 
REMARK    4  A    between atoms: C_19  and  S_14 
REMARK    5  A    between atoms: C_21  and  C_19 
ROOT
ATOM      1  N   UNL d   1       0.226   2.293  -0.939  0.00  0.00    -0.319 N 
ATOM      2  C   UNL d   1       1.127   3.223  -0.437  0.00  0.00     0.259 C 
ATOM      3  O   UNL d   1       0.860   4.374  -0.123  0.00  0.00    -0.267 OA
ATOM      4  H   UNL d   1       0.563   1.350  -1.082  0.00  0.00     0.169 HD
ENDROOT
BRANCH   2   5
ATOM      5  C   UNL d   1       2.539   2.729  -0.364  0.00  0.00     0.065 A 
ATOM      6  C   UNL d   1       3.455   3.089   0.633  0.00  0.00     0.085 A 
ATOM      7  N   UNL d   1       4.715   2.568   0.660  0.00  0.00    -0.360 N 
ATOM      8  C   UNL d   1       5.102   1.723  -0.314  0.00  0.00     0.089 A 
ATOM      9  HN  UNL d   1       5.358   2.817   1.411  1.00  0.00     0.166 HD
ATOM     10  C   UNL d   1       4.285   1.357  -1.360  0.00  0.00     0.018 A 
ATOM     11  C   UNL d   1       2.998   1.875  -1.389  0.00  0.00     0.021 A 
BRANCH   6  12
ATOM     12  S   UNL d   1       3.115   4.180   2.008  0.00  0.00    -0.111 SA
BRANCH  12  13
ATOM     13  C   UNL d   1       4.795   4.851   2.291  0.00  0.00     0.080 C 
BRANCH  13  14
ATOM     14  C   UNL d   1       4.824   5.840   3.455  0.00  0.00     0.006 C 
ATOM     15  C   UNL d   1       6.228   6.405   3.651  0.00  0.00     0.006 C 
ENDBRANCH  13  14
ENDBRANCH  12  13
ENDBRANCH   6  12
ENDBRANCH   2   5
BRANCH   1  16
ATOM     16  C   UNL d   1      -1.110   2.479  -1.280  0.00  0.00     0.091 A 
ATOM     17  C   UNL d   1      -1.965   3.557  -1.167  0.00  0.00     0.101 A 
ATOM     18  O   UNL d   1      -3.195   3.200  -1.638  0.00  0.00    -0.240 OA
ATOM     19  C   UNL d   1      -1.903   4.947  -0.678  0.00  0.00     0.081 C 
ATOM     20  N   UNL d   1      -3.169   1.909  -2.112  0.00  0.00    -0.263 N 
ATOM     21  C   UNL d   1      -1.920   1.482  -1.914  0.00  0.00     0.058 A 
ATOM     22  HN  UNL d   1      -3.941   1.387  -2.526  1.00  0.00     0.194 HD
ATOM     23  C   UNL d   1      -1.529   0.137  -2.397  0.00  0.00     0.072 C 
ENDBRANCH   1  16
TORSDOF 5
