REMARK  2 active torsions:
REMARK  status: ('A' for Active; 'I' for Inactive)
REMARK    1  A    between atoms: N_7  and  C_10 
REMARK    2  A    between atoms: C_14  and  C_8 
ROOT
ATOM      1  N   UNL d   1       0.141   0.541  -0.020  0.00  0.00    -0.293 N 
ATOM      2  C   UNL d   1       0.690  -0.692  -0.082  0.00  0.00     0.150 A 
ATOM      3  C   UNL d   1       2.380   0.558   0.048  0.00  0.00     0.104 A 
ATOM      4  N   UNL d   1       1.981  -0.759  -0.029  0.00  0.00    -0.332 N 
ATOM      5  HN  UNL d   1       2.568  -1.593  -0.040  1.00  0.00     0.168 HD
ATOM      6  C   UNL d   1       1.170   1.439   0.020  0.00  0.00     0.276 A 
ATOM      7  C   UNL d   1       3.658   0.952   0.119  0.00  0.00     0.046 C 
ATOM      8  S   UNL d   1      -0.306  -2.095  -0.207  0.00  0.00    -0.093 SA
ATOM      9  O   UNL d   1       1.110   2.652  -0.008  0.00  0.00    -0.265 OA
ATOM     10  C   UNL d   1      -1.238   0.953  -0.155  0.00  0.00     0.135 C 
ATOM     11  C   UNL d   1      -2.248  -0.180  -0.084  0.00  0.00     0.031 C 
ATOM     12  C   UNL d   1      -1.802  -1.369  -0.915  0.00  0.00     0.084 C 
ENDROOT
BRANCH   7  13
ATOM     13  C   UNL d   1       4.081   2.349   0.191  0.00  0.00    -0.032 A 
ATOM     14  C   UNL d   1       4.184   2.986   1.432  0.00  0.00     0.047 A 
ATOM     15  C   UNL d   1       4.493   4.352   1.480  0.00  0.00     0.103 A 
ATOM     16  C   UNL d   1       4.722   5.078   0.304  0.00  0.00     0.036 A 
ATOM     17  C   UNL d   1       4.636   4.431  -0.929  0.00  0.00     0.003 A 
ATOM     18  C   UNL d   1       4.314   3.073  -0.986  0.00  0.00     0.011 A 
BRANCH  15  19
ATOM     19  N   UNL d   1       4.552   5.035   2.778  0.00  0.00    -0.116 N 
ATOM     20  O   UNL d   1       4.340   4.361   3.796  0.00  0.00    -0.532 OA
ATOM     21  O   UNL d   1       4.814   6.247   2.781  0.00  0.00    -0.532 OA
ENDBRANCH  15  19
ENDBRANCH   7  13
TORSDOF 2
