REMARK  6 active torsions:
REMARK  status: ('A' for Active; 'I' for Inactive)
REMARK    1  A    between atoms: N_7  and  N_2 
REMARK    2  A    between atoms: C_4  and  C_8 
REMARK    3  A    between atoms: C_5  and  N_7 
REMARK    4  A    between atoms: C_6  and  C_17 
REMARK    5  A    between atoms: O_13  and  C_12 
REMARK    6  A    between atoms: C_17  and  O_13 
ROOT
ATOM      1  C   UNL d   1       2.982   3.152  -2.191  0.00  0.00     0.061 A 
ATOM      2  C   UNL d   1       3.333   5.570  -2.436  0.00  0.00     0.049 A 
ATOM      3  C   UNL d   1       2.759   4.478  -1.771  0.00  0.00     0.044 A 
ATOM      4  C   UNL d   1       3.805   2.928  -3.309  0.00  0.00     0.091 A 
ATOM      5  C   UNL d   1       4.152   5.324  -3.543  0.00  0.00     0.019 A 
ATOM      6  C   UNL d   1       4.388   4.015  -3.970  0.00  0.00     0.039 A 
ENDROOT
BRANCH   1   7
ATOM      7  N   UNL d   1       2.534   2.076  -1.376  0.00  0.00    -0.203 NA
ATOM      8  H   UNL d   1       3.349   1.756  -0.826  0.00  0.00     0.153 HD
BRANCH   7   9
ATOM      9  N   UNL d   1       1.380   2.309  -0.671  0.00  0.00    -0.310 N 
ATOM     10  C   UNL d   1       1.207   1.633   0.427  0.00  0.00     0.135 C 
ATOM     11  C   UNL d   1       2.188   0.609   0.939  0.00  0.00     0.180 C 
ATOM     12  C   UNL d   1      -0.101   1.760   1.161  0.00  0.00     0.180 C 
ATOM     13  O   UNL d   1       3.387   0.830   0.908  0.00  0.00    -0.291 OA
ATOM     14  C   UNL d   1       1.560  -0.701   1.333  0.00  0.00     0.086 C 
ATOM     15  C   UNL d   1       0.286  -0.487   2.152  0.00  0.00     0.015 C 
ATOM     16  C   UNL d   1      -0.731   0.427   1.467  0.00  0.00     0.086 C 
ATOM     17  O   UNL d   1      -0.564   2.847   1.461  0.00  0.00    -0.291 OA
ATOM     18  HN  UNL d   1       0.686   2.983  -0.994  1.00  0.00     0.181 HD
ENDBRANCH   7   9
ENDBRANCH   1   7
BRANCH   4  19
ATOM     19  O   UNL d   1       4.156   1.708  -3.831  0.00  0.00    -0.341 OA
BRANCH  19  20
ATOM     20  C   UNL d   1       3.152   0.683  -3.796  0.00  0.00     0.293 C 
BRANCH  20  21
ATOM     21  C   UNL d   1       3.261  -0.257  -4.994  0.00  0.00     0.408 C 
ATOM     22  F   UNL d   1       4.243   0.087  -5.854  0.00  0.00    -0.169 F 
ATOM     23  F   UNL d   1       3.505  -1.528  -4.590  0.00  0.00    -0.169 F 
ATOM     24  F   UNL d   1       2.101  -0.283  -5.695  0.00  0.00    -0.169 F 
ENDBRANCH  20  21
ENDBRANCH  19  20
ENDBRANCH   4  19
BRANCH   2  25
ATOM     25  C   UNL d   1       3.102   6.977  -1.948  0.00  0.00     0.417 C 
ATOM     26  F   UNL d   1       2.304   7.055  -0.847  0.00  0.00    -0.166 F 
ATOM     27  F   UNL d   1       4.263   7.604  -1.608  0.00  0.00    -0.166 F 
ATOM     28  F   UNL d   1       2.515   7.766  -2.891  0.00  0.00    -0.166 F 
ENDBRANCH   2  25
TORSDOF 6
