REMARK  12 active torsions:
REMARK  status: ('A' for Active; 'I' for Inactive)
REMARK    1  A    between atoms: C_2  and  S_1 
REMARK    2  A    between atoms: N_3  and  S_1 
REMARK    3  A    between atoms: C_23  and  N_3 
REMARK    4  A    between atoms: C_24  and  N_3 
REMARK    5  A    between atoms: C_4  and  C_8 
REMARK       I    between atoms: N_16  and  C_4 
REMARK    6  A    between atoms: O_20  and  C_7 
REMARK    7  A    between atoms: O_21  and  C_9 
REMARK    8  A    between atoms: C_22  and  N_16 
REMARK    9  A    between atoms: C_18  and  C_25 
REMARK   10  A    between atoms: C_25  and  C_22 
REMARK   11  A    between atoms: C_28  and  C_23 
REMARK   12  A    between atoms: C_29  and  C_24 
ROOT
ATOM      1  C   UNL d   1       0.427   1.783   0.151  0.00  0.00     0.074 A 
ATOM      2  C   UNL d   1      -0.658   4.351   0.329  0.00  0.00     0.032 A 
ATOM      3  C   UNL d   1      -0.906   1.950   0.543  0.00  0.00     0.026 A 
ATOM      4  C   UNL d   1       1.239   2.900  -0.070  0.00  0.00     0.026 A 
ATOM      5  C   UNL d   1      -1.449   3.237   0.641  0.00  0.00     0.018 A 
ATOM      6  C   UNL d   1       0.683   4.175  -0.032  0.00  0.00     0.018 A 
ENDROOT
BRANCH   2   7
ATOM      7  C   UNL d   1      -1.191   5.738   0.326  0.00  0.00     0.251 C 
ATOM      8  O   UNL d   1      -0.708   6.570  -0.432  0.00  0.00    -0.268 OA
ATOM      9  N   UNL d   1      -2.198   6.028   1.227  0.00  0.00    -0.357 N 
ATOM     10  H   UNL d   1      -2.420   5.367   1.954  0.00  0.00     0.162 HD
BRANCH   9  11
ATOM     11  C   UNL d   1      -2.672   7.396   1.332  0.00  0.00     0.127 C 
BRANCH  11  12
ATOM     12  C   UNL d   1      -3.736   7.569   2.412  0.00  0.00     0.058 C 
BRANCH  12  13
ATOM     13  C   UNL d   1      -4.275   8.979   2.445  0.00  0.00    -0.054 A 
ATOM     14  C   UNL d   1      -5.377   9.329   1.647  0.00  0.00     0.046 A 
ATOM     15  C   UNL d   1      -5.886  10.637   1.629  0.00  0.00     0.102 A 
ATOM     16  C   UNL d   1      -5.285  11.607   2.450  0.00  0.00     0.101 A 
ATOM     17  C   UNL d   1      -4.168  11.264   3.223  0.00  0.00     0.040 A 
ATOM     18  C   UNL d   1      -3.664   9.963   3.223  0.00  0.00     0.010 A 
BRANCH  15  19
ATOM     19  O   UNL d   1      -6.920  11.029   0.821  0.00  0.00    -0.353 OA
ATOM     20  C   UNL d   1      -7.493  10.060  -0.047  0.00  0.00     0.210 C 
ENDBRANCH  15  19
BRANCH  16  21
ATOM     21  O   UNL d   1      -5.631  12.931   2.558  0.00  0.00    -0.353 OA
ATOM     22  C   UNL d   1      -7.013  13.242   2.419  0.00  0.00     0.210 C 
ENDBRANCH  16  21
ENDBRANCH  12  13
ENDBRANCH  11  12
ENDBRANCH   9  11
ENDBRANCH   2   7
BRANCH   1  23
ATOM     23  S   UNL d   1       1.142   0.152   0.072  0.00  0.00     0.243 S 
ATOM     24  O   UNL d   1       0.134  -0.757   0.572  0.00  0.00    -0.206 OA
ATOM     25  O   UNL d   1       2.443   0.231   0.700  0.00  0.00    -0.206 OA
BRANCH  23  26
ATOM     26  N   UNL d   1       1.408  -0.190  -1.623  0.00  0.00    -0.206 NA
BRANCH  26  27
ATOM     27  C   UNL d   1       2.274   0.834  -2.311  0.00  0.00     0.107 C 
BRANCH  27  28
ATOM     28  C   UNL d   1       2.511   0.609  -3.805  0.00  0.00     0.011 C 
ATOM     29  C   UNL d   1       1.221   0.520  -4.604  0.00  0.00     0.006 C 
ENDBRANCH  27  28
ENDBRANCH  26  27
BRANCH  26  30
ATOM     30  C   UNL d   1       1.938  -1.589  -1.830  0.00  0.00     0.107 C 
BRANCH  30  31
ATOM     31  C   UNL d   1       0.921  -2.691  -1.549  0.00  0.00     0.011 C 
ATOM     32  C   UNL d   1      -0.370  -2.522  -2.335  0.00  0.00     0.006 C 
ENDBRANCH  30  31
ENDBRANCH  26  30
ENDBRANCH  23  26
ENDBRANCH   1  23
TORSDOF 12
