REMARK  6 active torsions:
REMARK  status: ('A' for Active; 'I' for Inactive)
REMARK       I    between atoms: N_2  and  C_1 
REMARK    1  A    between atoms: O_9  and  C_1 
REMARK    2  A    between atoms: C_5  and  N_3 
REMARK       I    between atoms: C_4  and  N_8 
REMARK    3  A    between atoms: C_10  and  C_4 
REMARK    4  A    between atoms: N_8  and  C_19 
REMARK    5  A    between atoms: C_17  and  O_9 
REMARK    6  A    between atoms: O_27  and  C_23 
ROOT
ATOM      1  C   UNL d   1      -0.891  -4.863   2.098  0.00  0.00     0.103 A 
ATOM      2  N   UNL d   1      -2.218  -4.881   1.858  0.00  0.00    -0.350 N 
ATOM      3  HN  UNL d   1      -2.628  -4.291   1.134  1.00  0.00     0.166 HD
ATOM      4  C   UNL d   1      -0.352  -5.701   3.078  0.00  0.00     0.051 A 
ATOM      5  C   UNL d   1      -2.535  -6.572   3.601  0.00  0.00     0.050 A 
ATOM      6  C   UNL d   1      -2.996  -5.710   2.609  0.00  0.00     0.119 A 
ATOM      7  C   UNL d   1      -1.168  -6.562   3.822  0.00  0.00     0.035 A 
ENDROOT
BRANCH   1   8
ATOM      8  N   UNL d   1      -0.070  -4.055   1.337  0.00  0.00    -0.364 N 
ATOM      9  C   UNL d   1      -0.492  -3.616  -0.003  0.00  0.00     0.144 C 
ATOM     10  C   UNL d   1      -0.698  -2.089  -0.100  0.00  0.00     0.148 C 
ATOM     11  N   UNL d   1       0.396  -1.337   0.530  0.00  0.00    -0.325 N 
ATOM     12  C   UNL d   1       0.948  -0.170   0.047  0.00  0.00     0.363 C 
ATOM     13  C   UNL d   1       0.728  -1.774   1.887  0.00  0.00     0.148 C 
ATOM     14  O   UNL d   1       1.790   0.467   0.674  0.00  0.00    -0.238 OA
ATOM     15  C   UNL d   1       1.014  -3.283   1.957  0.00  0.00     0.144 C 
BRANCH  12  16
ATOM     16  O   UNL d   1       0.486   0.195  -1.185  0.00  0.00    -0.294 OA
BRANCH  16  17
ATOM     17  C   UNL d   1       1.032   1.384  -1.830  0.00  0.00     0.061 C 
ATOM     18  C   UNL d   1       2.526   1.209  -2.153  0.00  0.00     0.046 C 
ATOM     19  C   UNL d   1       0.275   1.530  -3.162  0.00  0.00     0.046 C 
ATOM     20  C   UNL d   1       0.769   2.655  -1.008  0.00  0.00     0.046 C 
ENDBRANCH  16  17
ENDBRANCH  12  16
ENDBRANCH   1   8
BRANCH   5  21
ATOM     21  N   UNL d   1      -3.459  -7.377   4.310  0.00  0.00    -0.322 N 
ATOM     22  C   UNL d   1      -3.172  -8.279   5.323  0.00  0.00     0.256 C 
ATOM     23  O   UNL d   1      -2.058  -8.556   5.754  0.00  0.00    -0.267 OA
ATOM     24  H   UNL d   1      -4.434  -7.215   4.093  0.00  0.00     0.169 HD
BRANCH  22  25
ATOM     25  C   UNL d   1      -4.356  -8.922   5.971  0.00  0.00     0.032 A 
ATOM     26  C   UNL d   1      -5.538  -9.204   5.274  0.00  0.00     0.020 A 
ATOM     27  C   UNL d   1      -6.638  -9.753   5.947  0.00  0.00     0.038 A 
ATOM     28  C   UNL d   1      -6.561 -10.032   7.313  0.00  0.00     0.068 A 
ATOM     29  C   UNL d   1      -5.363  -9.813   7.993  0.00  0.00     0.038 A 
ATOM     30  C   UNL d   1      -4.266  -9.257   7.329  0.00  0.00     0.020 A 
BRANCH  28  31
ATOM     31  O   UNL d   1      -7.574 -10.568   8.058  0.00  0.00    -0.356 OA
ATOM     32  C   UNL d   1      -8.886 -10.158   7.681  0.00  0.00     0.210 C 
ENDBRANCH  28  31
ENDBRANCH  22  25
ENDBRANCH   5  21
TORSDOF 6
