REMARK  4 active torsions:
REMARK  status: ('A' for Active; 'I' for Inactive)
REMARK       I    between atoms: C_3  and  N_1 
REMARK       I    between atoms: C_4  and  N_1 
REMARK    1  A    between atoms: C_2  and  C_3 
REMARK       I    between atoms: N_11  and  C_4 
REMARK    2  A    between atoms: C_6  and  C_9 
REMARK    3  A    between atoms: S_19  and  C_7 
REMARK    4  A    between atoms: C_15  and  N_11 
ROOT
ATOM      1  N   UNL d   1       1.290   0.097   0.107  0.00  0.00    -0.274 N 
ATOM      2  C   UNL d   1       0.319   0.524  -0.780  0.00  0.00     0.266 C 
ATOM      3  C   UNL d   1       2.624  -0.146  -0.125  0.00  0.00     0.327 C 
ATOM      4  N   UNL d   1       3.093   0.277  -1.342  0.00  0.00    -0.309 N 
ATOM      5  O   UNL d   1       3.283  -0.686   0.762  0.00  0.00    -0.247 OA
ATOM      6  O   UNL d   1       0.607   0.911  -1.917  0.00  0.00    -0.267 OA
ATOM      7  H   UNL d   1       0.992  -0.187   1.030  0.00  0.00     0.173 HD
ATOM      8  H   UNL d   1       2.422   0.803  -1.899  0.00  0.00     0.170 HD
ENDROOT
BRANCH   4   9
ATOM      9  C   UNL d   1       4.412   0.239  -1.821  0.00  0.00     0.037 A 
ATOM     10  C   UNL d   1       5.417  -0.556  -1.262  0.00  0.00     0.045 A 
ATOM     11  C   UNL d   1       6.733  -0.489  -1.749  0.00  0.00     0.050 A 
ATOM     12  C   UNL d   1       7.029   0.386  -2.806  0.00  0.00     0.016 A 
ATOM     13  C   UNL d   1       6.023   1.156  -3.385  0.00  0.00     0.003 A 
ATOM     14  C   UNL d   1       4.718   1.070  -2.903  0.00  0.00     0.029 A 
BRANCH  11  15
ATOM     15  C   UNL d   1       7.830  -1.328  -1.142  0.00  0.00     0.417 C 
ATOM     16  F   UNL d   1       7.412  -2.152  -0.142  0.00  0.00    -0.166 F 
ATOM     17  F   UNL d   1       8.434  -2.135  -2.059  0.00  0.00    -0.166 F 
ATOM     18  F   UNL d   1       8.826  -0.567  -0.606  0.00  0.00    -0.166 F 
ENDBRANCH  11  15
ENDBRANCH   4   9
BRANCH   2  19
ATOM     19  C   UNL d   1      -1.049   0.538  -0.282  0.00  0.00     0.074 A 
ATOM     20  S   UNL d   1      -1.468  -0.037   1.273  0.00  0.00    -0.078 SA
ATOM     21  C   UNL d   1      -3.114   0.391   1.080  0.00  0.00     0.041 A 
ATOM     22  C   UNL d   1      -3.347   0.938  -0.163  0.00  0.00     0.027 A 
ATOM     23  C   UNL d   1      -2.163   1.004  -0.954  0.00  0.00     0.026 A 
BRANCH  21  24
ATOM     24  S   UNL d   1      -4.251   0.158   2.399  0.00  0.00    -0.127 SA
ATOM     25  C   UNL d   1      -5.827  -0.030   1.542  0.00  0.00     0.096 C 
ENDBRANCH  21  24
ENDBRANCH   2  19
TORSDOF 4
