REMARK  1 active torsions:
REMARK  status: ('A' for Active; 'I' for Inactive)
REMARK    1  A    between atoms: C_2  and  C_1 
REMARK       I    between atoms: N_3  and  C_2 
ROOT
ATOM      1  C   UNL d   1      -1.460   0.254   0.065  0.00  0.00     0.042 C 
ATOM      2  C   UNL d   1      -0.707   0.940   1.235  0.00  0.00     0.024 C 
ATOM      3  C   UNL d   1      -0.892   0.579  -1.338  0.00  0.00     0.024 C 
ATOM      4  C   UNL d   1      -1.196  -1.278   0.261  0.00  0.00     0.024 C 
ATOM      5  C   UNL d   1       0.321  -1.589   0.185  0.00  0.00    -0.013 C 
ATOM      6  C   UNL d   1       0.801   0.691   1.123  0.00  0.00    -0.013 C 
ATOM      7  C   UNL d   1       0.621   0.351  -1.377  0.00  0.00    -0.013 C 
ATOM      8  C   UNL d   1       1.065  -0.813   1.283  0.00  0.00     0.009 C 
ATOM      9  C   UNL d   1       0.882  -1.146  -1.175  0.00  0.00     0.009 C 
ATOM     10  C   UNL d   1       1.290   1.165  -0.256  0.00  0.00     0.009 C 
ENDROOT
BRANCH   1  11
ATOM     11  C   UNL d   1      -2.974   0.579   0.130  0.00  0.00     0.228 C 
ATOM     12  N   UNL d   1      -3.414   1.902   0.001  0.00  0.00    -0.351 N 
ATOM     13  C   UNL d   1      -2.615   3.066  -0.399  0.00  0.00     0.125 C 
ATOM     14  C   UNL d   1      -4.861   2.135  -0.053  0.00  0.00     0.125 C 
ATOM     15  C   UNL d   1      -2.962   4.301   0.420  0.00  0.00     0.020 C 
ATOM     16  C   UNL d   1      -4.450   4.605   0.328  0.00  0.00     0.003 C 
ATOM     17  C   UNL d   1      -5.268   3.382   0.734  0.00  0.00     0.020 C 
ATOM     18  O   UNL d   1      -3.779  -0.340   0.305  0.00  0.00    -0.273 OA
ENDBRANCH   1  11
TORSDOF 1
