REMARK  3 active torsions:
REMARK  status: ('A' for Active; 'I' for Inactive)
REMARK    1  A    between atoms: N_11  and  N_5 
REMARK       I    between atoms: C_7  and  N_11 
REMARK    2  A    between atoms: O_18  and  C_7 
REMARK    3  A    between atoms: C_20  and  O_18 
ROOT
ATOM      1  S   UNL d   1      -1.364   1.675   0.098  0.00  0.00     0.176 S 
ATOM      2  C   UNL d   1       0.071   0.659   0.069  0.00  0.00     0.071 A 
ATOM      3  C   UNL d   1      -0.020  -0.733  -0.016  0.00  0.00     0.011 A 
ATOM      4  C   UNL d   1      -1.329  -1.474  -0.034  0.00  0.00     0.038 C 
ATOM      5  N   UNL d   1      -1.305  -2.727  -0.381  0.00  0.00    -0.300 N 
ATOM      6  HN  UNL d   1      -0.420  -3.156  -0.649  1.00  0.00     0.186 HD
ATOM      7  C   UNL d   1      -2.664   0.587  -0.411  0.00  0.00     0.152 C 
ATOM      8  O   UNL d   1      -1.202   2.678  -0.935  0.00  0.00    -0.223 OA
ATOM      9  O   UNL d   1      -1.589   2.033   1.483  0.00  0.00    -0.223 OA
ATOM     10  C   UNL d   1       1.314   1.311   0.091  0.00  0.00     0.026 A 
ATOM     11  C   UNL d   1      -2.578  -0.706   0.364  0.00  0.00     0.075 C 
ATOM     12  C   UNL d   1       1.173  -1.473  -0.088  0.00  0.00     0.038 A 
ATOM     13  C   UNL d   1       2.411  -0.828  -0.060  0.00  0.00     0.035 A 
ATOM     14  C   UNL d   1       2.487   0.560   0.031  0.00  0.00     0.025 A 
ATOM     15 CL   UNL d   1       3.860  -1.751  -0.136  0.00  0.00    -0.084 Cl
ENDROOT
BRANCH   5  16
ATOM     16  N   UNL d   1      -2.437  -3.473  -0.390  0.00  0.00    -0.245 N 
ATOM     17  C   UNL d   1      -2.463  -4.719  -0.968  0.00  0.00     0.379 C 
ATOM     18  O   UNL d   1      -1.519  -5.322  -1.455  0.00  0.00    -0.237 OA
ATOM     19  H   UNL d   1      -3.330  -3.121  -0.081  0.00  0.00     0.192 HD
BRANCH  17  20
ATOM     20  O   UNL d   1      -3.753  -5.155  -0.975  0.00  0.00    -0.303 OA
BRANCH  20  21
ATOM     21  C   UNL d   1      -4.015  -6.301  -1.798  0.00  0.00     0.176 C 
ATOM     22  C   UNL d   1      -4.356  -5.826  -3.199  0.00  0.00     0.034 C 
ENDBRANCH  20  21
ENDBRANCH  17  20
ENDBRANCH   5  16
TORSDOF 3
