REMARK  4 active torsions:
REMARK  status: ('A' for Active; 'I' for Inactive)
REMARK    1  A    between atoms: C_8  and  N_3 
REMARK    2  A    between atoms: C_11  and  C_8 
REMARK    3  A    between atoms: O_15  and  C_11 
REMARK    4  A    between atoms: C_18  and  O_15 
ROOT
ATOM      1  N   UNL d   1      -0.958   0.416  -0.009  0.00  0.00    -0.248 N 
ATOM      2  C   UNL d   1      -1.774  -0.657   0.111  0.00  0.00     0.117 A 
ATOM      3  N   UNL d   1      -3.092   0.957  -0.165  0.00  0.00    -0.231 N 
ATOM      4  C   UNL d   1      -1.800   1.502  -0.160  0.00  0.00     0.350 A 
ATOM      5  N   UNL d   1      -3.049  -0.398   0.030  0.00  0.00    -0.281 N 
ATOM      6  HN  UNL d   1      -3.831  -1.050   0.096  1.00  0.00     0.188 HD
ATOM      7  C   UNL d   1       0.453   0.385   0.004  0.00  0.00     0.062 A 
ATOM      8  S   UNL d   1       0.271  -2.382  -0.453  0.00  0.00    -0.120 SA
ATOM      9  C   UNL d   1      -1.254  -2.021   0.434  0.00  0.00     0.158 C 
ATOM     10  C   UNL d   1       1.131  -0.844  -0.145  0.00  0.00     0.028 A 
ATOM     11  O   UNL d   1      -1.534   2.687  -0.279  0.00  0.00    -0.244 OA
ATOM     12  C   UNL d   1       1.216   1.553   0.142  0.00  0.00     0.031 A 
ATOM     13  C   UNL d   1       2.531  -0.887  -0.140  0.00  0.00     0.021 A 
ATOM     14  C   UNL d   1       2.615   1.499   0.158  0.00  0.00     0.002 A 
ATOM     15  C   UNL d   1       3.271   0.281   0.020  0.00  0.00     0.002 A 
ENDROOT
BRANCH   3  16
ATOM     16  C   UNL d   1      -4.327   1.699  -0.262  0.00  0.00     0.265 C 
BRANCH  16  17
ATOM     17  C   UNL d   1      -4.840   2.242   1.061  0.00  0.00     0.278 C 
ATOM     18  O   UNL d   1      -5.885   2.878   1.154  0.00  0.00    -0.263 OA
BRANCH  17  19
ATOM     19  O   UNL d   1      -3.981   2.014   2.093  0.00  0.00    -0.321 OA
BRANCH  19  20
ATOM     20  C   UNL d   1      -4.203   2.797   3.273  0.00  0.00     0.174 C 
ATOM     21  C   UNL d   1      -3.426   4.093   3.129  0.00  0.00     0.034 C 
ENDBRANCH  19  20
ENDBRANCH  17  19
ENDBRANCH  16  17
ENDBRANCH   3  16
TORSDOF 4
