REMARK  3 active torsions:
REMARK  status: ('A' for Active; 'I' for Inactive)
REMARK       I    between atoms: N_3  and  C_1 
REMARK    1  A    between atoms: C_6  and  C_1 
REMARK    2  A    between atoms: N_2  and  C_4 
REMARK    3  A    between atoms: C_9  and  N_3 
ROOT
ATOM      1  C   UNL d   1       2.134  -5.038   0.004  0.00  0.00     0.030 A 
ATOM      2  C   UNL d   1       2.490  -4.019   0.902  0.00  0.00     0.031 A 
ATOM      3  C   UNL d   1       1.102  -4.746  -0.891  0.00  0.00     0.031 A 
ATOM      4  C   UNL d   1       0.842  -2.486  -0.012  0.00  0.00     0.035 A 
ATOM      5  C   UNL d   1       0.468  -3.492  -0.905  0.00  0.00     0.032 A 
ATOM      6  C   UNL d   1       1.860  -2.764   0.899  0.00  0.00     0.032 A 
ENDROOT
BRANCH   4   7
ATOM      7  N   UNL d   1       0.282  -1.188  -0.015  0.00  0.00    -0.323 N 
ATOM      8  C   UNL d   1      -0.832  -0.783  -0.729  0.00  0.00     0.256 C 
ATOM      9  O   UNL d   1      -1.631  -1.531  -1.283  0.00  0.00    -0.267 OA
ATOM     10  H   UNL d   1       0.710  -0.512   0.608  0.00  0.00     0.169 HD
BRANCH   8  11
ATOM     11  C   UNL d   1      -1.083   0.685  -0.829  0.00  0.00     0.032 A 
ATOM     12  C   UNL d   1      -0.051   1.631  -0.789  0.00  0.00     0.017 A 
ATOM     13  C   UNL d   1      -0.328   2.976  -1.059  0.00  0.00     0.001 A 
ATOM     14  C   UNL d   1      -1.626   3.379  -1.378  0.00  0.00     0.000 A 
ATOM     15  C   UNL d   1      -2.660   2.446  -1.395  0.00  0.00     0.001 A 
ATOM     16  C   UNL d   1      -2.391   1.107  -1.114  0.00  0.00     0.017 A 
ENDBRANCH   8  11
ENDBRANCH   4   7
BRANCH   1  17
ATOM     17  N   UNL d   1       2.757  -6.274   0.066  0.00  0.00    -0.381 N 
ATOM     18  C   UNL d   1       2.104  -7.492  -0.417  0.00  0.00     0.123 C 
ATOM     19  C   UNL d   1       2.504  -8.649   0.505  0.00  0.00     0.020 C 
ATOM     20  C   UNL d   1       4.021  -8.767   0.665  0.00  0.00     0.003 C 
ATOM     21  C   UNL d   1       4.662  -7.425   1.023  0.00  0.00     0.020 C 
ATOM     22  C   UNL d   1       4.222  -6.330   0.054  0.00  0.00     0.123 C 
ENDBRANCH   1  17
TORSDOF 3
