REMARK  6 active torsions:
REMARK  status: ('A' for Active; 'I' for Inactive)
REMARK    1  A    between atoms: C_3  and  S_1 
REMARK    2  A    between atoms: C_5  and  S_1 
REMARK    3  A    between atoms: C_2  and  C_3 
REMARK    4  A    between atoms: C_4  and  C_2 
REMARK    5  A    between atoms: C_8  and  C_3 
REMARK    6  A    between atoms: C_10  and  C_4 
ROOT
ATOM      1  C   UNL d   1       0.310   1.657  -0.036  0.00  0.00     0.092 C 
ENDROOT
BRANCH   1   2
ATOM      2  C   UNL d   1       0.818   2.212  -1.377  0.00  0.00     0.104 C 
BRANCH   2   3
ATOM      3  C   UNL d   1       0.510   1.361  -2.592  0.00  0.00     0.161 C 
ATOM      4  O   UNL d   1       1.167   0.334  -2.797  0.00  0.00    -0.292 OA
BRANCH   3   5
ATOM      5  C   UNL d   1      -0.559   1.733  -3.579  0.00  0.00     0.010 A 
ATOM      6  C   UNL d   1      -1.377   2.865  -3.464  0.00  0.00     0.015 A 
ATOM      7  C   UNL d   1      -2.384   3.110  -4.409  0.00  0.00     0.001 A 
ATOM      8  C   UNL d   1      -2.583   2.235  -5.475  0.00  0.00     0.000 A 
ATOM      9  C   UNL d   1      -1.759   1.123  -5.615  0.00  0.00     0.001 A 
ATOM     10  C   UNL d   1      -0.753   0.878  -4.678  0.00  0.00     0.015 A 
ENDBRANCH   3   5
ENDBRANCH   2   3
ENDBRANCH   1   2
BRANCH   1  11
ATOM     11  S   UNL d   1       0.990   0.031   0.550  0.00  0.00    -0.118 SA
BRANCH  11  12
ATOM     12  C   UNL d   1       2.763   0.274   0.600  0.00  0.00     0.023 A 
ATOM     13  C   UNL d   1       3.454   1.173   1.431  0.00  0.00     0.052 A 
ATOM     14  C   UNL d   1       4.854   1.226   1.416  0.00  0.00     0.049 A 
ATOM     15 CL   UNL d   1       2.655   2.211   2.559  0.00  0.00    -0.083 Cl
ATOM     16  C   UNL d   1       5.576   0.359   0.600  0.00  0.00     0.035 A 
ATOM     17  C   UNL d   1       4.914  -0.573  -0.190  0.00  0.00     0.025 A 
ATOM     18 CL   UNL d   1       7.295   0.429   0.582  0.00  0.00    -0.084 Cl
ATOM     19  C   UNL d   1       3.517  -0.613  -0.188  0.00  0.00     0.022 A 
ENDBRANCH  11  12
ENDBRANCH   1  11
BRANCH   1  20
ATOM     20  C   UNL d   1      -1.219   1.650   0.016  0.00  0.00    -0.043 A 
ATOM     21  C   UNL d   1      -1.984   0.576  -0.472  0.00  0.00     0.010 A 
ATOM     22  C   UNL d   1      -3.380   0.608  -0.418  0.00  0.00     0.024 A 
ATOM     23  C   UNL d   1      -4.027   1.723   0.107  0.00  0.00     0.034 A 
ATOM     24  C   UNL d   1      -3.289   2.804   0.581  0.00  0.00     0.024 A 
ATOM     25 CL   UNL d   1      -5.745   1.767   0.169  0.00  0.00    -0.084 Cl
ATOM     26  C   UNL d   1      -1.893   2.768   0.536  0.00  0.00     0.010 A 
ENDBRANCH   1  20
TORSDOF 6
