REMARK  5 active torsions:
REMARK  status: ('A' for Active; 'I' for Inactive)
REMARK    1  A    between atoms: C_2  and  C_1 
REMARK       I    between atoms: N_3  and  C_1 
REMARK    2  A    between atoms: C_17  and  N_3 
REMARK    3  A    between atoms: O_15  and  C_8 
REMARK    4  A    between atoms: C_10  and  C_11 
REMARK    5  A    between atoms: C_21  and  O_15 
ROOT
ATOM      1  N   UNL d   1      -3.139   1.708   1.570  0.00  0.00    -0.344 N 
ATOM      2  HN  UNL d   1      -3.638   2.553   1.849  1.00  0.00     0.167 HD
ATOM      3  C   UNL d   1      -3.801   0.586   1.222  0.00  0.00     0.148 A 
ATOM      4  C   UNL d   1      -1.052   0.561   1.125  0.00  0.00     0.050 A 
ATOM      5  C   UNL d   1      -1.788   1.669   1.534  0.00  0.00     0.119 A 
ATOM      6  C   UNL d   1      -3.164  -0.569   0.790  0.00  0.00     0.059 A 
ATOM      7  C   UNL d   1      -1.765  -0.577   0.742  0.00  0.00     0.035 A 
ENDROOT
BRANCH   4   8
ATOM      8  N   UNL d   1       0.357   0.540   1.039  0.00  0.00    -0.322 N 
ATOM      9  C   UNL d   1       1.208   1.530   1.503  0.00  0.00     0.256 C 
ATOM     10  O   UNL d   1       0.895   2.485   2.204  0.00  0.00    -0.267 OA
ATOM     11  H   UNL d   1       0.775  -0.295   0.651  0.00  0.00     0.169 HD
BRANCH   9  12
ATOM     12  C   UNL d   1       2.637   1.354   1.142  0.00  0.00     0.033 A 
ATOM     13  C   UNL d   1       3.009   0.827  -0.104  0.00  0.00     0.027 A 
ATOM     14  C   UNL d   1       4.357   0.643  -0.350  0.00  0.00    -0.022 A 
ATOM     15  C   UNL d   1       5.037   0.129  -1.560  0.00  0.00     0.068 C 
ATOM     16  C   UNL d   1       5.312   1.013   0.586  0.00  0.00     0.075 A 
ATOM     17  C   UNL d   1       6.425  -0.106  -0.962  0.00  0.00     0.180 C 
ATOM     18  O   UNL d   1       6.597   0.762   0.182  0.00  0.00    -0.350 OA
ATOM     19  C   UNL d   1       4.974   1.587   1.793  0.00  0.00     0.038 A 
ATOM     20  C   UNL d   1       3.617   1.756   2.075  0.00  0.00     0.020 A 
ENDBRANCH   9  12
ENDBRANCH   4   8
BRANCH   3  21
ATOM     21  O   UNL d   1      -5.189   0.575   1.262  0.00  0.00    -0.294 OA
BRANCH  21  22
ATOM     22  C   UNL d   1      -5.799   1.396   2.184  0.00  0.00     0.077 A 
ATOM     23  C   UNL d   1      -6.970   2.042   1.802  0.00  0.00     0.038 A 
ATOM     24  C   UNL d   1      -7.652   2.857   2.716  0.00  0.00     0.011 A 
ATOM     25  C   UNL d   1      -7.190   3.037   4.038  0.00  0.00    -0.050 A 
ATOM     26  C   UNL d   1      -6.010   2.365   4.395  0.00  0.00     0.011 A 
ATOM     27  C   UNL d   1      -5.335   1.541   3.492  0.00  0.00     0.038 A 
BRANCH  25  28
ATOM     28  C   UNL d   1      -7.964   3.914   5.036  0.00  0.00    -0.024 C 
ATOM     29  C   UNL d   1      -7.306   3.981   6.435  0.00  0.00     0.019 C 
ATOM     30  C   UNL d   1      -8.066   5.362   4.512  0.00  0.00     0.019 C 
ATOM     31  C   UNL d   1      -9.385   3.344   5.231  0.00  0.00     0.019 C 
ENDBRANCH  25  28
ENDBRANCH  21  22
ENDBRANCH   3  21
TORSDOF 5
