REMARK  6 active torsions:
REMARK  status: ('A' for Active; 'I' for Inactive)
REMARK    1  A    between atoms: C_8  and  N_1 
REMARK    2  A    between atoms: C_7  and  N_3 
REMARK    3  A    between atoms: C_20  and  C_8 
REMARK    4  A    between atoms: O_24  and  C_12 
REMARK    5  A    between atoms: O_26  and  C_13 
REMARK    6  A    between atoms: C_19  and  C_20 
ROOT
ATOM      1  N   UNL d   1      -0.420   0.896  -0.018  0.00  0.00    -0.297 N 
ATOM      2  C   UNL d   1       0.746   0.463   0.576  0.00  0.00     0.150 C 
ATOM      3  N   UNL d   1       1.470   1.232   1.320  0.00  0.00    -0.335 N 
ATOM      4  HN  UNL d   1       1.133   2.173   1.525  1.00  0.00     0.168 HD
ATOM      5  C   UNL d   1      -1.075  -0.032  -0.803  0.00  0.00     0.235 C 
ATOM      6  S   UNL d   1       1.072  -1.203   0.158  0.00  0.00    -0.084 SA
ATOM      7  C   UNL d   1      -0.520  -1.418  -0.636  0.00  0.00     0.185 C 
ATOM      8  O   UNL d   1      -2.013   0.195  -1.563  0.00  0.00    -0.272 OA
ENDROOT
BRANCH   1   9
ATOM      9  C   UNL d   1      -0.734   2.330  -0.108  0.00  0.00     0.138 C 
BRANCH   9  10
ATOM     10  C   UNL d   1      -2.224   2.692  -0.049  0.00  0.00     0.059 C 
BRANCH  10  11
ATOM     11  C   UNL d   1      -2.464   4.183  -0.149  0.00  0.00    -0.054 A 
ATOM     12  C   UNL d   1      -2.600   4.965   1.006  0.00  0.00     0.046 A 
ATOM     13  C   UNL d   1      -2.870   6.343   0.930  0.00  0.00     0.102 A 
ATOM     14  C   UNL d   1      -2.971   6.944  -0.339  0.00  0.00     0.101 A 
ATOM     15  C   UNL d   1      -2.836   6.162  -1.490  0.00  0.00     0.040 A 
ATOM     16  C   UNL d   1      -2.576   4.792  -1.400  0.00  0.00     0.010 A 
BRANCH  13  17
ATOM     17  O   UNL d   1      -3.076   7.132   2.029  0.00  0.00    -0.353 OA
ATOM     18  C   UNL d   1      -3.071   6.512   3.308  0.00  0.00     0.210 C 
ENDBRANCH  13  17
BRANCH  14  19
ATOM     19  O   UNL d   1      -3.257   8.258  -0.614  0.00  0.00    -0.353 OA
ATOM     20  C   UNL d   1      -2.781   9.224   0.313  0.00  0.00     0.210 C 
ENDBRANCH  14  19
ENDBRANCH  10  11
ENDBRANCH   9  10
ENDBRANCH   1   9
BRANCH   3  21
ATOM     21  C   UNL d   1       2.709   0.824   1.862  0.00  0.00     0.056 A 
ATOM     22  C   UNL d   1       3.888   1.540   1.572  0.00  0.00     0.062 A 
ATOM     23  C   UNL d   1       5.122   1.151   2.102  0.00  0.00     0.050 A 
ATOM     24 CL   UNL d   1       3.852   2.936   0.548  0.00  0.00    -0.082 Cl
ATOM     25  C   UNL d   1       5.191   0.038   2.934  0.00  0.00     0.035 A 
ATOM     26  C   UNL d   1       4.036  -0.664   3.266  0.00  0.00     0.026 A 
ATOM     27 CL   UNL d   1       6.709  -0.468   3.564  0.00  0.00    -0.084 Cl
ATOM     28  C   UNL d   1       2.801  -0.254   2.755  0.00  0.00     0.033 A 
ENDBRANCH   3  21
TORSDOF 6
