REMARK  3 active torsions:
REMARK  status: ('A' for Active; 'I' for Inactive)
REMARK    1  A    between atoms: C_2  and  C_1 
REMARK    2  A    between atoms: S_17  and  C_9 
REMARK    3  A    between atoms: N_21  and  C_10 
ROOT
ATOM      1  C   UNL d   1       1.021   1.079   0.007  0.00  0.00     0.094 A 
ATOM      2  N   UNL d   1       1.747  -0.036  -0.044  0.00  0.00    -0.326 N 
ATOM      3  HN  UNL d   1       2.766  -0.020  -0.089  1.00  0.00     0.169 HD
ATOM      4  N   UNL d   1      -0.310   1.084   0.070  0.00  0.00    -0.322 N 
ATOM      5  HN  UNL d   1      -0.846   1.951   0.098  1.00  0.00     0.169 HD
ATOM      6  N   UNL d   1      -0.272  -1.266   0.025  0.00  0.00    -0.313 N 
ATOM      7  HN  UNL d   1      -0.766  -2.158   0.016  1.00  0.00     0.170 HD
ATOM      8  C   UNL d   1       1.054  -1.175  -0.034  0.00  0.00     0.147 A 
ATOM      9  C   UNL d   1      -0.895  -0.103   0.096  0.00  0.00     0.158 A 
ENDROOT
BRANCH   1  10
ATOM     10  C   UNL d   1       1.762   2.410   0.029  0.00  0.00     0.020 C 
ATOM     11  C   UNL d   1       2.662   2.549  -1.229  0.00  0.00     0.022 C 
ATOM     12  C   UNL d   1       3.432   3.882  -1.204  0.00  0.00    -0.013 C 
ATOM     13  C   UNL d   1       2.432   5.048  -1.173  0.00  0.00     0.009 C 
ATOM     14  C   UNL d   1       4.312   3.938   0.057  0.00  0.00     0.009 C 
ATOM     15  C   UNL d   1       1.551   4.950   0.082  0.00  0.00    -0.013 C 
ATOM     16  C   UNL d   1       0.784   3.619   0.055  0.00  0.00     0.022 C 
ATOM     17  C   UNL d   1       2.436   4.996   1.337  0.00  0.00     0.009 C 
ATOM     18  C   UNL d   1       3.436   3.830   1.316  0.00  0.00    -0.013 C 
ATOM     19  C   UNL d   1       2.666   2.497   1.288  0.00  0.00     0.022 C 
ENDBRANCH   1  10
BRANCH   8  20
ATOM     20  S   UNL d   1       2.043  -2.656  -0.087  0.00  0.00    -0.098 SA
ATOM     21  C   UNL d   1       0.763  -3.933  -0.070  0.00  0.00     0.099 C 
ENDBRANCH   8  20
BRANCH   9  22
ATOM     22  N   UNL d   1      -2.272  -0.106   0.199  0.00  0.00    -0.274 NA
ATOM     23  H   UNL d   1      -2.677  -0.957  -0.165  0.00  0.00     0.127 HD
ATOM     24  H   UNL d   1      -2.659   0.772  -0.112  0.00  0.00     0.127 HD
ENDBRANCH   9  22
TORSDOF 3
