REMARK  2 active torsions:
REMARK  status: ('A' for Active; 'I' for Inactive)
REMARK    1  A    between atoms: N_5  and  C_2 
REMARK       I    between atoms: C_9  and  N_5 
REMARK       I    between atoms: N_12  and  C_9 
REMARK    2  A    between atoms: C_16  and  N_12 
ROOT
ATOM      1  C   UNL d   1       1.367  -0.434   0.241  0.00  0.00     0.085 A 
ATOM      2  C   UNL d   1       2.722  -0.191   0.387  0.00  0.00     0.095 A 
ATOM      3  C   UNL d   1       0.594   0.764   0.312  0.00  0.00     0.003 A 
ATOM      4  C   UNL d   1       0.742  -1.739   0.089  0.00  0.00     0.302 A 
ATOM      5  O   UNL d   1      -0.668  -1.734   0.049  0.00  0.00    -0.274 OA
ATOM      6  S   UNL d   1       3.037   1.476   0.518  0.00  0.00    -0.082 SA
ATOM      7  C   UNL d   1       1.379   1.883   0.454  0.00  0.00     0.065 A 
ATOM      8  C   UNL d   1      -0.852   0.720   0.273  0.00  0.00     0.010 A 
ATOM      9  C   UNL d   1      -1.444  -0.546   0.155  0.00  0.00     0.090 A 
ATOM     10  O   UNL d   1       1.383  -2.781   0.004  0.00  0.00    -0.259 OA
ATOM     11  C   UNL d   1      -1.676   1.843   0.377  0.00  0.00     0.015 A 
ATOM     12  C   UNL d   1      -2.828  -0.705   0.148  0.00  0.00     0.038 A 
ATOM     13  C   UNL d   1      -3.067   1.690   0.371  0.00  0.00     0.001 A 
ATOM     14  C   UNL d   1      -3.640   0.421   0.259  0.00  0.00     0.003 A 
ENDROOT
BRANCH   2  15
ATOM     15  N   UNL d   1       3.722  -1.149   0.443  0.00  0.00    -0.302 N 
ATOM     16  C   UNL d   1       5.039  -1.089   0.811  0.00  0.00     0.325 C 
ATOM     17  N   UNL d   1       5.607   0.141   0.963  0.00  0.00    -0.309 N 
ATOM     18  O   UNL d   1       5.632  -2.153   0.987  0.00  0.00    -0.247 OA
ATOM     19  H   UNL d   1       5.150   0.881   0.450  0.00  0.00     0.170 HD
ATOM     20  H   UNL d   1       3.409  -2.116   0.355  0.00  0.00     0.171 HD
BRANCH  17  21
ATOM     21  C   UNL d   1       6.820   0.451   1.604  0.00  0.00     0.038 A 
ATOM     22  C   UNL d   1       7.462  -0.421   2.489  0.00  0.00     0.055 A 
ATOM     23  C   UNL d   1       8.639  -0.032   3.138  0.00  0.00     0.058 A 
ATOM     24 CL   UNL d   1       9.352  -1.148   4.251  0.00  0.00    -0.082 Cl
ATOM     25  C   UNL d   1       9.191   1.230   2.894  0.00  0.00     0.055 A 
ATOM     26  C   UNL d   1       8.550   2.104   2.013  0.00  0.00     0.028 A 
ATOM     27 CL   UNL d   1      10.645   1.773   3.650  0.00  0.00    -0.083 Cl
ATOM     28  C   UNL d   1       7.364   1.720   1.381  0.00  0.00     0.031 A 
ENDBRANCH  17  21
ENDBRANCH   2  15
TORSDOF 2
