REMARK  6 active torsions:
REMARK  status: ('A' for Active; 'I' for Inactive)
REMARK    1  A    between atoms: C_7  and  N_1 
REMARK    2  A    between atoms: C_10  and  C_4 
REMARK    3  A    between atoms: C_11  and  C_18 
REMARK    4  A    between atoms: O_16  and  C_17 
REMARK    5  A    between atoms: C_18  and  O_16 
REMARK    6  A    between atoms: O_24  and  C_19 
ROOT
ATOM      1  N   UNL d   1      -2.409   9.296   1.009  0.00  0.00    -0.270 N 
ATOM      2  HN  UNL d   1      -2.460  10.285   0.766  1.00  0.00     0.194 HD
ATOM      3  C   UNL d   1      -2.472   8.799   2.200  0.00  0.00     0.045 C 
ATOM      4  O   UNL d   1      -2.256   8.225   0.104  0.00  0.00    -0.272 OA
ATOM      5  C   UNL d   1      -2.392   7.314   2.268  0.00  0.00     0.096 C 
ATOM      6  C   UNL d   1      -2.510   6.992   0.796  0.00  0.00     0.182 C 
ENDROOT
BRANCH   6   7
ATOM      7  C   UNL d   1      -1.484   5.950   0.347  0.00  0.00     0.210 C 
BRANCH   7   8
ATOM      8  O   UNL d   1      -1.723   5.646  -1.030  0.00  0.00    -0.349 OA
BRANCH   8   9
ATOM      9  C   UNL d   1      -0.899   4.728  -1.615  0.00  0.00     0.069 A 
ATOM     10  C   UNL d   1      -1.438   4.110  -2.749  0.00  0.00     0.039 A 
ATOM     11  C   UNL d   1      -0.712   3.148  -3.450  0.00  0.00     0.039 A 
ATOM     12  C   UNL d   1       0.575   2.812  -3.015  0.00  0.00     0.103 A 
ATOM     13  C   UNL d   1       1.139   3.447  -1.902  0.00  0.00     0.039 A 
ATOM     14  C   UNL d   1       0.394   4.405  -1.202  0.00  0.00     0.039 A 
BRANCH  12  15
ATOM     15  N   UNL d   1       1.339   1.795  -3.747  0.00  0.00    -0.116 N 
ATOM     16  O   UNL d   1       2.483   1.533  -3.338  0.00  0.00    -0.532 OA
ATOM     17  O   UNL d   1       0.804   1.248  -4.720  0.00  0.00    -0.532 OA
ENDBRANCH  12  15
ENDBRANCH   8   9
ENDBRANCH   7   8
ENDBRANCH   6   7
BRANCH   3  18
ATOM     18  C   UNL d   1      -2.547   9.634   3.421  0.00  0.00    -0.011 A 
ATOM     19  C   UNL d   1      -2.540   9.062   4.697  0.00  0.00     0.016 A 
ATOM     20  C   UNL d   1      -2.541   9.877   5.835  0.00  0.00     0.037 A 
ATOM     21  C   UNL d   1      -2.550  11.267   5.704  0.00  0.00     0.068 A 
ATOM     22  C   UNL d   1      -2.554  11.836   4.430  0.00  0.00     0.037 A 
ATOM     23  C   UNL d   1      -2.563  11.027   3.292  0.00  0.00     0.016 A 
BRANCH  21  24
ATOM     24  O   UNL d   1      -2.503  12.157   6.740  0.00  0.00    -0.356 OA
ATOM     25  C   UNL d   1      -3.048  11.703   7.973  0.00  0.00     0.210 C 
ENDBRANCH  21  24
ENDBRANCH   3  18
TORSDOF 6
