REMARK  3 active torsions:
REMARK  status: ('A' for Active; 'I' for Inactive)
REMARK    1  A    between atoms: C_8  and  C_4 
REMARK    2  A    between atoms: C_10  and  C_8 
REMARK    3  A    between atoms: C_12  and  N_9 
ROOT
ATOM      1  N   UNL d   1       1.463  -0.510  -0.117  0.00  0.00    -0.324 N 
ATOM      2  HN  UNL d   1       2.403  -0.873  -0.271  1.00  0.00     0.169 HD
ATOM      3  C   UNL d   1       0.374  -1.245  -0.026  0.00  0.00     0.167 A 
ATOM      4  C   UNL d   1       1.139   0.829   0.028  0.00  0.00     0.096 A 
ATOM      5  N   UNL d   1      -0.135   1.175   0.215  0.00  0.00    -0.313 N 
ATOM      6  HN  UNL d   1      -0.502   2.121   0.318  1.00  0.00     0.175 HD
ATOM      7  S   UNL d   1      -1.012  -0.248   0.247  0.00  0.00     0.024 SA
ATOM      8  N   UNL d   1       0.303  -2.594  -0.092  0.00  0.00    -0.335 N 
ATOM      9  H   UNL d   1      -0.550  -3.058   0.191  0.00  0.00     0.168 HD
ENDROOT
BRANCH   8  10
ATOM     10  C   UNL d   1       1.268  -3.440  -0.673  0.00  0.00     0.034 A 
ATOM     11  C   UNL d   1       1.411  -4.749  -0.193  0.00  0.00     0.029 A 
ATOM     12  C   UNL d   1       2.404  -5.595  -0.702  0.00  0.00     0.002 A 
ATOM     13  C   UNL d   1       3.264  -5.144  -1.699  0.00  0.00     0.000 A 
ATOM     14  C   UNL d   1       3.140  -3.847  -2.184  0.00  0.00     0.002 A 
ATOM     15  C   UNL d   1       2.156  -3.002  -1.665  0.00  0.00     0.029 A 
ENDBRANCH   8  10
BRANCH   4  16
ATOM     16  C   UNL d   1       2.228   1.837   0.037  0.00  0.00     0.154 C 
BRANCH  16  17
ATOM     17  C   UNL d   1       2.690   2.170  -1.359  0.00  0.00     0.130 C 
ATOM     18  O   UNL d   1       2.605   3.320  -1.804  0.00  0.00    -0.298 OA
ATOM     19  C   UNL d   1       3.334   1.088  -2.189  0.00  0.00     0.091 C 
ENDBRANCH  16  17
ENDBRANCH   4  16
TORSDOF 3
