REMARK  4 active torsions:
REMARK  status: ('A' for Active; 'I' for Inactive)
REMARK    1  A    between atoms: C_14  and  N_3 
REMARK    2  A    between atoms: C_15  and  C_6 
REMARK    3  A    between atoms: O_17  and  C_11 
REMARK    4  A    between atoms: O_18  and  C_13 
ROOT
ATOM      1  N   UNL d   1      -2.695   0.870  -0.227  0.00  0.00    -0.244 NA
ATOM      2  C   UNL d   1      -1.512   1.741  -0.413  0.00  0.00     0.198 C 
ATOM      3  N   UNL d   1      -1.776   2.341  -1.747  0.00  0.00    -0.172 NA
ATOM      4  N   UNL d   1      -2.853   1.675  -2.344  0.00  0.00    -0.302 N 
ATOM      5  HN  UNL d   1      -3.173   1.782  -3.307  1.00  0.00     0.182 HD
ATOM      6  C   UNL d   1      -3.373   0.890  -1.435  0.00  0.00     0.105 C 
ATOM      7  C   UNL d   1      -0.185   0.958  -0.387  0.00  0.00    -0.015 A 
ATOM      8  C   UNL d   1      -0.157  -0.452  -0.297  0.00  0.00    -0.045 A 
ATOM      9  C   UNL d   1       1.047   1.632  -0.367  0.00  0.00     0.050 A 
ATOM     10  C   UNL d   1      -2.470  -0.367   0.509  0.00  0.00     0.104 C 
ATOM     11  C   UNL d   1       2.258   0.932  -0.234  0.00  0.00     0.102 A 
ATOM     12  C   UNL d   1       1.056  -1.155  -0.244  0.00  0.00     0.047 A 
ATOM     13  C   UNL d   1       2.271  -0.473  -0.201  0.00  0.00     0.102 A 
ATOM     14  C   UNL d   1      -1.448  -1.222  -0.226  0.00  0.00     0.054 C 
ENDROOT
BRANCH   3  15
ATOM     15  C   UNL d   1      -1.855   3.747  -1.917  0.00  0.00     0.032 A 
ATOM     16  C   UNL d   1      -1.317   4.686  -1.024  0.00  0.00     0.025 A 
ATOM     17  C   UNL d   1      -1.516   6.064  -1.205  0.00  0.00     0.002 A 
ATOM     18  C   UNL d   1      -2.235   6.543  -2.296  0.00  0.00     0.000 A 
ATOM     19  C   UNL d   1      -2.730   5.644  -3.229  0.00  0.00     0.002 A 
ATOM     20  C   UNL d   1      -2.528   4.274  -3.045  0.00  0.00     0.025 A 
ENDBRANCH   3  15
BRANCH   6  21
ATOM     21  C   UNL d   1      -4.618   0.139  -1.725  0.00  0.00     0.003 A 
ATOM     22  C   UNL d   1      -4.928  -0.198  -3.046  0.00  0.00     0.015 A 
ATOM     23  C   UNL d   1      -6.109  -0.887  -3.331  0.00  0.00     0.001 A 
ATOM     24  C   UNL d   1      -6.979  -1.237  -2.299  0.00  0.00     0.000 A 
ATOM     25  C   UNL d   1      -6.685  -0.881  -0.983  0.00  0.00     0.001 A 
ATOM     26  C   UNL d   1      -5.514  -0.178  -0.698  0.00  0.00     0.015 A 
ENDBRANCH   6  21
BRANCH  11  27
ATOM     27  O   UNL d   1       3.479   1.565  -0.164  0.00  0.00    -0.353 OA
ATOM     28  C   UNL d   1       3.482   2.784   0.571  0.00  0.00     0.210 C 
ENDBRANCH  11  27
BRANCH  13  29
ATOM     29  O   UNL d   1       3.495  -1.083  -0.091  0.00  0.00    -0.353 OA
ATOM     30  C   UNL d   1       3.517  -2.506  -0.044  0.00  0.00     0.210 C 
ENDBRANCH  13  29
TORSDOF 4
