REMARK  3 active torsions:
REMARK  status: ('A' for Active; 'I' for Inactive)
REMARK    1  A    between atoms: S_10  and  C_7 
REMARK    2  A    between atoms: N_11  and  C_8 
REMARK    3  A    between atoms: C_13  and  S_10 
ROOT
ATOM      1  N   UNL d   1      -1.166   1.075   0.101  0.00  0.00    -0.313 N 
ATOM      2  HN  UNL d   1      -2.059   1.568   0.132  1.00  0.00     0.170 HD
ATOM      3  N   UNL d   1       1.193   1.126  -0.033  0.00  0.00    -0.327 N 
ATOM      4  HN  UNL d   1       2.064   1.653  -0.093  1.00  0.00     0.169 HD
ATOM      5  N   UNL d   1       0.045  -0.934   0.062  0.00  0.00    -0.323 N 
ATOM      6  HN  UNL d   1       0.060  -1.954   0.062  1.00  0.00     0.169 HD
ATOM      7  C   UNL d   1      -0.001   1.711   0.026  0.00  0.00     0.147 A 
ATOM      8  C   UNL d   1      -1.081  -0.242   0.130  0.00  0.00     0.158 A 
ATOM      9  C   UNL d   1       1.158  -0.205  -0.005  0.00  0.00     0.081 A 
ATOM     10  C   UNL d   1       2.466  -0.934  -0.036  0.00  0.00     0.089 C 
ENDROOT
BRANCH   7  11
ATOM     11  S   UNL d   1      -0.086   3.487   0.056  0.00  0.00    -0.094 SA
BRANCH  11  12
ATOM     12  C   UNL d   1       1.439   3.905  -0.842  0.00  0.00     0.078 C 
ATOM     13  C   UNL d   1       1.542   5.415  -0.988  0.00  0.00     0.016 C 
ENDBRANCH  11  12
ENDBRANCH   7  11
BRANCH   8  14
ATOM     14  N   UNL d   1      -2.261  -0.953   0.203  0.00  0.00    -0.274 NA
ATOM     15  H   UNL d   1      -2.144  -1.879  -0.184  0.00  0.00     0.127 HD
ATOM     16  H   UNL d   1      -3.031  -0.397  -0.140  0.00  0.00     0.127 HD
ENDBRANCH   8  14
TORSDOF 3
