REMARK  6 active torsions:
REMARK  status: ('A' for Active; 'I' for Inactive)
REMARK    1  A    between atoms: C_2  and  C_1 
REMARK       I    between atoms: N_5  and  C_2 
REMARK    2  A    between atoms: C_4  and  C_3 
REMARK    3  A    between atoms: C_11  and  N_5 
REMARK    4  A    between atoms: C_23  and  N_5 
REMARK    5  A    between atoms: N_13  and  C_9 
REMARK    6  A    between atoms: C_24  and  N_13 
ROOT
ATOM      1  C   UNL d   1       0.588   1.252  -0.020  0.00  0.00     0.063 A 
ATOM      2  C   UNL d   1       1.450   0.152   0.008  0.00  0.00     0.068 A 
ATOM      3  C   UNL d   1      -0.766   0.989  -0.172  0.00  0.00     0.107 A 
ATOM      4  N   UNL d   1      -1.318  -0.249  -0.133  0.00  0.00    -0.356 N 
ATOM      5  HN  UNL d   1      -2.330  -0.375  -0.161  1.00  0.00     0.166 HD
ATOM      6  C   UNL d   1      -0.494  -1.304  -0.056  0.00  0.00     0.081 A 
ATOM      7  C   UNL d   1       0.885  -1.137  -0.058  0.00  0.00     0.059 A 
ENDROOT
BRANCH   1   8
ATOM      8  C   UNL d   1       1.094   2.647   0.023  0.00  0.00     0.260 C 
ATOM      9  N   UNL d   1       0.567   3.607   0.920  0.00  0.00    -0.314 N 
ATOM     10  O   UNL d   1       2.001   2.897  -0.767  0.00  0.00    -0.267 OA
BRANCH   9  11
ATOM     11  C   UNL d   1      -0.686   3.456   1.572  0.00  0.00     0.037 A 
ATOM     12  C   UNL d   1      -0.864   2.481   2.561  0.00  0.00     0.031 A 
ATOM     13  C   UNL d   1      -2.132   2.267   3.111  0.00  0.00     0.026 A 
ATOM     14  C   UNL d   1      -3.215   3.032   2.683  0.00  0.00     0.034 A 
ATOM     15  C   UNL d   1      -3.041   4.030   1.728  0.00  0.00     0.026 A 
ATOM     16 CL   UNL d   1      -4.784   2.731   3.322  0.00  0.00    -0.084 Cl
ATOM     17  C   UNL d   1      -1.775   4.248   1.179  0.00  0.00     0.031 A 
ENDBRANCH   9  11
BRANCH   9  18
ATOM     18  C   UNL d   1       1.140   4.960   0.831  0.00  0.00     0.128 C 
ATOM     19  C   UNL d   1       0.977   5.826   2.079  0.00  0.00     0.027 C 
ENDBRANCH   9  18
ENDBRANCH   1   8
BRANCH   2  20
ATOM     20  C   UNL d   1       2.950   0.256   0.091  0.00  0.00     0.418 C 
ATOM     21  F   UNL d   1       3.428   1.370   0.704  0.00  0.00    -0.166 F 
ATOM     22  F   UNL d   1       3.478  -0.780   0.815  0.00  0.00    -0.166 F 
ATOM     23  F   UNL d   1       3.547   0.173  -1.126  0.00  0.00    -0.166 F 
ENDBRANCH   2  20
BRANCH   6  24
ATOM     24  N   UNL d   1      -0.994  -2.599   0.019  0.00  0.00    -0.275 NA
ATOM     25  H   UNL d   1      -0.868  -3.088  -0.861  0.00  0.00     0.129 HD
BRANCH  24  26
ATOM     26  C   UNL d   1      -2.306  -2.786   0.637  0.00  0.00     0.053 C 
ATOM     27  C   UNL d   1      -3.453  -2.554  -0.340  0.00  0.00     0.026 C 
ATOM     28  C   UNL d   1      -2.352  -4.222   1.166  0.00  0.00     0.026 C 
ENDBRANCH  24  26
ENDBRANCH   6  24
TORSDOF 6
