REMARK  3 active torsions:
REMARK  status: ('A' for Active; 'I' for Inactive)
REMARK    1  A    between atoms: C_5  and  C_1 
REMARK    2  A    between atoms: C_6  and  C_2 
REMARK       I    between atoms: N_12  and  C_5 
REMARK    3  A    between atoms: C_7  and  N_15 
ROOT
ATOM      1  C   UNL d   1       0.234  -2.385   0.470  0.00  0.00     0.258 C 
ATOM      2  N   UNL d   1      -0.671  -3.428   0.237  0.00  0.00    -0.345 N 
ATOM      3  N   UNL d   1      -2.964  -5.279  -0.052  0.00  0.00    -0.397 N 
ATOM      4  O   UNL d   1       0.528  -1.565  -0.403  0.00  0.00    -0.267 OA
ATOM      5  C   UNL d   1      -1.335  -3.544  -1.058  0.00  0.00     0.145 C 
ATOM      6  C   UNL d   1      -0.686  -4.687   0.982  0.00  0.00     0.145 C 
ATOM      7  C   UNL d   1      -2.121  -5.251   1.148  0.00  0.00     0.137 C 
ATOM      8  C   UNL d   1      -2.778  -4.058  -0.875  0.00  0.00     0.137 C 
ENDROOT
BRANCH   1   9
ATOM      9  C   UNL d   1       0.774  -2.263   1.811  0.00  0.00     0.093 C 
ATOM     10  C   UNL d   1       2.104  -1.950   2.261  0.00  0.00     0.088 C 
ATOM     11  N   UNL d   1       2.157  -2.048   3.601  0.00  0.00    -0.259 N 
ATOM     12  O   UNL d   1       0.882  -2.247   4.041  0.00  0.00    -0.241 OA
ATOM     13  HN  UNL d   1       2.994  -1.986   4.180  1.00  0.00     0.195 HD
ATOM     14  C   UNL d   1       0.045  -2.348   2.987  0.00  0.00     0.090 C 
ATOM     15  C   UNL d   1      -1.370  -2.563   3.351  0.00  0.00     0.080 C 
BRANCH  10  16
ATOM     16  C   UNL d   1       3.348  -1.658   1.538  0.00  0.00     0.054 A 
ATOM     17  C   UNL d   1       4.293  -0.723   2.016  0.00  0.00     0.049 A 
ATOM     18 CL   UNL d   1       4.010   0.331   3.367  0.00  0.00    -0.083 Cl
ATOM     19  C   UNL d   1       5.543  -0.573   1.393  0.00  0.00     0.025 A 
ATOM     20  C   UNL d   1       5.861  -1.317   0.262  0.00  0.00     0.005 A 
ATOM     21  C   UNL d   1       4.925  -2.211  -0.248  0.00  0.00     0.043 A 
ATOM     22  C   UNL d   1       3.693  -2.384   0.394  0.00  0.00     0.130 A 
ATOM     23  F   UNL d   1       2.868  -3.319  -0.102  0.00  0.00    -0.205 F 
ENDBRANCH  10  16
ENDBRANCH   1   9
BRANCH   3  24
ATOM     24  C   UNL d   1      -3.018  -6.583  -0.744  0.00  0.00     0.147 C 
ATOM     25  C   UNL d   1      -3.946  -6.514  -1.954  0.00  0.00    -0.020 A 
ATOM     26  C   UNL d   1      -3.187  -6.612  -3.143  0.00  0.00    -0.017 A 
ATOM     27  C   UNL d   1      -5.308  -6.245  -1.971  0.00  0.00     0.010 A 
ATOM     28  C   UNL d   1      -3.798  -6.433  -4.370  0.00  0.00     0.013 A 
ATOM     29  C   UNL d   1      -1.803  -6.866  -2.792  0.00  0.00    -0.017 C 
ATOM     30  C   UNL d   1      -5.168  -6.142  -4.397  0.00  0.00     0.001 A 
ATOM     31  C   UNL d   1      -5.917  -6.050  -3.210  0.00  0.00     0.001 A 
ATOM     32  C   UNL d   1      -1.709  -7.008  -1.393  0.00  0.00    -0.020 C 
ATOM     33  C   UNL d   1      -0.657  -6.926  -3.564  0.00  0.00     0.013 C 
ATOM     34  C   UNL d   1      -0.528  -7.406  -0.780  0.00  0.00     0.010 C 
ATOM     35  C   UNL d   1       0.626  -7.438  -1.552  0.00  0.00     0.001 C 
ATOM     36  C   UNL d   1       0.568  -7.164  -2.926  0.00  0.00     0.001 C 
ENDBRANCH   3  24
TORSDOF 3
