REMARK  1 active torsions:
REMARK  status: ('A' for Active; 'I' for Inactive)
REMARK    1  A    between atoms: C_2  and  N_1 
ROOT
ATOM      1  C   UNL d   1       0.021   2.291   0.021  0.00  0.00     0.053 A 
ATOM      2  C   UNL d   1       0.736   2.973  -0.979  0.00  0.00     0.054 A 
ATOM      3  C   UNL d   1      -0.671   3.029   1.003  0.00  0.00    -0.035 A 
ATOM      4  C   UNL d   1      -0.671   4.434   0.930  0.00  0.00     0.011 A 
ATOM      5  C   UNL d   1       0.712   4.365  -1.037  0.00  0.00     0.036 A 
ATOM      6  C   UNL d   1       0.011   5.099  -0.088  0.00  0.00     0.024 A 
ATOM      7 CL   UNL d   1       1.541   5.183  -2.305  0.00  0.00    -0.084 Cl
ATOM      8  C   UNL d   1      -1.355   2.406   2.192  0.00  0.00     0.050 C 
ENDROOT
BRANCH   1   9
ATOM      9  N   UNL d   1       0.021   0.881   0.008  0.00  0.00    -0.245 N 
ATOM     10  C   UNL d   1      -1.102   0.102  -0.002  0.00  0.00     0.255 A 
ATOM     11  C   UNL d   1      -0.649  -1.295  -0.053  0.00  0.00     0.080 A 
ATOM     12  O   UNL d   1      -2.279   0.409  -0.025  0.00  0.00    -0.268 OA
ATOM     13  C   UNL d   1       0.683  -1.295  -0.112  0.00  0.00     0.080 A 
ATOM     14  C   UNL d   1       1.134   0.104  -0.122  0.00  0.00     0.255 A 
ATOM     15  O   UNL d   1       2.309   0.413  -0.194  0.00  0.00    -0.268 OA
ENDBRANCH   1   9
TORSDOF 1
