REMARK  5 active torsions:
REMARK  status: ('A' for Active; 'I' for Inactive)
REMARK    1  A    between atoms: C_10  and  N_1 
REMARK    2  A    between atoms: C_14  and  C_2 
REMARK    3  A    between atoms: N_4  and  C_8 
REMARK    4  A    between atoms: C_15  and  C_10 
REMARK    5  A    between atoms: O_16  and  C_14 
ROOT
ATOM      1  N   UNL d   1       1.495   1.081  -0.036  0.00  0.00    -0.351 N 
ATOM      2  C   UNL d   1       1.654  -1.153   0.014  0.00  0.00    -0.007 A 
ATOM      3  C   UNL d   1       0.271  -0.789  -0.028  0.00  0.00     0.003 A 
ATOM      4  C   UNL d   1       2.373   0.025   0.029  0.00  0.00     0.102 A 
ATOM      5  C   UNL d   1       0.197   0.608  -0.097  0.00  0.00     0.045 A 
ATOM      6  C   UNL d   1      -0.925  -1.539  -0.011  0.00  0.00     0.050 A 
ATOM      7  C   UNL d   1      -2.153  -0.865  -0.081  0.00  0.00     0.103 A 
ATOM      8  C   UNL d   1      -1.031   1.284  -0.199  0.00  0.00     0.033 A 
ATOM      9  C   UNL d   1      -2.208   0.528  -0.193  0.00  0.00     0.038 A 
ENDROOT
BRANCH   1  10
ATOM     10  C   UNL d   1       1.898   2.482   0.047  0.00  0.00     0.167 C 
BRANCH  10  11
ATOM     11  C   UNL d   1       2.243   3.046  -1.308  0.00  0.00    -0.040 A 
ATOM     12  C   UNL d   1       1.288   3.754  -2.050  0.00  0.00     0.009 A 
ATOM     13  C   UNL d   1       1.597   4.240  -3.322  0.00  0.00     0.001 A 
ATOM     14  C   UNL d   1       2.863   4.025  -3.863  0.00  0.00     0.000 A 
ATOM     15  C   UNL d   1       3.825   3.336  -3.130  0.00  0.00     0.001 A 
ATOM     16  C   UNL d   1       3.518   2.849  -1.858  0.00  0.00     0.009 A 
ENDBRANCH  10  11
ENDBRANCH   1  10
BRANCH   2  17
ATOM     17  C   UNL d   1       2.210  -2.536   0.038  0.00  0.00     0.205 C 
BRANCH  17  18
ATOM     18  O   UNL d   1       1.804  -3.245   1.203  0.00  0.00    -0.396 OA
ATOM     19  H   UNL d   1       1.956  -2.643   1.953  0.00  0.00     0.209 HD
ENDBRANCH  17  18
ENDBRANCH   2  17
BRANCH   7  20
ATOM     20  N   UNL d   1      -3.401  -1.634  -0.020  0.00  0.00    -0.116 N 
ATOM     21  O   UNL d   1      -3.319  -2.867   0.089  0.00  0.00    -0.532 OA
ATOM     22  O   UNL d   1      -4.469  -1.006  -0.075  0.00  0.00    -0.532 OA
ENDBRANCH   7  20
TORSDOF 5
