REMARK  1 active torsions:
REMARK  status: ('A' for Active; 'I' for Inactive)
REMARK    1  A    between atoms: C_13  and  C_4 
ROOT
ATOM      1  C   UNL d   1       1.352   0.916  -0.040  0.00  0.00    -0.008 A 
ATOM      2  C   UNL d   1       0.695  -0.266  -0.055  0.00  0.00     0.054 A 
ATOM      3  C   UNL d   1       3.554  -0.218  -0.018  0.00  0.00     0.124 A 
ATOM      4  C   UNL d   1       2.842   0.933  -0.020  0.00  0.00     0.010 A 
ATOM      5  N   UNL d   1       1.446  -1.424  -0.053  0.00  0.00    -0.321 N 
ATOM      6  C   UNL d   1       2.813  -1.501  -0.031  0.00  0.00     0.267 A 
ATOM      7  C   UNL d   1      -0.798  -0.373  -0.042  0.00  0.00     0.008 A 
ATOM      8  C   UNL d   1       0.719   2.282  -0.014  0.00  0.00     0.121 C 
ATOM      9  S   UNL d   1      -1.041   2.429  -0.297  0.00  0.00    -0.124 SA
ATOM     10  C   UNL d   1       4.980  -0.274  -0.000  0.00  0.00     0.106 C 
ATOM     11  N   UNL d   1       6.142  -0.259   0.012  0.00  0.00    -0.191 NA
ATOM     12  C   UNL d   1      -1.621   0.766  -0.094  0.00  0.00     0.013 A 
ATOM     13  O   UNL d   1       3.377  -2.587  -0.018  0.00  0.00    -0.266 OA
ATOM     14  C   UNL d   1      -1.456  -1.623   0.021  0.00  0.00     0.015 A 
ATOM     15  C   UNL d   1      -3.025   0.647  -0.048  0.00  0.00     0.019 A 
ATOM     16  C   UNL d   1      -2.854  -1.733   0.045  0.00  0.00     0.001 A 
ATOM     17  C   UNL d   1      -3.641  -0.595   0.022  0.00  0.00     0.001 A 
ATOM     18  H   UNL d   1       1.007  -2.333  -0.059  0.00  0.00     0.169 HD
ENDROOT
BRANCH   4  19
ATOM     19  C   UNL d   1       3.612   2.205   0.009  0.00  0.00    -0.024 A 
ATOM     20  C   UNL d   1       4.030   2.804  -1.188  0.00  0.00     0.014 A 
ATOM     21  C   UNL d   1       4.764   3.992  -1.158  0.00  0.00     0.024 A 
ATOM     22  C   UNL d   1       5.072   4.586   0.065  0.00  0.00     0.034 A 
ATOM     23  C   UNL d   1       4.645   4.008   1.259  0.00  0.00     0.024 A 
ATOM     24 CL   UNL d   1       5.987   6.042   0.100  0.00  0.00    -0.084 Cl
ATOM     25  C   UNL d   1       3.917   2.816   1.233  0.00  0.00     0.014 A 
ENDBRANCH   4  19
TORSDOF 1
