REMARK  3 active torsions:
REMARK  status: ('A' for Active; 'I' for Inactive)
REMARK    1  A    between atoms: C_4  and  C_2 
REMARK       I    between atoms: N_10  and  C_4 
REMARK    2  A    between atoms: C_16  and  N_10 
REMARK    3  A    between atoms: C_13  and  C_16 
ROOT
ATOM      1  C   UNL d   1      -1.288  -2.887  -0.062  0.00  0.00     0.254 C 
ATOM      2  N   UNL d   1      -2.412  -3.673  -0.064  0.00  0.00    -0.354 N 
ATOM      3  O   UNL d   1      -0.148  -3.352  -0.084  0.00  0.00    -0.268 OA
ATOM      4  H   UNL d   1      -3.307  -3.198  -0.162  0.00  0.00     0.162 HD
ENDROOT
BRANCH   1   5
ATOM      5  C   UNL d   1      -1.501  -1.406  -0.062  0.00  0.00     0.065 A 
ATOM      6  C   UNL d   1      -2.742  -0.797  -0.222  0.00  0.00     0.092 A 
ATOM      7  O   UNL d   1      -3.932  -1.454  -0.420  0.00  0.00    -0.339 OA
ATOM      8  C   UNL d   1      -2.885   0.585  -0.221  0.00  0.00    -0.021 A 
ATOM      9  C   UNL d   1      -4.967  -0.432  -0.387  0.00  0.00     0.064 C 
ATOM     10  C   UNL d   1      -5.764  -0.632   0.906  0.00  0.00     0.046 C 
ATOM     11  C   UNL d   1      -5.873  -0.651  -1.600  0.00  0.00     0.046 C 
ATOM     12  C   UNL d   1      -4.301   0.961  -0.438  0.00  0.00     0.079 C 
ATOM     13  C   UNL d   1      -1.789   1.419  -0.078  0.00  0.00     0.010 A 
ATOM     14  C   UNL d   1      -0.531   0.837   0.076  0.00  0.00     0.002 A 
ATOM     15  C   UNL d   1      -0.387  -0.560   0.083  0.00  0.00     0.020 A 
ENDBRANCH   1   5
BRANCH   2  16
ATOM     16  C   UNL d   1      -2.391  -5.090  -0.372  0.00  0.00     0.157 C 
BRANCH  16  17
ATOM     17  C   UNL d   1      -1.755  -6.016   0.691  0.00  0.00     0.171 C 
ATOM     18  O   UNL d   1      -2.447  -5.958   1.955  0.00  0.00    -0.339 OA
ATOM     19  C   UNL d   1      -3.483  -6.849   2.065  0.00  0.00     0.102 A 
ATOM     20  C   UNL d   1      -4.212  -6.827   3.253  0.00  0.00     0.039 A 
ATOM     21  C   UNL d   1      -3.829  -7.752   1.056  0.00  0.00     0.102 A 
ATOM     22  C   UNL d   1      -5.327  -7.655   3.401  0.00  0.00     0.003 A 
ATOM     23  C   UNL d   1      -5.729  -8.482   2.350  0.00  0.00     0.003 A 
ATOM     24  C   UNL d   1      -4.978  -8.531   1.174  0.00  0.00     0.039 A 
ATOM     25  O   UNL d   1      -3.067  -7.923  -0.073  0.00  0.00    -0.346 OA
ATOM     26  C   UNL d   1      -1.730  -7.456   0.172  0.00  0.00     0.209 C 
ENDBRANCH  16  17
ENDBRANCH   2  16
TORSDOF 3
