REMARK  4 active torsions:
REMARK  status: ('A' for Active; 'I' for Inactive)
REMARK    1  A    between atoms: C_6  and  C_1 
REMARK    2  A    between atoms: C_8  and  C_3 
REMARK    3  A    between atoms: O_13  and  C_6 
REMARK    4  A    between atoms: O_18  and  C_15 
ROOT
ATOM      1  C   UNL d   1       1.411   1.024   0.100  0.00  0.00     0.048 C 
ATOM      2  C   UNL d   1       1.319  -0.321   0.005  0.00  0.00     0.021 C 
ATOM      3  C   UNL d   1       0.187   1.892  -0.134  0.00  0.00     0.068 C 
ATOM      4  N   UNL d   1       0.096  -0.902  -0.251  0.00  0.00    -0.330 N 
ATOM      5  C   UNL d   1      -1.117  -0.266  -0.261  0.00  0.00     0.222 C 
ATOM      6  C   UNL d   1      -1.114   1.159   0.216  0.00  0.00     0.117 C 
ATOM      7  O   UNL d   1      -2.148  -0.871  -0.539  0.00  0.00    -0.273 OA
ATOM      8  C   UNL d   1       2.458  -1.308   0.073  0.00  0.00     0.069 C 
ATOM      9  H   UNL d   1       0.043  -1.899  -0.439  0.00  0.00     0.168 HD
ENDROOT
BRANCH   3  10
ATOM     10  C   UNL d   1       0.162   3.245   0.569  0.00  0.00    -0.049 A 
ATOM     11  C   UNL d   1       0.015   4.417  -0.190  0.00  0.00     0.010 A 
ATOM     12  C   UNL d   1      -0.092   5.667   0.428  0.00  0.00     0.037 A 
ATOM     13  C   UNL d   1      -0.060   5.767   1.817  0.00  0.00     0.068 A 
ATOM     14  C   UNL d   1       0.114   4.609   2.578  0.00  0.00     0.037 A 
ATOM     15  C   UNL d   1       0.227   3.358   1.965  0.00  0.00     0.010 A 
BRANCH  13  16
ATOM     16  O   UNL d   1      -0.185   6.919   2.542  0.00  0.00    -0.356 OA
ATOM     17  C   UNL d   1      -0.511   8.099   1.817  0.00  0.00     0.210 C 
ENDBRANCH  13  16
ENDBRANCH   3  10
BRANCH   1  18
ATOM     18  C   UNL d   1       2.718   1.664   0.387  0.00  0.00     0.291 C 
ATOM     19  O   UNL d   1       3.510   1.246   1.218  0.00  0.00    -0.260 OA
BRANCH  18  20
ATOM     20  O   UNL d   1       2.884   2.757  -0.398  0.00  0.00    -0.323 OA
ATOM     21  C   UNL d   1       4.019   3.575  -0.092  0.00  0.00     0.213 C 
ENDBRANCH  18  20
ENDBRANCH   1  18
TORSDOF 4
