REMARK  2 active torsions:
REMARK  status: ('A' for Active; 'I' for Inactive)
REMARK    1  A    between atoms: C_3  and  C_1 
REMARK    2  A    between atoms: O_9  and  C_3 
ROOT
ATOM      1  C   UNL d   1       0.859   1.058  -0.034  0.00  0.00     0.097 A 
ATOM      2  C   UNL d   1       0.060  -0.070  -0.019  0.00  0.00     0.034 A 
ATOM      3  S   UNL d   1       2.525   0.596  -0.018  0.00  0.00    -0.095 SA
ATOM      4  C   UNL d   1       0.794  -1.290  -0.002  0.00  0.00     0.028 A 
ATOM      5  C   UNL d   1       2.151  -1.069   0.002  0.00  0.00     0.052 A 
ATOM      6 BR   UNL d   1      -1.834  -0.165  -0.022  0.00  0.00    -0.049 Br
ENDROOT
BRANCH   1   7
ATOM      7  C   UNL d   1       0.561   2.481  -0.058  0.00  0.00     0.301 C 
ATOM      8  O   UNL d   1       1.383   3.391  -0.066  0.00  0.00    -0.259 OA
BRANCH   7   9
ATOM      9  O   UNL d   1      -0.785   2.693  -0.075  0.00  0.00    -0.322 OA
ATOM     10  C   UNL d   1      -1.174   4.067  -0.104  0.00  0.00     0.213 C 
ENDBRANCH   7   9
ENDBRANCH   1   7
TORSDOF 2
