REMARK  5 active torsions:
REMARK  status: ('A' for Active; 'I' for Inactive)
REMARK    1  A    between atoms: N_2  and  C_1 
REMARK    2  A    between atoms: N_4  and  C_3 
REMARK    3  A    between atoms: C_7  and  C_6 
REMARK    4  A    between atoms: C_10  and  C_16 
REMARK    5  A    between atoms: O_21  and  C_18 
ROOT
ATOM      1  C   UNL d   1       0.990  -0.112   0.648  0.00  0.00     0.130 A 
ATOM      2  C   UNL d   1       0.340  -1.256   0.126  0.00  0.00     0.063 A 
ATOM      3  C   UNL d   1       0.470   1.192   0.537  0.00  0.00     0.050 A 
ATOM      4  C   UNL d   1      -0.744   1.423  -0.117  0.00  0.00    -0.001 A 
ATOM      5  C   UNL d   1      -0.846  -0.960  -0.589  0.00  0.00     0.032 A 
ATOM      6  C   UNL d   1      -1.375   0.334  -0.710  0.00  0.00     0.014 A 
ENDROOT
BRANCH   2   7
ATOM      7  N   UNL d   1       0.678  -2.608   0.318  0.00  0.00    -0.379 N 
ATOM      8  C   UNL d   1       0.501  -3.529  -0.821  0.00  0.00     0.123 C 
ATOM      9  C   UNL d   1       0.834  -5.004  -0.588  0.00  0.00     0.029 C 
ATOM     10  C   UNL d   1       1.737  -5.362   0.592  0.00  0.00     0.024 C 
ATOM     11  C   UNL d   1       1.367  -4.476   1.781  0.00  0.00     0.029 C 
ATOM     12  C   UNL d   1       1.503  -3.000   1.460  0.00  0.00     0.123 C 
BRANCH  10  13
ATOM     13  C   UNL d   1       3.234  -5.427   0.299  0.00  0.00    -0.021 A 
ATOM     14  C   UNL d   1       4.062  -6.458   0.787  0.00  0.00     0.074 A 
ATOM     15  C   UNL d   1       5.420  -6.514   0.414  0.00  0.00     0.037 A 
ATOM     16  C   UNL d   1       5.974  -5.558  -0.429  0.00  0.00     0.003 A 
ATOM     17  C   UNL d   1       5.175  -4.532  -0.914  0.00  0.00     0.001 A 
ATOM     18  C   UNL d   1       3.826  -4.465  -0.545  0.00  0.00     0.010 A 
BRANCH  14  19
ATOM     19  O   UNL d   1       3.654  -7.554   1.504  0.00  0.00    -0.355 OA
ATOM     20  C   UNL d   1       2.972  -7.301   2.725  0.00  0.00     0.210 C 
ENDBRANCH  14  19
ENDBRANCH  10  13
ENDBRANCH   2   7
BRANCH   1  21
ATOM     21  N   UNL d   1       2.289  -0.167   1.276  0.00  0.00    -0.113 N 
ATOM     22  O   UNL d   1       3.257  -0.482   0.573  0.00  0.00    -0.532 OA
ATOM     23  O   UNL d   1       2.356   0.154   2.482  0.00  0.00    -0.532 OA
ENDBRANCH   1  21
BRANCH   4  24
ATOM     24  C   UNL d   1      -1.381   2.789  -0.112  0.00  0.00     0.294 C 
ATOM     25  O   UNL d   1      -1.677   3.091   1.251  0.00  0.00    -0.357 OA
ATOM     26  C   UNL d   1      -2.279   4.370   1.380  0.00  0.00     0.173 C 
ATOM     27  C   UNL d   1      -1.384   5.434   0.772  0.00  0.00     0.053 C 
ATOM     28  C   UNL d   1      -1.026   5.041  -0.651  0.00  0.00     0.173 C 
ATOM     29  O   UNL d   1      -0.472   3.729  -0.674  0.00  0.00    -0.357 OA
ENDBRANCH   4  24
TORSDOF 5
