REMARK  6 active torsions:
REMARK  status: ('A' for Active; 'I' for Inactive)
REMARK    1  A    between atoms: C_4  and  C_1 
REMARK    2  A    between atoms: O_10  and  C_2 
REMARK    3  A    between atoms: O_9  and  C_4 
REMARK    4  A    between atoms: C_6  and  C_13 
REMARK    5  A    between atoms: C_8  and  O_10 
REMARK    6  A    between atoms: C_22  and  O_9 
ROOT
ATOM      1  C   UNL d   1      -0.014   1.169  -0.236  0.00  0.00     0.153 A 
ATOM      2  C   UNL d   1      -0.066  -1.027  -0.077  0.00  0.00     0.191 A 
ATOM      3  O   UNL d   1      -0.854   0.087  -0.126  0.00  0.00    -0.281 OA
ATOM      4  C   UNL d   1       1.298   0.729  -0.283  0.00  0.00     0.048 A 
ATOM      5  C   UNL d   1       1.262  -0.678  -0.232  0.00  0.00     0.067 A 
ENDROOT
BRANCH   1   6
ATOM      6  C   UNL d   1      -0.509   2.525  -0.284  0.00  0.00     0.322 C 
ATOM      7  O   UNL d   1       0.224   3.509  -0.255  0.00  0.00    -0.257 OA
BRANCH   6   8
ATOM      8  O   UNL d   1      -1.897   2.547  -0.419  0.00  0.00    -0.273 OA
BRANCH   8   9
ATOM      9  C   UNL d   1      -2.661   3.708  -0.713  0.00  0.00     0.079 A 
ATOM     10  C   UNL d   1      -3.986   3.463  -1.074  0.00  0.00     0.038 A 
ATOM     11  C   UNL d   1      -4.815   4.521  -1.454  0.00  0.00     0.012 A 
ATOM     12  C   UNL d   1      -4.337   5.844  -1.477  0.00  0.00    -0.035 A 
ATOM     13  C   UNL d   1      -3.010   6.072  -1.073  0.00  0.00     0.012 A 
ATOM     14  C   UNL d   1      -2.177   5.013  -0.692  0.00  0.00     0.038 A 
BRANCH  12  15
ATOM     15  C   UNL d   1      -5.245   6.969  -1.934  0.00  0.00     0.141 C 
ATOM     16  S   UNL d   1      -4.578   7.868  -3.372  0.00  0.00    -0.148 SA
ATOM     17  C   UNL d   1      -5.265   9.478  -2.928  0.00  0.00     0.085 C 
ATOM     18  C   UNL d   1      -5.086   9.652  -1.433  0.00  0.00     0.085 C 
ATOM     19  S   UNL d   1      -5.641   8.143  -0.595  0.00  0.00    -0.148 SA
ENDBRANCH  12  15
ENDBRANCH   8   9
ENDBRANCH   6   8
ENDBRANCH   1   6
BRANCH   2  20
ATOM     20  O   UNL d   1      -0.721  -2.170   0.130  0.00  0.00    -0.288 OA
BRANCH  20  21
ATOM     21  C   UNL d   1      -0.062  -3.233   0.716  0.00  0.00     0.081 A 
ATOM     22  C   UNL d   1       0.815  -3.056   1.792  0.00  0.00     0.061 A 
ATOM     23  C   UNL d   1       1.492  -4.149   2.325  0.00  0.00     0.038 A 
ATOM     24 CL   UNL d   1       2.631  -3.904   3.590  0.00  0.00    -0.084 Cl
ATOM     25  C   UNL d   1       1.264  -5.430   1.832  0.00  0.00     0.048 A 
ATOM     26  C   UNL d   1       0.344  -5.608   0.799  0.00  0.00     0.038 A 
ATOM     27  C   UNL d   1      -0.322  -4.517   0.235  0.00  0.00     0.061 A 
ATOM     28 CL   UNL d   1       0.036  -7.196   0.211  0.00  0.00    -0.084 Cl
ENDBRANCH  20  21
ENDBRANCH   2  20
TORSDOF 6
