REMARK  4 active torsions:
REMARK  status: ('A' for Active; 'I' for Inactive)
REMARK    1  A    between atoms: N_3  and  C_1 
REMARK    2  A    between atoms: N_7  and  C_1 
REMARK    3  A    between atoms: C_2  and  N_3 
REMARK    4  A    between atoms: N_10  and  N_7 
ROOT
ATOM      1  N   UNL d   1       0.518  -1.080   0.464  0.00  0.00    -0.332 N 
ATOM      2  H   UNL d   1       0.527  -0.111   0.742  0.00  0.00     0.168 HD
ENDROOT
BRANCH   1   3
ATOM      3  C   UNL d   1       1.118  -2.001   1.357  0.00  0.00     0.041 A 
ATOM      4  C   UNL d   1       0.896  -3.380   1.241  0.00  0.00     0.053 A 
ATOM      5  C   UNL d   1       1.515  -4.279   2.109  0.00  0.00     0.036 A 
ATOM      6 CL   UNL d   1       1.233  -5.968   1.938  0.00  0.00    -0.084 Cl
ATOM      7  C   UNL d   1       2.356  -3.822   3.115  0.00  0.00     0.024 A 
ATOM      8  C   UNL d   1       2.548  -2.451   3.274  0.00  0.00     0.011 A 
ATOM      9  C   UNL d   1       1.911  -1.525   2.426  0.00  0.00    -0.035 A 
ATOM     10  C   UNL d   1       2.207  -0.066   2.656  0.00  0.00     0.050 C 
ENDBRANCH   1   3
BRANCH   1  11
ATOM     11  C   UNL d   1       0.182  -1.219  -0.868  0.00  0.00     0.186 C 
ATOM     12  S   UNL d   1       0.614  -2.418  -1.946  0.00  0.00    -0.040 SA
BRANCH  11  13
ATOM     13  N   UNL d   1      -0.574  -0.165  -1.363  0.00  0.00    -0.300 N 
ATOM     14  H   UNL d   1      -0.872  -0.250  -2.337  0.00  0.00     0.183 HD
BRANCH  13  15
ATOM     15  N   UNL d   1      -1.197   0.797  -0.554  0.00  0.00    -0.248 NA
ATOM     16  H   UNL d   1      -0.514   1.491  -0.249  0.00  0.00     0.143 HD
ATOM     17  H   UNL d   1      -1.597   0.342   0.270  0.00  0.00     0.143 HD
ENDBRANCH  13  15
ENDBRANCH  11  13
ENDBRANCH   1  11
TORSDOF 4
