REMARK  6 active torsions:
REMARK  status: ('A' for Active; 'I' for Inactive)
REMARK    1  A    between atoms: C_3  and  C_1 
REMARK    2  A    between atoms: C_4  and  C_1 
REMARK    3  A    between atoms: C_8  and  C_2 
REMARK    4  A    between atoms: O_11  and  C_3 
REMARK    5  A    between atoms: N_5  and  C_4 
REMARK    6  A    between atoms: C_15  and  O_11 
ROOT
ATOM      1  C   UNL d   1       1.072   0.070  -0.002  0.00  0.00     0.102 C 
ATOM      2  C   UNL d   1       0.391  -0.386  -1.080  0.00  0.00     0.040 C 
ENDROOT
BRANCH   1   3
ATOM      3  C   UNL d   1       0.343   0.632   1.150  0.00  0.00     0.302 C 
ATOM      4  O   UNL d   1      -0.873   0.735   1.212  0.00  0.00    -0.259 OA
BRANCH   3   5
ATOM      5  O   UNL d   1       1.232   1.114   2.052  0.00  0.00    -0.317 OA
BRANCH   5   6
ATOM      6  C   UNL d   1       0.717   2.071   2.985  0.00  0.00     0.174 C 
ATOM      7  C   UNL d   1       0.778   3.441   2.332  0.00  0.00     0.034 C 
ENDBRANCH   5   6
ENDBRANCH   3   5
ENDBRANCH   1   3
BRANCH   1   8
ATOM      8  C   UNL d   1       2.592   0.070  -0.002  0.00  0.00    -0.031 C 
BRANCH   8   9
ATOM      9  N   UNL d   1       3.853   0.070  -0.002  0.00  0.00    -0.365 N 
ATOM     10  HN2 UNL d   1       2.833   0.070  -0.002  1.00  0.00     0.165 HD
ATOM     11  HN1 UNL d   1       4.873   0.070  -0.002  1.00  0.00     0.165 HD
ENDBRANCH   8   9
ENDBRANCH   1   8
BRANCH   2  12
ATOM     12  C   UNL d   1       1.077  -0.847  -2.298  0.00  0.00    -0.017 A 
ATOM     13  C   UNL d   1       1.521  -2.166  -2.490  0.00  0.00     0.021 A 
ATOM     14 BR   UNL d   1       1.132  -3.547  -1.246  0.00  0.00    -0.050 Br
ATOM     15  C   UNL d   1       2.286  -2.498  -3.614  0.00  0.00     0.020 A 
ATOM     16  C   UNL d   1       2.605  -1.523  -4.559  0.00  0.00     0.001 A 
ATOM     17  C   UNL d   1       2.147  -0.218  -4.392  0.00  0.00     0.001 A 
ATOM     18  C   UNL d   1       1.390   0.119  -3.269  0.00  0.00     0.013 A 
ENDBRANCH   2  12
TORSDOF 6
