REMARK  4 active torsions:
REMARK  status: ('A' for Active; 'I' for Inactive)
REMARK    1  A    between atoms: C_8  and  C_1 
REMARK    2  A    between atoms: N_10  and  C_2 
REMARK    3  A    between atoms: C_6  and  C_3 
REMARK    4  A    between atoms: N_15  and  C_8 
ROOT
ATOM      1  C   UNL d   1      -0.762   1.184   0.006  0.00  0.00     0.097 A 
ATOM      2  C   UNL d   1       0.645   1.354  -0.017  0.00  0.00     0.060 A 
ATOM      3  C   UNL d   1       0.760  -1.102  -0.019  0.00  0.00     0.065 A 
ATOM      4  N   UNL d   1      -1.389  -0.030   0.025  0.00  0.00    -0.361 N 
ATOM      5  HN  UNL d   1      -2.407  -0.097   0.049  1.00  0.00     0.165 HD
ATOM      6  C   UNL d   1       1.383   0.156  -0.031  0.00  0.00     0.049 A 
ATOM      7  C   UNL d   1      -0.621  -1.133   0.010  0.00  0.00     0.104 A 
ENDROOT
BRANCH   1   8
ATOM      8  C   UNL d   1      -1.722   2.337  -0.103  0.00  0.00     0.123 C 
ATOM      9  S   UNL d   1      -3.139   2.485   0.775  0.00  0.00    -0.058 SA
BRANCH   8  10
ATOM     10  N   UNL d   1      -1.408   3.329  -1.004  0.00  0.00    -0.388 N 
ATOM     11  H   UNL d   1      -0.508   3.340  -1.473  0.00  0.00     0.157 HD
ATOM     12  H   UNL d   1      -2.017   4.134  -1.094  0.00  0.00     0.157 HD
ENDBRANCH   8  10
ENDBRANCH   1   8
BRANCH   2  13
ATOM     13  N   UNL d   1       1.289   2.604  -0.046  0.00  0.00    -0.388 N 
ATOM     14  C   UNL d   1       0.970   3.508   1.070  0.00  0.00     0.149 C 
ATOM     15  C   UNL d   1       2.673   2.693  -0.512  0.00  0.00     0.149 C 
ENDBRANCH   2  13
BRANCH   3  16
ATOM     16  C   UNL d   1       1.527  -2.386  -0.050  0.00  0.00     0.418 C 
ATOM     17  F   UNL d   1       2.876  -2.214   0.038  0.00  0.00    -0.166 F 
ATOM     18  F   UNL d   1       1.192  -3.223   0.969  0.00  0.00    -0.166 F 
ATOM     19  F   UNL d   1       1.317  -3.089  -1.197  0.00  0.00    -0.166 F 
ENDBRANCH   3  16
TORSDOF 4
