REMARK  7 active torsions:
REMARK  status: ('A' for Active; 'I' for Inactive)
REMARK    1  A    between atoms: C_5  and  C_2 
REMARK    2  A    between atoms: C_6  and  C_3 
REMARK    3  A    between atoms: C_4  and  C_12 
REMARK    4  A    between atoms: O_13  and  C_5 
REMARK    5  A    between atoms: N_7  and  O_13 
REMARK    6  A    between atoms: C_15  and  C_9 
REMARK    7  A    between atoms: N_24  and  C_9 
ROOT
ATOM      1  N   UNL d   1      -2.570   2.192  -0.159  0.00  0.00    -0.246 N 
ATOM      2  HN  UNL d   1      -1.827   2.859  -0.363  1.00  0.00     0.196 HD
ATOM      3  C   UNL d   1      -3.802   2.550   0.031  0.00  0.00     0.109 C 
ENDROOT
BRANCH   1   4
ATOM      4  O   UNL d   1      -2.342   0.791  -0.059  0.00  0.00    -0.193 OA
BRANCH   4   5
ATOM      5  C   UNL d   1      -0.984   0.569  -0.238  0.00  0.00     0.322 C 
ATOM      6  O   UNL d   1      -0.166   1.452  -0.495  0.00  0.00    -0.257 OA
BRANCH   5   7
ATOM      7  C   UNL d   1      -0.586  -0.829  -0.101  0.00  0.00     0.082 A 
ATOM      8  S   UNL d   1      -1.626  -2.133   0.279  0.00  0.00    -0.083 SA
ATOM      9  C   UNL d   1      -0.340  -3.290   0.262  0.00  0.00     0.023 A 
ATOM     10  C   UNL d   1       0.856  -2.676  -0.061  0.00  0.00     0.022 A 
ATOM     11  C   UNL d   1       0.715  -1.279  -0.262  0.00  0.00     0.026 A 
BRANCH   9  12
ATOM     12  C   UNL d   1      -0.535  -4.696   0.558  0.00  0.00     0.021 A 
ATOM     13  S   UNL d   1       0.737  -5.648   1.231  0.00  0.00    -0.101 SA
ATOM     14  C   UNL d   1      -0.227  -7.056   1.273  0.00  0.00     0.050 A 
ATOM     15  C   UNL d   1      -1.490  -6.827   0.778  0.00  0.00     0.008 A 
ATOM     16  C   UNL d   1      -1.666  -5.470   0.366  0.00  0.00     0.021 A 
ENDBRANCH   9  12
ENDBRANCH   5   7
ENDBRANCH   4   5
ENDBRANCH   1   4
BRANCH   3  17
ATOM     17  C   UNL d   1      -4.095   4.026   0.002  0.00  0.00     0.004 A 
ATOM     18  C   UNL d   1      -3.302   4.891  -0.772  0.00  0.00     0.030 A 
ATOM     19  C   UNL d   1      -3.531   6.277  -0.768  0.00  0.00     0.048 A 
ATOM     20  C   UNL d   1      -4.575   6.792   0.019  0.00  0.00     0.016 A 
ATOM     21  C   UNL d   1      -5.368   5.937   0.788  0.00  0.00     0.002 A 
ATOM     22  C   UNL d   1      -5.130   4.560   0.778  0.00  0.00     0.015 A 
BRANCH  19  23
ATOM     23  C   UNL d   1      -2.667   7.222  -1.570  0.00  0.00     0.417 C 
ATOM     24  F   UNL d   1      -1.684   6.602  -2.280  0.00  0.00    -0.166 F 
ATOM     25  F   UNL d   1      -3.387   7.936  -2.480  0.00  0.00    -0.166 F 
ATOM     26  F   UNL d   1      -2.040   8.144  -0.788  0.00  0.00    -0.166 F 
ENDBRANCH  19  23
ENDBRANCH   3  17
BRANCH   3  27
ATOM     27  N   UNL d   1      -4.837   1.674   0.254  0.00  0.00    -0.286 NA
ATOM     28  H   UNL d   1      -4.606   0.723  -0.006  0.00  0.00     0.125 HD
ATOM     29  H   UNL d   1      -5.741   1.965  -0.108  0.00  0.00     0.125 HD
ENDBRANCH   3  27
TORSDOF 7
