REMARK  2 active torsions:
REMARK  status: ('A' for Active; 'I' for Inactive)
REMARK    1  A    between atoms: C_9  and  C_3 
REMARK    2  A    between atoms: C_10  and  C_5 
ROOT
ATOM      1  N   UNL d   1      -0.456   1.606  -0.765  0.00  0.00    -0.358 N 
ATOM      2  HN  UNL d   1      -0.268   2.187  -1.583  1.00  0.00     0.166 HD
ATOM      3  C   UNL d   1      -1.609   1.695  -0.171  0.00  0.00     0.021 C 
ATOM      4  S   UNL d   1      -1.173  -1.523  -0.423  0.00  0.00    -0.118 SA
ATOM      5  C   UNL d   1      -2.380  -0.583   0.612  0.00  0.00     0.091 C 
ATOM      6  C   UNL d   1      -1.983   0.840   1.029  0.00  0.00     0.078 C 
ATOM      7  C   UNL d   1       0.540   0.723  -0.302  0.00  0.00     0.049 A 
ATOM      8  C   UNL d   1       0.362  -0.663  -0.112  0.00  0.00     0.028 A 
ATOM      9  C   UNL d   1       1.813   1.272  -0.094  0.00  0.00     0.031 A 
ATOM     10  C   UNL d   1       1.454  -1.457   0.274  0.00  0.00     0.021 A 
ATOM     11  C   UNL d   1       2.891   0.476   0.300  0.00  0.00     0.002 A 
ATOM     12  C   UNL d   1       2.711  -0.890   0.483  0.00  0.00     0.002 A 
ENDROOT
BRANCH   3  13
ATOM     13  C   UNL d   1      -2.631   2.634  -0.739  0.00  0.00    -0.013 A 
ATOM     14  C   UNL d   1      -2.616   2.874  -2.121  0.00  0.00     0.014 A 
ATOM     15  C   UNL d   1      -3.606   3.662  -2.714  0.00  0.00     0.020 A 
ATOM     16  C   UNL d   1      -4.605   4.223  -1.923  0.00  0.00     0.011 A 
ATOM     17  C   UNL d   1      -4.606   4.029  -0.543  0.00  0.00     0.020 A 
ATOM     18 BR   UNL d   1      -5.974   5.250  -2.726  0.00  0.00    -0.051 Br
ATOM     19  C   UNL d   1      -3.616   3.239   0.051  0.00  0.00     0.014 A 
ENDBRANCH   3  13
BRANCH   5  20
ATOM     20  C   UNL d   1      -3.782  -0.621   0.005  0.00  0.00    -0.044 A 
ATOM     21  C   UNL d   1      -4.011  -0.422  -1.369  0.00  0.00     0.008 A 
ATOM     22  C   UNL d   1      -5.305  -0.432  -1.892  0.00  0.00     0.001 A 
ATOM     23  C   UNL d   1      -6.394  -0.634  -1.050  0.00  0.00     0.000 A 
ATOM     24  C   UNL d   1      -6.191  -0.824   0.315  0.00  0.00     0.001 A 
ATOM     25  C   UNL d   1      -4.895  -0.815   0.840  0.00  0.00     0.008 A 
ENDBRANCH   5  20
TORSDOF 2
