REMARK  5 active torsions:
REMARK  status: ('A' for Active; 'I' for Inactive)
REMARK       I    between atoms: N_2  and  C_1 
REMARK       I    between atoms: N_3  and  C_1 
REMARK    1  A    between atoms: C_9  and  N_3 
REMARK    2  A    between atoms: C_4  and  C_8 
REMARK    3  A    between atoms: O_15  and  C_4 
REMARK    4  A    between atoms: O_16  and  C_14 
REMARK    5  A    between atoms: C_20  and  O_15 
ROOT
ATOM      1  C   UNL d   1       0.927  -0.091  -0.181  0.00  0.00     0.322 C 
ATOM      2  N   UNL d   1       0.225   0.333  -1.306  0.00  0.00    -0.334 N 
ATOM      3  N   UNL d   1       0.669   0.611   0.973  0.00  0.00    -0.309 N 
ATOM      4  O   UNL d   1       1.726  -1.027  -0.253  0.00  0.00    -0.247 OA
ATOM      5  C   UNL d   1      -0.873   1.300  -1.342  0.00  0.00     0.128 C 
ATOM      6  C   UNL d   1       0.617  -0.199  -2.609  0.00  0.00     0.128 C 
ATOM      7  C   UNL d   1      -1.775   0.054  -3.390  0.00  0.00     0.088 C 
ATOM      8  C   UNL d   1      -2.099   0.721  -2.048  0.00  0.00     0.034 C 
ATOM      9  C   UNL d   1      -0.560  -0.865  -3.310  0.00  0.00     0.034 C 
ATOM     10  H   UNL d   1       0.288   1.534   0.850  0.00  0.00     0.170 HD
ENDROOT
BRANCH   3  11
ATOM     11  C   UNL d   1       1.117   0.311   2.280  0.00  0.00     0.039 A 
ATOM     12  C   UNL d   1       1.719  -0.902   2.634  0.00  0.00     0.066 A 
ATOM     13  C   UNL d   1       2.111  -1.147   3.953  0.00  0.00     0.070 A 
ATOM     14  C   UNL d   1       1.904  -0.167   4.924  0.00  0.00     0.037 A 
ATOM     15  C   UNL d   1       1.306   1.045   4.586  0.00  0.00     0.005 A 
ATOM     16  C   UNL d   1       0.909   1.280   3.269  0.00  0.00     0.030 A 
BRANCH  13  17
ATOM     17  O   UNL d   1       2.695  -2.298   4.414  0.00  0.00    -0.356 OA
ATOM     18  C   UNL d   1       2.886  -3.341   3.464  0.00  0.00     0.210 C 
ENDBRANCH  13  17
ENDBRANCH   3  11
BRANCH   7  19
ATOM     19  C   UNL d   1      -1.623   1.103  -4.474  0.00  0.00     0.263 C 
ATOM     20  O   UNL d   1      -1.187   2.235  -4.301  0.00  0.00    -0.265 OA
BRANCH  19  21
ATOM     21  O   UNL d   1      -2.143   0.629  -5.639  0.00  0.00    -0.322 OA
BRANCH  21  22
ATOM     22  C   UNL d   1      -2.535   1.634  -6.583  0.00  0.00     0.174 C 
ATOM     23  C   UNL d   1      -3.941   2.087  -6.228  0.00  0.00     0.034 C 
ENDBRANCH  21  22
ENDBRANCH  19  21
ENDBRANCH   7  19
TORSDOF 5
