REMARK  8 active torsions:
REMARK  status: ('A' for Active; 'I' for Inactive)
REMARK    1  A    between atoms: C_11  and  N_1 
REMARK    2  A    between atoms: S_10  and  C_2 
REMARK    3  A    between atoms: C_13  and  C_3 
REMARK    4  A    between atoms: C_17  and  S_10 
REMARK    5  A    between atoms: C_12  and  O_15 
REMARK    6  A    between atoms: O_15  and  C_13 
REMARK    7  A    between atoms: C_14  and  C_17 
REMARK    8  A    between atoms: C_21  and  C_14 
ROOT
ATOM      1  N   UNL d   1      -0.285  -1.336  -0.030  0.00  0.00    -0.277 N 
ATOM      2  C   UNL d   1       0.960  -0.703   0.004  0.00  0.00     0.168 A 
ATOM      3  C   UNL d   1      -1.193  -0.270  -0.067  0.00  0.00     0.129 A 
ATOM      4  N   UNL d   1       0.812   0.600   0.018  0.00  0.00    -0.278 N 
ATOM      5  HN  UNL d   1       1.563   1.289   0.056  1.00  0.00     0.189 HD
ATOM      6  N   UNL d   1      -0.524   0.871  -0.027  0.00  0.00    -0.285 N 
ATOM      7  HN  UNL d   1      -0.940   1.802  -0.028  1.00  0.00     0.188 HD
ENDROOT
BRANCH   3   8
ATOM      8  C   UNL d   1      -2.686  -0.345   0.051  0.00  0.00     0.254 C 
BRANCH   8   9
ATOM      9  O   UNL d   1      -3.254   0.083  -1.196  0.00  0.00    -0.343 OA
BRANCH   9  10
ATOM     10  C   UNL d   1      -4.619   0.215  -1.246  0.00  0.00     0.076 A 
ATOM     11  C   UNL d   1      -5.162   0.782  -2.400  0.00  0.00    -0.018 A 
ATOM     12  C   UNL d   1      -6.548   0.928  -2.564  0.00  0.00    -0.043 A 
ATOM     13  C   UNL d   1      -4.420   1.314  -3.585  0.00  0.00     0.042 A 
ATOM     14  C   UNL d   1      -6.890   1.550  -3.881  0.00  0.00     0.040 A 
ATOM     15  C   UNL d   1      -7.442   0.516  -1.581  0.00  0.00    -0.055 A 
ATOM     16  C   UNL d   1      -5.527   1.804  -4.532  0.00  0.00     0.009 A 
ATOM     17  C   UNL d   1      -6.903  -0.041  -0.416  0.00  0.00     0.010 A 
ATOM     18  C   UNL d   1      -8.924   0.659  -1.758  0.00  0.00     0.049 C 
ATOM     19  C   UNL d   1      -5.512  -0.188  -0.250  0.00  0.00     0.038 A 
ENDBRANCH   9  10
ENDBRANCH   8   9
ENDBRANCH   3   8
BRANCH   1  20
ATOM     20  C   UNL d   1      -0.556  -2.740  -0.040  0.00  0.00     0.043 A 
ATOM     21  C   UNL d   1       0.273  -3.634   0.658  0.00  0.00     0.030 A 
ATOM     22  C   UNL d   1       0.086  -5.014   0.554  0.00  0.00     0.002 A 
ATOM     23  C   UNL d   1      -0.957  -5.517  -0.215  0.00  0.00     0.000 A 
ATOM     24  C   UNL d   1      -1.819  -4.640  -0.868  0.00  0.00     0.002 A 
ATOM     25  C   UNL d   1      -1.619  -3.256  -0.791  0.00  0.00     0.030 A 
ENDBRANCH   1  20
BRANCH   2  26
ATOM     26  S   UNL d   1       2.504  -1.494  -0.152  0.00  0.00    -0.084 SA
BRANCH  26  27
ATOM     27  C   UNL d   1       3.660  -0.098  -0.070  0.00  0.00     0.166 C 
BRANCH  27  28
ATOM     28  C   UNL d   1       5.114  -0.559  -0.092  0.00  0.00     0.169 C 
ATOM     29  O   UNL d   1       5.464  -1.738  -0.004  0.00  0.00    -0.291 OA
BRANCH  28  30
ATOM     30  C   UNL d   1       6.180   0.491  -0.199  0.00  0.00     0.010 A 
ATOM     31  C   UNL d   1       5.883   1.860  -0.219  0.00  0.00     0.015 A 
ATOM     32  C   UNL d   1       6.913   2.802  -0.315  0.00  0.00     0.001 A 
ATOM     33  C   UNL d   1       8.240   2.390  -0.391  0.00  0.00     0.000 A 
ATOM     34  C   UNL d   1       8.548   1.031  -0.368  0.00  0.00     0.001 A 
ATOM     35  C   UNL d   1       7.523   0.086  -0.272  0.00  0.00     0.015 A 
ENDBRANCH  28  30
ENDBRANCH  27  28
ENDBRANCH  26  27
ENDBRANCH   2  26
TORSDOF 8
