REMARK  7 active torsions:
REMARK  status: ('A' for Active; 'I' for Inactive)
REMARK    1  A    between atoms: C_9  and  N_1 
REMARK    2  A    between atoms: C_11  and  C_2 
REMARK    3  A    between atoms: S_10  and  C_5 
REMARK    4  A    between atoms: C_8  and  C_13 
REMARK    5  A    between atoms: C_12  and  C_9 
REMARK    6  A    between atoms: C_27  and  S_10 
REMARK    7  A    between atoms: C_28  and  C_27 
ROOT
ATOM      1  N   UNL d   1      -0.253  -1.191  -0.020  0.00  0.00    -0.305 N 
ATOM      2  C   UNL d   1       0.970  -0.538  -0.109  0.00  0.00     0.135 A 
ATOM      3  N   UNL d   1       0.731   0.765  -0.072  0.00  0.00    -0.283 N 
ATOM      4  HN  UNL d   1       1.443   1.496  -0.068  1.00  0.00     0.188 HD
ATOM      5  C   UNL d   1      -1.202  -0.196  -0.031  0.00  0.00     0.163 A 
ATOM      6  N   UNL d   1      -0.620   0.976  -0.041  0.00  0.00    -0.278 N 
ATOM      7  HN  UNL d   1      -1.089   1.882  -0.027  1.00  0.00     0.189 HD
ENDROOT
BRANCH   2   8
ATOM      8  C   UNL d   1       2.325  -1.112  -0.154  0.00  0.00     0.009 A 
ATOM      9  C   UNL d   1       2.640  -2.307  -0.812  0.00  0.00     0.016 A 
ATOM     10  C   UNL d   1       3.939  -2.832  -0.769  0.00  0.00     0.017 A 
ATOM     11  C   UNL d   1       4.967  -2.156  -0.097  0.00  0.00     0.048 A 
ATOM     12  C   UNL d   1       4.676  -0.924   0.500  0.00  0.00     0.017 A 
ATOM     13  C   UNL d   1       3.372  -0.413   0.470  0.00  0.00     0.016 A 
BRANCH  11  14
ATOM     14  C   UNL d   1       6.346  -2.763  -0.019  0.00  0.00     0.417 C 
ATOM     15  F   UNL d   1       7.244  -2.000   0.665  0.00  0.00    -0.166 F 
ATOM     16  F   UNL d   1       6.341  -3.976   0.602  0.00  0.00    -0.166 F 
ATOM     17  F   UNL d   1       6.896  -2.977  -1.247  0.00  0.00    -0.166 F 
ENDBRANCH  11  14
ENDBRANCH   2   8
BRANCH   1  18
ATOM     18  C   UNL d   1      -0.514  -2.619   0.009  0.00  0.00     0.198 C 
BRANCH  18  19
ATOM     19  C   UNL d   1       0.171  -3.339   1.111  0.00  0.00     0.070 A 
ATOM     20  O   UNL d   1       0.546  -4.621   0.823  0.00  0.00    -0.325 OA
ATOM     21  C   UNL d   1       1.131  -5.129   1.936  0.00  0.00     0.142 A 
ATOM     22  C   UNL d   1       1.141  -4.193   2.942  0.00  0.00     0.027 A 
ATOM     23  C   UNL d   1       0.513  -3.037   2.414  0.00  0.00     0.036 A 
ENDBRANCH  18  19
ENDBRANCH   1  18
BRANCH   5  24
ATOM     24  S   UNL d   1      -2.913  -0.464  -0.048  0.00  0.00    -0.088 SA
BRANCH  24  25
ATOM     25  C   UNL d   1      -3.505   1.142  -0.666  0.00  0.00     0.121 C 
BRANCH  25  26
ATOM     26  C   UNL d   1      -5.005   1.155  -0.827  0.00  0.00    -0.046 A 
ATOM     27  C   UNL d   1      -5.831   1.639   0.193  0.00  0.00     0.025 A 
ATOM     28  C   UNL d   1      -7.205   1.631  -0.001  0.00  0.00     0.088 A 
ATOM     29  N   UNL d   1      -7.804   1.175  -1.122  0.00  0.00    -0.375 N 
ATOM     30  C   UNL d   1      -6.992   0.703  -2.092  0.00  0.00     0.088 A 
ATOM     31  HN  UNL d   1      -8.818   1.186  -1.230  1.00  0.00     0.164 HD
ATOM     32  C   UNL d   1      -5.609   0.671  -1.993  0.00  0.00     0.025 A 
ENDBRANCH  25  26
ENDBRANCH  24  25
ENDBRANCH   5  24
TORSDOF 7
