REMARK  5 active torsions:
REMARK  status: ('A' for Active; 'I' for Inactive)
REMARK    1  A    between atoms: N_2  and  S_1 
REMARK    2  A    between atoms: C_7  and  S_1 
REMARK    3  A    between atoms: C_3  and  N_2 
REMARK    4  A    between atoms: O_8  and  C_4 
REMARK    5  A    between atoms: C_11  and  O_8 
ROOT
ATOM      1  C   UNL d   1       0.787  -0.242  -2.790  0.00  0.00     0.074 A 
ATOM      2  C   UNL d   1      -0.229  -0.053  -3.732  0.00  0.00     0.170 A 
ATOM      3  N   UNL d   1      -0.019   0.494  -4.958  0.00  0.00    -0.345 N 
ATOM      4  HN  UNL d   1      -0.780   0.612  -5.626  1.00  0.00     0.167 HD
ATOM      5  C   UNL d   1       2.082   0.144  -3.138  0.00  0.00     0.030 A 
ATOM      6  C   UNL d   1       1.241   0.874  -5.251  0.00  0.00     0.090 A 
ATOM      7  C   UNL d   1       2.311   0.723  -4.383  0.00  0.00     0.019 A 
ENDROOT
BRANCH   1   8
ATOM      8  N   UNL d   1       0.553  -0.872  -1.518  0.00  0.00    -0.177 NA
ATOM      9  H   UNL d   1       1.126  -0.460  -0.779  0.00  0.00     0.146 HD
BRANCH   8  10
ATOM     10  S   UNL d   1       0.873  -2.545  -1.498  0.00  0.00     0.246 S 
ATOM     11  O   UNL d   1       2.055  -2.703  -0.676  0.00  0.00    -0.206 OA
ATOM     12  O   UNL d   1       0.792  -3.094  -2.832  0.00  0.00    -0.206 OA
BRANCH  10  13
ATOM     13  C   UNL d   1      -0.528  -3.126  -0.574  0.00  0.00     0.074 A 
ATOM     14  C   UNL d   1      -1.697  -3.473  -1.254  0.00  0.00     0.025 A 
ATOM     15  C   UNL d   1      -2.802  -3.918  -0.531  0.00  0.00     0.002 A 
ATOM     16  C   UNL d   1      -2.732  -4.020   0.860  0.00  0.00     0.000 A 
ATOM     17  C   UNL d   1      -1.553  -3.690   1.532  0.00  0.00     0.002 A 
ATOM     18  C   UNL d   1      -0.442  -3.248   0.816  0.00  0.00     0.025 A 
ENDBRANCH  10  13
ENDBRANCH   8  10
ENDBRANCH   1   8
BRANCH   2  19
ATOM     19  O   UNL d   1      -1.526  -0.414  -3.377  0.00  0.00    -0.292 OA
BRANCH  19  20
ATOM     20  C   UNL d   1      -2.545   0.332  -3.929  0.00  0.00     0.078 A 
ATOM     21  C   UNL d   1      -3.638  -0.358  -4.455  0.00  0.00     0.039 A 
ATOM     22  C   UNL d   1      -4.694   0.352  -5.036  0.00  0.00     0.026 A 
ATOM     23  C   UNL d   1      -4.657   1.746  -5.073  0.00  0.00     0.034 A 
ATOM     24  C   UNL d   1      -3.586   2.439  -4.513  0.00  0.00     0.026 A 
ATOM     25 CL   UNL d   1      -5.940   2.619  -5.816  0.00  0.00    -0.084 Cl
ATOM     26  C   UNL d   1      -2.537   1.732  -3.924  0.00  0.00     0.039 A 
ENDBRANCH  19  20
ENDBRANCH   2  19
TORSDOF 5
