REMARK  9 active torsions:
REMARK  status: ('A' for Active; 'I' for Inactive)
REMARK    1  A    between atoms: C_6  and  C_1 
REMARK    2  A    between atoms: C_7  and  C_2 
REMARK    3  A    between atoms: C_8  and  C_5 
REMARK    4  A    between atoms: C_9  and  C_6 
REMARK    5  A    between atoms: C_12  and  C_6 
REMARK    6  A    between atoms: O_14  and  C_6 
REMARK    7  A    between atoms: C_10  and  C_7 
REMARK    8  A    between atoms: C_11  and  C_7 
REMARK    9  A    between atoms: O_13  and  C_7 
ROOT
ATOM      1  C   UNL d   1      -0.780  -1.147  -0.164  0.00  0.00     0.201 C 
ATOM      2  C   UNL d   1       0.658  -0.812  -0.609  0.00  0.00     0.201 C 
ATOM      3  O   UNL d   1      -1.379   0.170   0.035  0.00  0.00    -0.349 OA
ATOM      4  O   UNL d   1       0.929   0.320   0.250  0.00  0.00    -0.349 OA
ATOM      5  C   UNL d   1      -0.281   1.078   0.204  0.00  0.00     0.268 C 
ENDROOT
BRANCH   1   6
ATOM      6  C   UNL d   1      -1.679  -2.231  -0.925  0.00  0.00     0.141 C 
BRANCH   6   7
ATOM      7  C   UNL d   1      -1.088  -3.660  -0.797  0.00  0.00    -0.017 A 
ATOM      8  C   UNL d   1      -0.910  -4.265   0.460  0.00  0.00     0.011 A 
ATOM      9  C   UNL d   1      -0.400  -5.566   0.569  0.00  0.00     0.001 A 
ATOM     10  C   UNL d   1      -0.054  -6.293  -0.569  0.00  0.00     0.000 A 
ATOM     11  C   UNL d   1      -0.240  -5.725  -1.823  0.00  0.00     0.001 A 
ATOM     12  C   UNL d   1      -0.762  -4.432  -1.933  0.00  0.00     0.011 A 
ENDBRANCH   6   7
BRANCH   6  13
ATOM     13  C   UNL d   1      -3.168  -2.229  -0.498  0.00  0.00    -0.017 A 
ATOM     14  C   UNL d   1      -4.146  -2.717  -1.397  0.00  0.00     0.011 A 
ATOM     15  C   UNL d   1      -5.512  -2.621  -1.124  0.00  0.00     0.001 A 
ATOM     16  C   UNL d   1      -5.936  -2.059   0.073  0.00  0.00     0.000 A 
ATOM     17  C   UNL d   1      -4.995  -1.622   1.002  0.00  0.00     0.001 A 
ATOM     18  C   UNL d   1      -3.625  -1.714   0.725  0.00  0.00     0.011 A 
ENDBRANCH   6  13
BRANCH   6  19
ATOM     19  O   UNL d   1      -1.772  -1.931  -2.320  0.00  0.00    -0.377 OA
ATOM     20  H   UNL d   1      -0.871  -1.930  -2.697  0.00  0.00     0.211 HD
ENDBRANCH   6  19
ENDBRANCH   1   6
BRANCH   2  21
ATOM     21  C   UNL d   1       1.072  -0.521  -2.127  0.00  0.00     0.141 C 
BRANCH  21  22
ATOM     22  C   UNL d   1       0.432   0.713  -2.830  0.00  0.00    -0.017 A 
ATOM     23  C   UNL d   1       1.205   1.791  -3.310  0.00  0.00     0.011 A 
ATOM     24  C   UNL d   1       0.628   2.916  -3.925  0.00  0.00     0.001 A 
ATOM     25  C   UNL d   1      -0.749   3.010  -4.069  0.00  0.00     0.000 A 
ATOM     26  C   UNL d   1      -1.543   1.976  -3.603  0.00  0.00     0.001 A 
ATOM     27  C   UNL d   1      -0.961   0.855  -3.001  0.00  0.00     0.011 A 
ENDBRANCH  21  22
BRANCH  21  28
ATOM     28  C   UNL d   1       2.628  -0.511  -2.293  0.00  0.00    -0.017 A 
ATOM     29  C   UNL d   1       3.200  -0.914  -3.522  0.00  0.00     0.011 A 
ATOM     30  C   UNL d   1       4.573  -0.817  -3.756  0.00  0.00     0.001 A 
ATOM     31  C   UNL d   1       5.410  -0.301  -2.773  0.00  0.00     0.000 A 
ATOM     32  C   UNL d   1       4.874   0.111  -1.557  0.00  0.00     0.001 A 
ATOM     33  C   UNL d   1       3.499   0.005  -1.318  0.00  0.00     0.011 A 
ENDBRANCH  21  28
BRANCH  21  34
ATOM     34  O   UNL d   1       0.645  -1.698  -2.853  0.00  0.00    -0.377 OA
ATOM     35  H   UNL d   1       1.321  -2.385  -2.696  0.00  0.00     0.211 HD
ENDBRANCH  21  34
ENDBRANCH   2  21
BRANCH   5  36
ATOM     36  C   UNL d   1      -0.399   2.081   1.374  0.00  0.00    -0.001 C 
ATOM     37  C   UNL d   1      -0.562   1.384   2.729  0.00  0.00     0.019 C 
ATOM     38  C   UNL d   1       0.878   2.950   1.414  0.00  0.00     0.019 C 
ATOM     39  C   UNL d   1      -1.611   2.998   1.129  0.00  0.00     0.019 C 
ENDBRANCH   5  36
TORSDOF 9
