REMARK  2 active torsions:
REMARK  status: ('A' for Active; 'I' for Inactive)
REMARK    1  A    between atoms: C_3  and  N_1 
REMARK    2  A    between atoms: C_20  and  C_11 
ROOT
ATOM      1  N   UNL d   1       2.048  -2.321   0.175  0.00  0.00    -0.222 N 
ATOM      2  C   UNL d   1       1.619  -0.983   0.248  0.00  0.00     0.145 C 
ATOM      3  N   UNL d   1       1.941  -2.940   1.387  0.00  0.00    -0.300 N 
ATOM      4  HN  UNL d   1       2.336  -3.835   1.676  1.00  0.00     0.186 HD
ATOM      5  C   UNL d   1       0.964  -0.872   1.455  0.00  0.00     0.106 C 
ATOM      6  C   UNL d   1       1.193  -2.094   2.108  0.00  0.00     0.134 C 
ATOM      7  C   UNL d   1       0.193   0.237   1.914  0.00  0.00     0.104 C 
ATOM      8  N   UNL d   1      -0.464   1.125   2.265  0.00  0.00    -0.191 NA
ATOM      9  N   UNL d   1       1.807  -0.081  -0.754  0.00  0.00    -0.383 N 
ATOM     10  H   UNL d   1       2.051  -0.432  -1.685  0.00  0.00     0.157 HD
ATOM     11  H   UNL d   1       1.279   0.790  -0.794  0.00  0.00     0.157 HD
ENDROOT
BRANCH   1  12
ATOM     12  C   UNL d   1       2.274  -3.057  -1.028  0.00  0.00     0.143 C 
ATOM     13  C   UNL d   1       2.826  -4.353  -1.083  0.00  0.00     0.045 C 
ATOM     14  C   UNL d   1       2.575  -5.018  -2.276  0.00  0.00     0.089 C 
ATOM     15  C   UNL d   1       3.686  -5.171  -0.242  0.00  0.00     0.038 C 
ATOM     16  S   UNL d   1       3.116  -6.620  -2.281  0.00  0.00    -0.071 SA
ATOM     17  N   UNL d   1       1.970  -4.539  -3.371  0.00  0.00    -0.346 N 
ATOM     18  C   UNL d   1       4.081  -6.331  -0.892  0.00  0.00     0.018 C 
ATOM     19  C   UNL d   1       1.662  -3.255  -3.269  0.00  0.00     0.183 C 
ATOM     20  HN  UNL d   1       1.768  -5.104  -4.196  1.00  0.00     0.167 HD
ATOM     21  N   UNL d   1       1.790  -2.493  -2.181  0.00  0.00    -0.336 N 
ATOM     22  HN  UNL d   1       1.531  -1.507  -2.206  1.00  0.00     0.168 HD
BRANCH  18  23
ATOM     23  C   UNL d   1       5.220  -7.238  -0.740  0.00  0.00    -0.019 A 
ATOM     24  C   UNL d   1       5.060  -8.564  -0.320  0.00  0.00     0.013 A 
ATOM     25  C   UNL d   1       6.078  -9.498  -0.546  0.00  0.00     0.001 A 
ATOM     26  C   UNL d   1       7.257  -9.115  -1.187  0.00  0.00     0.000 A 
ATOM     27  C   UNL d   1       7.445  -7.788  -1.562  0.00  0.00     0.001 A 
ATOM     28  C   UNL d   1       6.437  -6.852  -1.328  0.00  0.00     0.013 A 
ENDBRANCH  18  23
ENDBRANCH   1  12
TORSDOF 2
