REMARK  5 active torsions:
REMARK  status: ('A' for Active; 'I' for Inactive)
REMARK    1  A    between atoms: C_11  and  N_2 
REMARK    2  A    between atoms: N_13  and  C_9 
REMARK    3  A    between atoms: C_12  and  C_11 
REMARK    4  A    between atoms: C_18  and  N_13 
REMARK    5  A    between atoms: C_21  and  C_18 
ROOT
ATOM      1  C   UNL d   1      -0.228  -0.831  -0.008  0.00  0.00     0.160 A 
ATOM      2  N   UNL d   1       1.884   0.867   0.071  0.00  0.00    -0.260 N 
ATOM      3  C   UNL d   1      -0.451   0.512   0.000  0.00  0.00     0.164 A 
ATOM      4  N   UNL d   1      -1.374  -1.544  -0.137  0.00  0.00    -0.174 N 
ATOM      5  HN  UNL d   1      -1.471  -2.558  -0.189  1.00  0.00     0.186 HD
ATOM      6  N   UNL d   1       1.034  -1.365   0.086  0.00  0.00    -0.287 N 
ATOM      7  C   UNL d   1       2.132  -0.513   0.177  0.00  0.00     0.333 A 
ATOM      8  C   UNL d   1       0.614   1.465   0.026  0.00  0.00     0.283 A 
ATOM      9  C   UNL d   1      -2.334  -0.647  -0.179  0.00  0.00     0.682 A 
ATOM     10  N   UNL d   1      -1.820   0.631  -0.041  0.00  0.00    -0.178 N 
ATOM     11  O   UNL d   1       3.272  -0.961   0.331  0.00  0.00    -0.246 OA
ATOM     12  O   UNL d   1       0.430   2.676  -0.001  0.00  0.00    -0.265 OA
ATOM     13  C   UNL d   1       1.260  -2.796   0.081  0.00  0.00     0.163 C 
ATOM     14  C   UNL d   1      -2.602   1.842  -0.023  0.00  0.00     0.176 C 
ENDROOT
BRANCH   9  15
ATOM     15  N   UNL d   1      -3.649  -0.881  -0.395  0.00  0.00    -0.222 N 
ATOM     16  H   UNL d   1      -4.327  -0.426   0.208  0.00  0.00     0.178 HD
BRANCH  15  17
ATOM     17  C   UNL d   1      -4.012  -2.250  -0.737  0.00  0.00     0.176 C 
BRANCH  17  18
ATOM     18  C   UNL d   1      -5.428  -2.313  -1.259  0.00  0.00    -0.040 A 
ATOM     19  C   UNL d   1      -5.712  -1.939  -2.582  0.00  0.00     0.009 A 
ATOM     20  C   UNL d   1      -7.005  -2.060  -3.094  0.00  0.00     0.001 A 
ATOM     21  C   UNL d   1      -8.031  -2.545  -2.287  0.00  0.00     0.000 A 
ATOM     22  C   UNL d   1      -7.767  -2.898  -0.964  0.00  0.00     0.001 A 
ATOM     23  C   UNL d   1      -6.474  -2.780  -0.451  0.00  0.00     0.009 A 
ENDBRANCH  17  18
ENDBRANCH  15  17
ENDBRANCH   9  15
BRANCH   2  24
ATOM     24  C   UNL d   1       3.054   1.745   0.037  0.00  0.00     0.177 C 
BRANCH  24  25
ATOM     25  C   UNL d   1       3.656   1.989  -1.343  0.00  0.00    -0.018 A 
ATOM     26  C   UNL d   1       4.801   2.799  -1.480  0.00  0.00     0.042 A 
ATOM     27 CL   UNL d   1       5.615   3.465  -0.105  0.00  0.00    -0.084 Cl
ATOM     28  C   UNL d   1       5.330   3.102  -2.741  0.00  0.00     0.024 A 
ATOM     29  C   UNL d   1       4.734   2.591  -3.890  0.00  0.00     0.002 A 
ATOM     30  C   UNL d   1       3.625   1.758  -3.776  0.00  0.00     0.001 A 
ATOM     31  C   UNL d   1       3.092   1.458  -2.517  0.00  0.00     0.010 A 
ENDBRANCH  24  25
ENDBRANCH   2  24
TORSDOF 5
