REMARK  4 active torsions:
REMARK  status: ('A' for Active; 'I' for Inactive)
REMARK    1  A    between atoms: C_14  and  N_7 
REMARK    2  A    between atoms: C_15  and  C_14 
REMARK    3  A    between atoms: O_20  and  C_15 
REMARK    4  A    between atoms: C_23  and  O_20 
ROOT
ATOM      1  C   UNL d   1       1.206   0.901   0.069  0.00  0.00     0.102 A 
ATOM      2  C   UNL d   1       0.725  -0.379   0.057  0.00  0.00     0.069 A 
ATOM      3  S   UNL d   1      -0.029   2.055   0.061  0.00  0.00    -0.064 SA
ATOM      4  C   UNL d   1      -0.703  -0.461   0.036  0.00  0.00     0.032 A 
ATOM      5  C   UNL d   1       2.606   1.212   0.063  0.00  0.00     0.268 A 
ATOM      6  C   UNL d   1      -1.228   0.833   0.037  0.00  0.00     0.088 A 
ATOM      7  N   UNL d   1       3.402   0.072  -0.005  0.00  0.00    -0.300 N 
ATOM      8  N   UNL d   1       1.584  -1.491   0.057  0.00  0.00    -0.350 N 
ATOM      9  HN  UNL d   1       1.244  -2.452   0.080  1.00  0.00     0.166 HD
ATOM     10  C   UNL d   1       2.844  -1.193   0.025  0.00  0.00     0.187 A 
ATOM     11  N   UNL d   1      -2.530   1.183   0.019  0.00  0.00    -0.354 N 
ATOM     12  HN  UNL d   1      -2.839   2.155   0.020  1.00  0.00     0.166 HD
ATOM     13  C   UNL d   1      -1.637  -1.531   0.011  0.00  0.00    -0.045 A 
ATOM     14  O   UNL d   1       3.081   2.345   0.099  0.00  0.00    -0.266 OA
ATOM     15  C   UNL d   1      -2.999  -1.185  -0.005  0.00  0.00     0.032 A 
ATOM     16  C   UNL d   1      -3.391   0.149   0.000  0.00  0.00     0.006 A 
ATOM     17  C   UNL d   1      -1.285  -2.994   0.000  0.00  0.00     0.049 C 
ATOM     18  C   UNL d   1      -4.855   0.484  -0.011  0.00  0.00     0.068 C 
ENDROOT
BRANCH   7  19
ATOM     19  C   UNL d   1       4.846   0.224  -0.108  0.00  0.00     0.244 C 
BRANCH  19  20
ATOM     20  C   UNL d   1       5.597   0.174   1.215  0.00  0.00     0.277 C 
ATOM     21  O   UNL d   1       6.816   0.278   1.284  0.00  0.00    -0.263 OA
BRANCH  20  22
ATOM     22  O   UNL d   1       4.781  -0.117   2.264  0.00  0.00    -0.321 OA
BRANCH  22  23
ATOM     23  C   UNL d   1       5.442  -0.504   3.480  0.00  0.00     0.174 C 
ATOM     24  C   UNL d   1       5.573  -2.017   3.481  0.00  0.00     0.034 C 
ENDBRANCH  22  23
ENDBRANCH  20  22
ENDBRANCH  19  20
ENDBRANCH   7  19
TORSDOF 4
