REMARK  3 active torsions:
REMARK  status: ('A' for Active; 'I' for Inactive)
REMARK    1  A    between atoms: C_2  and  S_1 
REMARK    2  A    between atoms: C_3  and  S_1 
REMARK    3  A    between atoms: C_4  and  C_2 
ROOT
ATOM      1  S   UNL d   1       1.153   0.133   0.012  0.00  0.00     0.179 S 
ATOM      2  O   UNL d   1       0.584   1.089  -0.918  0.00  0.00    -0.222 OA
ATOM      3  O   UNL d   1       2.588   0.049   0.211  0.00  0.00    -0.222 OA
ENDROOT
BRANCH   1   4
ATOM      4  C   UNL d   1       0.525  -1.500  -0.366  0.00  0.00     0.184 C 
BRANCH   4   5
ATOM      5  C   UNL d   1       0.963  -1.901  -1.756  0.00  0.00    -0.038 A 
ATOM      6  C   UNL d   1       2.155  -2.614  -1.964  0.00  0.00     0.050 A 
ATOM      7  C   UNL d   1       2.542  -2.977  -3.256  0.00  0.00     0.119 A 
ATOM      8  F   UNL d   1       3.677  -3.665  -3.430  0.00  0.00    -0.206 F 
ATOM      9  C   UNL d   1       1.771  -2.642  -4.359  0.00  0.00     0.084 A 
ATOM     10  C   UNL d   1       0.599  -1.932  -4.157  0.00  0.00     0.119 A 
ATOM     11  C   UNL d   1       0.189  -1.559  -2.877  0.00  0.00     0.050 A 
ATOM     12  F   UNL d   1      -0.159  -1.599  -5.210  0.00  0.00    -0.206 F 
ENDBRANCH   4   5
ENDBRANCH   1   4
BRANCH   1  13
ATOM     13  C   UNL d   1       0.439   0.506   1.610  0.00  0.00     0.059 A 
ATOM     14  C   UNL d   1       1.155   0.222   2.777  0.00  0.00     0.025 A 
ATOM     15  C   UNL d   1       0.635   0.611   4.017  0.00  0.00     0.025 A 
ATOM     16  C   UNL d   1      -0.585   1.287   4.080  0.00  0.00     0.034 A 
ATOM     17  C   UNL d   1      -1.294   1.576   2.914  0.00  0.00     0.025 A 
ATOM     18 CL   UNL d   1      -1.207   1.788   5.603  0.00  0.00    -0.084 Cl
ATOM     19  C   UNL d   1      -0.781   1.190   1.673  0.00  0.00     0.025 A 
ENDBRANCH   1  13
TORSDOF 3
