REMARK  7 active torsions:
REMARK  status: ('A' for Active; 'I' for Inactive)
REMARK    1  A    between atoms: N_2  and  S_1 
REMARK    2  A    between atoms: C_4  and  S_1 
REMARK    3  A    between atoms: C_3  and  N_2 
REMARK    4  A    between atoms: O_10  and  C_9 
REMARK    5  A    between atoms: C_19  and  O_10 
REMARK    6  A    between atoms: C_14  and  C_19 
REMARK    7  A    between atoms: O_25  and  C_22 
ROOT
ATOM      1  C   UNL d   1       0.884  -1.445   2.340  0.00  0.00     0.128 A 
ATOM      2  N   UNL d   1      -0.188  -1.959   2.971  0.00  0.00    -0.354 N 
ATOM      3  HN  UNL d   1      -1.079  -1.465   3.011  1.00  0.00     0.166 HD
ATOM      4  C   UNL d   1       2.128  -2.077   2.232  0.00  0.00     0.108 A 
ATOM      5  C   UNL d   1      -0.015  -3.168   3.548  0.00  0.00     0.089 A 
ATOM      6  C   UNL d   1       2.271  -3.315   2.848  0.00  0.00     0.041 A 
ATOM      7  C   UNL d   1       1.180  -3.872   3.517  0.00  0.00     0.020 A 
ENDROOT
BRANCH   1   8
ATOM      8  N   UNL d   1       0.612  -0.201   1.701  0.00  0.00    -0.164 NA
ATOM      9  H   UNL d   1      -0.145   0.196   2.264  0.00  0.00     0.147 HD
BRANCH   8  10
ATOM     10  S   UNL d   1      -0.037  -0.272   0.134  0.00  0.00     0.247 S 
ATOM     11  O   UNL d   1       0.417   0.910  -0.560  0.00  0.00    -0.205 OA
ATOM     12  O   UNL d   1      -1.461  -0.523   0.276  0.00  0.00    -0.205 OA
BRANCH  10  13
ATOM     13  C   UNL d   1       0.651  -1.694  -0.681  0.00  0.00     0.075 A 
ATOM     14  C   UNL d   1       0.255  -2.976  -0.285  0.00  0.00     0.027 A 
ATOM     15  C   UNL d   1       0.888  -4.098  -0.820  0.00  0.00     0.038 A 
ATOM     16  C   UNL d   1       1.849  -3.941  -1.820  0.00  0.00     0.068 A 
ATOM     17  C   UNL d   1       2.135  -2.664  -2.311  0.00  0.00     0.038 A 
ATOM     18  C   UNL d   1       1.556  -1.532  -1.730  0.00  0.00     0.027 A 
BRANCH  16  19
ATOM     19  O   UNL d   1       2.535  -4.965  -2.410  0.00  0.00    -0.356 OA
ATOM     20  C   UNL d   1       2.784  -6.096  -1.579  0.00  0.00     0.210 C 
ENDBRANCH  16  19
ENDBRANCH  10  13
ENDBRANCH   8  10
ENDBRANCH   1   8
BRANCH   4  21
ATOM     21  O   UNL d   1       3.099  -1.401   1.565  0.00  0.00    -0.343 OA
BRANCH  21  22
ATOM     22  C   UNL d   1       4.206  -2.116   1.030  0.00  0.00     0.214 C 
BRANCH  22  23
ATOM     23  C   UNL d   1       5.101  -1.049   0.454  0.00  0.00    -0.028 A 
ATOM     24  C   UNL d   1       5.652  -0.082   1.310  0.00  0.00     0.051 A 
ATOM     25  C   UNL d   1       6.370   0.990   0.789  0.00  0.00     0.119 A 
ATOM     26  F   UNL d   1       6.858   1.918   1.622  0.00  0.00    -0.206 F 
ATOM     27  C   UNL d   1       6.569   1.119  -0.577  0.00  0.00     0.084 A 
ATOM     28  C   UNL d   1       6.048   0.149  -1.421  0.00  0.00     0.119 A 
ATOM     29  C   UNL d   1       5.322  -0.933  -0.924  0.00  0.00     0.051 A 
ATOM     30  F   UNL d   1       6.230   0.263  -2.744  0.00  0.00    -0.206 F 
ENDBRANCH  22  23
ENDBRANCH  21  22
ENDBRANCH   4  21
TORSDOF 7
