REMARK  3 active torsions:
REMARK  status: ('A' for Active; 'I' for Inactive)
REMARK    1  A    between atoms: C_2  and  C_1 
REMARK       I    between atoms: N_5  and  C_2 
REMARK    2  A    between atoms: N_4  and  C_6 
REMARK    3  A    between atoms: C_10  and  N_5 
ROOT
ATOM      1  C   UNL d   1       1.490  -2.757   0.127  0.00  0.00     0.259 C 
ATOM      2  N   UNL d   1       2.650  -3.331   0.612  0.00  0.00    -0.323 N 
ATOM      3  O   UNL d   1       0.454  -3.359  -0.148  0.00  0.00    -0.267 OA
ATOM      4  H   UNL d   1       3.383  -2.691   0.901  0.00  0.00     0.169 HD
ENDROOT
BRANCH   1   5
ATOM      5  C   UNL d   1       1.490  -1.278  -0.088  0.00  0.00     0.068 A 
ATOM      6  C   UNL d   1       2.345  -0.372   0.565  0.00  0.00     0.117 A 
ATOM      7  C   UNL d   1       2.248   1.002   0.267  0.00  0.00     0.103 A 
ATOM      8  O   UNL d   1       3.230  -0.875   1.493  0.00  0.00    -0.347 OA
ATOM      9  O   UNL d   1       3.028   2.005   0.789  0.00  0.00    -0.348 OA
ATOM     10  C   UNL d   1       1.257   1.466  -0.604  0.00  0.00     0.040 A 
ATOM     11  C   UNL d   1       4.331   1.615   1.213  0.00  0.00     0.178 C 
ATOM     12  C   UNL d   1       4.286   1.008   2.603  0.00  0.00     0.053 C 
ATOM     13  C   UNL d   1       3.247  -0.097   2.696  0.00  0.00     0.178 C 
ATOM     14  C   UNL d   1       0.382   0.577  -1.217  0.00  0.00     0.004 A 
ATOM     15  C   UNL d   1       0.505  -0.786  -0.967  0.00  0.00     0.020 A 
ENDBRANCH   1   5
BRANCH   2  16
ATOM     16  C   UNL d   1       2.856  -4.705   0.886  0.00  0.00     0.037 A 
ATOM     17  C   UNL d   1       1.956  -5.703   0.498  0.00  0.00     0.059 A 
ATOM     18  C   UNL d   1       2.132  -7.043   0.878  0.00  0.00     0.040 A 
ATOM     19  C   UNL d   1       3.267  -7.388   1.619  0.00  0.00     0.030 A 
ATOM     20  C   UNL d   1       4.204  -6.407   1.961  0.00  0.00     0.004 A 
ATOM     21  C   UNL d   1       4.001  -5.073   1.596  0.00  0.00     0.029 A 
BRANCH  18  22
ATOM     22  N   UNL d   1       1.137  -8.015   0.540  0.00  0.00    -0.333 N 
ATOM     23  C   UNL d   1       1.059  -9.316   1.006  0.00  0.00     0.096 A 
ATOM     24  C   UNL d   1      -0.082  -9.912   0.514  0.00  0.00     0.019 A 
ATOM     25  C   UNL d   1      -0.723  -8.971  -0.312  0.00  0.00     0.019 A 
ATOM     26  C   UNL d   1       0.044  -7.826  -0.290  0.00  0.00     0.096 A 
ENDBRANCH  18  22
ENDBRANCH   2  16
TORSDOF 3
