REMARK  1 active torsions:
REMARK  status: ('A' for Active; 'I' for Inactive)
REMARK    1  A    between atoms: C_6  and  C_1 
ROOT
ATOM      1  C   UNL d   1      -2.326  -0.226  -0.024  0.00  0.00     0.083 A 
ATOM      2  C   UNL d   1      -1.350   0.884  -0.068  0.00  0.00     0.200 A 
ATOM      3  C   UNL d   1      -1.838  -1.476  -0.007  0.00  0.00     0.161 A 
ATOM      4  C   UNL d   1       0.078   0.508  -0.030  0.00  0.00     0.049 A 
ATOM      5  O   UNL d   1      -0.514  -1.843  -0.014  0.00  0.00    -0.321 OA
ATOM      6  C   UNL d   1       0.421  -0.841  -0.014  0.00  0.00     0.089 A 
ATOM      7  O   UNL d   1      -1.681   2.059  -0.154  0.00  0.00    -0.286 OA
ATOM      8  C   UNL d   1       1.077   1.488  -0.025  0.00  0.00     0.018 A 
ATOM      9  C   UNL d   1       1.763  -1.223  -0.000  0.00  0.00     0.038 A 
ATOM     10  C   UNL d   1       2.420   1.106  -0.008  0.00  0.00     0.001 A 
ATOM     11  C   UNL d   1       2.762  -0.248   0.002  0.00  0.00     0.003 A 
ENDROOT
BRANCH   1  12
ATOM     12  C   UNL d   1      -3.809  -0.081  -0.004  0.00  0.00     0.161 C 
ATOM     13  O   UNL d   1      -4.525  -1.025  -0.348  0.00  0.00    -0.293 OA
ATOM     14  C   UNL d   1      -4.447   1.196   0.476  0.00  0.00     0.097 C 
ENDBRANCH   1  12
TORSDOF 1
