REMARK  1 active torsions:
REMARK  status: ('A' for Active; 'I' for Inactive)
REMARK    1  A    between atoms: C_3  and  N_1 
ROOT
ATOM      1  C   UNL d   1       2.097  -1.525   0.057  0.00  0.00     0.046 A 
ATOM      2  C   UNL d   1       2.286  -2.459  -0.968  0.00  0.00     0.055 A 
ATOM      3  C   UNL d   1       3.457  -3.226  -1.025  0.00  0.00     0.058 A 
ATOM      4  C   UNL d   1       4.434  -3.087  -0.035  0.00  0.00     0.055 A 
ATOM      5  C   UNL d   1       3.099  -1.365   1.022  0.00  0.00     0.032 A 
ATOM      6  C   UNL d   1       4.250  -2.158   0.990  0.00  0.00     0.028 A 
ATOM      7 CL   UNL d   1       3.636  -4.316  -2.355  0.00  0.00    -0.082 Cl
ATOM      8 CL   UNL d   1       5.880  -4.030  -0.018  0.00  0.00    -0.083 Cl
ENDROOT
BRANCH   1   9
ATOM      9  N   UNL d   1       0.916  -0.748   0.120  0.00  0.00    -0.260 N 
ATOM     10  C   UNL d   1       0.906   0.614   0.440  0.00  0.00     0.376 A 
ATOM     11  O   UNL d   1      -0.399   1.103   0.396  0.00  0.00    -0.271 OA
ATOM     12  O   UNL d   1       1.862   1.334   0.695  0.00  0.00    -0.237 OA
ATOM     13  C   UNL d   1      -1.118  -0.043   0.083  0.00  0.00     0.172 A 
ATOM     14  C   UNL d   1      -0.381  -1.134  -0.094  0.00  0.00     0.041 A 
ATOM     15  C   UNL d   1      -0.861  -2.526  -0.278  0.00  0.00     0.071 C 
ENDBRANCH   1   9
TORSDOF 1
