REMARK  1 active torsions:
REMARK  status: ('A' for Active; 'I' for Inactive)
REMARK    1  A    between atoms: C_14  and  C_7 
ROOT
ATOM      1  C   UNL d   1       2.181   0.572   0.033  0.00  0.00     0.151 A 
ATOM      2  N   UNL d   1       2.583  -0.721  -0.040  0.00  0.00    -0.284 N 
ATOM      3  C   UNL d   1      -0.032   0.055  -0.007  0.00  0.00     0.049 C 
ATOM      4  C   UNL d   1       0.215  -1.264  -0.119  0.00  0.00    -0.024 C 
ATOM      5  N   UNL d   1       0.967   0.998   0.034  0.00  0.00    -0.336 N 
ATOM      6  HN  UNL d   1       0.755   1.995   0.064  1.00  0.00     0.168 HD
ATOM      7  C   UNL d   1       1.625  -1.790  -0.235  0.00  0.00     0.159 C 
ATOM      8  S   UNL d   1       3.527   1.661   0.152  0.00  0.00    -0.084 SA
ATOM      9  C   UNL d   1       3.928  -0.966   0.101  0.00  0.00     0.236 A 
ATOM     10  C   UNL d   1      -1.445   0.518   0.018  0.00  0.00    -0.003 A 
ATOM     11  C   UNL d   1      -0.898  -2.284  -0.184  0.00  0.00     0.043 C 
ATOM     12  C   UNL d   1       4.729   0.312   0.148  0.00  0.00     0.185 A 
ATOM     13  C   UNL d   1      -2.490  -0.399   0.255  0.00  0.00    -0.045 A 
ATOM     14  O   UNL d   1       4.444  -2.074   0.191  0.00  0.00    -0.272 OA
ATOM     15  C   UNL d   1      -2.158  -1.836   0.554  0.00  0.00     0.044 C 
ATOM     16  C   UNL d   1      -1.772   1.864  -0.206  0.00  0.00     0.014 A 
ATOM     17  C   UNL d   1      -3.823   0.036   0.272  0.00  0.00     0.008 A 
ATOM     18  C   UNL d   1      -3.104   2.287  -0.205  0.00  0.00     0.001 A 
ATOM     19  C   UNL d   1      -4.127   1.374   0.033  0.00  0.00     0.001 A 
ENDROOT
BRANCH   7  20
ATOM     20  C   UNL d   1       1.855  -2.487  -1.573  0.00  0.00    -0.031 A 
ATOM     21  C   UNL d   1       2.152  -3.860  -1.607  0.00  0.00     0.009 A 
ATOM     22  C   UNL d   1       2.405  -4.500  -2.820  0.00  0.00     0.001 A 
ATOM     23  C   UNL d   1       2.364  -3.780  -4.012  0.00  0.00     0.000 A 
ATOM     24  C   UNL d   1       2.054  -2.422  -3.996  0.00  0.00     0.001 A 
ATOM     25  C   UNL d   1       1.797  -1.778  -2.785  0.00  0.00     0.009 A 
ENDBRANCH   7  20
TORSDOF 1
