REMARK  5 active torsions:
REMARK  status: ('A' for Active; 'I' for Inactive)
REMARK    1  A    between atoms: N_2  and  C_1 
REMARK    2  A    between atoms: C_4  and  N_2 
REMARK    3  A    between atoms: C_7  and  N_2 
REMARK    4  A    between atoms: C_3  and  C_4 
REMARK    5  A    between atoms: C_12  and  C_7 
ROOT
ATOM      1  N   UNL d   1       0.372   1.154   0.510  0.00  0.00    -0.350 N 
ENDROOT
BRANCH   1   2
ATOM      2  C   UNL d   1       1.247   0.321  -0.162  0.00  0.00     0.170 C 
ATOM      3  S   UNL d   1       2.793  -0.093   0.354  0.00  0.00    -0.041 SA
ATOM      4  N   UNL d   1       0.886  -0.262  -1.335  0.00  0.00    -0.371 N 
ATOM      5  C   UNL d   1       0.036   0.241  -2.397  0.00  0.00     0.148 C 
ATOM      6  H   UNL d   1       1.610  -0.893  -1.662  0.00  0.00     0.161 HD
ENDBRANCH   1   2
BRANCH   1   7
ATOM      7  C   UNL d   1      -1.096   1.051   0.413  0.00  0.00     0.166 C 
BRANCH   7   8
ATOM      8  C   UNL d   1      -1.779   0.114   1.399  0.00  0.00    -0.017 A 
ATOM      9  C   UNL d   1      -3.189  -0.025   1.372  0.00  0.00     0.063 A 
ATOM     10  C   UNL d   1      -3.838  -0.893   2.265  0.00  0.00     0.056 A 
ATOM     11 CL   UNL d   1      -4.122   0.878   0.213  0.00  0.00    -0.082 Cl
ATOM     12 CL   UNL d   1      -5.554  -1.111   2.278  0.00  0.00    -0.083 Cl
ATOM     13  C   UNL d   1      -3.094  -1.630   3.190  0.00  0.00     0.026 A 
ATOM     14  C   UNL d   1      -1.709  -1.510   3.220  0.00  0.00     0.002 A 
ATOM     15  C   UNL d   1      -1.056  -0.652   2.332  0.00  0.00     0.011 A 
ENDBRANCH   7   8
ENDBRANCH   1   7
BRANCH   1  16
ATOM     16  C   UNL d   1       0.846   2.122   1.525  0.00  0.00     0.165 C 
BRANCH  16  17
ATOM     17  C   UNL d   1       0.909   3.548   1.031  0.00  0.00    -0.025 A 
ATOM     18  C   UNL d   1       0.813   4.594   1.945  0.00  0.00     0.096 A 
ATOM     19  N   UNL d   1       0.902   5.906   1.622  0.00  0.00    -0.375 N 
ATOM     20  C   UNL d   1       1.117   6.193   0.320  0.00  0.00     0.087 A 
ATOM     21  HN  UNL d   1       0.811   6.639   2.325  1.00  0.00     0.164 HD
ATOM     22  C   UNL d   1       1.244   5.234  -0.669  0.00  0.00     0.018 A 
ATOM     23  C   UNL d   1       1.148   3.892  -0.303  0.00  0.00     0.011 A 
ENDBRANCH  16  17
ENDBRANCH   1  16
TORSDOF 5
