REMARK  6 active torsions:
REMARK  status: ('A' for Active; 'I' for Inactive)
REMARK    1  A    between atoms: O_11  and  C_1 
REMARK    2  A    between atoms: O_13  and  C_2 
REMARK    3  A    between atoms: O_14  and  C_3 
REMARK    4  A    between atoms: C_10  and  C_6 
REMARK    5  A    between atoms: N_7  and  C_10 
REMARK    6  A    between atoms: C_9  and  N_7 
ROOT
ATOM      1  C   UNL d   1       1.425  -0.354  -0.028  0.00  0.00     0.135 A 
ATOM      2  C   UNL d   1       0.487  -1.395   0.154  0.00  0.00     0.104 A 
ATOM      3  C   UNL d   1       0.977   0.964  -0.201  0.00  0.00     0.104 A 
ATOM      4  C   UNL d   1      -0.884  -1.123   0.052  0.00  0.00     0.048 A 
ATOM      5  C   UNL d   1      -0.401   1.216  -0.254  0.00  0.00     0.048 A 
ATOM      6  C   UNL d   1      -1.339   0.186  -0.131  0.00  0.00    -0.035 A 
ENDROOT
BRANCH   6   7
ATOM      7  C   UNL d   1      -2.817   0.486  -0.221  0.00  0.00     0.158 C 
BRANCH   7   8
ATOM      8  N   UNL d   1      -3.253   0.292  -1.595  0.00  0.00    -0.386 N 
ATOM      9  H   UNL d   1      -2.556   0.577  -2.279  0.00  0.00     0.160 HD
BRANCH   8  10
ATOM     10  C   UNL d   1      -4.550   0.629  -1.986  0.00  0.00     0.031 A 
ATOM     11  C   UNL d   1      -5.594   0.886  -1.094  0.00  0.00     0.071 A 
ATOM     12  C   UNL d   1      -6.883   1.133  -1.564  0.00  0.00     0.118 A 
ATOM     13  F   UNL d   1      -7.862   1.399  -0.688  0.00  0.00    -0.206 F 
ATOM     14  C   UNL d   1      -7.176   1.098  -2.921  0.00  0.00     0.042 A 
ATOM     15  C   UNL d   1      -6.160   0.808  -3.823  0.00  0.00     0.005 A 
ATOM     16  C   UNL d   1      -4.864   0.569  -3.355  0.00  0.00     0.029 A 
ENDBRANCH   8  10
ENDBRANCH   7   8
ENDBRANCH   6   7
BRANCH   3  17
ATOM     17  O   UNL d   1       1.708   2.117  -0.342  0.00  0.00    -0.353 OA
ATOM     18  C   UNL d   1       3.119   2.058  -0.215  0.00  0.00     0.210 C 
ENDBRANCH   3  17
BRANCH   2  19
ATOM     19  O   UNL d   1       0.992  -2.644   0.428  0.00  0.00    -0.353 OA
ATOM     20  C   UNL d   1       0.095  -3.597   0.985  0.00  0.00     0.210 C 
ENDBRANCH   2  19
BRANCH   1  21
ATOM     21  O   UNL d   1       2.772  -0.605   0.076  0.00  0.00    -0.351 OA
ATOM     22  C   UNL d   1       3.265  -1.531  -0.893  0.00  0.00     0.210 C 
ENDBRANCH   1  21
TORSDOF 6
