REMARK  6 active torsions:
REMARK  status: ('A' for Active; 'I' for Inactive)
REMARK    1  A    between atoms: O_5  and  C_1 
REMARK    2  A    between atoms: C_3  and  C_2 
REMARK    3  A    between atoms: C_6  and  C_3 
REMARK    4  A    between atoms: C_4  and  N_8 
REMARK    5  A    between atoms: C_14  and  O_5 
REMARK    6  A    between atoms: N_8  and  C_15 
ROOT
ATOM      1  N   UNL d   1       3.907   0.219   5.589  0.00  0.00    -0.366 N 
ATOM      2  H   UNL d   1       4.888  -0.022   5.747  0.00  0.00     0.165 HD
ENDROOT
BRANCH   1   3
ATOM      3  C   UNL d   1       3.258   0.727   6.686  0.00  0.00     0.092 C 
ATOM      4  C   UNL d   1       3.758   0.968   7.905  0.00  0.00     0.072 C 
BRANCH   4   5
ATOM      5  C   UNL d   1       5.171   0.666   8.259  0.00  0.00     0.183 C 
ATOM      6  O   UNL d   1       5.866  -0.099   7.604  0.00  0.00    -0.288 OA
BRANCH   5   7
ATOM      7  C   UNL d   1       5.726   1.326   9.472  0.00  0.00     0.014 A 
ATOM      8  C   UNL d   1       6.637   0.620  10.265  0.00  0.00     0.017 A 
ATOM      9  C   UNL d   1       7.219   1.232  11.379  0.00  0.00     0.025 A 
ATOM     10  C   UNL d   1       6.899   2.553  11.689  0.00  0.00     0.034 A 
ATOM     11  C   UNL d   1       5.995   3.265  10.900  0.00  0.00     0.025 A 
ATOM     12 CL   UNL d   1       7.637   3.319  13.040  0.00  0.00    -0.084 Cl
ATOM     13  C   UNL d   1       5.407   2.653   9.789  0.00  0.00     0.017 A 
ENDBRANCH   5   7
ENDBRANCH   4   5
ENDBRANCH   1   3
BRANCH   1  14
ATOM     14  C   UNL d   1       3.401  -0.025   4.304  0.00  0.00     0.032 A 
ATOM     15  C   UNL d   1       4.287  -0.027   3.221  0.00  0.00     0.032 A 
ATOM     16  C   UNL d   1       3.820  -0.144   1.907  0.00  0.00     0.039 A 
ATOM     17  C   UNL d   1       2.454  -0.255   1.639  0.00  0.00     0.078 A 
ATOM     18  C   UNL d   1       1.565  -0.305   2.709  0.00  0.00     0.039 A 
ATOM     19  C   UNL d   1       2.036  -0.164   4.025  0.00  0.00     0.032 A 
BRANCH  17  20
ATOM     20  O   UNL d   1       2.143  -0.291   0.314  0.00  0.00    -0.255 OA
BRANCH  20  21
ATOM     21  C   UNL d   1       0.795  -0.105  -0.083  0.00  0.00     0.530 C 
ATOM     22  F   UNL d   1       0.146   0.809   0.671  0.00  0.00    -0.144 F 
ATOM     23  F   UNL d   1       0.128  -1.277  -0.038  0.00  0.00    -0.144 F 
ATOM     24  F   UNL d   1       0.783   0.338  -1.361  0.00  0.00    -0.144 F 
ENDBRANCH  20  21
ENDBRANCH  17  20
ENDBRANCH   1  14
TORSDOF 6
