REMARK  6 active torsions:
REMARK  status: ('A' for Active; 'I' for Inactive)
REMARK    1  A    between atoms: S_8  and  C_6 
REMARK    2  A    between atoms: C_7  and  S_8 
REMARK    3  A    between atoms: C_14  and  C_7 
REMARK    4  A    between atoms: C_17  and  C_7 
REMARK    5  A    between atoms: O_23  and  C_14 
REMARK    6  A    between atoms: C_27  and  O_23 
ROOT
ATOM      1  C   UNL d   1       1.170   0.989  -0.013  0.00  0.00     0.068 A 
ATOM      2  C   UNL d   1      -1.287   0.817  -0.032  0.00  0.00     0.088 A 
ATOM      3  C   UNL d   1      -0.714  -0.449  -0.002  0.00  0.00     0.032 A 
ATOM      4  S   UNL d   1      -0.156   2.076  -0.067  0.00  0.00    -0.066 SA
ATOM      5  C   UNL d   1       0.730  -0.333   0.029  0.00  0.00     0.067 A 
ATOM      6  C   UNL d   1       2.543   1.245  -0.003  0.00  0.00     0.091 A 
ATOM      7  N   UNL d   1      -2.598   1.122  -0.043  0.00  0.00    -0.354 N 
ATOM      8  HN  UNL d   1      -2.936   2.084  -0.063  1.00  0.00     0.166 HD
ATOM      9  C   UNL d   1      -1.615  -1.550  -0.000  0.00  0.00    -0.045 A 
ATOM     10  N   UNL d   1       3.404   0.219   0.101  0.00  0.00    -0.346 N 
ATOM     11  HN  UNL d   1       4.410   0.378   0.149  1.00  0.00     0.167 HD
ATOM     12  N   UNL d   1       1.607  -1.370   0.093  0.00  0.00    -0.350 N 
ATOM     13  HN  UNL d   1       1.304  -2.344   0.106  1.00  0.00     0.166 HD
ATOM     14  C   UNL d   1       2.895  -1.020   0.139  0.00  0.00     0.181 A 
ATOM     15  C   UNL d   1      -2.992  -1.252  -0.010  0.00  0.00     0.032 A 
ATOM     16  C   UNL d   1      -3.427   0.067  -0.024  0.00  0.00     0.006 A 
ATOM     17  C   UNL d   1      -1.217  -3.001   0.006  0.00  0.00     0.049 C 
ATOM     18  C   UNL d   1      -4.898   0.368  -0.022  0.00  0.00     0.068 C 
ENDROOT
BRANCH   6  19
ATOM     19  S   UNL d   1       3.141   2.906  -0.038  0.00  0.00    -0.088 SA
BRANCH  19  20
ATOM     20  C   UNL d   1       4.771   2.767  -0.867  0.00  0.00     0.222 C 
BRANCH  20  21
ATOM     21  C   UNL d   1       4.700   2.128  -2.234  0.00  0.00     0.280 C 
ATOM     22  O   UNL d   1       4.431   2.727  -3.272  0.00  0.00    -0.263 OA
BRANCH  21  23
ATOM     23  O   UNL d   1       5.001   0.800  -2.189  0.00  0.00    -0.321 OA
BRANCH  23  24
ATOM     24  C   UNL d   1       4.999   0.113  -3.449  0.00  0.00     0.174 C 
ATOM     25  C   UNL d   1       3.583  -0.185  -3.908  0.00  0.00     0.034 C 
ENDBRANCH  23  24
ENDBRANCH  21  23
ENDBRANCH  20  21
BRANCH  20  26
ATOM     26  C   UNL d   1       5.330   4.182  -0.969  0.00  0.00     0.146 C 
ATOM     27  O   UNL d   1       6.386   4.489  -0.407  0.00  0.00    -0.297 OA
ATOM     28  C   UNL d   1       4.564   5.231  -1.755  0.00  0.00     0.092 C 
ENDBRANCH  20  26
ENDBRANCH  19  20
ENDBRANCH   6  19
TORSDOF 6
