REMARK  4 active torsions:
REMARK  status: ('A' for Active; 'I' for Inactive)
REMARK    1  A    between atoms: C_9  and  C_2 
REMARK    2  A    between atoms: C_5  and  C_10 
REMARK       I    between atoms: N_7  and  C_5 
REMARK    3  A    between atoms: C_17  and  N_7 
REMARK    4  A    between atoms: C_20  and  C_12 
ROOT
ATOM      1  C   UNL d   1       5.868  -4.058  -0.105  0.00  0.00     0.256 C 
ATOM      2  N   UNL d   1       6.865  -3.891   0.843  0.00  0.00    -0.323 N 
ATOM      3  O   UNL d   1       4.715  -3.645  -0.004  0.00  0.00    -0.267 OA
ATOM      4  H   UNL d   1       7.808  -4.149   0.601  0.00  0.00     0.169 HD
ENDROOT
BRANCH   1   5
ATOM      5  C   UNL d   1       6.215  -4.802  -1.360  0.00  0.00     0.032 A 
ATOM      6  C   UNL d   1       7.403  -5.513  -1.557  0.00  0.00     0.018 A 
ATOM      7  C   UNL d   1       7.622  -6.200  -2.763  0.00  0.00     0.015 A 
ATOM      8  C   UNL d   1       6.657  -6.207  -3.782  0.00  0.00    -0.008 A 
ATOM      9  C   UNL d   1       5.462  -5.511  -3.574  0.00  0.00     0.015 A 
ATOM     10  C   UNL d   1       5.247  -4.818  -2.379  0.00  0.00     0.018 A 
BRANCH   8  11
ATOM     11  C   UNL d   1       6.921  -6.908  -5.032  0.00  0.00     0.063 A 
ATOM     12  N   UNL d   1       8.222  -7.074  -5.498  0.00  0.00    -0.292 N 
ATOM     13  N   UNL d   1       8.255  -7.711  -6.657  0.00  0.00    -0.061 NA
ATOM     14  HN  UNL d   1       9.051  -6.743  -5.005  1.00  0.00     0.183 HD
ATOM     15  S   UNL d   1       6.737  -8.144  -7.205  0.00  0.00    -0.010 SA
ATOM     16  C   UNL d   1       5.944  -7.459  -5.845  0.00  0.00     0.096 A 
ENDBRANCH   8  11
ENDBRANCH   1   5
BRANCH   2  17
ATOM     17  C   UNL d   1       6.688  -3.409   2.165  0.00  0.00     0.035 A 
ATOM     18  C   UNL d   1       5.450  -3.058   2.699  0.00  0.00     0.030 A 
ATOM     19  C   UNL d   1       5.323  -2.696   4.044  0.00  0.00     0.010 A 
ATOM     20  C   UNL d   1       6.434  -2.679   4.892  0.00  0.00    -0.055 A 
ATOM     21  C   UNL d   1       7.689  -2.980   4.345  0.00  0.00     0.010 A 
ATOM     22  C   UNL d   1       7.814  -3.340   2.994  0.00  0.00     0.030 A 
BRANCH  20  23
ATOM     23  C   UNL d   1       6.281  -2.411   6.379  0.00  0.00     0.010 C 
ATOM     24  C   UNL d   1       5.663  -1.041   6.666  0.00  0.00     0.015 C 
ATOM     25  C   UNL d   1       5.456  -3.524   7.037  0.00  0.00     0.015 C 
ENDBRANCH  20  23
ENDBRANCH   2  17
TORSDOF 4
