REMARK  5 active torsions:
REMARK  status: ('A' for Active; 'I' for Inactive)
REMARK       I    between atoms: N_3  and  C_1 
REMARK       I    between atoms: N_7  and  C_1 
REMARK    1  A    between atoms: C_2  and  O_8 
REMARK    2  A    between atoms: C_5  and  N_3 
REMARK    3  A    between atoms: N_4  and  C_6 
REMARK    4  A    between atoms: C_13  and  N_7 
REMARK    5  A    between atoms: O_8  and  C_14 
ROOT
ATOM      1  C   UNL d   1       0.754   1.051   0.249  0.00  0.00     0.303 C 
ATOM      2  N   UNL d   1       0.436   0.556  -0.999  0.00  0.00    -0.208 NA
ATOM      3  N   UNL d   1      -0.145   0.784   1.248  0.00  0.00    -0.313 N 
ATOM      4  O   UNL d   1       1.736   1.750   0.505  0.00  0.00    -0.253 OA
ATOM      5  H   UNL d   1      -0.552   0.722  -1.139  0.00  0.00     0.138 HD
ATOM      6  H   UNL d   1       0.044   1.345   2.069  0.00  0.00     0.170 HD
ENDROOT
BRANCH   2   7
ATOM      7  C   UNL d   1       1.204   0.937  -2.128  0.00  0.00     0.043 A 
ATOM      8  C   UNL d   1       2.270   0.149  -2.635  0.00  0.00     0.052 A 
ATOM      9  C   UNL d   1       2.898   0.650  -3.797  0.00  0.00     0.031 A 
ATOM     10  C   UNL d   1       2.450   1.793  -4.470  0.00  0.00     0.002 A 
ATOM     11  C   UNL d   1       1.351   2.492  -3.996  0.00  0.00     0.002 A 
ATOM     12  C   UNL d   1       0.734   2.067  -2.825  0.00  0.00     0.026 A 
BRANCH   8  13
ATOM     13  N   UNL d   1       2.599  -1.120  -2.151  0.00  0.00    -0.379 N 
ATOM     14  C   UNL d   1       3.216  -2.113  -3.039  0.00  0.00     0.123 C 
ATOM     15  C   UNL d   1       2.670  -3.496  -2.684  0.00  0.00     0.020 C 
ATOM     16  C   UNL d   1       2.856  -3.819  -1.203  0.00  0.00     0.003 C 
ATOM     17  C   UNL d   1       2.330  -2.689  -0.317  0.00  0.00     0.020 C 
ATOM     18  C   UNL d   1       2.914  -1.337  -0.737  0.00  0.00     0.123 C 
ENDBRANCH   8  13
ENDBRANCH   2   7
BRANCH   3  19
ATOM     19  C   UNL d   1      -1.272  -0.056   1.284  0.00  0.00     0.036 A 
ATOM     20  C   UNL d   1      -1.492  -1.110   0.393  0.00  0.00     0.032 A 
ATOM     21  C   UNL d   1      -2.684  -1.840   0.426  0.00  0.00     0.039 A 
ATOM     22  C   UNL d   1      -3.681  -1.510   1.337  0.00  0.00     0.078 A 
ATOM     23  C   UNL d   1      -3.421  -0.534   2.301  0.00  0.00     0.039 A 
ATOM     24  C   UNL d   1      -2.221   0.183   2.282  0.00  0.00     0.032 A 
BRANCH  22  25
ATOM     25  O   UNL d   1      -4.896  -2.114   1.421  0.00  0.00    -0.255 OA
BRANCH  25  26
ATOM     26  C   UNL d   1      -5.555  -2.481   0.213  0.00  0.00     0.530 C 
ATOM     27  F   UNL d   1      -4.907  -2.118  -0.913  0.00  0.00    -0.144 F 
ATOM     28  F   UNL d   1      -5.732  -3.820   0.197  0.00  0.00    -0.144 F 
ATOM     29  F   UNL d   1      -6.775  -1.897   0.193  0.00  0.00    -0.144 F 
ENDBRANCH  25  26
ENDBRANCH  22  25
ENDBRANCH   3  19
TORSDOF 5
