REMARK  4 active torsions:
REMARK  status: ('A' for Active; 'I' for Inactive)
REMARK    1  A    between atoms: N_2  and  C_1 
REMARK    2  A    between atoms: N_4  and  C_3 
REMARK    3  A    between atoms: C_14  and  C_9 
REMARK    4  A    between atoms: O_13  and  C_14 
ROOT
ATOM      1  C   UNL d   1       1.401  -0.261   0.110  0.00  0.00     0.130 A 
ATOM      2  C   UNL d   1       0.593  -1.416  -0.009  0.00  0.00     0.063 A 
ATOM      3  C   UNL d   1       0.885   1.046   0.216  0.00  0.00     0.047 A 
ATOM      4  C   UNL d   1      -0.789  -1.154   0.003  0.00  0.00     0.032 A 
ATOM      5  C   UNL d   1      -0.493   1.260   0.227  0.00  0.00    -0.032 A 
ATOM      6  C   UNL d   1      -1.323   0.146   0.111  0.00  0.00     0.012 A 
ENDROOT
BRANCH   2   7
ATOM      7  N   UNL d   1       1.088  -2.709  -0.155  0.00  0.00    -0.379 N 
ATOM      8  C   UNL d   1       0.299  -3.819  -0.710  0.00  0.00     0.123 C 
ATOM      9  C   UNL d   1       0.414  -4.925   0.331  0.00  0.00     0.021 C 
ATOM     10  C   UNL d   1       1.830  -4.747   0.841  0.00  0.00     0.021 C 
ATOM     11  C   UNL d   1       2.004  -3.230   0.881  0.00  0.00     0.123 C 
ENDBRANCH   2   7
BRANCH   1  12
ATOM     12  N   UNL d   1       2.844  -0.343   0.059  0.00  0.00    -0.113 N 
ATOM     13  O   UNL d   1       3.435  -0.555   1.129  0.00  0.00    -0.532 OA
ATOM     14  O   UNL d   1       3.388  -0.099  -1.029  0.00  0.00    -0.532 OA
ENDBRANCH   1  12
BRANCH   5  15
ATOM     15  C   UNL d   1      -1.075   2.647   0.286  0.00  0.00     0.203 C 
BRANCH  15  16
ATOM     16  O   UNL d   1      -0.237   3.504   1.049  0.00  0.00    -0.396 OA
ATOM     17  H   UNL d   1      -0.646   4.386   1.031  0.00  0.00     0.209 HD
ENDBRANCH  15  16
ENDBRANCH   5  15
TORSDOF 4
