REMARK  3 active torsions:
REMARK  status: ('A' for Active; 'I' for Inactive)
REMARK    1  A    between atoms: C_11  and  C_5 
REMARK    2  A    between atoms: S_14  and  C_7 
REMARK    3  A    between atoms: N_15  and  C_8 
ROOT
ATOM      1  N   UNL d   1       1.679  -1.323  -0.064  0.00  0.00    -0.335 N 
ATOM      2  HN  UNL d   1       2.264  -2.156  -0.131  1.00  0.00     0.168 HD
ATOM      3  N   UNL d   1       1.504   1.036   0.057  0.00  0.00    -0.331 N 
ATOM      4  HN  UNL d   1       1.958   1.949   0.088  1.00  0.00     0.168 HD
ATOM      5  C   UNL d   1       2.221  -0.097  -0.014  0.00  0.00     0.117 A 
ATOM      6  C   UNL d   1      -0.482  -0.302   0.056  0.00  0.00     0.116 A 
ATOM      7  C   UNL d   1       0.336  -1.415  -0.023  0.00  0.00     0.095 A 
ATOM      8  C   UNL d   1       0.166   0.923   0.085  0.00  0.00     0.103 A 
ATOM      9  C   UNL d   1      -1.905  -0.383   0.097  0.00  0.00     0.105 C 
ATOM     10  N   UNL d   1      -3.066  -0.416   0.101  0.00  0.00    -0.191 NA
ENDROOT
BRANCH   7  11
ATOM     11  S   UNL d   1      -0.331  -3.081  -0.074  0.00  0.00    -0.115 SA
ATOM     12  C   UNL d   1       1.193  -4.064  -0.155  0.00  0.00     0.097 C 
ENDBRANCH   7  11
BRANCH   8  13
ATOM     13  N   UNL d   1      -0.512   2.132   0.229  0.00  0.00    -0.287 NA
ATOM     14  H   UNL d   1      -1.292   2.261  -0.408  0.00  0.00     0.125 HD
ATOM     15  H   UNL d   1       0.157   2.897   0.177  0.00  0.00     0.125 HD
ENDBRANCH   8  13
BRANCH   5  16
ATOM     16  C   UNL d   1       3.691  -0.000  -0.011  0.00  0.00     0.011 A 
ATOM     17  C   UNL d   1       4.350   1.234   0.084  0.00  0.00     0.032 A 
ATOM     18  C   UNL d   1       5.735   1.268   0.101  0.00  0.00     0.088 A 
ATOM     19  N   UNL d   1       6.513   0.169   0.029  0.00  0.00    -0.375 N 
ATOM     20  C   UNL d   1       5.877  -1.014  -0.064  0.00  0.00     0.088 A 
ATOM     21  HN  UNL d   1       7.531   0.231   0.044  1.00  0.00     0.164 HD
ATOM     22  C   UNL d   1       4.498  -1.147  -0.088  0.00  0.00     0.032 A 
ENDBRANCH   5  16
TORSDOF 3
