REMARK  3 active torsions:
REMARK  status: ('A' for Active; 'I' for Inactive)
REMARK    1  A    between atoms: S_13  and  C_1 
REMARK    2  A    between atoms: C_7  and  C_12 
REMARK    3  A    between atoms: C_12  and  S_13 
ROOT
ATOM      1  C   UNL d   1      -2.410  -0.096   0.072  0.00  0.00     0.145 A 
ATOM      2  N   UNL d   1      -1.675  -1.069  -0.408  0.00  0.00    -0.335 N 
ATOM      3  HN  UNL d   1      -1.994  -1.923  -0.866  1.00  0.00     0.168 HD
ATOM      4  N   UNL d   1      -1.656   0.889   0.640  0.00  0.00    -0.335 N 
ATOM      5  C   UNL d   1      -0.374  -0.684  -0.157  0.00  0.00     0.062 A 
ATOM      6  C   UNL d   1      -0.338   0.536   0.513  0.00  0.00     0.062 A 
ATOM      7  C   UNL d   1       0.835  -1.319  -0.475  0.00  0.00     0.057 A 
ATOM      8  C   UNL d   1       0.843   1.167   0.908  0.00  0.00     0.057 A 
ATOM      9  C   UNL d   1       2.042  -0.706  -0.096  0.00  0.00     0.058 A 
ATOM     10  C   UNL d   1       2.044   0.517   0.591  0.00  0.00     0.058 A 
ATOM     11 CL   UNL d   1       3.508   1.298   1.084  0.00  0.00    -0.082 Cl
ATOM     12 CL   UNL d   1       3.511  -1.520  -0.515  0.00  0.00    -0.082 Cl
ATOM     13  H   UNL d   1      -2.025   1.726   1.062  0.00  0.00     0.168 HD
ENDROOT
BRANCH   1  14
ATOM     14  S   UNL d   1      -4.120   0.101   0.033  0.00  0.00    -0.089 SA
BRANCH  14  15
ATOM     15  C   UNL d   1      -4.693  -1.622  -0.047  0.00  0.00     0.126 C 
BRANCH  15  16
ATOM     16  C   UNL d   1      -6.200  -1.688   0.024  0.00  0.00     0.012 A 
ATOM     17  C   UNL d   1      -6.941  -1.701  -1.165  0.00  0.00     0.125 A 
ATOM     18  F   UNL d   1      -6.305  -1.683  -2.345  0.00  0.00    -0.205 F 
ATOM     19  C   UNL d   1      -8.335  -1.727  -1.169  0.00  0.00     0.043 A 
ATOM     20  C   UNL d   1      -9.029  -1.738   0.036  0.00  0.00     0.005 A 
ATOM     21  C   UNL d   1      -8.319  -1.719   1.236  0.00  0.00     0.024 A 
ATOM     22  C   UNL d   1      -6.917  -1.691   1.232  0.00  0.00     0.044 A 
ATOM     23 CL   UNL d   1      -6.122  -1.651   2.766  0.00  0.00    -0.084 Cl
ENDBRANCH  15  16
ENDBRANCH  14  15
ENDBRANCH   1  14
TORSDOF 3
