REMARK  2 active torsions:
REMARK  status: ('A' for Active; 'I' for Inactive)
REMARK    1  A    between atoms: S_2  and  C_1 
REMARK    2  A    between atoms: N_7  and  S_2 
ROOT
ATOM      1  S   UNL d   1       2.071  -2.924   0.157  0.00  0.00     0.251 S 
ATOM      2  O   UNL d   1       0.977  -1.987   0.065  0.00  0.00    -0.205 OA
ATOM      3  O   UNL d   1       3.018  -2.846   1.249  0.00  0.00    -0.205 OA
ENDROOT
BRANCH   1   4
ATOM      4  C   UNL d   1       1.328  -4.535   0.240  0.00  0.00     0.133 A 
ATOM      5  S   UNL d   1       2.368  -5.809   0.746  0.00  0.00    -0.068 SA
ATOM      6  C   UNL d   1       1.164  -6.971   0.493  0.00  0.00     0.054 A 
ATOM      7 BR   UNL d   1       1.431  -8.802   0.782  0.00  0.00    -0.043 Br
ATOM      8  C   UNL d   1      -0.017  -6.444   0.038  0.00  0.00     0.048 A 
ATOM      9  C   UNL d   1       0.086  -5.033  -0.095  0.00  0.00     0.042 A 
ATOM     10 BR   UNL d   1      -1.385  -4.046  -0.756  0.00  0.00    -0.049 Br
ENDBRANCH   1   4
BRANCH   1  11
ATOM     11  N   UNL d   1       2.944  -2.858  -1.303  0.00  0.00    -0.202 NA
ATOM     12  C   UNL d   1       2.184  -3.121  -2.563  0.00  0.00     0.134 C 
ATOM     13  C   UNL d   1       1.460  -1.870  -3.067  0.00  0.00     0.183 C 
ATOM     14  O   UNL d   1       2.386  -0.795  -3.264  0.00  0.00    -0.389 OA
ATOM     15  C   UNL d   1       3.037  -0.460  -2.029  0.00  0.00     0.183 C 
ATOM     16  C   UNL d   1       3.817  -1.654  -1.466  0.00  0.00     0.134 C 
ENDBRANCH   1  11
TORSDOF 2
