REMARK  3 active torsions:
REMARK  status: ('A' for Active; 'I' for Inactive)
REMARK    1  A    between atoms: C_9  and  O_21 
REMARK    2  A    between atoms: C_19  and  C_10 
REMARK    3  A    between atoms: O_23  and  C_13 
ROOT
ATOM      1  C   UNL d   1       0.517   4.229  -1.512  0.00  0.00    -0.033 C 
ATOM      2  C   UNL d   1       2.041   5.182  -5.598  0.00  0.00    -0.009 C 
ATOM      3  C   UNL d   1       0.918   3.849  -3.012  0.00  0.00    -0.001 C 
ATOM      4  C   UNL d   1       0.680   5.610  -4.962  0.00  0.00     0.001 C 
ATOM      5  C   UNL d   1       0.179   3.275   0.868  0.00  0.00    -0.050 C 
ATOM      6  C   UNL d   1       0.004   4.463  -4.169  0.00  0.00    -0.005 C 
ATOM      7  C   UNL d   1       1.010   3.191  -0.419  0.00  0.00     0.046 C 
ATOM      8  C   UNL d   1      -1.045   4.260  -1.497  0.00  0.00    -0.003 C 
ATOM      9  C   UNL d   1       1.653   4.928  -7.097  0.00  0.00     0.062 C 
ATOM     10  C   UNL d   1       0.536   3.725   2.089  0.00  0.00     0.017 C 
ATOM     11  C   UNL d   1       2.656   3.955  -4.875  0.00  0.00     0.013 C 
ATOM     12  C   UNL d   1       2.418   4.011  -3.359  0.00  0.00     0.007 C 
ATOM     13  C   UNL d   1      -1.303   3.066   0.682  0.00  0.00     0.147 C 
ATOM     14  C   UNL d   1      -0.189   6.104  -6.154  0.00  0.00     0.009 C 
ATOM     15  C   UNL d   1      -1.445   4.836  -3.793  0.00  0.00     0.006 C 
ATOM     16  C   UNL d   1      -1.752   4.263  -0.141  0.00  0.00     0.041 C 
ATOM     17  C   UNL d   1      -1.581   5.360  -2.388  0.00  0.00     0.006 C 
ATOM     18  C   UNL d   1       0.693   6.080  -7.395  0.00  0.00     0.038 C 
ATOM     19  C   UNL d   1       1.175   5.574  -1.124  0.00  0.00     0.016 C 
ATOM     20  C   UNL d   1       3.036   6.369  -5.470  0.00  0.00     0.018 C 
ATOM     21  C   UNL d   1       2.796   4.859  -8.099  0.00  0.00     0.046 C 
ENDROOT
BRANCH  10  22
ATOM     22  C   UNL d   1       1.791   4.330   2.509  0.00  0.00    -0.036 A 
ATOM     23  C   UNL d   1       1.989   5.707   2.326  0.00  0.00     0.011 A 
ATOM     24  C   UNL d   1       3.157   6.315   2.793  0.00  0.00     0.001 A 
ATOM     25  C   UNL d   1       4.101   5.555   3.478  0.00  0.00     0.000 A 
ATOM     26  C   UNL d   1       3.878   4.194   3.701  0.00  0.00     0.001 A 
ATOM     27  C   UNL d   1       2.724   3.583   3.216  0.00  0.00     0.011 A 
ENDBRANCH  10  22
BRANCH  13  28
ATOM     28  O   UNL d   1      -1.602   1.818   0.070  0.00  0.00    -0.391 OA
ATOM     29  H   UNL d   1      -1.034   1.685  -0.694  0.00  0.00     0.210 HD
ENDBRANCH  13  28
BRANCH   9  30
ATOM     30  O   UNL d   1       0.877   3.730  -7.242  0.00  0.00    -0.389 OA
ATOM     31  H   UNL d   1       1.439   2.964  -7.050  0.00  0.00     0.210 HD
ENDBRANCH   9  30
TORSDOF 3
