REMARK  4 active torsions:
REMARK  status: ('A' for Active; 'I' for Inactive)
REMARK    1  A    between atoms: C_2  and  N_1 
REMARK    2  A    between atoms: N_5  and  C_2 
REMARK    3  A    between atoms: N_3  and  C_7 
REMARK    4  A    between atoms: C_11  and  N_5 
ROOT
ATOM      1  N   UNL d   1       1.498   1.071  -0.073  0.00  0.00    -0.323 N 
ATOM      2  C   UNL d   1       0.148   0.640  -0.036  0.00  0.00     0.043 A 
ATOM      3  C   UNL d   1       0.101  -0.756   0.094  0.00  0.00    -0.027 A 
ATOM      4  C   UNL d   1      -2.284  -0.722   0.043  0.00  0.00     0.103 A 
ATOM      5  C   UNL d   1       2.324  -0.096   0.326  0.00  0.00     0.136 C 
ATOM      6  C   UNL d   1      -1.096  -1.456   0.129  0.00  0.00     0.045 A 
ATOM      7  C   UNL d   1      -1.030   1.361  -0.155  0.00  0.00     0.033 A 
ATOM      8  C   UNL d   1       1.477  -1.344   0.101  0.00  0.00     0.061 C 
ATOM      9  C   UNL d   1      -2.256   0.679  -0.099  0.00  0.00     0.038 A 
ENDROOT
BRANCH   1  10
ATOM     10  C   UNL d   1       2.021   2.355  -0.043  0.00  0.00     0.179 C 
ATOM     11  S   UNL d   1       1.299   3.725   0.602  0.00  0.00    -0.040 SA
BRANCH  10  12
ATOM     12  N   UNL d   1       3.328   2.499  -0.446  0.00  0.00    -0.332 N 
ATOM     13  H   UNL d   1       3.818   3.287  -0.029  0.00  0.00     0.168 HD
BRANCH  12  14
ATOM     14  C   UNL d   1       3.964   1.964  -1.597  0.00  0.00     0.056 A 
ATOM     15  C   UNL d   1       5.356   2.109  -1.737  0.00  0.00     0.060 A 
ATOM     16 CL   UNL d   1       6.309   2.840  -0.491  0.00  0.00    -0.082 Cl
ATOM     17  C   UNL d   1       6.013   1.638  -2.878  0.00  0.00     0.026 A 
ATOM     18  C   UNL d   1       5.281   1.039  -3.903  0.00  0.00     0.002 A 
ATOM     19  C   UNL d   1       3.900   0.904  -3.782  0.00  0.00     0.002 A 
ATOM     20  C   UNL d   1       3.243   1.359  -2.633  0.00  0.00     0.031 A 
ENDBRANCH  12  14
ENDBRANCH  10  12
ENDBRANCH   1  10
BRANCH   4  21
ATOM     21  N   UNL d   1      -3.571  -1.427   0.078  0.00  0.00    -0.116 N 
ATOM     22  O   UNL d   1      -3.548  -2.663   0.155  0.00  0.00    -0.532 OA
ATOM     23  O   UNL d   1      -4.603  -0.744   0.024  0.00  0.00    -0.532 OA
ENDBRANCH   4  21
TORSDOF 4
