REMARK  5 active torsions:
REMARK  status: ('A' for Active; 'I' for Inactive)
REMARK    1  A    between atoms: S_10  and  C_2 
REMARK    2  A    between atoms: S_12  and  C_3 
REMARK    3  A    between atoms: C_8  and  C_9 
REMARK    4  A    between atoms: C_17  and  S_10 
REMARK    5  A    between atoms: C_16  and  C_17 
ROOT
ATOM      1  C   UNL d   1      -2.850   1.418  -0.057  0.00  0.00     0.120 C 
ENDROOT
BRANCH   1   2
ATOM      2  C   UNL d   1      -4.367   1.392   0.003  0.00  0.00    -0.048 A 
ATOM      3  C   UNL d   1      -5.086   2.600   0.063  0.00  0.00     0.024 A 
ATOM      4  C   UNL d   1      -6.490   2.610   0.152  0.00  0.00     0.048 A 
ATOM      5  C   UNL d   1      -7.179   1.389   0.176  0.00  0.00     0.016 A 
ATOM      6  C   UNL d   1      -6.480   0.186   0.141  0.00  0.00     0.001 A 
ATOM      7  C   UNL d   1      -5.086   0.188   0.075  0.00  0.00     0.008 A 
BRANCH   4   8
ATOM      8  C   UNL d   1      -7.266   3.903   0.226  0.00  0.00     0.417 C 
ATOM      9  F   UNL d   1      -6.476   5.014   0.253  0.00  0.00    -0.166 F 
ATOM     10  F   UNL d   1      -8.107   4.069  -0.833  0.00  0.00    -0.166 F 
ATOM     11  F   UNL d   1      -8.049   3.978   1.337  0.00  0.00    -0.166 F 
ENDBRANCH   4   8
ENDBRANCH   1   2
BRANCH   1  12
ATOM     12  S   UNL d   1      -2.156   0.205  -1.222  0.00  0.00    -0.099 SA
BRANCH  12  13
ATOM     13  C   UNL d   1      -0.444   0.422  -0.973  0.00  0.00     0.129 A 
ATOM     14  S   UNL d   1       0.721  -0.628  -1.668  0.00  0.00    -0.038 SA
ATOM     15  C   UNL d   1       1.920   0.357  -0.951  0.00  0.00     0.126 A 
ATOM     16  N   UNL d   1       1.453   1.361  -0.245  0.00  0.00    -0.287 N 
ATOM     17  N   UNL d   1       0.068   1.400  -0.255  0.00  0.00    -0.287 N 
ATOM     18  HN  UNL d   1       2.039   2.032   0.252  1.00  0.00     0.188 HD
ATOM     19  HN  UNL d   1      -0.488   2.102   0.234  1.00  0.00     0.188 HD
BRANCH  15  20
ATOM     20  S   UNL d   1       3.629   0.064  -1.137  0.00  0.00    -0.117 SA
ATOM     21  H   UNL d   1       3.530  -1.024  -1.913  0.00  0.00     0.109 HD
ENDBRANCH  15  20
ENDBRANCH  12  13
ENDBRANCH   1  12
TORSDOF 5
