REMARK  4 active torsions:
REMARK  status: ('A' for Active; 'I' for Inactive)
REMARK    1  A    between atoms: C_7  and  C_1 
REMARK    2  A    between atoms: O_13  and  N_8 
REMARK    3  A    between atoms: C_11  and  C_14 
REMARK    4  A    between atoms: C_14  and  O_13 
ROOT
ATOM      1  C   UNL d   1      -0.891  -3.122  -1.033  0.00  0.00     0.146 C 
ATOM      2  N   UNL d   1       0.153  -3.898  -1.106  0.00  0.00    -0.275 N 
ATOM      3  HN  UNL d   1       0.560  -4.223  -1.983  1.00  0.00     0.193 HD
ENDROOT
BRANCH   2   4
ATOM      4  O   UNL d   1       0.653  -4.236   0.163  0.00  0.00    -0.276 OA
BRANCH   4   5
ATOM      5  C   UNL d   1       2.021  -4.646   0.070  0.00  0.00     0.240 C 
BRANCH   5   6
ATOM      6  C   UNL d   1       2.143  -6.154   0.141  0.00  0.00    -0.026 A 
ATOM      7  C   UNL d   1       2.889  -6.841   1.123  0.00  0.00    -0.053 A 
ATOM      8  C   UNL d   1       3.645  -6.164   2.233  0.00  0.00     0.049 C 
ATOM      9  C   UNL d   1       2.900  -8.250   1.110  0.00  0.00     0.007 A 
ATOM     10  C   UNL d   1       2.228  -8.973   0.126  0.00  0.00     0.001 A 
ATOM     11  C   UNL d   1       1.528  -8.299  -0.865  0.00  0.00     0.001 A 
ATOM     12  C   UNL d   1       1.487  -6.906  -0.856  0.00  0.00     0.010 A 
ENDBRANCH   5   6
ENDBRANCH   4   5
ENDBRANCH   2   4
BRANCH   1  13
ATOM     13  C   UNL d   1      -1.463  -2.496   0.156  0.00  0.00     0.084 A 
ATOM     14  C   UNL d   1      -2.797  -2.046   0.327  0.00  0.00     0.057 A 
ATOM     15  C   UNL d   1      -2.866  -1.493   1.576  0.00  0.00     0.128 A 
ATOM     16 BR   UNL d   1      -4.199  -2.196  -0.901  0.00  0.00    -0.047 Br
ATOM     17  N   UNL d   1      -1.612  -1.614   2.092  0.00  0.00    -0.310 N 
ATOM     18  N   UNL d   1      -0.738  -2.180   1.248  0.00  0.00    -0.298 N 
ATOM     19  H   UNL d   1      -1.276  -1.323   3.003  0.00  0.00     0.186 HD
ATOM     20  HN  UNL d   1       0.259  -2.338   1.398  1.00  0.00     0.187 HD
ENDBRANCH   1  13
TORSDOF 4
