REMARK  7 active torsions:
REMARK  status: ('A' for Active; 'I' for Inactive)
REMARK    1  A    between atoms: C_8  and  N_1 
REMARK    2  A    between atoms: C_2  and  C_11 
REMARK    3  A    between atoms: C_3  and  C_12 
REMARK       I    between atoms: N_5  and  C_3 
REMARK    4  A    between atoms: C_7  and  N_5 
REMARK    5  A    between atoms: C_10  and  C_7 
REMARK    6  A    between atoms: C_11  and  C_7 
REMARK    7  A    between atoms: O_19  and  C_10 
ROOT
ATOM      1  C   UNL d   1      -1.436   0.078  -6.064  0.00  0.00     0.189 C 
ENDROOT
BRANCH   1   2
ATOM      2  N   UNL d   1      -0.533  -1.052  -5.806  0.00  0.00    -0.343 N 
ATOM      3  C   UNL d   1      -0.421  -1.574  -4.540  0.00  0.00     0.252 C 
ATOM      4  O   UNL d   1      -1.008  -1.098  -3.575  0.00  0.00    -0.268 OA
ATOM      5  H   UNL d   1       0.206  -1.210  -6.476  0.00  0.00     0.163 HD
BRANCH   3   6
ATOM      6  C   UNL d   1       0.426  -2.794  -4.359  0.00  0.00     0.034 A 
ATOM      7  C   UNL d   1       0.624  -3.260  -3.049  0.00  0.00     0.053 A 
ATOM      8  C   UNL d   1       1.314  -4.458  -2.831  0.00  0.00     0.103 A 
ATOM      9  C   UNL d   1       1.815  -5.200  -3.909  0.00  0.00     0.036 A 
ATOM     10  C   UNL d   1       1.636  -4.727  -5.208  0.00  0.00     0.003 A 
ATOM     11  C   UNL d   1       0.945  -3.531  -5.434  0.00  0.00     0.017 A 
BRANCH   8  12
ATOM     12  N   UNL d   1       1.500  -4.952  -1.461  0.00  0.00    -0.116 N 
ATOM     13  O   UNL d   1       1.131  -4.226  -0.528  0.00  0.00    -0.532 OA
ATOM     14  O   UNL d   1       2.022  -6.068  -1.319  0.00  0.00    -0.532 OA
ENDBRANCH   8  12
ENDBRANCH   3   6
ENDBRANCH   1   2
BRANCH   1  15
ATOM     15  C   UNL d   1      -0.654   1.389  -5.952  0.00  0.00     0.281 C 
ATOM     16  O   UNL d   1       0.518   1.522  -6.287  0.00  0.00    -0.263 OA
BRANCH  15  17
ATOM     17  O   UNL d   1      -1.468   2.381  -5.499  0.00  0.00    -0.325 OA
ATOM     18  C   UNL d   1      -0.857   3.658  -5.306  0.00  0.00     0.213 C 
ENDBRANCH  15  17
ENDBRANCH   1  15
BRANCH   1  19
ATOM     19  C   UNL d   1      -2.061   0.013  -7.462  0.00  0.00     0.076 C 
BRANCH  19  20
ATOM     20  C   UNL d   1      -2.979  -1.157  -7.658  0.00  0.00    -0.028 A 
ATOM     21  C   UNL d   1      -4.323  -1.204  -7.340  0.00  0.00     0.096 A 
ATOM     22  N   UNL d   1      -4.811  -2.429  -7.706  0.00  0.00    -0.365 N 
ATOM     23  C   UNL d   1      -3.813  -3.191  -8.268  0.00  0.00     0.042 A 
ATOM     24  H   UNL d   1      -5.768  -2.734  -7.593  0.00  0.00     0.165 HD
ATOM     25  C   UNL d   1      -2.645  -2.428  -8.231  0.00  0.00    -0.002 A 
ATOM     26  C   UNL d   1      -3.860  -4.483  -8.806  0.00  0.00     0.030 A 
ATOM     27  C   UNL d   1      -1.459  -2.997  -8.739  0.00  0.00     0.014 A 
ATOM     28  C   UNL d   1      -1.484  -4.291  -9.271  0.00  0.00     0.001 A 
ATOM     29  C   UNL d   1      -2.671  -5.018  -9.311  0.00  0.00     0.002 A 
ENDBRANCH  19  20
ENDBRANCH   1  19
TORSDOF 7
