REMARK  5 active torsions:
REMARK  status: ('A' for Active; 'I' for Inactive)
REMARK    1  A    between atoms: N_10  and  C_3 
REMARK    2  A    between atoms: C_9  and  C_4 
REMARK       I    between atoms: C_7  and  N_8 
REMARK    3  A    between atoms: C_15  and  C_7 
REMARK    4  A    between atoms: N_8  and  N_10 
REMARK    5  A    between atoms: O_17  and  C_16 
ROOT
ATOM      1  N   UNL d   1       1.468  -0.689   0.054  0.00  0.00    -0.334 N 
ATOM      2  HN  UNL d   1       2.370  -1.164   0.103  1.00  0.00     0.168 HD
ATOM      3  C   UNL d   1       0.302  -1.294  -0.033  0.00  0.00     0.163 A 
ATOM      4  C   UNL d   1       1.296   0.688   0.069  0.00  0.00     0.051 A 
ATOM      5  S   UNL d   1      -1.063  -0.247  -0.032  0.00  0.00    -0.062 SA
ATOM      6  C   UNL d   1      -0.020   1.107   0.069  0.00  0.00     0.083 A 
ENDROOT
BRANCH   3   7
ATOM      7  N   UNL d   1       0.140  -2.634  -0.116  0.00  0.00    -0.277 N 
ATOM      8  H   UNL d   1      -0.804  -3.025  -0.151  0.00  0.00     0.189 HD
BRANCH   7   9
ATOM      9  N   UNL d   1       1.087  -3.510   0.418  0.00  0.00    -0.264 N 
ATOM     10  C   UNL d   1       0.799  -4.857   0.381  0.00  0.00     0.270 C 
ATOM     11  O   UNL d   1      -0.241  -5.319  -0.082  0.00  0.00    -0.266 OA
ATOM     12  H   UNL d   1       2.001  -3.109   0.618  0.00  0.00     0.190 HD
BRANCH  10  13
ATOM     13  C   UNL d   1       1.839  -5.760   0.935  0.00  0.00     0.036 A 
ATOM     14  C   UNL d   1       2.646  -5.372   2.005  0.00  0.00     0.034 A 
ATOM     15  C   UNL d   1       3.570  -6.286   2.478  0.00  0.00     0.088 A 
ATOM     16  N   UNL d   1       3.734  -7.522   1.962  0.00  0.00    -0.375 N 
ATOM     17  C   UNL d   1       2.928  -7.875   0.937  0.00  0.00     0.088 A 
ATOM     18  HN  UNL d   1       4.438  -8.163   2.329  1.00  0.00     0.164 HD
ATOM     19  C   UNL d   1       1.968  -7.040   0.397  0.00  0.00     0.034 A 
ENDBRANCH  10  13
ENDBRANCH   7   9
ENDBRANCH   3   7
BRANCH   4  20
ATOM     20  C   UNL d   1       2.434   1.597   0.007  0.00  0.00    -0.006 A 
ATOM     21  C   UNL d   1       3.574   1.212  -0.720  0.00  0.00     0.050 A 
ATOM     22  C   UNL d   1       4.657   2.082  -0.864  0.00  0.00     0.069 A 
ATOM     23  C   UNL d   1       4.609   3.339  -0.257  0.00  0.00     0.037 A 
ATOM     24  C   UNL d   1       3.493   3.726   0.486  0.00  0.00     0.004 A 
ATOM     25  C   UNL d   1       2.408   2.859   0.617  0.00  0.00     0.014 A 
BRANCH  22  26
ATOM     26  O   UNL d   1       5.800   1.832  -1.572  0.00  0.00    -0.356 OA
ATOM     27  C   UNL d   1       5.883   0.574  -2.231  0.00  0.00     0.210 C 
ENDBRANCH  22  26
ENDBRANCH   4  20
TORSDOF 5
