REMARK  2 active torsions:
REMARK  status: ('A' for Active; 'I' for Inactive)
REMARK    1  A    between atoms: C_16  and  N_10 
REMARK    2  A    between atoms: C_17  and  C_16 
ROOT
ATOM      1  C   UNL d   1       0.823   0.519  -0.136  0.00  0.00     0.043 A 
ATOM      2  C   UNL d   1       1.286  -0.774  -0.179  0.00  0.00     0.090 A 
ATOM      3  C   UNL d   1       1.831   1.560  -0.018  0.00  0.00     0.116 A 
ATOM      4  N   UNL d   1       2.600  -1.152  -0.136  0.00  0.00    -0.327 N 
ATOM      5  N   UNL d   1       3.142   1.123   0.022  0.00  0.00    -0.323 N 
ATOM      6  C   UNL d   1      -0.617   0.504  -0.201  0.00  0.00    -0.025 A 
ATOM      7  C   UNL d   1      -1.111  -0.798  -0.223  0.00  0.00     0.020 A 
ATOM      8  C   UNL d   1       3.560  -0.185  -0.031  0.00  0.00     0.177 A 
ATOM      9  S   UNL d   1       0.118  -1.975  -0.269  0.00  0.00    -0.074 SA
ATOM     10  N   UNL d   1      -3.391  -0.069   0.379  0.00  0.00     0.097 N 
ATOM     11  C   UNL d   1      -2.570  -1.164  -0.191  0.00  0.00     0.319 C 
ATOM     12  C   UNL d   1      -1.581   1.661  -0.155  0.00  0.00     0.071 C 
ATOM     13  S   UNL d   1       1.458   3.172   0.086  0.00  0.00    -0.059 SA
ATOM     14  S   UNL d   1       5.176  -0.572   0.038  0.00  0.00    -0.040 SA
ATOM     15  C   UNL d   1      -3.048   1.198  -0.313  0.00  0.00     0.278 C 
ATOM     16  H   UNL d   1       2.852  -2.131  -0.168  0.00  0.00     0.169 HD
ATOM     17  H   UNL d   1       3.859   1.833   0.111  0.00  0.00     0.169 HD
ENDROOT
BRANCH  10  18
ATOM     18  C   UNL d   1      -3.216   0.001   1.845  0.00  0.00     0.311 C 
BRANCH  18  19
ATOM     19  C   UNL d   1      -4.043   1.083   2.505  0.00  0.00    -0.030 A 
ATOM     20  C   UNL d   1      -5.442   1.055   2.424  0.00  0.00     0.009 A 
ATOM     21  C   UNL d   1      -6.203   2.075   2.994  0.00  0.00     0.001 A 
ATOM     22  C   UNL d   1      -5.574   3.130   3.655  0.00  0.00     0.000 A 
ATOM     23  C   UNL d   1      -4.185   3.162   3.755  0.00  0.00     0.001 A 
ATOM     24  C   UNL d   1      -3.422   2.141   3.185  0.00  0.00     0.009 A 
ENDBRANCH  18  19
ENDBRANCH  10  18
TORSDOF 2
