REMARK  6 active torsions:
REMARK  status: ('A' for Active; 'I' for Inactive)
REMARK    1  A    between atoms: N_2  and  C_1 
REMARK    2  A    between atoms: N_3  and  C_1 
REMARK    3  A    between atoms: C_4  and  N_3 
REMARK    4  A    between atoms: C_5  and  C_10 
REMARK    5  A    between atoms: O_17  and  C_5 
REMARK    6  A    between atoms: C_21  and  O_17 
ROOT
ATOM      1  C   UNL d   1       1.054   0.051  -0.044  0.00  0.00     0.174 C 
ATOM      2  S   UNL d   1       2.481  -0.574  -0.690  0.00  0.00    -0.041 SA
ENDROOT
BRANCH   1   3
ATOM      3  N   UNL d   1       0.443   1.251  -0.475  0.00  0.00    -0.358 N 
ATOM      4  C   UNL d   1      -0.598   1.928   0.311  0.00  0.00     0.126 C 
ATOM      5  C   UNL d   1      -1.724   2.426  -0.590  0.00  0.00     0.034 C 
ATOM      6  C   UNL d   1      -1.222   3.255  -1.777  0.00  0.00     0.088 C 
ATOM      7  C   UNL d   1      -0.023   2.621  -2.477  0.00  0.00     0.034 C 
ATOM      8  C   UNL d   1       1.039   2.119  -1.502  0.00  0.00     0.126 C 
BRANCH   6   9
ATOM      9  C   UNL d   1      -0.932   4.682  -1.349  0.00  0.00     0.263 C 
ATOM     10  O   UNL d   1      -0.517   5.014  -0.251  0.00  0.00    -0.265 OA
BRANCH   9  11
ATOM     11  O   UNL d   1      -1.286   5.535  -2.352  0.00  0.00    -0.322 OA
BRANCH  11  12
ATOM     12  C   UNL d   1      -1.445   6.907  -1.966  0.00  0.00     0.174 C 
ATOM     13  C   UNL d   1      -2.862   7.100  -1.455  0.00  0.00     0.034 C 
ENDBRANCH  11  12
ENDBRANCH   9  11
ENDBRANCH   6   9
ENDBRANCH   1   3
BRANCH   1  14
ATOM     14  N   UNL d   1       0.285  -0.628   0.900  0.00  0.00    -0.333 N 
ATOM     15  H   UNL d   1      -0.666  -0.738   0.571  0.00  0.00     0.168 HD
BRANCH  14  16
ATOM     16  C   UNL d   1       0.727  -1.643   1.782  0.00  0.00     0.040 A 
ATOM     17  C   UNL d   1       1.847  -1.507   2.624  0.00  0.00    -0.034 A 
ATOM     18  C   UNL d   1       2.248  -2.611   3.402  0.00  0.00     0.032 A 
ATOM     19  C   UNL d   1       2.618  -0.227   2.804  0.00  0.00     0.050 C 
ATOM     20  C   UNL d   1       1.509  -3.792   3.396  0.00  0.00     0.034 A 
ATOM     21  C   UNL d   1       0.349  -3.889   2.637  0.00  0.00     0.026 A 
ATOM     22 CL   UNL d   1       2.020  -5.127   4.353  0.00  0.00    -0.084 Cl
ATOM     23  C   UNL d   1      -0.047  -2.812   1.840  0.00  0.00     0.032 A 
ENDBRANCH  14  16
ENDBRANCH   1  14
TORSDOF 6
