REMARK  2 active torsions:
REMARK  status: ('A' for Active; 'I' for Inactive)
REMARK    1  A    between atoms: C_3  and  N_1 
REMARK    2  A    between atoms: N_4  and  C_2 
ROOT
ATOM      1  C   UNL d   1      -1.177   0.738   3.717  0.00  0.00     0.036 A 
ATOM      2  C   UNL d   1       0.260   0.235   1.316  0.00  0.00     0.103 A 
ATOM      3  C   UNL d   1      -0.039   1.512   3.371  0.00  0.00    -0.033 A 
ATOM      4  C   UNL d   1       0.661   1.265   2.169  0.00  0.00     0.045 A 
ATOM      5  C   UNL d   1      -1.554  -0.282   2.819  0.00  0.00     0.032 A 
ATOM      6  C   UNL d   1      -0.848  -0.544   1.638  0.00  0.00     0.038 A 
ATOM      7  C   UNL d   1       0.498   2.600   4.266  0.00  0.00     0.050 C 
ENDROOT
BRANCH   1   8
ATOM      8  N   UNL d   1      -1.871   0.965   4.906  0.00  0.00    -0.380 N 
ATOM      9  C   UNL d   1      -2.705  -0.067   5.541  0.00  0.00     0.123 C 
ATOM     10  C   UNL d   1      -4.083   0.571   5.658  0.00  0.00     0.021 C 
ATOM     11  C   UNL d   1      -3.748   2.023   5.931  0.00  0.00     0.021 C 
ATOM     12  C   UNL d   1      -2.530   2.278   5.045  0.00  0.00     0.123 C 
ENDBRANCH   1   8
BRANCH   2  13
ATOM     13  N   UNL d   1       1.013  -0.030   0.086  0.00  0.00    -0.116 N 
ATOM     14  O   UNL d   1       1.988   0.691  -0.164  0.00  0.00    -0.532 OA
ATOM     15  O   UNL d   1       0.629  -0.965  -0.636  0.00  0.00    -0.532 OA
ENDBRANCH   2  13
TORSDOF 2
