REMARK  5 active torsions:
REMARK  status: ('A' for Active; 'I' for Inactive)
REMARK    1  A    between atoms: N_2  and  C_1 
REMARK    2  A    between atoms: N_3  and  C_1 
REMARK    3  A    between atoms: N_5  and  N_2 
REMARK    4  A    between atoms: C_6  and  N_3 
REMARK    5  A    between atoms: O_12  and  C_7 
ROOT
ATOM      1  N   UNL d   1       0.192   0.975   0.272  0.00  0.00    -0.332 N 
ATOM      2  H   UNL d   1       0.627   1.865   0.064  0.00  0.00     0.168 HD
ENDROOT
BRANCH   1   3
ATOM      3  C   UNL d   1       1.010  -0.105  -0.069  0.00  0.00     0.186 C 
ATOM      4  S   UNL d   1       0.527  -1.500  -0.868  0.00  0.00    -0.040 SA
BRANCH   3   5
ATOM      5  N   UNL d   1       2.334   0.203   0.269  0.00  0.00    -0.296 N 
ATOM      6  H   UNL d   1       2.486   0.890   1.001  0.00  0.00     0.183 HD
BRANCH   5   7
ATOM      7  N   UNL d   1       3.433  -0.502  -0.250  0.00  0.00    -0.238 NA
ATOM      8  C   UNL d   1       4.394   0.426  -0.847  0.00  0.00     0.135 C 
ATOM      9  C   UNL d   1       4.069  -1.339   0.768  0.00  0.00     0.135 C 
ENDBRANCH   5   7
ENDBRANCH   3   5
ENDBRANCH   1   3
BRANCH   1  10
ATOM     10  C   UNL d   1      -1.212   1.003   0.381  0.00  0.00     0.034 A 
ATOM     11  C   UNL d   1      -1.940  -0.050   0.938  0.00  0.00     0.032 A 
ATOM     12  C   UNL d   1      -3.332   0.031   1.048  0.00  0.00     0.039 A 
ATOM     13  C   UNL d   1      -4.005   1.165   0.596  0.00  0.00     0.068 A 
ATOM     14  C   UNL d   1      -3.273   2.238   0.087  0.00  0.00     0.039 A 
ATOM     15  C   UNL d   1      -1.881   2.164  -0.012  0.00  0.00     0.032 A 
BRANCH  13  16
ATOM     16  O   UNL d   1      -5.360   1.347   0.636  0.00  0.00    -0.356 OA
ATOM     17  C   UNL d   1      -6.137   0.154   0.634  0.00  0.00     0.210 C 
ENDBRANCH  13  16
ENDBRANCH   1  10
TORSDOF 5
