REMARK  6 active torsions:
REMARK  status: ('A' for Active; 'I' for Inactive)
REMARK    1  A    between atoms: N_2  and  S_1 
REMARK    2  A    between atoms: C_3  and  S_1 
REMARK    3  A    between atoms: C_6  and  N_2 
REMARK    4  A    between atoms: C_12  and  N_2 
REMARK    5  A    between atoms: C_17  and  C_12 
REMARK    6  A    between atoms: C_18  and  C_17 
ROOT
ATOM      1  S   UNL d   1       1.165  -0.041  -0.133  0.00  0.00     0.244 S 
ATOM      2  O   UNL d   1       0.838  -1.453  -0.188  0.00  0.00    -0.206 OA
ATOM      3  O   UNL d   1       2.550   0.376  -0.093  0.00  0.00    -0.206 OA
ENDROOT
BRANCH   1   4
ATOM      4  N   UNL d   1       0.348   0.615   1.272  0.00  0.00    -0.198 NA
BRANCH   4   5
ATOM      5  C   UNL d   1      -1.208   0.634   1.318  0.00  0.00     0.017 C 
ATOM      6  C   UNL d   1      -1.819  -0.766   1.177  0.00  0.00     0.032 C 
ATOM      7  C   UNL d   1      -1.687   1.255   2.659  0.00  0.00     0.032 C 
ATOM      8  C   UNL d   1      -1.808   1.556   0.243  0.00  0.00     0.032 C 
ENDBRANCH   4   5
BRANCH   4   9
ATOM      9  C   UNL d   1       0.922  -0.019   2.545  0.00  0.00     0.108 C 
BRANCH   9  10
ATOM     10  C   UNL d   1       2.419   0.165   2.796  0.00  0.00     0.015 C 
BRANCH  10  11
ATOM     11  C   UNL d   1       2.855   1.624   2.910  0.00  0.00    -0.003 C 
ATOM     12  C   UNL d   1       4.364   1.728   3.078  0.00  0.00     0.005 C 
ENDBRANCH  10  11
ENDBRANCH   9  10
ENDBRANCH   4   9
ENDBRANCH   1   4
BRANCH   1  13
ATOM     13  C   UNL d   1       0.515   0.731  -1.585  0.00  0.00     0.074 A 
ATOM     14  C   UNL d   1       0.662   2.110  -1.763  0.00  0.00     0.025 A 
ATOM     15  C   UNL d   1       0.147   2.710  -2.913  0.00  0.00     0.008 A 
ATOM     16  C   UNL d   1      -0.477   1.935  -3.903  0.00  0.00    -0.062 A 
ATOM     17  C   UNL d   1      -0.575   0.548  -3.732  0.00  0.00     0.008 A 
ATOM     18  C   UNL d   1      -1.029   2.594  -5.133  0.00  0.00     0.048 C 
ATOM     19  C   UNL d   1      -0.077  -0.056  -2.578  0.00  0.00     0.025 A 
ENDBRANCH   1  13
TORSDOF 6
