REMARK  5 active torsions:
REMARK  status: ('A' for Active; 'I' for Inactive)
REMARK    1  A    between atoms: C_7  and  C_1 
REMARK    2  A    between atoms: N_8  and  C_2 
REMARK    3  A    between atoms: O_11  and  C_7 
REMARK    4  A    between atoms: C_10  and  N_8 
REMARK    5  A    between atoms: C_19  and  O_11 
ROOT
ATOM      1  C   UNL d   1      -0.161  -1.159   0.117  0.00  0.00     0.105 A 
ATOM      2  C   UNL d   1       0.654   1.141   0.072  0.00  0.00     0.150 A 
ATOM      3  N   UNL d   1      -0.657   1.113   0.084  0.00  0.00    -0.339 N 
ATOM      4  HN  UNL d   1      -1.248   1.944   0.086  1.00  0.00     0.168 HD
ATOM      5  S   UNL d   1       1.385  -0.411   0.214  0.00  0.00    -0.046 SA
ATOM      6  C   UNL d   1      -1.141  -0.181   0.094  0.00  0.00     0.030 A 
ATOM      7  C   UNL d   1      -2.619  -0.344   0.024  0.00  0.00     0.070 C 
ENDROOT
BRANCH   2   8
ATOM      8  N   UNL d   1       1.425   2.250  -0.029  0.00  0.00    -0.337 N 
ATOM      9  H   UNL d   1       2.423   2.134   0.086  0.00  0.00     0.168 HD
BRANCH   8  10
ATOM     10  C   UNL d   1       1.046   3.487  -0.590  0.00  0.00     0.034 A 
ATOM     11  C   UNL d   1      -0.161   3.688  -1.276  0.00  0.00     0.031 A 
ATOM     12  C   UNL d   1      -0.525   4.947  -1.762  0.00  0.00     0.026 A 
ATOM     13  C   UNL d   1       0.315   6.033  -1.554  0.00  0.00     0.034 A 
ATOM     14  C   UNL d   1       1.514   5.867  -0.868  0.00  0.00     0.026 A 
ATOM     15 CL   UNL d   1      -0.137   7.586  -2.138  0.00  0.00    -0.084 Cl
ATOM     16  C   UNL d   1       1.874   4.603  -0.386  0.00  0.00     0.031 A 
ENDBRANCH   8  10
ENDBRANCH   2   8
BRANCH   1  17
ATOM     17  C   UNL d   1      -0.250  -2.599   0.019  0.00  0.00     0.302 C 
ATOM     18  O   UNL d   1       0.691  -3.380  -0.051  0.00  0.00    -0.259 OA
BRANCH  17  19
ATOM     19  O   UNL d   1      -1.558  -2.969  -0.086  0.00  0.00    -0.317 OA
BRANCH  19  20
ATOM     20  C   UNL d   1      -1.805  -4.273  -0.627  0.00  0.00     0.174 C 
ATOM     21  C   UNL d   1      -1.875  -4.150  -2.141  0.00  0.00     0.034 C 
ENDBRANCH  19  20
ENDBRANCH  17  19
ENDBRANCH   1  17
TORSDOF 5
