REMARK  5 active torsions:
REMARK  status: ('A' for Active; 'I' for Inactive)
REMARK       I    between atoms: N_3  and  C_1 
REMARK    1  A    between atoms: C_6  and  C_1 
REMARK    2  A    between atoms: C_2  and  N_3 
REMARK    3  A    between atoms: N_4  and  C_5 
REMARK    4  A    between atoms: C_14  and  C_6 
REMARK    5  A    between atoms: C_15  and  C_6 
ROOT
ATOM      1  C   UNL d   1       1.046  -0.163  -0.093  0.00  0.00     0.231 C 
ATOM      2  N   UNL d   1       0.512  -1.096   0.802  0.00  0.00    -0.325 N 
ATOM      3  O   UNL d   1       1.935  -0.443  -0.896  0.00  0.00    -0.272 OA
ATOM      4  H   UNL d   1      -0.499  -1.034   0.852  0.00  0.00     0.169 HD
ENDROOT
BRANCH   1   5
ATOM      5  C   UNL d   1       0.337   1.217  -0.060  0.00  0.00     0.115 C 
BRANCH   5   6
ATOM      6  C   UNL d   1       1.293   2.398   0.149  0.00  0.00    -0.045 A 
ATOM      7  C   UNL d   1       2.608   2.411  -0.341  0.00  0.00     0.008 A 
ATOM      8  C   UNL d   1       3.402   3.558  -0.245  0.00  0.00     0.001 A 
ATOM      9  C   UNL d   1       2.893   4.721   0.323  0.00  0.00     0.000 A 
ATOM     10  C   UNL d   1       1.600   4.725   0.835  0.00  0.00     0.001 A 
ATOM     11  C   UNL d   1       0.816   3.570   0.767  0.00  0.00     0.008 A 
ENDBRANCH   5   6
BRANCH   5  12
ATOM     12  C   UNL d   1      -0.499   1.405  -1.358  0.00  0.00     0.003 C 
ATOM     13  C   UNL d   1      -1.286   2.722  -1.442  0.00  0.00     0.006 C 
ATOM     14  C   UNL d   1      -2.369   2.491  -2.491  0.00  0.00     0.000 C 
ATOM     15  C   UNL d   1      -2.503   0.978  -2.628  0.00  0.00     0.000 C 
ATOM     16  C   UNL d   1      -1.626   0.381  -1.532  0.00  0.00     0.006 C 
ENDBRANCH   5  12
ENDBRANCH   1   5
BRANCH   2  17
ATOM     17  C   UNL d   1       1.028  -2.421   0.791  0.00  0.00     0.062 A 
ATOM     18  C   UNL d   1       2.252  -2.790   1.379  0.00  0.00     0.065 A 
ATOM     19  C   UNL d   1       2.728  -4.101   1.197  0.00  0.00     0.033 A 
ATOM     20  C   UNL d   1       1.996  -5.034   0.458  0.00  0.00     0.009 A 
ATOM     21  C   UNL d   1       0.779  -4.675  -0.120  0.00  0.00    -0.060 A 
ATOM     22  C   UNL d   1       0.293  -3.374   0.063  0.00  0.00     0.038 A 
ATOM     23  C   UNL d   1       0.021  -5.677  -0.938  0.00  0.00     0.048 C 
BRANCH  18  24
ATOM     24  N   UNL d   1       2.992  -1.921   2.234  0.00  0.00    -0.331 N 
ATOM     25  C   UNL d   1       2.485  -0.937   3.059  0.00  0.00     0.097 A 
ATOM     26  C   UNL d   1       3.512  -0.359   3.771  0.00  0.00     0.019 A 
ATOM     27  C   UNL d   1       4.701  -1.018   3.398  0.00  0.00     0.019 A 
ATOM     28  C   UNL d   1       4.358  -1.986   2.478  0.00  0.00     0.097 A 
ENDBRANCH  18  24
ENDBRANCH   2  17
TORSDOF 5
