REMARK  4 active torsions:
REMARK  status: ('A' for Active; 'I' for Inactive)
REMARK       I    between atoms: N_3  and  C_1 
REMARK       I    between atoms: N_5  and  C_1 
REMARK    1  A    between atoms: C_2  and  N_3 
REMARK    2  A    between atoms: C_14  and  N_5 
REMARK    3  A    between atoms: O_19  and  C_6 
REMARK    4  A    between atoms: N_9  and  C_7 
ROOT
ATOM      1  C   UNL d   1       1.006   0.074   0.292  0.00  0.00     0.325 C 
ATOM      2  N   UNL d   1       2.359   0.313   0.100  0.00  0.00    -0.306 N 
ATOM      3  N   UNL d   1       0.219   0.882  -0.514  0.00  0.00    -0.309 N 
ATOM      4  O   UNL d   1       0.554  -0.731   1.103  0.00  0.00    -0.247 OA
ATOM      5  H   UNL d   1       2.554   1.182  -0.357  0.00  0.00     0.171 HD
ATOM      6  H   UNL d   1       0.645   1.250  -1.352  0.00  0.00     0.170 HD
ENDROOT
BRANCH   2   7
ATOM      7  C   UNL d   1       3.428  -0.342   0.778  0.00  0.00     0.071 A 
ATOM      8  C   UNL d   1       3.190  -1.595   1.387  0.00  0.00     0.056 A 
ATOM      9  C   UNL d   1       4.168  -2.262   2.123  0.00  0.00     0.036 A 
ATOM     10 CL   UNL d   1       3.801  -3.763   2.881  0.00  0.00    -0.084 Cl
ATOM     11  C   UNL d   1       5.432  -1.719   2.248  0.00  0.00     0.026 A 
ATOM     12  C   UNL d   1       5.708  -0.510   1.616  0.00  0.00     0.041 A 
ATOM     13  C   UNL d   1       4.731   0.192   0.875  0.00  0.00     0.095 A 
BRANCH  13  14
ATOM     14  O   UNL d   1       5.282   1.342   0.385  0.00  0.00    -0.354 OA
ATOM     15  C   UNL d   1       4.565   2.269  -0.398  0.00  0.00     0.210 C 
ENDBRANCH  13  14
ENDBRANCH   2   7
BRANCH   3  16
ATOM     16  C   UNL d   1      -1.186   1.021  -0.403  0.00  0.00     0.036 A 
ATOM     17  C   UNL d   1      -1.908   0.596   0.710  0.00  0.00     0.032 A 
ATOM     18  C   UNL d   1      -3.297   0.767   0.784  0.00  0.00     0.031 A 
ATOM     19  C   UNL d   1      -4.028   1.391  -0.233  0.00  0.00     0.029 A 
ATOM     20  C   UNL d   1      -3.282   1.817  -1.345  0.00  0.00     0.031 A 
ATOM     21  C   UNL d   1      -1.888   1.642  -1.433  0.00  0.00     0.032 A 
BRANCH  19  22
ATOM     22  N   UNL d   1      -5.389   1.635  -0.127  0.00  0.00    -0.390 N 
ATOM     23  C   UNL d   1      -6.259   1.576  -1.296  0.00  0.00     0.149 C 
ATOM     24  C   UNL d   1      -6.077   1.581   1.160  0.00  0.00     0.149 C 
ENDBRANCH  19  22
ENDBRANCH   3  16
TORSDOF 4
