REMARK  6 active torsions:
REMARK  status: ('A' for Active; 'I' for Inactive)
REMARK    1  A    between atoms: N_6  and  C_1 
REMARK    2  A    between atoms: C_8  and  C_2 
REMARK    3  A    between atoms: C_10  and  C_3 
REMARK       I    between atoms: C_7  and  N_6 
REMARK       I    between atoms: N_9  and  C_7 
REMARK    4  A    between atoms: O_16  and  C_8 
REMARK    5  A    between atoms: C_12  and  N_9 
REMARK    6  A    between atoms: C_24  and  O_16 
ROOT
ATOM      1  C   UNL d   1      -1.687  -0.185  -0.172  0.00  0.00     0.075 C 
ATOM      2  C   UNL d   1      -1.244  -1.446   0.207  0.00  0.00     0.080 C 
ATOM      3  C   UNL d   1       0.213  -1.493   0.058  0.00  0.00     0.005 C 
ATOM      4  S   UNL d   1      -0.451   0.912  -0.540  0.00  0.00    -0.081 SA
ATOM      5  C   UNL d   1       0.749  -0.222  -0.148  0.00  0.00    -0.007 C 
ATOM      6  C   UNL d   1       2.180   0.225  -0.141  0.00  0.00     0.057 C 
ENDROOT
BRANCH   1   7
ATOM      7  N   UNL d   1      -2.945   0.351  -0.433  0.00  0.00    -0.203 NA
ATOM      8  C   UNL d   1      -3.588   1.009   0.595  0.00  0.00     0.303 C 
ATOM      9  N   UNL d   1      -4.063   0.205   1.596  0.00  0.00    -0.313 N 
ATOM     10  O   UNL d   1      -3.770   2.219   0.478  0.00  0.00    -0.253 OA
ATOM     11  H   UNL d   1      -4.090  -0.784   1.356  0.00  0.00     0.170 HD
ATOM     12  H   UNL d   1      -2.823   1.101  -1.111  0.00  0.00     0.139 HD
BRANCH   9  13
ATOM     13  C   UNL d   1      -4.831   0.641   2.697  0.00  0.00     0.037 A 
ATOM     14  C   UNL d   1      -4.827   1.962   3.158  0.00  0.00     0.053 A 
ATOM     15  C   UNL d   1      -5.651   2.337   4.219  0.00  0.00     0.036 A 
ATOM     16 CL   UNL d   1      -5.643   3.966   4.777  0.00  0.00    -0.084 Cl
ATOM     17  C   UNL d   1      -6.487   1.406   4.832  0.00  0.00     0.024 A 
ATOM     18  C   UNL d   1      -6.476   0.082   4.395  0.00  0.00     0.004 A 
ATOM     19  C   UNL d   1      -5.640  -0.301   3.342  0.00  0.00     0.029 A 
ENDBRANCH   9  13
ENDBRANCH   1   7
BRANCH   2  20
ATOM     20  C   UNL d   1      -2.172  -2.502   0.628  0.00  0.00     0.296 C 
ATOM     21  O   UNL d   1      -3.380  -2.310   0.772  0.00  0.00    -0.259 OA
BRANCH  20  22
ATOM     22  O   UNL d   1      -1.573  -3.680   0.953  0.00  0.00    -0.318 OA
BRANCH  22  23
ATOM     23  C   UNL d   1      -2.380  -4.607   1.702  0.00  0.00     0.174 C 
ATOM     24  C   UNL d   1      -3.221  -5.490   0.800  0.00  0.00     0.034 C 
ENDBRANCH  22  23
ENDBRANCH  20  22
ENDBRANCH   2  20
BRANCH   3  25
ATOM     25  C   UNL d   1       1.157  -2.615   0.107  0.00  0.00    -0.024 A 
ATOM     26  C   UNL d   1       1.958  -2.868  -1.025  0.00  0.00     0.012 A 
ATOM     27  C   UNL d   1       3.030  -3.758  -0.961  0.00  0.00     0.001 A 
ATOM     28  C   UNL d   1       3.289  -4.439   0.224  0.00  0.00     0.000 A 
ATOM     29  C   UNL d   1       2.466  -4.239   1.336  0.00  0.00     0.001 A 
ATOM     30  C   UNL d   1       1.409  -3.324   1.283  0.00  0.00     0.012 A 
ENDBRANCH   3  25
TORSDOF 6
