REMARK  7 active torsions:
REMARK  status: ('A' for Active; 'I' for Inactive)
REMARK    1  A    between atoms: N_6  and  C_1 
REMARK    2  A    between atoms: C_10  and  C_2 
REMARK       I    between atoms: C_8  and  N_6 
REMARK       I    between atoms: C_9  and  N_7 
REMARK       I    between atoms: N_13  and  C_8 
REMARK    3  A    between atoms: O_18  and  C_9 
REMARK    4  A    between atoms: O_19  and  C_10 
REMARK    5  A    between atoms: C_20  and  N_13 
REMARK    6  A    between atoms: C_21  and  O_18 
REMARK    7  A    between atoms: C_22  and  O_19 
ROOT
ATOM      1  C   UNL d   1       1.968   1.155  -0.117  0.00  0.00     0.075 A 
ATOM      2  C   UNL d   1       0.800   1.894  -0.003  0.00  0.00     0.075 A 
ATOM      3  C   UNL d   1       0.039  -0.346  -0.121  0.00  0.00     0.010 A 
ATOM      4  C   UNL d   1      -0.338   0.980   0.015  0.00  0.00    -0.023 A 
ATOM      5  S   UNL d   1       1.719  -0.528  -0.230  0.00  0.00    -0.079 SA
ATOM      6  N   UNL d   1      -2.244  -1.051  -0.449  0.00  0.00    -0.323 N 
ATOM      7  C   UNL d   1      -3.080  -1.565  -1.418  0.00  0.00     0.363 C 
ATOM      8  C   UNL d   1      -0.883  -1.535  -0.217  0.00  0.00     0.174 C 
ATOM      9  C   UNL d   1      -1.804   1.343   0.048  0.00  0.00     0.061 C 
ATOM     10  C   UNL d   1      -2.670   0.105   0.348  0.00  0.00     0.133 C 
ATOM     11  O   UNL d   1      -4.167  -1.079  -1.711  0.00  0.00    -0.238 OA
ENDROOT
BRANCH   1  12
ATOM     12  N   UNL d   1       3.289   1.505  -0.368  0.00  0.00    -0.203 NA
ATOM     13  C   UNL d   1       4.173   1.532   0.690  0.00  0.00     0.303 C 
ATOM     14  N   UNL d   1       3.919   2.485   1.647  0.00  0.00    -0.313 N 
ATOM     15  O   UNL d   1       5.153   0.796   0.632  0.00  0.00    -0.253 OA
ATOM     16  H   UNL d   1       3.297   3.220   1.339  0.00  0.00     0.170 HD
ATOM     17  H   UNL d   1       3.707   0.788  -0.962  0.00  0.00     0.139 HD
BRANCH  14  18
ATOM     18  C   UNL d   1       4.804   2.773   2.710  0.00  0.00     0.035 A 
ATOM     19  C   UNL d   1       4.861   4.089   3.182  0.00  0.00     0.029 A 
ATOM     20  C   UNL d   1       5.804   4.452   4.151  0.00  0.00     0.002 A 
ATOM     21  C   UNL d   1       6.666   3.495   4.683  0.00  0.00     0.000 A 
ATOM     22  C   UNL d   1       6.576   2.172   4.262  0.00  0.00     0.002 A 
ATOM     23  C   UNL d   1       5.648   1.812   3.279  0.00  0.00     0.029 A 
ENDBRANCH  14  18
ENDBRANCH   1  12
BRANCH   2  24
ATOM     24  C   UNL d   1       0.696   3.360  -0.052  0.00  0.00     0.296 C 
ATOM     25  O   UNL d   1      -0.378   3.947  -0.173  0.00  0.00    -0.259 OA
BRANCH  24  26
ATOM     26  O   UNL d   1       1.902   4.002  -0.015  0.00  0.00    -0.318 OA
BRANCH  26  27
ATOM     27  C   UNL d   1       1.916   5.318  -0.592  0.00  0.00     0.174 C 
ATOM     28  C   UNL d   1       1.752   6.404   0.454  0.00  0.00     0.034 C 
ENDBRANCH  26  27
ENDBRANCH  24  26
ENDBRANCH   2  24
BRANCH   7  29
ATOM     29  O   UNL d   1      -2.569  -2.677  -2.021  0.00  0.00    -0.304 OA
BRANCH  29  30
ATOM     30  C   UNL d   1      -3.316  -3.196  -3.132  0.00  0.00     0.176 C 
ATOM     31  C   UNL d   1      -4.455  -4.089  -2.676  0.00  0.00     0.034 C 
ENDBRANCH  29  30
ENDBRANCH   7  29
TORSDOF 7
