REMARK  3 active torsions:
REMARK  status: ('A' for Active; 'I' for Inactive)
REMARK    1  A    between atoms: N_7  and  C_1 
REMARK    2  A    between atoms: O_11  and  C_2 
REMARK    3  A    between atoms: C_12  and  N_9 
ROOT
ATOM      1  N   UNL d   1      -0.525  -2.723  -0.169  0.00  0.00    -0.294 N 
ATOM      2  HN  UNL d   1      -1.463  -3.065   0.040  1.00  0.00     0.187 HD
ATOM      3  N   UNL d   1       0.414  -3.459  -0.542  0.00  0.00    -0.300 N 
ATOM      4  HN  UNL d   1       1.364  -3.124  -0.700  1.00  0.00     0.187 HD
ENDROOT
BRANCH   1   5
ATOM      5  C   UNL d   1      -0.150  -1.374  -0.069  0.00  0.00     0.124 A 
ATOM      6  C   UNL d   1       1.115  -0.831  -0.016  0.00  0.00     0.187 A 
ATOM      7  N   UNL d   1       0.921   0.524   0.023  0.00  0.00    -0.274 N 
ATOM      8  C   UNL d   1       1.935   1.550   0.013  0.00  0.00     0.180 C 
ATOM      9  N   UNL d   1      -0.382   0.887   0.050  0.00  0.00    -0.299 N 
ATOM     10  C   UNL d   1      -1.043  -0.280  -0.005  0.00  0.00     0.054 A 
ATOM     11  HN  UNL d   1      -0.771   1.828   0.101  1.00  0.00     0.187 HD
ATOM     12  C   UNL d   1      -2.524  -0.300  -0.005  0.00  0.00     0.072 C 
BRANCH   6  13
ATOM     13  O   UNL d   1       2.328  -1.381  -0.017  0.00  0.00    -0.343 OA
ATOM     14  H   UNL d   1       2.174  -2.347  -0.056  0.00  0.00     0.219 HD
ENDBRANCH   6  13
ENDBRANCH   1   5
BRANCH   3  15
ATOM     15  C   UNL d   1       0.021  -4.798  -0.721  0.00  0.00     0.048 A 
ATOM     16  C   UNL d   1       0.544  -5.496  -1.818  0.00  0.00     0.032 A 
ATOM     17  C   UNL d   1       0.242  -6.844  -2.027  0.00  0.00     0.021 A 
ATOM     18  C   UNL d   1      -0.590  -7.508  -1.127  0.00  0.00     0.011 A 
ATOM     19  C   UNL d   1      -1.114  -6.837  -0.025  0.00  0.00     0.021 A 
ATOM     20 BR   UNL d   1      -0.996  -9.333  -1.398  0.00  0.00    -0.051 Br
ATOM     21  C   UNL d   1      -0.805  -5.488   0.179  0.00  0.00     0.032 A 
ENDBRANCH   3  15
TORSDOF 3
