REMARK  2 active torsions:
REMARK  status: ('A' for Active; 'I' for Inactive)
REMARK    1  A    between atoms: N_2  and  C_1 
REMARK    2  A    between atoms: N_4  and  C_3 
ROOT
ATOM      1  C   UNL d   1       1.616  -0.749  -0.706  0.00  0.00     0.131 A 
ATOM      2  C   UNL d   1       2.525   0.102  -0.034  0.00  0.00     0.063 A 
ATOM      3  C   UNL d   1       0.237  -0.482  -0.829  0.00  0.00     0.062 A 
ATOM      4  C   UNL d   1       1.930   1.253   0.527  0.00  0.00     0.033 A 
ATOM      5  C   UNL d   1      -0.284   0.660  -0.246  0.00  0.00     0.036 A 
ATOM      6  C   UNL d   1       0.555   1.527   0.437  0.00  0.00     0.026 A 
ATOM      7 CL   UNL d   1      -1.966   0.991  -0.353  0.00  0.00    -0.084 Cl
ENDROOT
BRANCH   2   8
ATOM      8  N   UNL d   1       3.886  -0.131   0.134  0.00  0.00    -0.379 N 
ATOM      9  C   UNL d   1       4.742  -0.637  -0.951  0.00  0.00     0.123 C 
ATOM     10  C   UNL d   1       5.650  -1.732  -0.388  0.00  0.00     0.020 C 
ATOM     11  C   UNL d   1       6.482  -1.205   0.780  0.00  0.00     0.003 C 
ATOM     12  C   UNL d   1       5.600  -0.538   1.834  0.00  0.00     0.020 C 
ATOM     13  C   UNL d   1       4.652   0.496   1.224  0.00  0.00     0.123 C 
ENDBRANCH   2   8
BRANCH   1  14
ATOM     14  N   UNL d   1       2.020  -2.031  -1.246  0.00  0.00    -0.113 N 
ATOM     15  O   UNL d   1       2.345  -2.916  -0.443  0.00  0.00    -0.532 OA
ATOM     16  O   UNL d   1       1.942  -2.165  -2.476  0.00  0.00    -0.532 OA
ENDBRANCH   1  14
TORSDOF 2
