REMARK  5 active torsions:
REMARK  status: ('A' for Active; 'I' for Inactive)
REMARK    1  A    between atoms: C_11  and  C_1 
REMARK    2  A    between atoms: N_16  and  C_3 
REMARK    3  A    between atoms: C_17  and  C_10 
REMARK    4  A    between atoms: C_12  and  C_18 
REMARK    5  A    between atoms: C_18  and  N_16 
ROOT
ATOM      1  N   UNL d   1      -4.450  -2.570   0.237  0.00  0.00    -0.277 N 
ATOM      2  HN  UNL d   1      -5.436  -2.738   0.434  1.00  0.00     0.189 HD
ATOM      3  C   UNL d   1      -3.900  -1.418  -0.093  0.00  0.00     0.174 A 
ATOM      4  C   UNL d   1      -2.327  -2.860  -0.043  0.00  0.00     0.158 A 
ATOM      5  O   UNL d   1      -2.548  -1.533  -0.308  0.00  0.00    -0.276 OA
ATOM      6  N   UNL d   1      -3.433  -3.506   0.266  0.00  0.00    -0.280 N 
ATOM      7  HN  UNL d   1      -3.521  -4.498   0.484  1.00  0.00     0.189 HD
ENDROOT
BRANCH   4   8
ATOM      8  C   UNL d   1      -0.903  -3.315  -0.025  0.00  0.00     0.210 C 
BRANCH   8   9
ATOM      9  N   UNL d   1      -0.399  -4.074  -1.173  0.00  0.00    -0.357 N 
ATOM     10  C   UNL d   1      -0.121  -3.320  -2.388  0.00  0.00     0.152 C 
BRANCH   9  11
ATOM     11  C   UNL d   1      -0.523  -5.432  -1.274  0.00  0.00     0.163 A 
ATOM     12  S   UNL d   1      -1.258  -6.445  -0.075  0.00  0.00    -0.029 SA
ATOM     13  C   UNL d   1      -0.931  -7.801  -1.074  0.00  0.00     0.177 A 
ATOM     14  N   UNL d   1      -0.286  -7.493  -2.180  0.00  0.00    -0.288 N 
ATOM     15  N   UNL d   1      -0.068  -6.139  -2.292  0.00  0.00    -0.279 N 
ATOM     16  HN  UNL d   1       0.017  -8.178  -2.872  1.00  0.00     0.187 HD
ATOM     17  HN  UNL d   1       0.404  -5.718  -3.092  1.00  0.00     0.189 HD
BRANCH  13  18
ATOM     18  C   UNL d   1      -1.368  -9.173  -0.685  0.00  0.00     0.440 C 
ATOM     19  F   UNL d   1      -1.988  -9.220   0.527  0.00  0.00    -0.164 F 
ATOM     20  F   UNL d   1      -2.248  -9.700  -1.579  0.00  0.00    -0.164 F 
ATOM     21  F   UNL d   1      -0.325 -10.043  -0.608  0.00  0.00    -0.164 F 
ENDBRANCH  13  18
ENDBRANCH   9  11
ENDBRANCH   8   9
ENDBRANCH   4   8
BRANCH   3  22
ATOM     22  C   UNL d   1      -4.467  -0.077  -0.175  0.00  0.00     0.018 A 
ATOM     23  C   UNL d   1      -5.766   0.172   0.297  0.00  0.00     0.028 A 
ATOM     24  C   UNL d   1      -6.316   1.468   0.281  0.00  0.00    -0.025 A 
ATOM     25  C   UNL d   1      -7.606   1.730   0.775  0.00  0.00     0.012 A 
ATOM     26  C   UNL d   1      -5.551   2.539  -0.234  0.00  0.00    -0.026 A 
ATOM     27  C   UNL d   1      -8.129   3.025   0.759  0.00  0.00     0.001 A 
ATOM     28  C   UNL d   1      -7.373   4.076   0.249  0.00  0.00     0.001 A 
ATOM     29  C   UNL d   1      -6.091   3.835  -0.246  0.00  0.00     0.012 A 
ATOM     30  C   UNL d   1      -4.262   2.287  -0.721  0.00  0.00     0.013 A 
ATOM     31  C   UNL d   1      -3.727   0.996  -0.689  0.00  0.00     0.017 A 
ENDBRANCH   3  22
TORSDOF 5
