REMARK  3 active torsions:
REMARK  status: ('A' for Active; 'I' for Inactive)
REMARK    1  A    between atoms: C_3  and  C_1 
REMARK    2  A    between atoms: N_4  and  C_2 
REMARK    3  A    between atoms: O_10  and  C_3 
REMARK       I    between atoms: C_5  and  N_4 
ROOT
ATOM      1  C   UNL d   1       1.013  -0.090  -0.220  0.00  0.00     0.065 A 
ATOM      2  C   UNL d   1       0.365   1.160  -0.242  0.00  0.00     0.051 A 
ATOM      3  C   UNL d   1       0.264  -1.276  -0.116  0.00  0.00     0.027 A 
ATOM      4  C   UNL d   1      -1.030   1.193  -0.160  0.00  0.00     0.031 A 
ATOM      5  C   UNL d   1      -1.132  -1.230  -0.035  0.00  0.00    -0.061 A 
ATOM      6  C   UNL d   1      -1.772   0.011  -0.058  0.00  0.00     0.009 A 
ATOM      7  C   UNL d   1      -1.948  -2.486   0.050  0.00  0.00     0.048 C 
ENDROOT
BRANCH   2   8
ATOM      8  N   UNL d   1       1.122   2.356  -0.317  0.00  0.00    -0.327 N 
ATOM      9  C   UNL d   1       0.675   3.569  -0.797  0.00  0.00     0.218 C 
ATOM     10  O   UNL d   1      -0.401   3.766  -1.360  0.00  0.00    -0.274 OA
ATOM     11  C   UNL d   1       1.640   4.701  -0.587  0.00  0.00     0.117 C 
ATOM     12  H   UNL d   1       2.127   2.256  -0.165  0.00  0.00     0.169 HD
ENDBRANCH   2   8
BRANCH   1  13
ATOM     13  C   UNL d   1       2.486  -0.162  -0.374  0.00  0.00     0.178 C 
ATOM     14  O   UNL d   1       3.270   0.740  -0.131  0.00  0.00    -0.646 OA
BRANCH  13  15
ATOM     15  O   UNL d   1       2.893  -1.320  -0.926  0.00  0.00    -0.773 OA
ATOM     16  H   UNL d   1       3.853  -1.198  -1.082  0.00  0.00     0.167 HD
ENDBRANCH  13  15
ENDBRANCH   1  13
TORSDOF 3
