REMARK  6 active torsions:
REMARK  status: ('A' for Active; 'I' for Inactive)
REMARK    1  A    between atoms: C_4  and  C_1 
REMARK    2  A    between atoms: C_3  and  C_2 
REMARK    3  A    between atoms: O_16  and  C_4 
REMARK    4  A    between atoms: O_10  and  C_8 
REMARK    5  A    between atoms: C_15  and  O_10 
REMARK    6  A    between atoms: N_18  and  C_17 
ROOT
ATOM      1  C   UNL d   1       0.824   1.290  -0.049  0.00  0.00     0.070 A 
ATOM      2  C   UNL d   1       1.550   0.091  -0.058  0.00  0.00     0.069 A 
ATOM      3  C   UNL d   1      -0.564   1.222  -0.059  0.00  0.00     0.108 A 
ATOM      4  N   UNL d   1      -1.270   0.070  -0.086  0.00  0.00    -0.346 N 
ATOM      5  HN  UNL d   1      -2.289   0.069  -0.120  1.00  0.00     0.167 HD
ATOM      6  C   UNL d   1      -0.564  -1.078  -0.065  0.00  0.00     0.148 A 
ATOM      7  C   UNL d   1       0.821  -1.118  -0.088  0.00  0.00     0.073 A 
ENDROOT
BRANCH   6   8
ATOM      8  O   UNL d   1      -1.231  -2.293  -0.021  0.00  0.00    -0.294 OA
BRANCH   8   9
ATOM      9  C   UNL d   1      -2.405  -2.356   0.699  0.00  0.00     0.077 A 
ATOM     10  C   UNL d   1      -3.369  -3.254   0.243  0.00  0.00     0.039 A 
ATOM     11  C   UNL d   1      -4.574  -3.404   0.939  0.00  0.00     0.026 A 
ATOM     12  C   UNL d   1      -4.845  -2.636   2.075  0.00  0.00     0.005 A 
ATOM     13  C   UNL d   1      -3.842  -1.800   2.569  0.00  0.00     0.026 A 
ATOM     14  C   UNL d   1      -2.631  -1.655   1.887  0.00  0.00     0.039 A 
BRANCH  12  15
ATOM     15  N   UNL d   1      -5.995  -2.876   2.835  0.00  0.00    -0.303 NA
ATOM     16  H   UNL d   1      -6.257  -2.096   3.431  0.00  0.00     0.124 HD
ATOM     17  H   UNL d   1      -6.779  -3.221   2.291  0.00  0.00     0.124 HD
ENDBRANCH  12  15
ENDBRANCH   8   9
ENDBRANCH   6   8
BRANCH   2  18
ATOM     18  C   UNL d   1       3.048  -0.011   0.014  0.00  0.00     0.418 C 
ATOM     19  F   UNL d   1       3.717   1.139   0.275  0.00  0.00    -0.166 F 
ATOM     20  F   UNL d   1       3.436  -0.872   1.000  0.00  0.00    -0.166 F 
ATOM     21  F   UNL d   1       3.579  -0.514  -1.133  0.00  0.00    -0.166 F 
ENDBRANCH   2  18
BRANCH   1  22
ATOM     22  C   UNL d   1       1.385   2.646   0.042  0.00  0.00     0.295 C 
ATOM     23  O   UNL d   1       0.941   3.490   0.803  0.00  0.00    -0.259 OA
BRANCH  22  24
ATOM     24  O   UNL d   1       2.354   2.816  -0.882  0.00  0.00    -0.322 OA
ATOM     25  C   UNL d   1       2.970   4.104  -0.808  0.00  0.00     0.213 C 
ENDBRANCH  22  24
ENDBRANCH   1  22
TORSDOF 6
