REMARK  6 active torsions:
REMARK  status: ('A' for Active; 'I' for Inactive)
REMARK    1  A    between atoms: N_7  and  C_1 
REMARK    2  A    between atoms: N_10  and  C_1 
REMARK    3  A    between atoms: C_2  and  N_8 
REMARK    4  A    between atoms: C_3  and  C_4 
REMARK    5  A    between atoms: C_23  and  N_10 
REMARK    6  A    between atoms: N_19  and  C_18 
ROOT
ATOM      1  N   UNL d   1       0.426  -0.792   1.050  0.00  0.00    -0.355 N 
ATOM      2  N   UNL d   1      -0.183  -3.077   2.602  0.00  0.00    -0.363 N 
ATOM      3  C   UNL d   1       0.970  -0.932   2.415  0.00  0.00     0.145 C 
ATOM      4  C   UNL d   1      -0.780  -1.592   0.756  0.00  0.00     0.145 C 
ATOM      5  C   UNL d   1       1.094  -2.401   2.848  0.00  0.00     0.144 C 
ATOM      6  C   UNL d   1      -0.604  -3.063   1.196  0.00  0.00     0.144 C 
ENDROOT
BRANCH   1   7
ATOM      7  C   UNL d   1       0.959   0.056   0.107  0.00  0.00     0.174 C 
ATOM      8  S   UNL d   1       2.584   0.083  -0.297  0.00  0.00    -0.041 SA
BRANCH   7   9
ATOM      9  N   UNL d   1       0.080   0.815  -0.621  0.00  0.00    -0.333 N 
ATOM     10  H   UNL d   1       0.425   1.120  -1.523  0.00  0.00     0.168 HD
BRANCH   9  11
ATOM     11  C   UNL d   1      -0.982   1.595  -0.098  0.00  0.00     0.034 A 
ATOM     12  C   UNL d   1      -1.133   1.858   1.261  0.00  0.00     0.032 A 
ATOM     13  C   UNL d   1      -2.145   2.716   1.719  0.00  0.00     0.031 A 
ATOM     14  C   UNL d   1      -3.039   3.343   0.848  0.00  0.00     0.029 A 
ATOM     15  C   UNL d   1      -2.873   3.057  -0.518  0.00  0.00     0.031 A 
ATOM     16  C   UNL d   1      -1.855   2.210  -0.989  0.00  0.00     0.032 A 
BRANCH  14  17
ATOM     17  N   UNL d   1      -3.999   4.239   1.289  0.00  0.00    -0.390 N 
ATOM     18  C   UNL d   1      -5.302   4.330   0.641  0.00  0.00     0.149 C 
ATOM     19  C   UNL d   1      -3.887   4.905   2.582  0.00  0.00     0.149 C 
ENDBRANCH  14  17
ENDBRANCH   9  11
ENDBRANCH   7   9
ENDBRANCH   1   7
BRANCH   2  20
ATOM     20  C   UNL d   1      -0.897  -3.802   3.520  0.00  0.00     0.125 A 
ATOM     21  N   UNL d   1      -1.472  -4.940   3.054  0.00  0.00    -0.350 N 
ATOM     22  C   UNL d   1      -2.220  -5.705   3.885  0.00  0.00     0.106 A 
ATOM     23  HN  UNL d   1      -1.342  -5.219   2.081  1.00  0.00     0.166 HD
ATOM     24  C   UNL d   1      -2.454  -5.400   5.210  0.00  0.00     0.065 A 
ATOM     25  C   UNL d   1      -1.883  -4.228   5.698  0.00  0.00     0.045 A 
ATOM     26  C   UNL d   1      -1.107  -3.419   4.858  0.00  0.00     0.078 A 
ATOM     27 CL   UNL d   1      -0.585  -1.915   5.538  0.00  0.00    -0.080 Cl
BRANCH  24  28
ATOM     28  C   UNL d   1      -3.312  -6.296   6.044  0.00  0.00     0.418 C 
ATOM     29  F   UNL d   1      -3.448  -5.870   7.329  0.00  0.00    -0.166 F 
ATOM     30  F   UNL d   1      -4.577  -6.407   5.552  0.00  0.00    -0.166 F 
ATOM     31  F   UNL d   1      -2.825  -7.564   6.118  0.00  0.00    -0.166 F 
ENDBRANCH  24  28
ENDBRANCH   2  20
TORSDOF 6
