REMARK  4 active torsions:
REMARK  status: ('A' for Active; 'I' for Inactive)
REMARK    1  A    between atoms: C_8  and  C_1 
REMARK    2  A    between atoms: C_12  and  N_2 
REMARK    3  A    between atoms: C_9  and  C_5 
REMARK    4  A    between atoms: N_7  and  C_13 
ROOT
ATOM      1  C   UNL d   1       0.728  -0.570  -0.499  0.00  0.00     0.142 C 
ATOM      2  N   UNL d   1       0.887   0.708  -0.010  0.00  0.00    -0.251 N 
ATOM      3  N   UNL d   1      -0.236   1.127   0.633  0.00  0.00    -0.289 N 
ATOM      4  HN  UNL d   1      -0.339   1.956   1.219  1.00  0.00     0.187 HD
ATOM      5  C   UNL d   1      -1.183   0.218   0.336  0.00  0.00     0.134 C 
ATOM      6  C   UNL d   1      -0.614  -0.871  -0.361  0.00  0.00     0.072 C 
ENDROOT
BRANCH   2   7
ATOM      7  C   UNL d   1       1.999   1.590  -0.089  0.00  0.00     0.057 A 
ATOM      8  C   UNL d   1       2.878   1.547  -1.167  0.00  0.00     0.034 A 
ATOM      9  C   UNL d   1       4.017   2.358  -1.172  0.00  0.00     0.032 A 
ATOM     10  C   UNL d   1       4.308   3.246  -0.121  0.00  0.00     0.045 A 
ATOM     11  C   UNL d   1       3.374   3.316   0.927  0.00  0.00     0.032 A 
ATOM     12  C   UNL d   1       2.217   2.521   0.931  0.00  0.00     0.034 A 
BRANCH  10  13
ATOM     13  N   UNL d   1       5.593   3.907  -0.079  0.00  0.00    -0.251 N 
ATOM     14  C   UNL d   1       6.288   4.108  -1.278  0.00  0.00     0.240 C 
ATOM     15  O   UNL d   1       5.753   4.306  -2.373  0.00  0.00    -0.272 OA
ATOM     16  C   UNL d   1       7.799   3.993  -1.202  0.00  0.00     0.178 C 
ATOM     17  S   UNL d   1       8.510   5.044   0.073  0.00  0.00    -0.150 SA
ATOM     18  C   UNL d   1       7.432   4.505   1.411  0.00  0.00     0.178 C 
ATOM     19  C   UNL d   1       5.977   4.666   1.028  0.00  0.00     0.240 C 
ATOM     20  O   UNL d   1       5.237   5.394   1.695  0.00  0.00    -0.272 OA
ENDBRANCH  10  13
ENDBRANCH   2   7
BRANCH   1  21
ATOM     21  C   UNL d   1       1.817  -1.438  -0.983  0.00  0.00     0.434 C 
ATOM     22  F   UNL d   1       3.058  -1.059  -0.603  0.00  0.00    -0.165 F 
ATOM     23  F   UNL d   1       1.659  -2.707  -0.526  0.00  0.00    -0.165 F 
ATOM     24  F   UNL d   1       1.816  -1.512  -2.338  0.00  0.00    -0.165 F 
ENDBRANCH   1  21
BRANCH   5  25
ATOM     25  C   UNL d   1      -2.629   0.350   0.741  0.00  0.00     0.434 C 
ATOM     26  F   UNL d   1      -2.913   1.502   1.401  0.00  0.00    -0.165 F 
ATOM     27  F   UNL d   1      -3.448   0.307  -0.345  0.00  0.00    -0.165 F 
ATOM     28  F   UNL d   1      -3.012  -0.675   1.549  0.00  0.00    -0.165 F 
ENDBRANCH   5  25
TORSDOF 4
