REMARK  4 active torsions:
REMARK  status: ('A' for Active; 'I' for Inactive)
REMARK    1  A    between atoms: C_2  and  C_1 
REMARK    2  A    between atoms: N_3  and  C_1 
REMARK    3  A    between atoms: C_8  and  N_3 
REMARK    4  A    between atoms: O_15  and  N_9 
ROOT
ATOM      1  N   UNL d   1       0.002  -2.028  -3.199  0.00  0.00    -0.376 N 
ATOM      2  H   UNL d   1       0.463  -2.936  -3.199  0.00  0.00     0.160 HD
ENDROOT
BRANCH   1   3
ATOM      3  C   UNL d   1       0.777  -1.030  -2.409  0.00  0.00     0.063 C 
ATOM      4  C   UNL d   1       2.276  -1.369  -2.595  0.00  0.00     0.044 C 
ATOM      5  C   UNL d   1       0.603   0.394  -2.970  0.00  0.00     0.044 C 
BRANCH   3   6
ATOM      6  C   UNL d   1       0.440  -1.148  -0.897  0.00  0.00     0.033 C 
ATOM      7  N   UNL d   1      -0.015  -0.107  -0.254  0.00  0.00    -0.275 N 
ATOM      8  HN  UNL d   1      -0.180   0.805  -0.681  1.00  0.00     0.193 HD
ATOM      9  C   UNL d   1       0.684  -2.480  -0.208  0.00  0.00     0.068 C 
BRANCH   7  10
ATOM     10  O   UNL d   1      -0.249  -0.400   1.096  0.00  0.00    -0.290 OA
ATOM     11  H   UNL d   1      -0.666   0.420   1.420  0.00  0.00     0.244 HD
ENDBRANCH   7  10
ENDBRANCH   3   6
ENDBRANCH   1   3
BRANCH   1  12
ATOM     12  C   UNL d   1      -1.386  -2.186  -3.116  0.00  0.00     0.031 A 
ATOM     13  C   UNL d   1      -1.928  -3.471  -3.318  0.00  0.00     0.069 A 
ATOM     14  C   UNL d   1      -3.301  -3.639  -3.285  0.00  0.00     0.107 A 
ATOM     15  O   UNL d   1      -3.965  -4.816  -3.434  0.00  0.00    -0.323 OA
ATOM     16  C   UNL d   1      -4.154  -2.583  -3.101  0.00  0.00     0.105 A 
ATOM     17  C   UNL d   1      -5.333  -4.377  -3.289  0.00  0.00     0.352 A 
ATOM     18  O   UNL d   1      -5.461  -2.953  -3.112  0.00  0.00    -0.323 OA
ATOM     19  C   UNL d   1      -3.680  -1.305  -2.943  0.00  0.00     0.042 A 
ATOM     20  C   UNL d   1      -2.290  -1.118  -2.954  0.00  0.00     0.032 A 
ENDBRANCH   1  12
TORSDOF 4
