REMARK  4 active torsions:
REMARK  status: ('A' for Active; 'I' for Inactive)
REMARK    1  A    between atoms: C_6  and  N_1 
REMARK    2  A    between atoms: N_9  and  C_6 
REMARK    3  A    between atoms: C_13  and  N_9 
REMARK    4  A    between atoms: C_14  and  C_10 
ROOT
ATOM      1  C   UNL d   1       3.047   0.691  -0.830  0.00  0.00     0.230 C 
ENDROOT
BRANCH   1   2
ATOM      2  N   UNL d   1       1.755   0.461  -0.235  0.00  0.00    -0.267 N 
ATOM      3  C   UNL d   1       0.968   1.444   0.296  0.00  0.00     0.262 A 
ATOM      4  C   UNL d   1      -0.309   0.820   0.640  0.00  0.00     0.048 A 
ATOM      5  O   UNL d   1       1.218   2.624   0.454  0.00  0.00    -0.267 OA
ATOM      6  C   UNL d   1      -1.440   1.349   1.230  0.00  0.00     0.018 A 
ATOM      7  C   UNL d   1      -0.248  -0.498   0.227  0.00  0.00     0.048 A 
ATOM      8  C   UNL d   1      -2.534   0.492   1.397  0.00  0.00     0.001 A 
ATOM      9  C   UNL d   1      -2.473  -0.851   0.972  0.00  0.00     0.001 A 
ATOM     10  C   UNL d   1      -1.316  -1.362   0.375  0.00  0.00     0.018 A 
ATOM     11  C   UNL d   1       1.066  -0.710  -0.378  0.00  0.00     0.262 A 
ATOM     12  O   UNL d   1       1.393  -1.735  -0.944  0.00  0.00    -0.267 OA
ENDBRANCH   1   2
BRANCH   1  13
ATOM     13  N   UNL d   1       3.910   1.284   0.177  0.00  0.00    -0.276 NA
ATOM     14  H   UNL d   1       3.439   2.085   0.599  0.00  0.00     0.129 HD
BRANCH  13  15
ATOM     15  C   UNL d   1       5.229   1.612  -0.165  0.00  0.00     0.009 A 
ATOM     16  C   UNL d   1       5.866   2.632   0.555  0.00  0.00     0.024 A 
ATOM     17  C   UNL d   1       7.215   2.944   0.351  0.00  0.00     0.009 A 
ATOM     18  C   UNL d   1       7.987   2.217  -0.561  0.00  0.00    -0.055 A 
ATOM     19  C   UNL d   1       7.364   1.183  -1.270  0.00  0.00     0.009 A 
ATOM     20  C   UNL d   1       6.009   0.878  -1.064  0.00  0.00     0.024 A 
BRANCH  18  21
ATOM     21  C   UNL d   1       9.468   2.497  -0.749  0.00  0.00     0.010 C 
ATOM     22  C   UNL d   1       9.721   3.914  -1.268  0.00  0.00     0.015 C 
ATOM     23  C   UNL d   1      10.248   2.249   0.547  0.00  0.00     0.015 C 
ENDBRANCH  18  21
ENDBRANCH  13  15
ENDBRANCH   1  13
TORSDOF 4
