REMARK  5 active torsions:
REMARK  status: ('A' for Active; 'I' for Inactive)
REMARK    1  A    between atoms: C_14  and  C_1 
REMARK    2  A    between atoms: O_8  and  C_3 
REMARK    3  A    between atoms: N_7  and  C_10 
REMARK    4  A    between atoms: C_9  and  O_8 
REMARK    5  A    between atoms: C_11  and  C_9 
ROOT
ATOM      1  C   UNL d   1      -1.583   2.667   0.136  0.00  0.00     0.077 C 
ATOM      2  C   UNL d   1      -0.091   2.616   0.327  0.00  0.00     0.262 C 
ATOM      3  C   UNL d   1      -2.268   1.505   0.064  0.00  0.00     0.108 C 
ATOM      4  N   UNL d   1       0.543   1.380   0.206  0.00  0.00    -0.312 N 
ATOM      5  C   UNL d   1      -1.580   0.204   0.090  0.00  0.00     0.026 A 
ATOM      6  C   UNL d   1      -0.174   0.168   0.114  0.00  0.00     0.057 A 
ATOM      7  O   UNL d   1       0.545   3.654   0.520  0.00  0.00    -0.267 OA
ATOM      8  C   UNL d   1       0.494  -1.062   0.065  0.00  0.00    -0.030 A 
ATOM      9  C   UNL d   1       1.992   1.409   0.189  0.00  0.00     0.133 C 
ATOM     10  C   UNL d   1      -2.302  -0.999   0.050  0.00  0.00     0.017 A 
ATOM     11  C   UNL d   1       2.757   0.113  -0.011  0.00  0.00     0.025 C 
ATOM     12  C   UNL d   1      -1.641  -2.222   0.003  0.00  0.00     0.002 A 
ATOM     13  C   UNL d   1       1.984  -1.179   0.146  0.00  0.00     0.042 C 
ATOM     14  C   UNL d   1      -0.252  -2.252   0.003  0.00  0.00     0.009 A 
ENDROOT
BRANCH   3  15
ATOM     15  O   UNL d   1      -3.640   1.459  -0.277  0.00  0.00    -0.273 OA
BRANCH  15  16
ATOM     16  C   UNL d   1      -4.506   1.765   0.729  0.00  0.00     0.298 C 
ATOM     17  O   UNL d   1      -4.299   1.698   1.928  0.00  0.00    -0.259 OA
BRANCH  16  18
ATOM     18  C   UNL d   1      -5.769   2.299   0.130  0.00  0.00     0.042 A 
ATOM     19  C   UNL d   1      -6.078   2.162  -1.230  0.00  0.00     0.053 A 
ATOM     20  C   UNL d   1      -7.207   2.810  -1.751  0.00  0.00     0.103 A 
ATOM     21  C   UNL d   1      -8.040   3.576  -0.925  0.00  0.00     0.036 A 
ATOM     22  C   UNL d   1      -7.749   3.674   0.435  0.00  0.00     0.003 A 
ATOM     23  C   UNL d   1      -6.623   3.037   0.959  0.00  0.00     0.018 A 
BRANCH  20  24
ATOM     24  N   UNL d   1      -7.493   2.711  -3.184  0.00  0.00    -0.116 N 
ATOM     25  O   UNL d   1      -6.984   1.776  -3.812  0.00  0.00    -0.532 OA
ATOM     26  O   UNL d   1      -8.224   3.585  -3.682  0.00  0.00    -0.532 OA
ENDBRANCH  20  24
ENDBRANCH  16  18
ENDBRANCH  15  16
ENDBRANCH   3  15
BRANCH   1  27
ATOM     27  C   UNL d   1      -2.244   3.984  -0.068  0.00  0.00    -0.018 A 
ATOM     28  C   UNL d   1      -2.059   5.042   0.836  0.00  0.00     0.012 A 
ATOM     29  C   UNL d   1      -2.663   6.287   0.612  0.00  0.00     0.001 A 
ATOM     30  C   UNL d   1      -3.478   6.479  -0.500  0.00  0.00     0.000 A 
ATOM     31  C   UNL d   1      -3.669   5.443  -1.408  0.00  0.00     0.001 A 
ATOM     32  C   UNL d   1      -3.039   4.214  -1.204  0.00  0.00     0.012 A 
ENDBRANCH   1  27
TORSDOF 5
