REMARK  2 active torsions:
REMARK  status: ('A' for Active; 'I' for Inactive)
REMARK    1  A    between atoms: N_8  and  C_3 
REMARK    2  A    between atoms: C_9  and  C_4 
ROOT
ATOM      1  N   UNL d   1       1.385  -0.522  -0.004  0.00  0.00    -0.321 N 
ATOM      2  HN  UNL d   1       2.327  -0.907  -0.068  1.00  0.00     0.169 HD
ATOM      3  C   UNL d   1       0.280  -1.242   0.027  0.00  0.00     0.164 A 
ATOM      4  C   UNL d   1       1.084   0.844   0.062  0.00  0.00     0.123 A 
ATOM      5  N   UNL d   1      -0.201   1.200   0.179  0.00  0.00    -0.309 N 
ATOM      6  HN  UNL d   1      -0.561   2.151   0.256  1.00  0.00     0.176 HD
ATOM      7  S   UNL d   1      -1.096  -0.194   0.173  0.00  0.00     0.024 SA
ENDROOT
BRANCH   4   8
ATOM      8  C   UNL d   1       2.155   1.846  -0.013  0.00  0.00     0.009 A 
ATOM      9  C   UNL d   1       3.494   1.456  -0.165  0.00  0.00     0.015 A 
ATOM     10  C   UNL d   1       4.509   2.414  -0.262  0.00  0.00     0.001 A 
ATOM     11  C   UNL d   1       4.198   3.771  -0.208  0.00  0.00     0.000 A 
ATOM     12  C   UNL d   1       2.874   4.175  -0.051  0.00  0.00     0.001 A 
ATOM     13  C   UNL d   1       1.860   3.219   0.046  0.00  0.00     0.015 A 
ENDBRANCH   4   8
BRANCH   3  14
ATOM     14  N   UNL d   1       0.240  -2.606  -0.068  0.00  0.00    -0.369 N 
ATOM     15  C   UNL d   1      -0.986  -3.377   0.026  0.00  0.00     0.151 C 
ATOM     16  C   UNL d   1       1.481  -3.360   0.003  0.00  0.00     0.151 C 
ENDBRANCH   3  14
TORSDOF 2
