REMARK  9 active torsions:
REMARK  status: ('A' for Active; 'I' for Inactive)
REMARK    1  A    between atoms: C_13  and  N_1 
REMARK    2  A    between atoms: S_11  and  C_2 
REMARK    3  A    between atoms: C_17  and  C_3 
REMARK    4  A    between atoms: N_8  and  C_12 
REMARK    5  A    between atoms: C_22  and  S_11 
REMARK    6  A    between atoms: C_15  and  O_19 
REMARK    7  A    between atoms: C_16  and  C_22 
REMARK    8  A    between atoms: C_21  and  C_16 
REMARK    9  A    between atoms: O_19  and  C_17 
ROOT
ATOM      1  N   UNL d   1      -0.330  -1.282  -0.112  0.00  0.00    -0.277 N 
ATOM      2  C   UNL d   1       0.912  -0.653  -0.134  0.00  0.00     0.168 A 
ATOM      3  C   UNL d   1      -1.233  -0.220  -0.045  0.00  0.00     0.129 A 
ATOM      4  N   UNL d   1       0.774   0.646  -0.019  0.00  0.00    -0.278 N 
ATOM      5  HN  UNL d   1       1.530   1.330   0.020  1.00  0.00     0.189 HD
ATOM      6  N   UNL d   1      -0.562   0.917   0.039  0.00  0.00    -0.285 N 
ATOM      7  HN  UNL d   1      -0.975   1.845   0.133  1.00  0.00     0.188 HD
ENDROOT
BRANCH   2   8
ATOM      8  S   UNL d   1       2.415  -1.446  -0.483  0.00  0.00    -0.084 SA
BRANCH   8   9
ATOM      9  C   UNL d   1       3.617  -0.091  -0.342  0.00  0.00     0.166 C 
BRANCH   9  10
ATOM     10  C   UNL d   1       5.036  -0.627  -0.496  0.00  0.00     0.169 C 
ATOM     11  O   UNL d   1       5.318  -1.826  -0.516  0.00  0.00    -0.291 OA
BRANCH  10  12
ATOM     12  C   UNL d   1       6.173   0.340  -0.573  0.00  0.00     0.011 A 
ATOM     13  C   UNL d   1       7.462  -0.145  -0.287  0.00  0.00     0.017 A 
ATOM     14  C   UNL d   1       8.580   0.689  -0.371  0.00  0.00     0.037 A 
ATOM     15  C   UNL d   1       8.410   2.023  -0.753  0.00  0.00     0.102 A 
ATOM     16  C   UNL d   1       7.131   2.523  -1.038  0.00  0.00     0.037 A 
ATOM     17  C   UNL d   1       6.013   1.681  -0.943  0.00  0.00     0.017 A 
BRANCH  15  18
ATOM     18  N   UNL d   1       9.583   2.901  -0.867  0.00  0.00    -0.116 N 
ATOM     19  O   UNL d   1       9.393   4.066  -1.244  0.00  0.00    -0.532 OA
ATOM     20  O   UNL d   1      10.690   2.426  -0.581  0.00  0.00    -0.532 OA
ENDBRANCH  15  18
ENDBRANCH  10  12
ENDBRANCH   9  10
ENDBRANCH   8   9
ENDBRANCH   2   8
BRANCH   1  21
ATOM     21  C   UNL d   1      -0.599  -2.683  -0.138  0.00  0.00     0.043 A 
ATOM     22  C   UNL d   1       0.235  -3.573   0.560  0.00  0.00     0.030 A 
ATOM     23  C   UNL d   1       0.028  -4.952   0.482  0.00  0.00     0.002 A 
ATOM     24  C   UNL d   1      -1.024  -5.453  -0.277  0.00  0.00     0.000 A 
ATOM     25  C   UNL d   1      -1.874  -4.577  -0.947  0.00  0.00     0.002 A 
ATOM     26  C   UNL d   1      -1.666  -3.194  -0.883  0.00  0.00     0.030 A 
ENDBRANCH   1  21
BRANCH   3  27
ATOM     27  C   UNL d   1      -2.718  -0.310   0.092  0.00  0.00     0.254 C 
BRANCH  27  28
ATOM     28  O   UNL d   1      -3.280   0.100  -1.159  0.00  0.00    -0.343 OA
BRANCH  28  29
ATOM     29  C   UNL d   1      -4.638   0.264  -1.207  0.00  0.00     0.076 A 
ATOM     30  C   UNL d   1      -5.152   0.921  -2.322  0.00  0.00    -0.018 A 
ATOM     31  C   UNL d   1      -6.530   1.099  -2.498  0.00  0.00    -0.043 A 
ATOM     32  C   UNL d   1      -4.377   1.529  -3.448  0.00  0.00     0.042 A 
ATOM     33  C   UNL d   1      -6.838   1.817  -3.771  0.00  0.00     0.040 A 
ATOM     34  C   UNL d   1      -7.443   0.630  -1.558  0.00  0.00    -0.055 A 
ATOM     35  C   UNL d   1      -5.458   2.105  -4.373  0.00  0.00     0.009 A 
ATOM     36  C   UNL d   1      -6.932  -0.014  -0.424  0.00  0.00     0.010 A 
ATOM     37  C   UNL d   1      -8.921   0.802  -1.748  0.00  0.00     0.049 C 
ATOM     38  C   UNL d   1      -5.547  -0.197  -0.250  0.00  0.00     0.038 A 
ENDBRANCH  28  29
ENDBRANCH  27  28
ENDBRANCH   3  27
TORSDOF 9
