REMARK  6 active torsions:
REMARK  status: ('A' for Active; 'I' for Inactive)
REMARK    1  A    between atoms: C_2  and  C_1 
REMARK       I    between atoms: N_4  and  C_2 
REMARK       I    between atoms: C_3  and  N_5 
REMARK    2  A    between atoms: C_14  and  C_3 
REMARK    3  A    between atoms: N_5  and  N_4 
REMARK    4  A    between atoms: C_10  and  C_16 
REMARK    5  A    between atoms: S_11  and  C_14 
REMARK    6  A    between atoms: C_16  and  S_11 
ROOT
ATOM      1  C   UNL d   1       2.265   5.217  -0.057  0.00  0.00     0.245 C 
ATOM      2  N   UNL d   1       1.687   5.381  -1.302  0.00  0.00    -0.267 N 
ATOM      3  O   UNL d   1       1.613   4.924   0.946  0.00  0.00    -0.271 OA
ATOM      4  H   UNL d   1       2.138   5.905  -2.053  0.00  0.00     0.190 HD
ENDROOT
BRANCH   1   5
ATOM      5  C   UNL d   1       3.769   5.370  -0.026  0.00  0.00     0.178 C 
BRANCH   5   6
ATOM      6  S   UNL d   1       4.273   7.111  -0.033  0.00  0.00    -0.155 SA
BRANCH   6   7
ATOM      7  C   UNL d   1       3.621   7.616   1.596  0.00  0.00     0.113 C 
BRANCH   7   8
ATOM      8  C   UNL d   1       3.986   9.053   1.911  0.00  0.00    -0.038 A 
ATOM      9  C   UNL d   1       5.166   9.422   2.624  0.00  0.00    -0.019 A 
ATOM     10  C   UNL d   1       5.403  10.799   2.880  0.00  0.00    -0.025 A 
ATOM     11  C   UNL d   1       6.131   8.502   3.098  0.00  0.00     0.013 A 
ATOM     12  C   UNL d   1       6.546  11.201   3.592  0.00  0.00     0.012 A 
ATOM     13  C   UNL d   1       4.498  11.766   2.417  0.00  0.00     0.012 A 
ATOM     14  C   UNL d   1       7.470  10.267   4.053  0.00  0.00     0.001 A 
ATOM     15  C   UNL d   1       7.264   8.918   3.803  0.00  0.00     0.001 A 
ATOM     16  C   UNL d   1       3.365  11.399   1.701  0.00  0.00     0.001 A 
ATOM     17  C   UNL d   1       3.111  10.056   1.450  0.00  0.00     0.009 A 
ENDBRANCH   7   8
ENDBRANCH   6   7
ENDBRANCH   5   6
ENDBRANCH   1   5
BRANCH   2  18
ATOM     18  N   UNL d   1       0.301   5.225  -1.385  0.00  0.00    -0.263 N 
ATOM     19  C   UNL d   1      -0.396   5.758  -2.444  0.00  0.00     0.271 C 
ATOM     20  O   UNL d   1       0.176   6.370  -3.346  0.00  0.00    -0.266 OA
ATOM     21  H   UNL d   1      -0.146   4.758  -0.596  0.00  0.00     0.190 HD
BRANCH  19  22
ATOM     22  C   UNL d   1      -1.889   5.585  -2.463  0.00  0.00     0.055 A 
ATOM     23  C   UNL d   1      -2.652   4.830  -1.555  0.00  0.00     0.049 A 
ATOM     24 CL   UNL d   1      -2.001   3.912  -0.240  0.00  0.00    -0.083 Cl
ATOM     25  C   UNL d   1      -4.049   4.769  -1.683  0.00  0.00     0.025 A 
ATOM     26  C   UNL d   1      -4.704   5.445  -2.712  0.00  0.00     0.002 A 
ATOM     27  C   UNL d   1      -3.962   6.183  -3.625  0.00  0.00     0.001 A 
ATOM     28  C   UNL d   1      -2.570   6.253  -3.502  0.00  0.00     0.019 A 
ENDBRANCH  19  22
ENDBRANCH   2  18
TORSDOF 6
