REMARK  9 active torsions:
REMARK  status: ('A' for Active; 'I' for Inactive)
REMARK    1  A    between atoms: C_2  and  C_1 
REMARK    2  A    between atoms: C_5  and  O_10 
REMARK       I    between atoms: C_6  and  N_7 
REMARK    3  A    between atoms: C_23  and  C_6 
REMARK    4  A    between atoms: N_7  and  C_18 
REMARK    5  A    between atoms: C_8  and  C_24 
REMARK    6  A    between atoms: O_21  and  C_8 
REMARK    7  A    between atoms: O_10  and  C_11 
REMARK    8  A    between atoms: S_17  and  C_23 
REMARK    9  A    between atoms: C_24  and  S_17 
ROOT
ATOM      1  N   UNL d   1      -0.482  -5.142   2.659  0.00  0.00    -0.344 N 
ATOM      2  HN  UNL d   1      -1.447  -5.195   2.984  1.00  0.00     0.167 HD
ATOM      3  C   UNL d   1       0.307  -4.084   2.950  0.00  0.00     0.148 A 
ATOM      4  C   UNL d   1       1.376  -6.108   1.414  0.00  0.00     0.050 A 
ATOM      5  C   UNL d   1       0.073  -6.127   1.913  0.00  0.00     0.119 A 
ATOM      6  C   UNL d   1       1.609  -3.960   2.497  0.00  0.00     0.059 A 
ATOM      7  C   UNL d   1       2.148  -4.991   1.726  0.00  0.00     0.035 A 
ENDROOT
BRANCH   3   8
ATOM      8  O   UNL d   1      -0.182  -3.022   3.702  0.00  0.00    -0.294 OA
BRANCH   8   9
ATOM      9  C   UNL d   1      -1.182  -3.265   4.614  0.00  0.00     0.078 A 
ATOM     10  C   UNL d   1      -1.272  -4.435   5.372  0.00  0.00     0.053 A 
ATOM     11  C   UNL d   1      -2.327  -4.621   6.276  0.00  0.00     0.050 A 
ATOM     12  C   UNL d   1      -3.250  -3.581   6.466  0.00  0.00     0.016 A 
ATOM     13  C   UNL d   1      -3.129  -2.389   5.750  0.00  0.00     0.004 A 
ATOM     14  C   UNL d   1      -2.098  -2.233   4.823  0.00  0.00     0.037 A 
BRANCH  11  15
ATOM     15  C   UNL d   1      -2.481  -5.926   7.014  0.00  0.00     0.417 C 
ATOM     16  F   UNL d   1      -1.548  -6.861   6.675  0.00  0.00    -0.166 F 
ATOM     17  F   UNL d   1      -3.689  -6.512   6.787  0.00  0.00    -0.166 F 
ATOM     18  F   UNL d   1      -2.384  -5.779   8.364  0.00  0.00    -0.166 F 
ENDBRANCH  11  15
ENDBRANCH   8   9
ENDBRANCH   3   8
BRANCH   4  19
ATOM     19  N   UNL d   1       1.824  -7.190   0.624  0.00  0.00    -0.325 N 
ATOM     20  C   UNL d   1       3.051  -7.308   0.001  0.00  0.00     0.231 C 
ATOM     21  O   UNL d   1       3.973  -6.488   0.040  0.00  0.00    -0.272 OA
ATOM     22  H   UNL d   1       1.144  -7.924   0.445  0.00  0.00     0.169 HD
BRANCH  20  23
ATOM     23  C   UNL d   1       3.192  -8.541  -0.875  0.00  0.00     0.177 C 
BRANCH  23  24
ATOM     24  S   UNL d   1       2.674  -8.165  -2.582  0.00  0.00    -0.149 SA
BRANCH  24  25
ATOM     25  C   UNL d   1       3.744  -6.737  -2.983  0.00  0.00     0.184 C 
BRANCH  25  26
ATOM     26  C   UNL d   1       5.217  -7.071  -2.928  0.00  0.00     0.149 C 
ATOM     27  O   UNL d   1       5.835  -7.583  -3.852  0.00  0.00    -0.649 OA
BRANCH  26  28
ATOM     28  O   UNL d   1       5.818  -6.771  -1.752  0.00  0.00    -0.776 OA
ATOM     29  H   UNL d   1       5.219  -6.408  -1.054  0.00  0.00     0.167 HD
ENDBRANCH  26  28
ENDBRANCH  25  26
ENDBRANCH  24  25
ENDBRANCH  23  24
ENDBRANCH  20  23
ENDBRANCH   4  19
TORSDOF 9
