REMARK  3 active torsions:
REMARK  status: ('A' for Active; 'I' for Inactive)
REMARK    1  A    between atoms: C_7  and  C_8 
REMARK       I    between atoms: N_10  and  C_7 
REMARK    2  A    between atoms: C_12  and  N_10 
REMARK    3  A    between atoms: C_11  and  C_12 
ROOT
ATOM      1  C   UNL d   1      -3.478  -1.809   0.097  0.00  0.00     0.251 C 
ATOM      2  N   UNL d   1      -3.456  -3.185   0.196  0.00  0.00    -0.353 N 
ATOM      3  O   UNL d   1      -2.483  -1.136  -0.153  0.00  0.00    -0.268 OA
ATOM      4  H   UNL d   1      -4.326  -3.688   0.076  0.00  0.00     0.163 HD
ENDROOT
BRANCH   1   5
ATOM      5  C   UNL d   1      -4.797  -1.142   0.275  0.00  0.00     0.033 A 
ATOM      6  C   UNL d   1      -4.992   0.103  -0.348  0.00  0.00     0.039 A 
ATOM      7  C   UNL d   1      -6.216   0.756  -0.142  0.00  0.00     0.048 A 
ATOM      8  S   UNL d   1      -6.802   2.268  -0.726  0.00  0.00     0.002 SA
ATOM      9  C   UNL d   1      -7.231   0.219   0.654  0.00  0.00     0.063 A 
ATOM     10  N   UNL d   1      -8.268   2.124   0.063  0.00  0.00    -0.061 NA
ATOM     11  N   UNL d   1      -8.374   1.004   0.757  0.00  0.00    -0.292 N 
ATOM     12  HN  UNL d   1      -9.196   0.745   1.302  1.00  0.00     0.183 HD
ATOM     13  C   UNL d   1      -7.012  -1.029   1.273  0.00  0.00     0.033 A 
ATOM     14  C   UNL d   1      -5.795  -1.698   1.081  0.00  0.00     0.019 A 
ENDBRANCH   1   5
BRANCH   2  15
ATOM     15  C   UNL d   1      -2.232  -3.893  -0.107  0.00  0.00     0.163 C 
BRANCH  15  16
ATOM     16  C   UNL d   1      -2.350  -5.388   0.049  0.00  0.00    -0.019 A 
ATOM     17  C   UNL d   1      -3.182  -6.173  -0.766  0.00  0.00     0.042 A 
ATOM     18 CL   UNL d   1      -4.202  -5.470  -1.972  0.00  0.00    -0.084 Cl
ATOM     19  C   UNL d   1      -3.210  -7.565  -0.630  0.00  0.00     0.024 A 
ATOM     20  C   UNL d   1      -2.405  -8.194   0.318  0.00  0.00     0.002 A 
ATOM     21  C   UNL d   1      -1.579  -7.431   1.139  0.00  0.00     0.001 A 
ATOM     22  C   UNL d   1      -1.554  -6.041   1.008  0.00  0.00     0.010 A 
ENDBRANCH  15  16
ENDBRANCH   2  15
TORSDOF 3
