REMARK  5 active torsions:
REMARK  status: ('A' for Active; 'I' for Inactive)
REMARK    1  A    between atoms: C_14  and  C_3 
REMARK    2  A    between atoms: C_9  and  C_6 
REMARK    3  A    between atoms: C_11  and  O_13 
REMARK    4  A    between atoms: C_18  and  C_12 
REMARK    5  A    between atoms: O_13  and  C_14 
ROOT
ATOM      1  N   UNL d   1       1.298   0.112  -0.010  0.00  0.00    -0.322 N 
ATOM      2  HN  UNL d   1       2.308   0.236   0.058  1.00  0.00     0.169 HD
ATOM      3  C   UNL d   1       0.328   1.079  -0.087  0.00  0.00     0.128 A 
ATOM      4  N   UNL d   1      -0.922   0.607  -0.135  0.00  0.00    -0.245 N 
ATOM      5  HN  UNL d   1      -1.796   1.132  -0.176  1.00  0.00     0.196 HD
ATOM      6  C   UNL d   1       0.614  -1.021  -0.045  0.00  0.00     0.171 A 
ATOM      7  O   UNL d   1      -0.744  -0.770  -0.115  0.00  0.00    -0.218 OA
ENDROOT
BRANCH   3   8
ATOM      8  C   UNL d   1       0.622   2.540  -0.032  0.00  0.00     0.254 C 
BRANCH   8   9
ATOM      9  O   UNL d   1       0.748   3.110  -1.343  0.00  0.00    -0.342 OA
BRANCH   9  10
ATOM     10  C   UNL d   1       0.974   4.462  -1.392  0.00  0.00     0.091 A 
ATOM     11  C   UNL d   1       1.787   4.955  -2.427  0.00  0.00     0.069 A 
ATOM     12  C   UNL d   1       2.014   6.327  -2.567  0.00  0.00     0.050 A 
ATOM     13 CL   UNL d   1       2.549   3.890  -3.555  0.00  0.00    -0.081 Cl
ATOM     14  C   UNL d   1       1.418   7.214  -1.678  0.00  0.00     0.035 A 
ATOM     15  C   UNL d   1       0.596   6.744  -0.657  0.00  0.00     0.026 A 
ATOM     16 CL   UNL d   1       1.677   8.906  -1.848  0.00  0.00    -0.084 Cl
ATOM     17  C   UNL d   1       0.368   5.372  -0.518  0.00  0.00     0.040 A 
ENDBRANCH   9  10
ENDBRANCH   8   9
ENDBRANCH   3   8
BRANCH   6  18
ATOM     18  C   UNL d   1       1.123  -2.348  -0.022  0.00  0.00     0.059 C 
ATOM     19  C   UNL d   1       2.443  -2.591  -0.031  0.00  0.00     0.015 C 
BRANCH  19  20
ATOM     20  C   UNL d   1       3.041  -3.934  -0.054  0.00  0.00    -0.036 A 
ATOM     21  C   UNL d   1       2.430  -5.019  -0.697  0.00  0.00     0.011 A 
ATOM     22  C   UNL d   1       3.057  -6.267  -0.744  0.00  0.00     0.001 A 
ATOM     23  C   UNL d   1       4.309  -6.442  -0.159  0.00  0.00     0.000 A 
ATOM     24  C   UNL d   1       4.934  -5.369   0.473  0.00  0.00     0.001 A 
ATOM     25  C   UNL d   1       4.305  -4.122   0.522  0.00  0.00     0.011 A 
ENDBRANCH  19  20
ENDBRANCH   6  18
TORSDOF 5
