REMARK  5 active torsions:
REMARK  status: ('A' for Active; 'I' for Inactive)
REMARK       I    between atoms: N_2  and  C_1 
REMARK    1  A    between atoms: C_4  and  C_1 
REMARK    2  A    between atoms: C_8  and  N_2 
REMARK    3  A    between atoms: S_3  and  C_4 
REMARK    4  A    between atoms: C_11  and  S_3 
REMARK    5  A    between atoms: C_5  and  C_6 
ROOT
ATOM      1  C   UNL d   1      -1.177  -0.914  -0.915  0.00  0.00     0.236 C 
ATOM      2  N   UNL d   1       0.189  -1.159  -0.843  0.00  0.00    -0.326 N 
ATOM      3  O   UNL d   1      -1.973  -1.608  -1.546  0.00  0.00    -0.272 OA
ATOM      4  H   UNL d   1       0.703  -0.725  -0.086  0.00  0.00     0.169 HD
ENDROOT
BRANCH   1   5
ATOM      5  C   UNL d   1      -1.649   0.246  -0.037  0.00  0.00     0.140 C 
ATOM      6  C   UNL d   1      -3.162   0.428  -0.128  0.00  0.00     0.031 C 
BRANCH   5   7
ATOM      7  S   UNL d   1      -0.744   1.801  -0.447  0.00  0.00    -0.116 SA
BRANCH   7   8
ATOM      8  C   UNL d   1      -1.114   1.969  -2.185  0.00  0.00     0.001 A 
ATOM      9  C   UNL d   1      -2.258   2.662  -2.596  0.00  0.00     0.020 A 
ATOM     10  C   UNL d   1      -2.560   2.777  -3.957  0.00  0.00     0.025 A 
ATOM     11  C   UNL d   1      -1.708   2.217  -4.903  0.00  0.00     0.034 A 
ATOM     12  C   UNL d   1      -0.549   1.553  -4.508  0.00  0.00     0.025 A 
ATOM     13 CL   UNL d   1      -2.084   2.353  -6.578  0.00  0.00    -0.084 Cl
ATOM     14  C   UNL d   1      -0.247   1.435  -3.146  0.00  0.00     0.020 A 
ENDBRANCH   7   8
ENDBRANCH   5   7
ENDBRANCH   1   5
BRANCH   2  15
ATOM     15  C   UNL d   1       0.879  -2.085  -1.647  0.00  0.00     0.034 A 
ATOM     16  C   UNL d   1       0.414  -2.480  -2.900  0.00  0.00     0.030 A 
ATOM     17  C   UNL d   1       1.117  -3.423  -3.654  0.00  0.00     0.010 A 
ATOM     18  C   UNL d   1       2.293  -4.019  -3.168  0.00  0.00    -0.051 A 
ATOM     19  C   UNL d   1       2.768  -3.578  -1.921  0.00  0.00     0.010 A 
ATOM     20  C   UNL d   1       2.083  -2.606  -1.179  0.00  0.00     0.030 A 
BRANCH  18  21
ATOM     21  C   UNL d   1       2.999  -5.109  -3.993  0.00  0.00    -0.024 C 
ATOM     22  C   UNL d   1       4.197  -5.756  -3.264  0.00  0.00     0.019 C 
ATOM     23  C   UNL d   1       2.006  -6.246  -4.325  0.00  0.00     0.019 C 
ATOM     24  C   UNL d   1       3.525  -4.498  -5.308  0.00  0.00     0.019 C 
ENDBRANCH  18  21
ENDBRANCH   2  15
TORSDOF 5
