REMARK  10 active torsions:
REMARK  status: ('A' for Active; 'I' for Inactive)
REMARK    1  A    between atoms: C_4  and  C_1 
REMARK    2  A    between atoms: C_2  and  C_3 
REMARK    3  A    between atoms: C_5  and  N_8 
REMARK    4  A    between atoms: N_10  and  C_5 
REMARK    5  A    between atoms: N_8  and  C_7 
REMARK       I    between atoms: C_9  and  N_14 
REMARK    6  A    between atoms: C_22  and  C_9 
REMARK    7  A    between atoms: N_14  and  N_10 
REMARK    8  A    between atoms: C_25  and  C_22 
REMARK    9  A    between atoms: O_30  and  C_23 
REMARK   10  A    between atoms: C_24  and  C_25 
ROOT
ATOM      1  C   UNL d   1      -0.656  -3.463  -3.054  0.00  0.00     0.191 C 
ATOM      2  S   UNL d   1      -1.631  -4.591  -3.823  0.00  0.00    -0.039 SA
ENDROOT
BRANCH   1   3
ATOM      3  N   UNL d   1      -0.462  -2.299  -3.700  0.00  0.00    -0.332 N 
ATOM      4  H   UNL d   1      -1.065  -2.274  -4.518  0.00  0.00     0.168 HD
BRANCH   3   5
ATOM      5  C   UNL d   1       0.347  -1.155  -3.570  0.00  0.00     0.035 C 
ATOM      6  C   UNL d   1       1.404  -1.013  -2.684  0.00  0.00     0.045 C 
ATOM      7  C   UNL d   1       2.038   0.228  -2.494  0.00  0.00     0.050 C 
ATOM      8  C   UNL d   1       1.719   1.296  -3.341  0.00  0.00     0.032 C 
ATOM      9  C   UNL d   1       0.754   1.142  -4.343  0.00  0.00     0.050 C 
ATOM     10  C   UNL d   1       0.057  -0.079  -4.426  0.00  0.00     0.045 C 
BRANCH   7  11
ATOM     11  C   UNL d   1       3.001   0.397  -1.341  0.00  0.00     0.417 C 
ATOM     12  F   UNL d   1       3.480   1.665  -1.221  0.00  0.00    -0.166 F 
ATOM     13  F   UNL d   1       4.085  -0.415  -1.438  0.00  0.00    -0.166 F 
ATOM     14  F   UNL d   1       2.411   0.114  -0.150  0.00  0.00    -0.166 F 
ENDBRANCH   7  11
BRANCH   9  15
ATOM     15  C   UNL d   1       0.436   2.267  -5.300  0.00  0.00     0.417 C 
ATOM     16  F   UNL d   1       1.231   3.360  -5.135  0.00  0.00    -0.166 F 
ATOM     17  F   UNL d   1       0.576   1.895  -6.601  0.00  0.00    -0.166 F 
ATOM     18  F   UNL d   1      -0.844   2.710  -5.171  0.00  0.00    -0.166 F 
ENDBRANCH   9  15
ENDBRANCH   3   5
ENDBRANCH   1   3
BRANCH   1  19
ATOM     19  N   UNL d   1      -0.182  -3.819  -1.843  0.00  0.00    -0.274 N 
ATOM     20  H   UNL d   1      -0.541  -4.716  -1.515  0.00  0.00     0.189 HD
BRANCH  19  21
ATOM     21  N   UNL d   1       0.218  -2.959  -0.837  0.00  0.00    -0.268 N 
ATOM     22  C   UNL d   1       1.207  -3.276   0.066  0.00  0.00     0.236 C 
ATOM     23  O   UNL d   1       1.535  -2.450   0.922  0.00  0.00    -0.272 OA
ATOM     24  H   UNL d   1      -0.235  -2.051  -0.754  0.00  0.00     0.190 HD
BRANCH  22  25
ATOM     25  C   UNL d   1       1.853  -4.648   0.006  0.00  0.00     0.109 C 
BRANCH  25  26
ATOM     26  C   UNL d   1       2.689  -4.913  -1.245  0.00  0.00     0.048 C 
BRANCH  26  27
ATOM     27  C   UNL d   1       3.238  -6.324  -1.242  0.00  0.00    -0.058 A 
ATOM     28  C   UNL d   1       2.676  -7.312  -2.064  0.00  0.00     0.010 A 
ATOM     29  C   UNL d   1       3.159  -8.623  -2.023  0.00  0.00     0.037 A 
ATOM     30  C   UNL d   1       4.199  -8.950  -1.162  0.00  0.00     0.065 A 
ATOM     31  C   UNL d   1       4.773  -7.986  -0.342  0.00  0.00     0.037 A 
ATOM     32  C   UNL d   1       4.293  -6.674  -0.386  0.00  0.00     0.010 A 
BRANCH  30  33
ATOM     33  O   UNL d   1       4.631 -10.244  -1.149  0.00  0.00    -0.361 OA
ATOM     34  H   UNL d   1       5.348 -10.323  -0.498  0.00  0.00     0.217 HD
ENDBRANCH  30  33
ENDBRANCH  26  27
ENDBRANCH  25  26
ENDBRANCH  22  25
ENDBRANCH  19  21
ENDBRANCH   1  19
TORSDOF 10
