REMARK  4 active torsions:
REMARK  status: ('A' for Active; 'I' for Inactive)
REMARK    1  A    between atoms: O_13  and  C_1 
REMARK    2  A    between atoms: O_15  and  C_3 
REMARK    3  A    between atoms: O_14  and  C_4 
REMARK    4  A    between atoms: C_10  and  C_7 
ROOT
ATOM      1  C   UNL d   1      -3.564   0.551  -1.172  0.00  0.00     0.125 C 
ATOM      2  N   UNL d   1      -2.634   0.070  -3.535  0.00  0.00    -0.191 NA
ATOM      3  N   UNL d   1      -6.079   1.072  -0.898  0.00  0.00    -0.191 NA
ATOM      4  C   UNL d   1      -3.050   0.290  -2.476  0.00  0.00     0.110 C 
ATOM      5  C   UNL d   1      -4.951   0.842  -1.036  0.00  0.00     0.110 C 
ATOM      6  C   UNL d   1      -2.788   0.523  -0.071  0.00  0.00     0.045 C 
ENDROOT
BRANCH   6   7
ATOM      7  C   UNL d   1      -1.353   0.219  -0.068  0.00  0.00    -0.029 A 
ATOM      8  C   UNL d   1      -0.420   1.252  -0.080  0.00  0.00     0.051 A 
ATOM      9  C   UNL d   1       0.953   0.976  -0.100  0.00  0.00     0.105 A 
ATOM     10  C   UNL d   1       1.399  -0.357  -0.078  0.00  0.00     0.135 A 
ATOM     11  C   UNL d   1       0.452  -1.402   0.018  0.00  0.00     0.105 A 
ATOM     12  C   UNL d   1      -0.917  -1.107  -0.026  0.00  0.00     0.051 A 
BRANCH   9  13
ATOM     13  O   UNL d   1       1.724   2.109  -0.055  0.00  0.00    -0.353 OA
ATOM     14  C   UNL d   1       2.935   2.080  -0.798  0.00  0.00     0.210 C 
ENDBRANCH   9  13
BRANCH  10  15
ATOM     15  O   UNL d   1       2.747  -0.598   0.021  0.00  0.00    -0.351 OA
ATOM     16  C   UNL d   1       3.271  -1.491  -0.963  0.00  0.00     0.210 C 
ENDBRANCH  10  15
BRANCH  11  17
ATOM     17  O   UNL d   1       0.935  -2.678   0.184  0.00  0.00    -0.353 OA
ATOM     18  C   UNL d   1       0.032  -3.651   0.695  0.00  0.00     0.210 C 
ENDBRANCH  11  17
ENDBRANCH   6   7
TORSDOF 4
