REMARK  6 active torsions:
REMARK  status: ('A' for Active; 'I' for Inactive)
REMARK    1  A    between atoms: C_20  and  C_5 
REMARK    2  A    between atoms: S_13  and  C_7 
REMARK    3  A    between atoms: C_10  and  S_13 
REMARK    4  A    between atoms: C_21  and  C_17 
REMARK    5  A    between atoms: O_25  and  C_20 
REMARK    6  A    between atoms: C_32  and  O_25 
ROOT
ATOM      1  C   UNL d   1       1.533  -0.851  -0.025  0.00  0.00     0.161 A 
ATOM      2  N   UNL d   1       0.835   0.326  -0.172  0.00  0.00    -0.221 N 
ATOM      3  N   UNL d   1       0.917  -2.060   0.080  0.00  0.00    -0.333 N 
ATOM      4  HN  UNL d   1       1.462  -2.920   0.140  1.00  0.00     0.168 HD
ATOM      5  C   UNL d   1       2.847  -0.422   0.028  0.00  0.00     0.167 A 
ATOM      6  N   UNL d   1       1.656   1.383  -0.315  0.00  0.00    -0.013 NA
ATOM      7  C   UNL d   1      -0.382  -2.095   0.100  0.00  0.00     0.092 A 
ATOM      8  N   UNL d   1       2.897   0.937  -0.195  0.00  0.00    -0.275 N 
ATOM      9  HN  UNL d   1       3.744   1.502  -0.257  1.00  0.00     0.184 HD
ATOM     10  C   UNL d   1      -1.229  -0.841   0.064  0.00  0.00     0.026 A 
ATOM     11  C   UNL d   1      -0.557   0.385  -0.102  0.00  0.00     0.069 A 
ATOM     12  C   UNL d   1      -2.620  -0.808   0.211  0.00  0.00     0.017 A 
ATOM     13  C   UNL d   1      -1.229   1.610  -0.140  0.00  0.00     0.032 A 
ATOM     14  C   UNL d   1      -3.301   0.418   0.186  0.00  0.00     0.001 A 
ATOM     15  C   UNL d   1      -2.612   1.619   0.008  0.00  0.00     0.002 A 
ENDROOT
BRANCH   7  16
ATOM     16  S   UNL d   1      -1.222  -3.642   0.201  0.00  0.00    -0.026 SA
BRANCH  16  17
ATOM     17  C   UNL d   1      -0.018  -4.830  -0.218  0.00  0.00     0.210 A 
ATOM     18  O   UNL d   1       1.289  -4.573  -0.522  0.00  0.00    -0.267 OA
ATOM     19  C   UNL d   1       1.803  -5.817  -0.766  0.00  0.00     0.175 A 
ATOM     20  N   UNL d   1       0.895  -6.761  -0.646  0.00  0.00    -0.277 N 
ATOM     21  N   UNL d   1      -0.284  -6.122  -0.293  0.00  0.00    -0.272 N 
ATOM     22  HN  UNL d   1       1.031  -7.762  -0.785  1.00  0.00     0.189 HD
ATOM     23  HN  UNL d   1      -1.186  -6.565  -0.123  1.00  0.00     0.189 HD
BRANCH  19  24
ATOM     24  C   UNL d   1       3.217  -5.878  -1.117  0.00  0.00     0.019 A 
ATOM     25  C   UNL d   1       3.976  -4.709  -1.212  0.00  0.00     0.033 A 
ATOM     26  C   UNL d   1       5.323  -4.793  -1.517  0.00  0.00     0.088 A 
ATOM     27  N   UNL d   1       5.954  -5.956  -1.764  0.00  0.00    -0.375 N 
ATOM     28  C   UNL d   1       5.206  -7.078  -1.691  0.00  0.00     0.088 A 
ATOM     29  HN  UNL d   1       6.947  -5.988  -1.994  1.00  0.00     0.164 HD
ATOM     30  C   UNL d   1       3.857  -7.092  -1.369  0.00  0.00     0.033 A 
ENDBRANCH  19  24
ENDBRANCH  16  17
ENDBRANCH   7  16
BRANCH   5  31
ATOM     31  C   UNL d   1       4.007  -1.225   0.353  0.00  0.00     0.315 C 
ATOM     32  O   UNL d   1       3.941  -2.357   0.815  0.00  0.00    -0.257 OA
BRANCH  31  33
ATOM     33  O   UNL d   1       5.181  -0.556   0.154  0.00  0.00    -0.317 OA
BRANCH  33  34
ATOM     34  C   UNL d   1       6.330  -1.193   0.725  0.00  0.00     0.175 C 
ATOM     35  C   UNL d   1       6.319  -1.002   2.233  0.00  0.00     0.034 C 
ENDBRANCH  33  34
ENDBRANCH  31  33
ENDBRANCH   5  31
TORSDOF 6
