REMARK  1 active torsions:
REMARK  status: ('A' for Active; 'I' for Inactive)
REMARK       I    between atoms: N_3  and  C_1 
REMARK       I    between atoms: N_4  and  C_1 
REMARK    1  A    between atoms: C_2  and  N_3 
ROOT
ATOM      1  C   UNL d   1       1.042  -0.186   0.122  0.00  0.00     0.323 C 
ATOM      2  N   UNL d   1       0.447   0.365  -0.991  0.00  0.00    -0.307 N 
ATOM      3  N   UNL d   1       0.201  -0.244   1.228  0.00  0.00    -0.330 N 
ATOM      4  O   UNL d   1       2.218  -0.533   0.185  0.00  0.00    -0.247 OA
ATOM      5  O   UNL d   1      -1.066  -2.143   2.930  0.00  0.00    -0.388 OA
ATOM      6  C   UNL d   1      -1.250  -0.453   1.158  0.00  0.00     0.153 C 
ATOM      7  C   UNL d   1       0.775  -0.592   2.529  0.00  0.00     0.153 C 
ATOM      8  C   UNL d   1       0.367  -2.011   2.931  0.00  0.00     0.187 C 
ATOM      9  C   UNL d   1      -1.601  -1.876   1.623  0.00  0.00     0.187 C 
ATOM     10  H   UNL d   1      -0.302   1.009  -0.795  0.00  0.00     0.170 HD
ENDROOT
BRANCH   2  11
ATOM     11  C   UNL d   1       1.094   0.545  -2.216  0.00  0.00     0.054 A 
ATOM     12  C   UNL d   1       0.757   1.614  -3.132  0.00  0.00     0.008 A 
ATOM     13  C   UNL d   1       1.585   1.597  -4.259  0.00  0.00     0.017 A 
ATOM     14  C   UNL d   1      -0.200   2.656  -3.032  0.00  0.00     0.015 A 
ATOM     15  C   UNL d   1       1.486   2.580  -5.264  0.00  0.00     0.020 A 
ATOM     16  S   UNL d   1       2.680   0.271  -4.219  0.00  0.00    -0.099 SA
ATOM     17  C   UNL d   1       0.547   3.603  -5.125  0.00  0.00     0.001 A 
ATOM     18  C   UNL d   1      -0.291   3.640  -4.021  0.00  0.00     0.001 A 
ATOM     19  C   UNL d   1       2.112  -0.244  -2.697  0.00  0.00     0.081 A 
ENDBRANCH   2  11
TORSDOF 1
