REMARK  5 active torsions:
REMARK  status: ('A' for Active; 'I' for Inactive)
REMARK    1  A    between atoms: N_2  and  S_1 
REMARK    2  A    between atoms: C_3  and  S_1 
REMARK    3  A    between atoms: C_4  and  N_2 
REMARK    4  A    between atoms: C_5  and  C_3 
REMARK       I    between atoms: N_6  and  C_5 
REMARK    5  A    between atoms: C_8  and  N_6 
ROOT
ATOM      1  S   UNL d   1       0.422  -0.177   0.115  0.00  0.00     0.222 S 
ATOM      2  O   UNL d   1       1.819  -0.236   0.499  0.00  0.00    -0.211 OA
ATOM      3  O   UNL d   1      -0.362   1.017   0.320  0.00  0.00    -0.211 OA
ENDROOT
BRANCH   1   4
ATOM      4  N   UNL d   1      -0.297  -1.506   0.893  0.00  0.00    -0.184 NA
ATOM      5  H   UNL d   1       0.413  -1.974   1.464  0.00  0.00     0.146 HD
BRANCH   4   6
ATOM      6  C   UNL d   1      -1.540  -1.269   1.569  0.00  0.00     0.044 A 
ATOM      7  C   UNL d   1      -2.779  -1.448   0.929  0.00  0.00     0.059 A 
ATOM      8  C   UNL d   1      -3.966  -1.128   1.589  0.00  0.00     0.068 A 
ATOM      9 CL   UNL d   1      -2.890  -2.126  -0.655  0.00  0.00    -0.082 Cl
ATOM     10  C   UNL d   1      -3.909  -0.630   2.884  0.00  0.00     0.118 A 
ATOM     11  C   UNL d   1      -2.694  -0.462   3.539  0.00  0.00     0.044 A 
ATOM     12  F   UNL d   1      -5.046  -0.309   3.515  0.00  0.00    -0.206 F 
ATOM     13  C   UNL d   1      -1.504  -0.780   2.881  0.00  0.00     0.029 A 
ENDBRANCH   4   6
ENDBRANCH   1   4
BRANCH   1  14
ATOM     14  C   UNL d   1       0.286  -0.643  -1.577  0.00  0.00     0.260 C 
BRANCH  14  15
ATOM     15  C   UNL d   1       1.061   0.228  -2.522  0.00  0.00     0.237 C 
ATOM     16  N   UNL d   1       1.185   1.572  -2.247  0.00  0.00    -0.325 N 
ATOM     17  H   UNL d   1       0.596   1.986  -1.522  0.00  0.00     0.169 HD
ATOM     18  O   UNL d   1       1.436  -0.284  -3.587  0.00  0.00    -0.272 OA
BRANCH  16  19
ATOM     19  C   UNL d   1       1.827   2.516  -3.099  0.00  0.00     0.056 A 
ATOM     20  C   UNL d   1       1.427   3.865  -3.057  0.00  0.00     0.063 A 
ATOM     21  C   UNL d   1       1.986   4.806  -3.925  0.00  0.00     0.068 A 
ATOM     22 CL   UNL d   1       0.176   4.388  -1.983  0.00  0.00    -0.082 Cl
ATOM     23  C   UNL d   1       2.976   4.410  -4.812  0.00  0.00     0.118 A 
ATOM     24  C   UNL d   1       3.420   3.095  -4.845  0.00  0.00     0.044 A 
ATOM     25  F   UNL d   1       3.511   5.307  -5.650  0.00  0.00    -0.206 F 
ATOM     26  C   UNL d   1       2.846   2.150  -3.991  0.00  0.00     0.034 A 
ENDBRANCH  16  19
ENDBRANCH  14  15
ENDBRANCH   1  14
TORSDOF 5
