REMARK  4 active torsions:
REMARK  status: ('A' for Active; 'I' for Inactive)
REMARK    1  A    between atoms: N_6  and  N_1 
REMARK    2  A    between atoms: C_8  and  C_4 
REMARK    3  A    between atoms: C_15  and  C_8 
REMARK    4  A    between atoms: C_10  and  C_9 
ROOT
ATOM      1  N   UNL d   1       0.959   0.499  -0.117  0.00  0.00    -0.202 N 
ATOM      2  C   UNL d   1      -0.146   1.353  -0.065  0.00  0.00     0.285 A 
ATOM      3  C   UNL d   1       0.700  -0.866  -0.058  0.00  0.00     0.168 A 
ATOM      4  C   UNL d   1      -1.400   0.550  -0.076  0.00  0.00     0.078 A 
ATOM      5  S   UNL d   1      -1.043  -1.127  -0.166  0.00  0.00    -0.053 SA
ATOM      6  S   UNL d   1       1.736  -2.162   0.142  0.00  0.00    -0.050 SA
ATOM      7  O   UNL d   1      -0.145   2.577  -0.008  0.00  0.00    -0.265 OA
ENDROOT
BRANCH   1   8
ATOM      8  N   UNL d   1       2.190   1.113   0.019  0.00  0.00    -0.300 N 
ATOM      9  C   UNL d   1       3.226   0.656  -0.606  0.00  0.00     0.120 C 
ATOM     10  HN  UNL d   1       2.282   1.934   0.618  1.00  0.00     0.186 HD
BRANCH   9  11
ATOM     11  C   UNL d   1       4.536   1.344  -0.486  0.00  0.00     0.003 A 
ATOM     12  C   UNL d   1       5.709   0.816  -1.044  0.00  0.00     0.047 A 
ATOM     13  C   UNL d   1       6.909   1.533  -0.959  0.00  0.00     0.048 A 
ATOM     14 CL   UNL d   1       5.758  -0.711  -1.850  0.00  0.00    -0.083 Cl
ATOM     15  C   UNL d   1       6.937   2.772  -0.321  0.00  0.00     0.035 A 
ATOM     16  C   UNL d   1       5.781   3.300   0.246  0.00  0.00     0.025 A 
ATOM     17 CL   UNL d   1       8.408   3.660  -0.242  0.00  0.00    -0.084 Cl
ATOM     18  C   UNL d   1       4.583   2.587   0.167  0.00  0.00     0.016 A 
ENDBRANCH   9  11
ENDBRANCH   1   8
BRANCH   4  19
ATOM     19  C   UNL d   1      -2.613   1.120   0.012  0.00  0.00     0.036 C 
BRANCH  19  20
ATOM     20  C   UNL d   1      -3.869   0.369   0.060  0.00  0.00    -0.034 A 
ATOM     21  C   UNL d   1      -4.399  -0.029   1.294  0.00  0.00     0.018 A 
ATOM     22  C   UNL d   1      -5.557  -0.816   1.353  0.00  0.00    -0.061 A 
ATOM     23  C   UNL d   1      -6.108  -1.280   2.669  0.00  0.00     0.048 C 
ATOM     24  C   UNL d   1      -6.187  -1.191   0.160  0.00  0.00     0.007 A 
ATOM     25  C   UNL d   1      -5.672  -0.783  -1.071  0.00  0.00     0.001 A 
ATOM     26  C   UNL d   1      -4.514  -0.005  -1.122  0.00  0.00     0.011 A 
ENDBRANCH  19  20
ENDBRANCH   4  19
TORSDOF 4
