REMARK  0 active torsions:
REMARK  status: ('A' for Active; 'I' for Inactive)
ROOT
ATOM      1  C   UNL d   1      -2.390   0.003   0.017  0.00  0.00     0.176 A 
ATOM      2  N   UNL d   1      -1.561   1.130   0.009  0.00  0.00    -0.331 N 
ATOM      3  N   UNL d   1      -1.562  -1.125   0.009  0.00  0.00    -0.331 N 
ATOM      4  C   UNL d   1      -0.236   0.697  -0.019  0.00  0.00     0.061 A 
ATOM      5  C   UNL d   1      -0.237  -0.694  -0.019  0.00  0.00     0.061 A 
ATOM      6  C   UNL d   1       0.924  -1.428  -0.059  0.00  0.00     0.039 A 
ATOM      7  C   UNL d   1       0.925   1.430  -0.059  0.00  0.00     0.039 A 
ATOM      8  C   UNL d   1       2.138  -0.715  -0.110  0.00  0.00    -0.054 A 
ATOM      9  C   UNL d   1       2.139   0.716  -0.110  0.00  0.00    -0.054 A 
ATOM     10  S   UNL d   1      -4.038   0.004   0.023  0.00  0.00    -0.041 SA
ATOM     11  C   UNL d   1       3.429  -1.488  -0.185  0.00  0.00     0.049 C 
ATOM     12  C   UNL d   1       3.430   1.487  -0.184  0.00  0.00     0.049 C 
ATOM     13  H   UNL d   1      -1.880   2.086   0.003  0.00  0.00     0.168 HD
ATOM     14  H   UNL d   1      -1.883  -2.081   0.003  0.00  0.00     0.168 HD
ENDROOT
TORSDOF 0
