REMARK  3 active torsions:
REMARK  status: ('A' for Active; 'I' for Inactive)
REMARK    1  A    between atoms: C_8  and  C_4 
REMARK    2  A    between atoms: C_10  and  C_7 
REMARK    3  A    between atoms: O_16  and  C_11 
ROOT
ATOM      1  N   UNL d   1       1.498   0.371  -0.081  0.00  0.00    -0.337 N 
ATOM      2  HN  UNL d   1       2.325   0.966  -0.126  1.00  0.00     0.167 HD
ATOM      3  N   UNL d   1       0.203  -1.462  -0.012  0.00  0.00    -0.307 N 
ATOM      4  C   UNL d   1       1.450  -0.927  -0.058  0.00  0.00     0.119 A 
ATOM      5  C   UNL d   1       0.172   0.765  -0.030  0.00  0.00     0.103 A 
ATOM      6  C   UNL d   1      -0.701  -0.448  -0.009  0.00  0.00     0.273 A 
ATOM      7  C   UNL d   1      -0.216   2.046   0.004  0.00  0.00     0.046 C 
ATOM      8  O   UNL d   1      -1.911  -0.548  -0.011  0.00  0.00    -0.266 OA
ATOM      9  H   UNL d   1      -0.066  -2.428  -0.054  0.00  0.00     0.170 HD
ENDROOT
BRANCH   7  10
ATOM     10  C   UNL d   1      -1.600   2.502   0.095  0.00  0.00    -0.034 A 
ATOM     11  C   UNL d   1      -2.179   2.715   1.350  0.00  0.00     0.014 A 
ATOM     12  C   UNL d   1      -3.513   3.123   1.454  0.00  0.00     0.037 A 
ATOM     13  C   UNL d   1      -4.274   3.324   0.302  0.00  0.00     0.068 A 
ATOM     14  C   UNL d   1      -3.685   3.147  -0.951  0.00  0.00     0.037 A 
ATOM     15  C   UNL d   1      -2.356   2.728  -1.058  0.00  0.00     0.014 A 
BRANCH  13  16
ATOM     16  O   UNL d   1      -5.580   3.731   0.287  0.00  0.00    -0.356 OA
ATOM     17  C   UNL d   1      -6.362   3.305   1.399  0.00  0.00     0.210 C 
ENDBRANCH  13  16
ENDBRANCH   7  10
BRANCH   4  18
ATOM     18  C   UNL d   1       2.624  -1.810  -0.084  0.00  0.00     0.008 A 
ATOM     19  C   UNL d   1       3.801  -1.349  -0.683  0.00  0.00     0.015 A 
ATOM     20  C   UNL d   1       4.941  -2.152  -0.685  0.00  0.00     0.001 A 
ATOM     21  C   UNL d   1       4.909  -3.410  -0.081  0.00  0.00     0.000 A 
ATOM     22  C   UNL d   1       3.736  -3.872   0.515  0.00  0.00     0.001 A 
ATOM     23  C   UNL d   1       2.590  -3.075   0.513  0.00  0.00     0.015 A 
ENDBRANCH   4  18
TORSDOF 3
