REMARK  6 active torsions:
REMARK  status: ('A' for Active; 'I' for Inactive)
REMARK    1  A    between atoms: N_4  and  S_1 
REMARK    2  A    between atoms: C_6  and  S_1 
REMARK    3  A    between atoms: N_3  and  C_2 
REMARK    4  A    between atoms: C_5  and  N_4 
REMARK    5  A    between atoms: C_7  and  C_9 
REMARK    6  A    between atoms: C_8  and  C_10 
ROOT
ATOM      1  S   UNL d   1       1.075  -0.144   0.099  0.00  0.00     0.246 S 
ATOM      2  O   UNL d   1       0.355  -0.618  -1.066  0.00  0.00    -0.206 OA
ATOM      3  O   UNL d   1       2.519  -0.060   0.114  0.00  0.00    -0.206 OA
ENDROOT
BRANCH   1   4
ATOM      4  N   UNL d   1       0.568  -1.090   1.426  0.00  0.00    -0.179 NA
ATOM      5  H   UNL d   1      -0.450  -0.994   1.531  0.00  0.00     0.146 HD
BRANCH   4   6
ATOM      6  C   UNL d   1       0.953  -2.483   1.337  0.00  0.00     0.056 A 
ATOM      7  C   UNL d   1       0.175  -3.473   0.716  0.00  0.00     0.125 A 
ATOM      8  C   UNL d   1       0.592  -4.814   0.672  0.00  0.00     0.044 A 
ATOM      9  C   UNL d   1       1.816  -5.182   1.241  0.00  0.00    -0.060 A 
ATOM     10  C   UNL d   1       2.621  -4.188   1.813  0.00  0.00     0.009 A 
ATOM     11  C   UNL d   1       2.243  -6.622   1.241  0.00  0.00     0.048 C 
ATOM     12  C   UNL d   1       2.198  -2.850   1.850  0.00  0.00     0.027 A 
BRANCH   7  13
ATOM     13  N   UNL d   1      -1.123  -3.146   0.153  0.00  0.00    -0.114 N 
ATOM     14  O   UNL d   1      -1.834  -2.363   0.801  0.00  0.00    -0.532 OA
ATOM     15  O   UNL d   1      -1.435  -3.682  -0.921  0.00  0.00    -0.532 OA
ENDBRANCH   7  13
ENDBRANCH   4   6
ENDBRANCH   1   4
BRANCH   1  16
ATOM     16  C   UNL d   1       0.420   1.459   0.526  0.00  0.00     0.076 A 
ATOM     17  C   UNL d   1       1.241   2.391   1.172  0.00  0.00     0.041 A 
ATOM     18  C   UNL d   1       0.757   3.679   1.457  0.00  0.00     0.050 A 
ATOM     19  C   UNL d   1      -0.558   4.008   1.081  0.00  0.00     0.032 A 
ATOM     20  C   UNL d   1      -1.386   3.084   0.421  0.00  0.00     0.050 A 
ATOM     21  C   UNL d   1      -0.882   1.803   0.142  0.00  0.00     0.041 A 
BRANCH  18  22
ATOM     22  C   UNL d   1       1.621   4.713   2.145  0.00  0.00     0.417 C 
ATOM     23  F   UNL d   1       2.866   4.261   2.458  0.00  0.00    -0.166 F 
ATOM     24  F   UNL d   1       1.804   5.824   1.382  0.00  0.00    -0.166 F 
ATOM     25  F   UNL d   1       1.073   5.145   3.314  0.00  0.00    -0.166 F 
ENDBRANCH  18  22
BRANCH  20  26
ATOM     26  C   UNL d   1      -2.791   3.485   0.026  0.00  0.00     0.417 C 
ATOM     27  F   UNL d   1      -3.476   2.505  -0.621  0.00  0.00    -0.166 F 
ATOM     28  F   UNL d   1      -3.548   3.825   1.105  0.00  0.00    -0.166 F 
ATOM     29  F   UNL d   1      -2.807   4.567  -0.800  0.00  0.00    -0.166 F 
ENDBRANCH  20  26
ENDBRANCH   1  16
TORSDOF 6
