REMARK  9 active torsions:
REMARK  status: ('A' for Active; 'I' for Inactive)
REMARK    1  A    between atoms: C_9  and  C_1 
REMARK    2  A    between atoms: C_7  and  C_2 
REMARK    3  A    between atoms: S_3  and  C_8 
REMARK    4  A    between atoms: C_13  and  S_3 
REMARK    5  A    between atoms: C_15  and  C_6 
REMARK    6  A    between atoms: C_8  and  C_10 
REMARK    7  A    between atoms: O_14  and  C_9 
REMARK    8  A    between atoms: N_24  and  C_10 
REMARK    9  A    between atoms: N_11  and  O_14 
ROOT
ATOM      1  C   UNL d   1       1.447  -0.387   0.795  0.00  0.00     0.318 C 
ATOM      2  O   UNL d   1       1.554   0.203   1.861  0.00  0.00    -0.257 OA
ENDROOT
BRANCH   1   3
ATOM      3  C   UNL d   1       0.197  -0.449   0.055  0.00  0.00     0.083 A 
ATOM      4  C   UNL d   1      -0.825   0.488   0.131  0.00  0.00     0.176 A 
ATOM      5  O   UNL d   1      -1.884   0.086  -0.628  0.00  0.00    -0.304 OA
ATOM      6  C   UNL d   1      -1.563  -1.093  -1.223  0.00  0.00     0.087 A 
ATOM      7  C   UNL d   1      -0.265  -1.429  -0.883  0.00  0.00     0.058 A 
BRANCH   4   8
ATOM      8  C   UNL d   1      -0.998   1.785   0.825  0.00  0.00     0.440 C 
ATOM      9  F   UNL d   1       0.118   2.228   1.464  0.00  0.00    -0.164 F 
ATOM     10  F   UNL d   1      -1.335   2.778  -0.040  0.00  0.00    -0.164 F 
ATOM     11  F   UNL d   1      -1.978   1.738   1.761  0.00  0.00    -0.164 F 
ENDBRANCH   4   8
BRANCH   6  12
ATOM     12  C   UNL d   1      -2.627  -1.750  -1.984  0.00  0.00    -0.002 A 
ATOM     13  C   UNL d   1      -2.355  -2.892  -2.753  0.00  0.00     0.016 A 
ATOM     14  C   UNL d   1      -3.392  -3.623  -3.344  0.00  0.00     0.024 A 
ATOM     15  C   UNL d   1      -4.712  -3.211  -3.182  0.00  0.00     0.034 A 
ATOM     16  C   UNL d   1      -5.000  -2.050  -2.473  0.00  0.00     0.024 A 
ATOM     17 CL   UNL d   1      -5.990  -4.160  -3.833  0.00  0.00    -0.084 Cl
ATOM     18  C   UNL d   1      -3.962  -1.320  -1.884  0.00  0.00     0.016 A 
ENDBRANCH   6  12
ENDBRANCH   1   3
BRANCH   1  19
ATOM     19  O   UNL d   1       2.471  -1.077   0.180  0.00  0.00    -0.193 OA
BRANCH  19  20
ATOM     20  N   UNL d   1       3.670  -0.339   0.321  0.00  0.00    -0.245 N 
ATOM     21  C   UNL d   1       4.729  -1.080   0.203  0.00  0.00     0.110 C 
ATOM     22  HN  UNL d   1       3.698   0.665   0.497  1.00  0.00     0.196 HD
BRANCH  21  23
ATOM     23  C   UNL d   1       6.066  -0.354   0.183  0.00  0.00     0.218 C 
BRANCH  23  24
ATOM     24  S   UNL d   1       6.774  -0.468  -1.451  0.00  0.00     0.158 S 
ATOM     25  O   UNL d   1       7.085  -1.874  -1.667  0.00  0.00    -0.227 OA
ATOM     26  O   UNL d   1       5.891   0.220  -2.373  0.00  0.00    -0.227 OA
BRANCH  24  27
ATOM     27  C   UNL d   1       8.363   0.454  -1.416  0.00  0.00     0.053 C 
ATOM     28  C   UNL d   1       9.340  -0.189  -0.423  0.00  0.00     0.031 C 
ATOM     29  C   UNL d   1       8.972   0.389  -2.830  0.00  0.00     0.031 C 
ATOM     30  C   UNL d   1       8.137   1.923  -1.042  0.00  0.00     0.031 C 
ENDBRANCH  24  27
ENDBRANCH  23  24
ENDBRANCH  21  23
BRANCH  21  31
ATOM     31  N   UNL d   1       4.729  -2.452   0.148  0.00  0.00    -0.387 N 
ATOM     32  H   UNL d   1       5.519  -2.932  -0.282  0.00  0.00     0.157 HD
ATOM     33  H   UNL d   1       3.833  -2.914   0.042  0.00  0.00     0.157 HD
ENDBRANCH  21  31
ENDBRANCH  19  20
ENDBRANCH   1  19
TORSDOF 9
