REMARK  4 active torsions:
REMARK  status: ('A' for Active; 'I' for Inactive)
REMARK    1  A    between atoms: O_5  and  C_1 
REMARK       I    between atoms: C_3  and  N_15 
REMARK       I    between atoms: N_16  and  C_3 
REMARK    2  A    between atoms: C_10  and  O_5 
REMARK    3  A    between atoms: N_15  and  C_20 
REMARK    4  A    between atoms: C_21  and  N_16 
ROOT
ATOM      1  N   UNL d   1       3.703   2.560  -0.166  0.00  0.00    -0.344 N 
ATOM      2  HN  UNL d   1       3.568   1.698  -0.694  1.00  0.00     0.167 HD
ATOM      3  C   UNL d   1       2.742   3.059   0.643  0.00  0.00     0.149 A 
ATOM      4  C   UNL d   1       5.086   4.490   0.405  0.00  0.00     0.051 A 
ATOM      5  C   UNL d   1       4.857   3.270  -0.235  0.00  0.00     0.119 A 
ATOM      6  C   UNL d   1       2.877   4.242   1.349  0.00  0.00     0.059 A 
ATOM      7  C   UNL d   1       4.066   4.959   1.229  0.00  0.00     0.035 A 
ENDROOT
BRANCH   3   8
ATOM      8  O   UNL d   1       1.476   2.499   0.660  0.00  0.00    -0.276 OA
BRANCH   8   9
ATOM      9  C   UNL d   1       1.375   1.122   0.553  0.00  0.00     0.163 A 
ATOM     10  C   UNL d   1       0.230   0.623  -0.076  0.00  0.00     0.042 A 
ATOM     11  C   UNL d   1       0.101  -0.769  -0.031  0.00  0.00     0.049 A 
ATOM     12  C   UNL d   1      -0.767   1.409  -0.707  0.00  0.00     0.020 A 
ATOM     13  C   UNL d   1      -1.024  -1.351  -0.600  0.00  0.00     0.054 A 
ATOM     14  N   UNL d   1       1.015  -1.557   0.550  0.00  0.00    -0.351 N 
ATOM     15  C   UNL d   1      -2.013  -0.577  -1.209  0.00  0.00     0.036 A 
ATOM     16  C   UNL d   1      -1.887   0.805  -1.272  0.00  0.00     0.025 A 
ATOM     17 CL   UNL d   1      -3.402  -1.339  -1.881  0.00  0.00    -0.084 Cl
ATOM     18  C   UNL d   1       2.064  -0.954   1.131  0.00  0.00     0.182 A 
ATOM     19  HN  UNL d   1       0.918  -2.572   0.552  1.00  0.00     0.166 HD
ATOM     20  N   UNL d   1       2.280   0.360   1.197  0.00  0.00    -0.332 N 
ATOM     21  HN  UNL d   1       3.073   0.759   1.699  1.00  0.00     0.168 HD
ENDBRANCH   8   9
ENDBRANCH   3   8
BRANCH   4  22
ATOM     22  N   UNL d   1       6.281   5.202   0.131  0.00  0.00    -0.307 N 
ATOM     23  C   UNL d   1       6.567   6.498   0.541  0.00  0.00     0.325 C 
ATOM     24  N   UNL d   1       7.666   7.014  -0.129  0.00  0.00    -0.309 N 
ATOM     25  O   UNL d   1       5.893   7.126   1.349  0.00  0.00    -0.247 OA
ATOM     26  H   UNL d   1       8.168   6.392  -0.742  0.00  0.00     0.170 HD
ATOM     27  H   UNL d   1       6.931   4.763  -0.501  0.00  0.00     0.170 HD
BRANCH  24  28
ATOM     28  C   UNL d   1       8.087   8.367  -0.134  0.00  0.00     0.036 A 
ATOM     29  C   UNL d   1       7.487   9.373   0.635  0.00  0.00     0.032 A 
ATOM     30  C   UNL d   1       7.892  10.706   0.517  0.00  0.00     0.044 A 
ATOM     31  C   UNL d   1       8.907  11.033  -0.367  0.00  0.00     0.116 A 
ATOM     32  C   UNL d   1       9.539  10.053  -1.119  0.00  0.00     0.044 A 
ATOM     33  F   UNL d   1       9.278  12.315  -0.504  0.00  0.00    -0.206 F 
ATOM     34  C   UNL d   1       9.133   8.717  -0.998  0.00  0.00     0.032 A 
ENDBRANCH  24  28
ENDBRANCH   4  22
TORSDOF 4
