REMARK  3 active torsions:
REMARK  status: ('A' for Active; 'I' for Inactive)
REMARK    1  A    between atoms: C_10  and  C_3 
REMARK    2  A    between atoms: C_9  and  C_4 
REMARK    3  A    between atoms: C_8  and  C_5 
ROOT
ATOM      1  N   UNL d   1      -1.300  -0.044   0.011  0.00  0.00    -0.355 N 
ATOM      2  HN  UNL d   1      -2.320  -0.080   0.013  1.00  0.00     0.166 HD
ATOM      3  C   UNL d   1      -0.657   1.147  -0.048  0.00  0.00     0.043 A 
ATOM      4  C   UNL d   1      -0.574  -1.188   0.068  0.00  0.00     0.043 A 
ATOM      5  C   UNL d   1       1.512   0.055   0.004  0.00  0.00    -0.022 A 
ATOM      6  C   UNL d   1       0.737   1.220  -0.048  0.00  0.00     0.042 A 
ATOM      7  C   UNL d   1       0.821  -1.162   0.062  0.00  0.00     0.042 A 
ENDROOT
BRANCH   5   8
ATOM      8  C   UNL d   1       2.993   0.109  -0.005  0.00  0.00    -0.026 A 
ATOM      9  C   UNL d   1       3.759  -0.868  -0.670  0.00  0.00     0.014 A 
ATOM     10  C   UNL d   1       5.158  -0.821  -0.679  0.00  0.00     0.024 A 
ATOM     11  C   UNL d   1       5.819   0.217  -0.033  0.00  0.00     0.034 A 
ATOM     12  C   UNL d   1       5.093   1.202   0.628  0.00  0.00     0.024 A 
ATOM     13 CL   UNL d   1       7.537   0.284  -0.052  0.00  0.00    -0.084 Cl
ATOM     14  C   UNL d   1       3.695   1.142   0.646  0.00  0.00     0.014 A 
ENDBRANCH   5   8
BRANCH   4  15
ATOM     15  C   UNL d   1      -1.349  -2.449   0.112  0.00  0.00    -0.009 A 
ATOM     16  C   UNL d   1      -2.627  -2.529  -0.474  0.00  0.00     0.013 A 
ATOM     17  C   UNL d   1      -3.364  -3.718  -0.465  0.00  0.00     0.001 A 
ATOM     18  C   UNL d   1      -2.840  -4.859   0.135  0.00  0.00     0.000 A 
ATOM     19  C   UNL d   1      -1.586  -4.807   0.735  0.00  0.00     0.001 A 
ATOM     20  C   UNL d   1      -0.853  -3.615   0.726  0.00  0.00     0.013 A 
ENDBRANCH   4  15
BRANCH   3  21
ATOM     21  C   UNL d   1      -1.520   2.351  -0.096  0.00  0.00    -0.009 A 
ATOM     22  C   UNL d   1      -2.801   2.344   0.486  0.00  0.00     0.013 A 
ATOM     23  C   UNL d   1      -3.620   3.478   0.472  0.00  0.00     0.001 A 
ATOM     24  C   UNL d   1      -3.177   4.651  -0.132  0.00  0.00     0.000 A 
ATOM     25  C   UNL d   1      -1.921   4.685  -0.727  0.00  0.00     0.001 A 
ATOM     26  C   UNL d   1      -1.105   3.548  -0.713  0.00  0.00     0.013 A 
ENDBRANCH   3  21
TORSDOF 3
