REMARK  4 active torsions:
REMARK  status: ('A' for Active; 'I' for Inactive)
REMARK    1  A    between atoms: C_7  and  N_1 
REMARK    2  A    between atoms: C_11  and  C_2 
REMARK    3  A    between atoms: C_8  and  C_9 
REMARK    4  A    between atoms: C_16  and  C_11 
ROOT
ATOM      1  N   UNL d   1       0.804  -0.816   0.075  0.00  0.00    -0.275 N 
ATOM      2  C   UNL d   1       0.874   0.546   0.052  0.00  0.00     0.109 A 
ATOM      3  C   UNL d   1      -0.564  -1.083   0.028  0.00  0.00     0.199 A 
ATOM      4  N   UNL d   1      -0.285   1.151   0.029  0.00  0.00    -0.286 N 
ATOM      5  HN  UNL d   1      -0.464   2.155   0.010  1.00  0.00     0.188 HD
ATOM      6  N   UNL d   1      -1.195   0.151   0.036  0.00  0.00    -0.274 N 
ATOM      7  S   UNL d   1      -1.451  -2.481  -0.127  0.00  0.00    -0.039 SA
ATOM      8  H   UNL d   1      -2.191   0.320  -0.046  0.00  0.00     0.189 HD
ENDROOT
BRANCH   1   9
ATOM      9  C   UNL d   1       1.853  -1.780   0.076  0.00  0.00     0.044 A 
ATOM     10  C   UNL d   1       1.708  -3.009   0.741  0.00  0.00     0.046 A 
ATOM     11  C   UNL d   1       2.680  -4.025   0.663  0.00  0.00     0.050 A 
ATOM     12  C   UNL d   1       3.861  -3.777  -0.043  0.00  0.00     0.016 A 
ATOM     13  C   UNL d   1       4.048  -2.552  -0.672  0.00  0.00     0.003 A 
ATOM     14  C   UNL d   1       3.047  -1.575  -0.623  0.00  0.00     0.030 A 
BRANCH  11  15
ATOM     15  C   UNL d   1       2.450  -5.378   1.293  0.00  0.00     0.417 C 
ATOM     16  F   UNL d   1       1.256  -5.487   1.937  0.00  0.00    -0.166 F 
ATOM     17  F   UNL d   1       2.473  -6.384   0.376  0.00  0.00    -0.166 F 
ATOM     18  F   UNL d   1       3.402  -5.692   2.215  0.00  0.00    -0.166 F 
ENDBRANCH  11  15
ENDBRANCH   1   9
BRANCH   2  19
ATOM     19  C   UNL d   1       2.132   1.380   0.108  0.00  0.00     0.117 C 
BRANCH  19  20
ATOM     20  C   UNL d   1       2.716   1.770  -1.236  0.00  0.00    -0.051 A 
ATOM     21  C   UNL d   1       1.937   1.879  -2.398  0.00  0.00     0.007 A 
ATOM     22  C   UNL d   1       2.528   2.197  -3.623  0.00  0.00     0.001 A 
ATOM     23  C   UNL d   1       3.899   2.434  -3.701  0.00  0.00     0.000 A 
ATOM     24  C   UNL d   1       4.678   2.370  -2.548  0.00  0.00     0.001 A 
ATOM     25  C   UNL d   1       4.089   2.051  -1.324  0.00  0.00     0.007 A 
ENDBRANCH  19  20
ENDBRANCH   2  19
TORSDOF 4
