REMARK  5 active torsions:
REMARK  status: ('A' for Active; 'I' for Inactive)
REMARK    1  A    between atoms: C_9  and  C_1 
REMARK    2  A    between atoms: C_6  and  C_12 
REMARK    3  A    between atoms: C_17  and  C_9 
REMARK    4  A    between atoms: O_22  and  C_10 
REMARK    5  A    between atoms: O_23  and  C_11 
ROOT
ATOM      1  C   UNL d   1      -1.157  -0.756   0.052  0.00  0.00     0.045 A 
ATOM      2  C   UNL d   1      -1.762   0.627   0.069  0.00  0.00     0.257 A 
ATOM      3  C   UNL d   1       0.307  -0.583   0.042  0.00  0.00     0.009 A 
ATOM      4  N   UNL d   1      -0.680   1.488   0.073  0.00  0.00    -0.322 N 
ATOM      5  C   UNL d   1       0.524   0.793   0.059  0.00  0.00     0.049 A 
ATOM      6  C   UNL d   1       1.389  -1.452  -0.010  0.00  0.00     0.054 A 
ATOM      7  C   UNL d   1       1.782   1.350   0.050  0.00  0.00     0.070 A 
ATOM      8  C   UNL d   1       2.697  -0.916  -0.032  0.00  0.00     0.102 A 
ATOM      9  C   UNL d   1       2.889   0.492   0.010  0.00  0.00     0.103 A 
ATOM     10  O   UNL d   1      -2.936   0.949   0.089  0.00  0.00    -0.267 OA
ATOM     11  H   UNL d   1      -0.784   2.491   0.081  0.00  0.00     0.169 HD
ENDROOT
BRANCH   1  12
ATOM     12  C   UNL d   1      -1.840  -1.911   0.046  0.00  0.00     0.029 C 
BRANCH  12  13
ATOM     13  C   UNL d   1      -3.304  -2.021  -0.006  0.00  0.00    -0.035 A 
ATOM     14  C   UNL d   1      -3.961  -2.108  -1.239  0.00  0.00     0.012 A 
ATOM     15  C   UNL d   1      -5.351  -2.261  -1.291  0.00  0.00     0.017 A 
ATOM     16  C   UNL d   1      -6.108  -2.338  -0.112  0.00  0.00     0.048 A 
ATOM     17  C   UNL d   1      -5.446  -2.227   1.120  0.00  0.00     0.017 A 
ATOM     18  C   UNL d   1      -4.057  -2.064   1.171  0.00  0.00     0.012 A 
BRANCH  16  19
ATOM     19  C   UNL d   1      -7.599  -2.571  -0.167  0.00  0.00     0.417 C 
ATOM     20  F   UNL d   1      -8.083  -2.685  -1.437  0.00  0.00    -0.166 F 
ATOM     21  F   UNL d   1      -7.966  -3.720   0.468  0.00  0.00    -0.166 F 
ATOM     22  F   UNL d   1      -8.319  -1.575   0.418  0.00  0.00    -0.166 F 
ENDBRANCH  16  19
ENDBRANCH  12  13
ENDBRANCH   1  12
BRANCH   8  23
ATOM     23  O   UNL d   1       3.822  -1.694  -0.102  0.00  0.00    -0.353 OA
ATOM     24  C   UNL d   1       3.691  -3.106  -0.153  0.00  0.00     0.210 C 
ENDBRANCH   8  23
BRANCH   9  25
ATOM     25  O   UNL d   1       4.066   1.197   0.014  0.00  0.00    -0.353 OA
ATOM     26  C   UNL d   1       5.299   0.495  -0.018  0.00  0.00     0.210 C 
ENDBRANCH   9  25
TORSDOF 5
