REMARK  1 active torsions:
REMARK  status: ('A' for Active; 'I' for Inactive)
REMARK       I    between atoms: C_3  and  N_1 
REMARK    1  A    between atoms: C_8  and  C_3 
ROOT
ATOM      1  N   UNL d   1      -1.155   1.441  -0.203  0.00  0.00    -0.318 N 
ATOM      2  C   UNL d   1       0.078   0.703  -0.081  0.00  0.00     0.043 A 
ATOM      3  C   UNL d   1      -1.203   2.699  -0.826  0.00  0.00     0.224 C 
ATOM      4  C   UNL d   1       0.045  -0.705   0.029  0.00  0.00    -0.031 A 
ATOM      5  O   UNL d   1      -0.234   3.264  -1.334  0.00  0.00    -0.273 OA
ATOM      6  C   UNL d   1      -2.346   0.734   0.292  0.00  0.00     0.132 C 
ATOM      7  C   UNL d   1       1.329   1.337  -0.063  0.00  0.00     0.030 A 
ATOM      8  C   UNL d   1      -2.452  -0.644  -0.332  0.00  0.00     0.025 C 
ATOM      9  C   UNL d   1      -1.247  -1.480   0.069  0.00  0.00     0.042 C 
ATOM     10  C   UNL d   1       1.248  -1.431   0.114  0.00  0.00     0.009 A 
ATOM     11  C   UNL d   1       2.516   0.607   0.024  0.00  0.00     0.002 A 
ATOM     12  C   UNL d   1       2.477  -0.778   0.101  0.00  0.00     0.001 A 
ENDROOT
BRANCH   3  13
ATOM     13  C   UNL d   1      -2.570   3.367  -0.916  0.00  0.00     0.099 C 
ATOM     14  C   UNL d   1      -2.501   4.724  -1.603  0.00  0.00     0.014 C 
ENDBRANCH   3  13
TORSDOF 1
