REMARK  3 active torsions:
REMARK  status: ('A' for Active; 'I' for Inactive)
REMARK    1  A    between atoms: C_9  and  C_3 
REMARK    2  A    between atoms: C_8  and  C_7 
REMARK       I    between atoms: C_11  and  N_12 
REMARK    3  A    between atoms: N_12  and  C_17 
ROOT
ATOM      1  N   UNL d   1      -0.785   0.051   0.038  0.00  0.00    -0.331 N 
ATOM      2  HN  UNL d   1      -1.772  -0.204   0.060  1.00  0.00     0.168 HD
ATOM      3  C   UNL d   1      -0.256   1.227   0.003  0.00  0.00     0.162 A 
ATOM      4  C   UNL d   1       0.311  -0.767   0.036  0.00  0.00     0.111 A 
ATOM      5  O   UNL d   1       1.096   1.320  -0.014  0.00  0.00    -0.256 OA
ATOM      6  C   UNL d   1       1.560   0.036  -0.004  0.00  0.00     0.316 A 
ATOM      7  C   UNL d   1       0.308  -2.105   0.029  0.00  0.00     0.048 C 
ATOM      8  O   UNL d   1       2.722  -0.328  -0.035  0.00  0.00    -0.257 OA
ENDROOT
BRANCH   3   9
ATOM      9  C   UNL d   1      -0.972   2.499  -0.105  0.00  0.00     0.015 A 
ATOM     10  C   UNL d   1      -0.455   3.691   0.404  0.00  0.00     0.018 A 
ATOM     11  C   UNL d   1      -1.160   4.891   0.219  0.00  0.00     0.030 A 
ATOM     12  C   UNL d   1      -2.381   4.909  -0.473  0.00  0.00     0.034 A 
ATOM     13  C   UNL d   1      -2.878   3.700  -0.968  0.00  0.00     0.030 A 
ATOM     14  C   UNL d   1      -2.193   2.501  -0.775  0.00  0.00     0.018 A 
BRANCH  12  15
ATOM     15  N   UNL d   1      -3.061   6.141  -0.652  0.00  0.00    -0.328 N 
ATOM     16  C   UNL d   1      -4.280   6.315  -1.280  0.00  0.00     0.218 C 
ATOM     17  O   UNL d   1      -4.963   5.442  -1.807  0.00  0.00    -0.274 OA
ATOM     18  C   UNL d   1      -4.783   7.734  -1.305  0.00  0.00     0.117 C 
ATOM     19  H   UNL d   1      -2.613   6.960  -0.249  0.00  0.00     0.169 HD
ENDBRANCH  12  15
ENDBRANCH   3   9
BRANCH   7  20
ATOM     20  C   UNL d   1      -0.934  -2.894   0.051  0.00  0.00    -0.023 A 
ATOM     21  C   UNL d   1      -1.627  -3.253  -1.137  0.00  0.00    -0.016 A 
ATOM     22  C   UNL d   1      -2.799  -4.043  -1.025  0.00  0.00    -0.025 A 
ATOM     23  C   UNL d   1      -1.217  -2.865  -2.435  0.00  0.00     0.013 A 
ATOM     24  C   UNL d   1      -3.504  -4.420  -2.180  0.00  0.00     0.012 A 
ATOM     25  C   UNL d   1      -3.252  -4.445   0.241  0.00  0.00     0.012 A 
ATOM     26  C   UNL d   1      -3.076  -4.020  -3.445  0.00  0.00     0.001 A 
ATOM     27  C   UNL d   1      -1.934  -3.241  -3.573  0.00  0.00     0.001 A 
ATOM     28  C   UNL d   1      -2.579  -4.059   1.398  0.00  0.00     0.002 A 
ATOM     29  C   UNL d   1      -1.427  -3.285   1.304  0.00  0.00     0.012 A 
ENDBRANCH   7  20
TORSDOF 3
