REMARK  3 active torsions:
REMARK  status: ('A' for Active; 'I' for Inactive)
REMARK    1  A    between atoms: C_13  and  N_2 
REMARK    2  A    between atoms: N_10  and  C_7 
REMARK    3  A    between atoms: C_14  and  C_13 
ROOT
ATOM      1  C   UNL d   1       0.320  -0.751  -0.029  0.00  0.00     0.130 A 
ATOM      2  N   UNL d   1       1.432   1.105  -0.022  0.00  0.00    -0.254 N 
ATOM      3  C   UNL d   1       0.155   0.622  -0.068  0.00  0.00     0.153 A 
ATOM      4  N   UNL d   1       2.336   0.101   0.068  0.00  0.00    -0.018 NA
ATOM      5  N   UNL d   1       1.660  -1.045   0.054  0.00  0.00    -0.277 N 
ATOM      6  HN  UNL d   1       2.066  -1.979   0.097  1.00  0.00     0.184 HD
ATOM      7  C   UNL d   1      -0.845  -1.544  -0.076  0.00  0.00     0.115 A 
ATOM      8  N   UNL d   1      -1.001   1.300  -0.128  0.00  0.00    -0.336 N 
ATOM      9  HN  UNL d   1      -1.075   2.317  -0.124  1.00  0.00     0.168 HD
ATOM     10  N   UNL d   1      -2.039  -0.890  -0.180  0.00  0.00    -0.341 N 
ATOM     11  HN  UNL d   1      -2.911  -1.415  -0.245  1.00  0.00     0.167 HD
ATOM     12  C   UNL d   1      -2.050   0.460  -0.195  0.00  0.00     0.183 A 
ENDROOT
BRANCH   2  13
ATOM     13  C   UNL d   1       1.861   2.488   0.051  0.00  0.00     0.189 C 
BRANCH  13  14
ATOM     14  C   UNL d   1       2.126   3.074  -1.316  0.00  0.00    -0.017 A 
ATOM     15  C   UNL d   1       1.193   3.870  -2.001  0.00  0.00     0.042 A 
ATOM     16 CL   UNL d   1      -0.329   4.310  -1.316  0.00  0.00    -0.084 Cl
ATOM     17  C   UNL d   1       1.482   4.369  -3.276  0.00  0.00     0.024 A 
ATOM     18  C   UNL d   1       2.707   4.094  -3.879  0.00  0.00     0.002 A 
ATOM     19  C   UNL d   1       3.647   3.316  -3.211  0.00  0.00     0.001 A 
ATOM     20  C   UNL d   1       3.358   2.805  -1.944  0.00  0.00     0.010 A 
ENDBRANCH  13  14
ENDBRANCH   2  13
BRANCH   7  21
ATOM     21  N   UNL d   1      -0.798  -2.946  -0.026  0.00  0.00    -0.267 NA
ATOM     22  C   UNL d   1      -1.938  -3.608  -0.664  0.00  0.00     0.097 C 
ATOM     23  C   UNL d   1      -1.625  -5.103  -0.777  0.00  0.00     0.015 C 
ATOM     24  C   UNL d   1      -1.296  -5.706   0.589  0.00  0.00     0.002 C 
ATOM     25  C   UNL d   1      -0.207  -4.906   1.304  0.00  0.00     0.015 C 
ATOM     26  C   UNL d   1      -0.536  -3.414   1.342  0.00  0.00     0.097 C 
ENDBRANCH   7  21
TORSDOF 3
