REMARK  8 active torsions:
REMARK  status: ('A' for Active; 'I' for Inactive)
REMARK    1  A    between atoms: N_10  and  C_1 
REMARK       I    between atoms: C_2  and  N_8 
REMARK    2  A    between atoms: C_7  and  C_2 
REMARK       I    between atoms: N_8  and  C_9 
REMARK       I    between atoms: C_9  and  N_10 
REMARK    3  A    between atoms: C_15  and  C_22 
REMARK    4  A    between atoms: C_16  and  C_23 
REMARK    5  A    between atoms: O_21  and  C_17 
REMARK    6  A    between atoms: C_22  and  O_21 
REMARK    7  A    between atoms: C_23  and  O_32 
REMARK    8  A    between atoms: O_32  and  C_31 
ROOT
ATOM      1  C   UNL d   1      -3.833   0.459  -0.483  0.00  0.00     0.262 C 
ATOM      2  N   UNL d   1      -4.701  -0.517  -0.942  0.00  0.00    -0.274 N 
ATOM      3  C   UNL d   1      -6.027  -0.391  -1.319  0.00  0.00     0.341 C 
ATOM      4  N   UNL d   1      -6.559   0.856  -1.197  0.00  0.00    -0.141 N 
ATOM      5  O   UNL d   1      -4.189   1.592  -0.170  0.00  0.00    -0.267 OA
ATOM      6  O   UNL d   1      -6.587  -1.397  -1.748  0.00  0.00    -0.246 OA
ATOM      7  H   UNL d   1      -4.354  -1.452  -1.099  0.00  0.00     0.173 HD
ATOM      8  H   UNL d   1      -5.993   1.584  -0.776  0.00  0.00     0.189 HD
ENDROOT
BRANCH   1   9
ATOM      9  C   UNL d   1      -2.394   0.079  -0.423  0.00  0.00     0.068 A 
ATOM     10  C   UNL d   1      -1.604   0.402   0.695  0.00  0.00     0.085 A 
ATOM     11  C   UNL d   1      -0.217   0.242   0.602  0.00  0.00     0.040 A 
ATOM     12  C   UNL d   1       0.370  -0.304  -0.544  0.00  0.00     0.039 A 
ATOM     13  C   UNL d   1      -0.418  -0.692  -1.624  0.00  0.00     0.070 A 
ATOM     14  C   UNL d   1      -1.801  -0.493  -1.564  0.00  0.00     0.056 A 
BRANCH  10  15
ATOM     15  O   UNL d   1      -2.245   0.828   1.829  0.00  0.00    -0.341 OA
BRANCH  15  16
ATOM     16  C   UNL d   1      -1.475   0.905   3.039  0.00  0.00     0.293 C 
BRANCH  16  17
ATOM     17  C   UNL d   1      -2.344   0.827   4.292  0.00  0.00     0.408 C 
ATOM     18  F   UNL d   1      -3.652   0.643   4.024  0.00  0.00    -0.169 F 
ATOM     19  F   UNL d   1      -1.943  -0.209   5.072  0.00  0.00    -0.169 F 
ATOM     20  F   UNL d   1      -2.224   1.950   5.036  0.00  0.00    -0.169 F 
ENDBRANCH  16  17
ENDBRANCH  15  16
ENDBRANCH  10  15
BRANCH  13  21
ATOM     21  O   UNL d   1       0.044  -1.250  -2.785  0.00  0.00    -0.342 OA
BRANCH  21  22
ATOM     22  C   UNL d   1       1.469  -1.295  -2.957  0.00  0.00     0.293 C 
BRANCH  22  23
ATOM     23  C   UNL d   1       1.848  -1.959  -4.272  0.00  0.00     0.408 C 
ATOM     24  F   UNL d   1       1.312  -3.193  -4.385  0.00  0.00    -0.169 F 
ATOM     25  F   UNL d   1       1.456  -1.228  -5.337  0.00  0.00    -0.169 F 
ATOM     26  F   UNL d   1       3.195  -2.096  -4.349  0.00  0.00    -0.169 F 
ENDBRANCH  22  23
ENDBRANCH  21  22
ENDBRANCH  13  21
ENDBRANCH   1   9
BRANCH   4  27
ATOM     27  C   UNL d   1      -7.842   1.252  -1.560  0.00  0.00     0.689 A 
ATOM     28  N   UNL d   1      -8.121   2.528  -1.297  0.00  0.00    -0.181 N 
ATOM     29  C   UNL d   1      -9.347   2.930  -1.640  0.00  0.00     0.094 A 
ATOM     30  HN  UNL d   1      -7.444   3.155  -0.863  1.00  0.00     0.185 HD
ATOM     31  C   UNL d   1      -9.731   4.350  -1.362  0.00  0.00     0.089 C 
ATOM     32  N   UNL d   1     -10.264   2.156  -2.219  0.00  0.00    -0.335 N 
ATOM     33  C   UNL d   1      -9.885   0.902  -2.444  0.00  0.00     0.094 A 
ATOM     34  HN  UNL d   1     -11.190   2.501  -2.471  1.00  0.00     0.168 HD
ATOM     35  N   UNL d   1      -8.688   0.404  -2.133  0.00  0.00    -0.181 N 
ATOM     36  C   UNL d   1     -10.872  -0.023  -3.088  0.00  0.00     0.089 C 
ATOM     37  HN  UNL d   1      -8.438  -0.566  -2.324  1.00  0.00     0.185 HD
ENDBRANCH   4  27
TORSDOF 8
