REMARK  7 active torsions:
REMARK  status: ('A' for Active; 'I' for Inactive)
REMARK    1  A    between atoms: O_10  and  C_1 
REMARK    2  A    between atoms: O_13  and  C_2 
REMARK    3  A    between atoms: O_12  and  C_3 
REMARK    4  A    between atoms: C_4  and  C_11 
REMARK       I    between atoms: N_9  and  C_4 
REMARK    5  A    between atoms: C_15  and  C_7 
REMARK    6  A    between atoms: N_14  and  N_9 
REMARK    7  A    between atoms: C_11  and  C_15 
ROOT
ATOM      1  C   UNL d   1       1.421  -0.366  -0.054  0.00  0.00     0.135 A 
ATOM      2  C   UNL d   1       0.481  -1.411   0.099  0.00  0.00     0.104 A 
ATOM      3  C   UNL d   1       0.969   0.958  -0.177  0.00  0.00     0.104 A 
ATOM      4  C   UNL d   1      -0.411   1.207  -0.208  0.00  0.00     0.047 A 
ATOM      5  C   UNL d   1      -0.891  -1.137   0.009  0.00  0.00     0.047 A 
ATOM      6  C   UNL d   1      -1.351   0.174  -0.140  0.00  0.00    -0.052 A 
ENDROOT
BRANCH   6   7
ATOM      7  C   UNL d   1      -2.832   0.467  -0.179  0.00  0.00     0.048 C 
BRANCH   7   8
ATOM      8  C   UNL d   1      -3.255   1.140  -1.480  0.00  0.00     0.108 C 
BRANCH   8   9
ATOM      9  C   UNL d   1      -4.752   1.324  -1.558  0.00  0.00     0.232 C 
ATOM     10  O   UNL d   1      -5.552   0.905  -0.725  0.00  0.00    -0.272 OA
ATOM     11  N   UNL d   1      -5.144   2.006  -2.709  0.00  0.00    -0.294 N 
ATOM     12  H   UNL d   1      -4.450   2.474  -3.289  0.00  0.00     0.183 HD
BRANCH  11  13
ATOM     13  N   UNL d   1      -6.506   2.334  -2.891  0.00  0.00    -0.247 NA
ATOM     14  H   UNL d   1      -6.969   2.206  -1.981  0.00  0.00     0.143 HD
ATOM     15  H   UNL d   1      -6.923   1.609  -3.479  0.00  0.00     0.143 HD
ENDBRANCH  11  13
ENDBRANCH   8   9
ENDBRANCH   7   8
ENDBRANCH   6   7
BRANCH   3  16
ATOM     16  O   UNL d   1       1.694   2.116  -0.279  0.00  0.00    -0.353 OA
ATOM     17  C   UNL d   1       3.108   2.055  -0.205  0.00  0.00     0.210 C 
ENDBRANCH   3  16
BRANCH   2  18
ATOM     18  O   UNL d   1       0.979  -2.669   0.343  0.00  0.00    -0.353 OA
ATOM     19  C   UNL d   1       0.081  -3.621   0.902  0.00  0.00     0.210 C 
ENDBRANCH   2  18
BRANCH   1  20
ATOM     20  O   UNL d   1       2.768  -0.614   0.040  0.00  0.00    -0.351 OA
ATOM     21  C   UNL d   1       3.268  -1.543  -0.923  0.00  0.00     0.210 C 
ENDBRANCH   1  20
TORSDOF 7
