REMARK  4 active torsions:
REMARK  status: ('A' for Active; 'I' for Inactive)
REMARK    1  A    between atoms: C_6  and  C_1 
REMARK    2  A    between atoms: C_9  and  C_4 
REMARK    3  A    between atoms: N_5  and  C_10 
REMARK       I    between atoms: N_11  and  C_6 
REMARK    4  A    between atoms: C_18  and  N_11 
ROOT
ATOM      1  C   UNL d   1       1.279   0.732  -0.078  0.00  0.00     0.108 A 
ATOM      2  N   UNL d   1       1.436  -0.642   0.142  0.00  0.00    -0.345 N 
ATOM      3  HN  UNL d   1       2.293  -1.091   0.465  1.00  0.00     0.167 HD
ATOM      4  C   UNL d   1       0.301  -1.269  -0.132  0.00  0.00     0.085 A 
ATOM      5  S   UNL d   1      -1.011  -0.234  -0.583  0.00  0.00    -0.081 SA
ATOM      6  C   UNL d   1       0.022   1.107  -0.513  0.00  0.00     0.087 A 
ENDROOT
BRANCH   1   7
ATOM      7  C   UNL d   1       2.338   1.726   0.107  0.00  0.00     0.273 C 
ATOM      8  N   UNL d   1       3.578   1.203   0.439  0.00  0.00    -0.322 N 
ATOM      9  H   UNL d   1       3.648   0.194   0.394  0.00  0.00     0.169 HD
ATOM     10  O   UNL d   1       2.096   2.916  -0.082  0.00  0.00    -0.266 OA
BRANCH   8  11
ATOM     11  C   UNL d   1       4.751   1.977   0.597  0.00  0.00     0.037 A 
ATOM     12  C   UNL d   1       4.716   3.358   0.821  0.00  0.00     0.065 A 
ATOM     13  C   UNL d   1       5.896   4.106   0.826  0.00  0.00     0.105 A 
ATOM     14  C   UNL d   1       7.135   3.478   0.660  0.00  0.00     0.036 A 
ATOM     15  C   UNL d   1       7.179   2.091   0.507  0.00  0.00     0.005 A 
ATOM     16  C   UNL d   1       5.993   1.343   0.484  0.00  0.00     0.029 A 
BRANCH  13  17
ATOM     17  N   UNL d   1       5.826   5.566   0.974  0.00  0.00    -0.116 N 
ATOM     18  O   UNL d   1       4.710   6.085   1.114  0.00  0.00    -0.532 OA
ATOM     19  O   UNL d   1       6.893   6.197   0.949  0.00  0.00    -0.532 OA
ENDBRANCH  13  17
ENDBRANCH   8  11
ENDBRANCH   1   7
BRANCH   4  20
ATOM     20  C   UNL d   1       0.080  -2.727  -0.068  0.00  0.00    -0.002 A 
ATOM     21  C   UNL d   1      -0.879  -3.355  -0.888  0.00  0.00     0.024 A 
ATOM     22  C   UNL d   1      -1.070  -4.721  -0.787  0.00  0.00    -0.022 A 
ATOM     23  C   UNL d   1      -1.967  -5.598  -1.567  0.00  0.00     0.068 C 
ATOM     24  C   UNL d   1      -0.317  -5.479   0.088  0.00  0.00     0.075 A 
ATOM     25  C   UNL d   1      -1.840  -6.870  -0.729  0.00  0.00     0.180 C 
ATOM     26  O   UNL d   1      -0.615  -6.815   0.044  0.00  0.00    -0.350 OA
ATOM     27  C   UNL d   1       0.650  -4.912   0.891  0.00  0.00     0.038 A 
ATOM     28  C   UNL d   1       0.844  -3.524   0.813  0.00  0.00     0.017 A 
ENDBRANCH   4  20
TORSDOF 4
