REMARK  3 active torsions:
REMARK  status: ('A' for Active; 'I' for Inactive)
REMARK    1  A    between atoms: N_2  and  C_1 
REMARK    2  A    between atoms: N_3  and  C_4 
REMARK    3  A    between atoms: C_5  and  C_7 
ROOT
ATOM      1  C   UNL d   1       0.480  -0.817  -0.871  0.00  0.00     0.125 A 
ATOM      2  C   UNL d   1       1.699  -1.064  -0.200  0.00  0.00     0.044 A 
ATOM      3  C   UNL d   1      -0.332   0.306  -0.610  0.00  0.00     0.054 A 
ATOM      4  C   UNL d   1       0.073   1.258   0.330  0.00  0.00     0.050 A 
ATOM      5  C   UNL d   1       2.091  -0.063   0.714  0.00  0.00     0.027 A 
ATOM      6  C   UNL d   1       1.301   1.070   0.972  0.00  0.00     0.018 A 
ENDROOT
BRANCH   2   7
ATOM      7  N   UNL d   1       2.454  -2.249  -0.388  0.00  0.00    -0.277 NA
ATOM      8  C   UNL d   1       3.900  -2.145  -0.099  0.00  0.00     0.134 C 
ATOM      9  C   UNL d   1       4.646  -3.445  -0.298  0.00  0.00    -0.038 A 
ATOM     10  C   UNL d   1       6.045  -3.419  -0.437  0.00  0.00     0.009 A 
ATOM     11  C   UNL d   1       3.987  -4.681  -0.233  0.00  0.00    -0.050 A 
ATOM     12  C   UNL d   1       6.774  -4.605  -0.525  0.00  0.00     0.001 A 
ATOM     13  C   UNL d   1       6.117  -5.830  -0.463  0.00  0.00     0.001 A 
ATOM     14  C   UNL d   1       4.730  -5.868  -0.322  0.00  0.00     0.007 A 
ATOM     15  C   UNL d   1       2.486  -4.740  -0.148  0.00  0.00     0.054 C 
ATOM     16  C   UNL d   1       1.817  -3.421   0.258  0.00  0.00     0.101 C 
ENDBRANCH   2   7
BRANCH   1  17
ATOM     17  N   UNL d   1       0.020  -1.708  -1.917  0.00  0.00    -0.114 N 
ATOM     18  O   UNL d   1       0.618  -1.673  -3.003  0.00  0.00    -0.532 OA
ATOM     19  O   UNL d   1      -0.997  -2.374  -1.672  0.00  0.00    -0.532 OA
ENDBRANCH   1  17
BRANCH   4  20
ATOM     20  C   UNL d   1      -0.770   2.467   0.650  0.00  0.00     0.417 C 
ATOM     21  F   UNL d   1      -1.969   2.479   0.009  0.00  0.00    -0.166 F 
ATOM     22  F   UNL d   1      -1.056   2.560   1.981  0.00  0.00    -0.166 F 
ATOM     23  F   UNL d   1      -0.153   3.633   0.320  0.00  0.00    -0.166 F 
ENDBRANCH   4  20
TORSDOF 3
