REMARK  3 active torsions:
REMARK  status: ('A' for Active; 'I' for Inactive)
REMARK    1  A    between atoms: C_4  and  C_2 
REMARK       I    between atoms: N_9  and  C_4 
REMARK    2  A    between atoms: C_17  and  N_9 
REMARK    3  A    between atoms: C_16  and  C_17 
ROOT
ATOM      1  C   UNL d   1      -0.193   2.647   0.005  0.00  0.00     0.258 C 
ATOM      2  N   UNL d   1      -1.528   2.974  -0.108  0.00  0.00    -0.352 N 
ATOM      3  O   UNL d   1       0.666   3.519   0.133  0.00  0.00    -0.267 OA
ATOM      4  H   UNL d   1      -2.199   2.231  -0.250  0.00  0.00     0.163 HD
ENDROOT
BRANCH   1   5
ATOM      5  C   UNL d   1       0.152   1.231  -0.036  0.00  0.00     0.073 A 
ATOM      6  S   UNL d   1      -1.005  -0.029  -0.070  0.00  0.00    -0.084 SA
ATOM      7  C   UNL d   1       0.198  -1.260  -0.017  0.00  0.00     0.022 A 
ATOM      8  C   UNL d   1      -0.137  -2.668   0.030  0.00  0.00     0.021 A 
ATOM      9  C   UNL d   1       1.463  -0.702  -0.016  0.00  0.00     0.022 A 
ATOM     10  S   UNL d   1       0.913  -3.810   0.780  0.00  0.00    -0.101 SA
ATOM     11  C   UNL d   1      -1.262  -3.300  -0.472  0.00  0.00     0.021 A 
ATOM     12  C   UNL d   1      -0.129  -5.117   0.434  0.00  0.00     0.050 A 
ATOM     13  C   UNL d   1      -1.256  -4.709  -0.242  0.00  0.00     0.008 A 
ATOM     14  C   UNL d   1       1.436   0.719  -0.028  0.00  0.00     0.026 A 
ENDBRANCH   1   5
BRANCH   2  15
ATOM     15  C   UNL d   1      -1.991   4.343  -0.015  0.00  0.00     0.162 C 
BRANCH  15  16
ATOM     16  C   UNL d   1      -2.161   5.003  -1.354  0.00  0.00    -0.025 A 
ATOM     17  C   UNL d   1      -3.393   5.517  -1.750  0.00  0.00     0.096 A 
ATOM     18  N   UNL d   1      -3.613   6.164  -2.919  0.00  0.00    -0.375 N 
ATOM     19  C   UNL d   1      -2.549   6.319  -3.736  0.00  0.00     0.087 A 
ATOM     20  HN  UNL d   1      -4.536   6.516  -3.170  1.00  0.00     0.164 HD
ATOM     21  C   UNL d   1      -1.279   5.859  -3.437  0.00  0.00     0.018 A 
ATOM     22  C   UNL d   1      -1.086   5.197  -2.228  0.00  0.00     0.011 A 
ENDBRANCH  15  16
ENDBRANCH   2  15
TORSDOF 3
