REMARK  5 active torsions:
REMARK  status: ('A' for Active; 'I' for Inactive)
REMARK    1  A    between atoms: N_7  and  C_2 
REMARK    2  A    between atoms: C_12  and  C_3 
REMARK       I    between atoms: C_6  and  N_7 
REMARK    3  A    between atoms: C_10  and  C_6 
REMARK    4  A    between atoms: O_15  and  C_11 
REMARK    5  A    between atoms: C_19  and  O_15 
ROOT
ATOM      1  C   UNL d   1       2.816   2.182  -0.362  0.00  0.00     0.083 A 
ATOM      2  C   UNL d   1       3.744   2.357   0.666  0.00  0.00     0.163 A 
ATOM      3  N   UNL d   1       4.882   1.611   0.768  0.00  0.00    -0.346 N 
ATOM      4  HN  UNL d   1       5.572   1.805   1.494  1.00  0.00     0.167 HD
ATOM      5  C   UNL d   1       3.032   1.106  -1.240  0.00  0.00     0.023 A 
ATOM      6  C   UNL d   1       5.069   0.612  -0.115  0.00  0.00     0.090 A 
ATOM      7  C   UNL d   1       4.171   0.312  -1.118  0.00  0.00     0.018 A 
ENDROOT
BRANCH   1   8
ATOM      8  C   UNL d   1       1.615   3.057  -0.519  0.00  0.00     0.262 C 
ATOM      9  N   UNL d   1       1.173   3.176  -1.824  0.00  0.00    -0.302 N 
ATOM     10  H   UNL d   1       1.688   2.751  -2.582  0.00  0.00     0.171 HD
ATOM     11  O   UNL d   1       1.098   3.570   0.464  0.00  0.00    -0.267 OA
BRANCH   9  12
ATOM     12  C   UNL d   1       0.008   3.748  -2.269  0.00  0.00     0.168 A 
ATOM     13  S   UNL d   1      -1.056   4.652  -1.297  0.00  0.00    -0.037 SA
ATOM     14  C   UNL d   1      -2.064   4.799  -2.677  0.00  0.00     0.074 A 
ATOM     15  N   UNL d   1      -1.596   4.209  -3.756  0.00  0.00    -0.296 N 
ATOM     16  N   UNL d   1      -0.370   3.623  -3.523  0.00  0.00    -0.279 N 
ATOM     17  HN  UNL d   1      -2.081   4.187  -4.654  1.00  0.00     0.187 HD
ATOM     18  HN  UNL d   1       0.180   3.148  -4.239  1.00  0.00     0.189 HD
BRANCH  14  19
ATOM     19  C   UNL d   1      -3.399   5.543  -2.660  0.00  0.00     0.044 A 
ATOM     20  C   UNL d   1      -4.571   4.929  -3.405  0.00  0.00     0.012 A 
ATOM     21  C   UNL d   1      -3.909   6.145  -3.957  0.00  0.00     0.012 A 
ENDBRANCH  14  19
ENDBRANCH   9  12
ENDBRANCH   1   8
BRANCH   2  22
ATOM     22  O   UNL d   1       3.551   3.351   1.612  0.00  0.00    -0.293 OA
BRANCH  22  23
ATOM     23  C   UNL d   1       4.042   3.128   2.884  0.00  0.00     0.077 A 
ATOM     24  C   UNL d   1       4.594   4.226   3.548  0.00  0.00     0.039 A 
ATOM     25  C   UNL d   1       5.105   4.081   4.841  0.00  0.00     0.026 A 
ATOM     26  C   UNL d   1       5.051   2.839   5.472  0.00  0.00     0.034 A 
ATOM     27  C   UNL d   1       4.476   1.746   4.830  0.00  0.00     0.026 A 
ATOM     28 CL   UNL d   1       5.699   2.654   7.056  0.00  0.00    -0.084 Cl
ATOM     29  C   UNL d   1       3.955   1.895   3.541  0.00  0.00     0.039 A 
ENDBRANCH  22  23
ENDBRANCH   2  22
TORSDOF 5
