REMARK  4 active torsions:
REMARK  status: ('A' for Active; 'I' for Inactive)
REMARK    1  A    between atoms: C_11  and  C_1 
REMARK    2  A    between atoms: C_13  and  C_9 
REMARK    3  A    between atoms: O_22  and  C_15 
REMARK    4  A    between atoms: O_23  and  C_16 
ROOT
ATOM      1  C   UNL d   1      -0.246   0.892   0.833  0.00  0.00     0.144 A 
ATOM      2  N   UNL d   1      -0.410  -0.323   0.183  0.00  0.00    -0.235 N 
ATOM      3  C   UNL d   1       0.658  -0.903  -0.514  0.00  0.00     0.129 A 
ATOM      4  N   UNL d   1       1.896  -0.324  -0.579  0.00  0.00    -0.340 N 
ATOM      5  HN  UNL d   1       2.660  -0.753  -1.101  1.00  0.00     0.167 HD
ATOM      6  C   UNL d   1       0.956   1.504   0.795  0.00  0.00     0.067 A 
ATOM      7  N   UNL d   1      -1.516  -1.099   0.096  0.00  0.00    -0.297 N 
ATOM      8  HN  UNL d   1      -2.433  -0.913   0.503  1.00  0.00     0.187 HD
ATOM      9  C   UNL d   1       2.051   0.801   0.058  0.00  0.00     0.046 A 
ATOM     10  C   UNL d   1       0.186  -2.082  -1.040  0.00  0.00     0.076 A 
ATOM     11  C   UNL d   1      -1.158  -2.158  -0.633  0.00  0.00     0.026 A 
ATOM     12  C   UNL d   1      -2.139  -3.232  -0.920  0.00  0.00     0.070 C 
ENDROOT
BRANCH   9  13
ATOM     13  C   UNL d   1       3.389   1.464   0.060  0.00  0.00    -0.006 A 
ATOM     14  C   UNL d   1       4.229   1.306  -1.054  0.00  0.00     0.053 A 
ATOM     15  C   UNL d   1       5.495   1.914  -1.101  0.00  0.00     0.102 A 
ATOM     16  C   UNL d   1       5.927   2.669   0.006  0.00  0.00     0.101 A 
ATOM     17  C   UNL d   1       5.087   2.802   1.121  0.00  0.00     0.040 A 
ATOM     18  C   UNL d   1       3.828   2.207   1.154  0.00  0.00     0.016 A 
BRANCH  15  19
ATOM     19  O   UNL d   1       6.330   1.818  -2.180  0.00  0.00    -0.353 OA
ATOM     20  C   UNL d   1       5.909   1.068  -3.312  0.00  0.00     0.210 C 
ENDBRANCH  15  19
BRANCH  16  21
ATOM     21  O   UNL d   1       7.109   3.338   0.185  0.00  0.00    -0.353 OA
ATOM     22  C   UNL d   1       8.099   3.275  -0.828  0.00  0.00     0.210 C 
ENDBRANCH  16  21
ENDBRANCH   9  13
BRANCH   1  23
ATOM     23  C   UNL d   1      -1.397   1.497   1.545  0.00  0.00     0.434 C 
ATOM     24  F   UNL d   1      -2.554   0.798   1.554  0.00  0.00    -0.165 F 
ATOM     25  F   UNL d   1      -1.080   1.724   2.851  0.00  0.00    -0.165 F 
ATOM     26  F   UNL d   1      -1.692   2.720   1.023  0.00  0.00    -0.165 F 
ENDBRANCH   1  23
TORSDOF 4
