REMARK  3 active torsions:
REMARK  status: ('A' for Active; 'I' for Inactive)
REMARK    1  A    between atoms: C_6  and  N_1 
REMARK    2  A    between atoms: C_7  and  C_6 
REMARK    3  A    between atoms: O_11  and  C_7 
ROOT
ATOM      1  N   UNL d   1       1.914   0.024  -0.071  0.00  0.00    -0.265 N 
ATOM      2  C   UNL d   1       1.160  -1.118  -0.038  0.00  0.00     0.262 A 
ATOM      3  C   UNL d   1       1.116   1.134  -0.114  0.00  0.00     0.262 A 
ATOM      4  C   UNL d   1      -0.266   0.672  -0.034  0.00  0.00     0.048 A 
ATOM      5  C   UNL d   1      -0.245  -0.709   0.021  0.00  0.00     0.048 A 
ATOM      6  O   UNL d   1       1.416   2.308  -0.205  0.00  0.00    -0.267 OA
ATOM      7  O   UNL d   1       1.567  -2.260  -0.140  0.00  0.00    -0.267 OA
ATOM      8  C   UNL d   1      -1.444   1.391  -0.035  0.00  0.00     0.018 A 
ATOM      9  C   UNL d   1      -1.409  -1.450   0.072  0.00  0.00     0.018 A 
ATOM     10  C   UNL d   1      -2.638   0.665   0.016  0.00  0.00     0.001 A 
ATOM     11  C   UNL d   1      -2.620  -0.744   0.069  0.00  0.00     0.001 A 
ENDROOT
BRANCH   1  12
ATOM     12  C   UNL d   1       3.374   0.004  -0.208  0.00  0.00     0.190 C 
ATOM     13  C   UNL d   1       4.080   1.200   0.422  0.00  0.00     0.044 C 
BRANCH  12  14
ATOM     14  C   UNL d   1       3.773  -0.167  -1.680  0.00  0.00     0.163 C 
ATOM     15  O   UNL d   1       4.484   0.608  -2.310  0.00  0.00    -0.648 OA
BRANCH  14  16
ATOM     16  O   UNL d   1       3.342  -1.332  -2.227  0.00  0.00    -0.775 OA
ATOM     17  H   UNL d   1       2.865  -1.928  -1.603  0.00  0.00     0.167 HD
ENDBRANCH  14  16
ENDBRANCH  12  14
ENDBRANCH   1  12
TORSDOF 3
