REMARK  6 active torsions:
REMARK  status: ('A' for Active; 'I' for Inactive)
REMARK    1  A    between atoms: C_5  and  C_1 
REMARK    2  A    between atoms: C_2  and  C_4 
REMARK       I    between atoms: C_3  and  N_6 
REMARK    3  A    between atoms: C_9  and  C_3 
REMARK    4  A    between atoms: N_6  and  C_7 
REMARK    5  A    between atoms: C_19  and  C_9 
REMARK    6  A    between atoms: C_20  and  C_9 
ROOT
ATOM      1  C   UNL d   1       0.048   5.653  -3.342  0.00  0.00     0.050 A 
ATOM      2  C   UNL d   1      -1.858   5.527  -4.854  0.00  0.00     0.050 A 
ATOM      3  C   UNL d   1      -1.304   3.611  -3.434  0.00  0.00     0.036 A 
ATOM      4  C   UNL d   1      -0.775   6.236  -4.316  0.00  0.00     0.032 A 
ATOM      5  C   UNL d   1      -2.122   4.224  -4.387  0.00  0.00     0.045 A 
ATOM      6  C   UNL d   1      -0.226   4.339  -2.913  0.00  0.00     0.045 A 
ENDROOT
BRANCH   3   7
ATOM      7  N   UNL d   1      -1.465   2.273  -2.996  0.00  0.00    -0.327 N 
ATOM      8  C   UNL d   1      -2.480   1.392  -3.351  0.00  0.00     0.230 C 
ATOM      9  O   UNL d   1      -3.472   1.706  -4.009  0.00  0.00    -0.272 OA
ATOM     10  H   UNL d   1      -0.756   1.928  -2.364  0.00  0.00     0.169 HD
BRANCH   8  11
ATOM     11  C   UNL d   1      -2.301  -0.072  -2.908  0.00  0.00     0.111 C 
BRANCH  11  12
ATOM     12  C   UNL d   1      -1.601  -0.922  -3.966  0.00  0.00    -0.045 A 
ATOM     13  C   UNL d   1      -0.289  -0.649  -4.382  0.00  0.00     0.008 A 
ATOM     14  C   UNL d   1       0.386  -1.534  -5.226  0.00  0.00     0.001 A 
ATOM     15  C   UNL d   1      -0.243  -2.695  -5.671  0.00  0.00     0.000 A 
ATOM     16  C   UNL d   1      -1.556  -2.962  -5.293  0.00  0.00     0.001 A 
ATOM     17  C   UNL d   1      -2.232  -2.081  -4.449  0.00  0.00     0.008 A 
ENDBRANCH  11  12
BRANCH  11  18
ATOM     18  C   UNL d   1      -1.639  -0.346  -1.547  0.00  0.00     0.014 C 
ATOM     19  C   UNL d   1      -2.385   0.255  -0.367  0.00  0.00     0.006 C 
ENDBRANCH  11  18
ENDBRANCH   8  11
ENDBRANCH   3   7
BRANCH   2  20
ATOM     20  C   UNL d   1      -2.735   6.137  -5.922  0.00  0.00     0.417 C 
ATOM     21  F   UNL d   1      -2.171   7.228  -6.513  0.00  0.00    -0.166 F 
ATOM     22  F   UNL d   1      -3.934   6.557  -5.436  0.00  0.00    -0.166 F 
ATOM     23  F   UNL d   1      -3.014   5.273  -6.936  0.00  0.00    -0.166 F 
ENDBRANCH   2  20
BRANCH   1  24
ATOM     24  C   UNL d   1       1.216   6.415  -2.760  0.00  0.00     0.417 C 
ATOM     25  F   UNL d   1       1.418   7.631  -3.339  0.00  0.00    -0.166 F 
ATOM     26  F   UNL d   1       1.064   6.652  -1.428  0.00  0.00    -0.166 F 
ATOM     27  F   UNL d   1       2.390   5.739  -2.889  0.00  0.00    -0.166 F 
ENDBRANCH   1  24
TORSDOF 6
