REMARK  8 active torsions:
REMARK  status: ('A' for Active; 'I' for Inactive)
REMARK    1  A    between atoms: C_3  and  S_1 
REMARK    2  A    between atoms: C_6  and  S_1 
REMARK    3  A    between atoms: N_2  and  C_14 
REMARK    4  A    between atoms: C_15  and  N_2 
REMARK    5  A    between atoms: C_4  and  C_3 
REMARK    6  A    between atoms: O_13  and  C_4 
REMARK    7  A    between atoms: C_14  and  C_4 
REMARK    8  A    between atoms: C_7  and  C_15 
ROOT
ATOM      1  C   UNL d   1      -1.168   1.711   0.165  0.00  0.00     0.155 C 
ENDROOT
BRANCH   1   2
ATOM      2  C   UNL d   1       0.368   1.650   0.145  0.00  0.00     0.113 C 
BRANCH   2   3
ATOM      3  S   UNL d   1       0.957  -0.082   0.120  0.00  0.00    -0.127 SA
BRANCH   3   4
ATOM      4  C   UNL d   1       2.738   0.072   0.124  0.00  0.00     0.000 A 
ATOM      5  C   UNL d   1       3.439   1.283   0.120  0.00  0.00     0.018 A 
ATOM      6  C   UNL d   1       4.836   1.298   0.123  0.00  0.00     0.001 A 
ATOM      7  C   UNL d   1       5.553   0.103   0.126  0.00  0.00     0.000 A 
ATOM      8  C   UNL d   1       4.870  -1.110   0.128  0.00  0.00     0.001 A 
ATOM      9  C   UNL d   1       3.473  -1.123   0.128  0.00  0.00     0.018 A 
ENDBRANCH   3   4
ENDBRANCH   2   3
ENDBRANCH   1   2
BRANCH   1  10
ATOM     10  O   UNL d   1      -1.706   1.096   1.346  0.00  0.00    -0.393 OA
ATOM     11  H   UNL d   1      -1.174   1.373   2.108  0.00  0.00     0.210 HD
ENDBRANCH   1  10
BRANCH   1  12
ATOM     12  C   UNL d   1      -1.651   3.180   0.129  0.00  0.00     0.302 C 
BRANCH  12  13
ATOM     13  N   UNL d   1      -3.114   3.204   0.121  0.00  0.00     0.090 N 
ATOM     14  H   UNL d   1      -3.456   2.659   0.917  0.00  0.00     0.316 HD
BRANCH  13  15
ATOM     15  C   UNL d   1      -3.663   4.553   0.155  0.00  0.00     0.308 C 
BRANCH  15  16
ATOM     16  C   UNL d   1      -5.175   4.516   0.140  0.00  0.00    -0.030 A 
ATOM     17  C   UNL d   1      -5.922   5.110   1.168  0.00  0.00     0.010 A 
ATOM     18  C   UNL d   1      -7.320   5.089   1.131  0.00  0.00     0.024 A 
ATOM     19  C   UNL d   1      -7.978   4.471   0.070  0.00  0.00     0.034 A 
ATOM     20  C   UNL d   1      -7.252   3.870  -0.955  0.00  0.00     0.024 A 
ATOM     21 CL   UNL d   1      -9.698   4.453   0.023  0.00  0.00    -0.084 Cl
ATOM     22  C   UNL d   1      -5.857   3.895  -0.920  0.00  0.00     0.010 A 
ENDBRANCH  15  16
ENDBRANCH  13  15
ENDBRANCH  12  13
ENDBRANCH   1  12
TORSDOF 8
