REMARK  3 active torsions:
REMARK  status: ('A' for Active; 'I' for Inactive)
REMARK       I    between atoms: N_2  and  C_1 
REMARK    1  A    between atoms: C_3  and  C_1 
REMARK    2  A    between atoms: C_4  and  C_8 
REMARK    3  A    between atoms: O_18  and  C_9 
ROOT
ATOM      1  C   UNL d   1       1.096   0.109  -0.149  0.00  0.00     0.253 C 
ATOM      2  N   UNL d   1       0.082   0.558   0.724  0.00  0.00    -0.348 N 
ATOM      3  C   UNL d   1       0.346   1.494   1.816  0.00  0.00     0.127 C 
ATOM      4  C   UNL d   1      -1.105  -0.288   0.798  0.00  0.00     0.127 C 
ATOM      5  O   UNL d   1       0.900  -0.678  -1.075  0.00  0.00    -0.267 OA
ATOM      6  C   UNL d   1      -1.974   1.181   2.773  0.00  0.00     0.024 C 
ATOM      7  C   UNL d   1      -2.294   0.267   1.582  0.00  0.00     0.029 C 
ATOM      8  C   UNL d   1      -0.890   2.181   2.363  0.00  0.00     0.029 C 
ENDROOT
BRANCH   1   9
ATOM      9  C   UNL d   1       2.483   0.587   0.075  0.00  0.00     0.032 A 
ATOM     10  C   UNL d   1       3.101   0.383   1.316  0.00  0.00     0.020 A 
ATOM     11  C   UNL d   1       4.328   0.982   1.593  0.00  0.00     0.043 A 
ATOM     12  C   UNL d   1       4.963   1.712   0.597  0.00  0.00     0.116 A 
ATOM     13  C   UNL d   1       4.409   1.836  -0.674  0.00  0.00     0.043 A 
ATOM     14  F   UNL d   1       6.129   2.314   0.869  0.00  0.00    -0.206 F 
ATOM     15  C   UNL d   1       3.157   1.272  -0.941  0.00  0.00     0.020 A 
ENDBRANCH   1   9
BRANCH   6  16
ATOM     16  C   UNL d   1      -1.678   0.509   4.112  0.00  0.00    -0.021 A 
ATOM     17  C   UNL d   1      -2.240   0.977   5.319  0.00  0.00     0.074 A 
ATOM     18  C   UNL d   1      -1.987   0.327   6.533  0.00  0.00     0.037 A 
ATOM     19  C   UNL d   1      -1.142  -0.784   6.582  0.00  0.00     0.003 A 
ATOM     20  C   UNL d   1      -0.569  -1.254   5.409  0.00  0.00     0.001 A 
ATOM     21  C   UNL d   1      -0.832  -0.614   4.194  0.00  0.00     0.010 A 
BRANCH  17  22
ATOM     22  O   UNL d   1      -3.180   1.974   5.392  0.00  0.00    -0.355 OA
ATOM     23  C   UNL d   1      -2.688   3.275   5.081  0.00  0.00     0.210 C 
ENDBRANCH  17  22
ENDBRANCH   6  16
TORSDOF 3
