REMARK  1 active torsions:
REMARK  status: ('A' for Active; 'I' for Inactive)
REMARK    1  A    between atoms: C_2  and  O_4 
ROOT
ATOM      1  C   UNL d   1      -0.002  -0.720  -0.228  0.00  0.00     0.018 C 
ATOM      2  C   UNL d   1      -1.277  -1.460   0.218  0.00  0.00     0.122 C 
ATOM      3  C   UNL d   1       0.006   0.744   0.266  0.00  0.00    -0.008 C 
ATOM      4  C   UNL d   1      -2.530   0.753   0.232  0.00  0.00     0.003 C 
ATOM      5  C   UNL d   1       1.273  -1.452   0.217  0.00  0.00     0.007 C 
ATOM      6  C   UNL d   1      -1.257   1.480  -0.201  0.00  0.00     0.005 C 
ATOM      7  C   UNL d   1      -2.534  -0.706  -0.222  0.00  0.00     0.032 C 
ATOM      8  C   UNL d   1       1.273   1.473  -0.205  0.00  0.00     0.005 C 
ATOM      9  C   UNL d   1       2.527  -0.714  -0.247  0.00  0.00     0.000 C 
ATOM     10  C   UNL d   1       2.533   0.732   0.237  0.00  0.00     0.000 C 
ENDROOT
BRANCH   2  11
ATOM     11  O   UNL d   1      -1.300  -1.657   1.631  0.00  0.00    -0.395 OA
ATOM     12  H   UNL d   1      -1.295  -0.793   2.072  0.00  0.00     0.210 HD
ENDBRANCH   2  11
TORSDOF 1
