REMARK  5 active torsions:
REMARK  status: ('A' for Active; 'I' for Inactive)
REMARK    1  A    between atoms: C_4  and  C_1 
REMARK    2  A    between atoms: C_7  and  N_2 
REMARK    3  A    between atoms: N_3  and  C_6 
REMARK       I    between atoms: C_5  and  N_12 
REMARK    4  A    between atoms: C_27  and  C_5 
REMARK    5  A    between atoms: N_12  and  C_25 
ROOT
ATOM      1  N   UNL d   1      -0.631  -7.855  -2.545  0.00  0.00    -0.364 N 
ATOM      2  N   UNL d   1      -0.494  -5.105  -1.876  0.00  0.00    -0.364 N 
ATOM      3  C   UNL d   1      -0.182  -6.880  -3.549  0.00  0.00     0.144 C 
ATOM      4  C   UNL d   1      -0.784  -5.487  -3.269  0.00  0.00     0.144 C 
ATOM      5  C   UNL d   1      -1.070  -6.037  -0.896  0.00  0.00     0.144 C 
ATOM      6  C   UNL d   1      -0.482  -7.449  -1.137  0.00  0.00     0.144 C 
ENDROOT
BRANCH   1   7
ATOM      7  C   UNL d   1      -1.186  -9.047  -2.939  0.00  0.00     0.103 A 
ATOM      8  N   UNL d   1      -1.713  -9.148  -4.179  0.00  0.00    -0.350 N 
ATOM      9  C   UNL d   1      -2.275 -10.331  -4.555  0.00  0.00     0.119 A 
ATOM     10  HN  UNL d   1      -1.690  -8.355  -4.821  1.00  0.00     0.166 HD
ATOM     11  C   UNL d   1      -2.340 -11.467  -3.758  0.00  0.00     0.050 A 
ATOM     12  C   UNL d   1      -1.791 -11.347  -2.491  0.00  0.00     0.035 A 
ATOM     13  C   UNL d   1      -1.214 -10.146  -2.088  0.00  0.00     0.051 A 
BRANCH  11  14
ATOM     14  N   UNL d   1      -2.936 -12.652  -4.247  0.00  0.00    -0.326 N 
ATOM     15  C   UNL d   1      -3.037 -13.854  -3.561  0.00  0.00     0.225 C 
ATOM     16  O   UNL d   1      -2.574 -14.076  -2.442  0.00  0.00    -0.273 OA
ATOM     17  H   UNL d   1      -3.300 -12.619  -5.190  0.00  0.00     0.169 HD
BRANCH  15  18
ATOM     18  C   UNL d   1      -3.759 -14.955  -4.336  0.00  0.00     0.070 C 
ATOM     19  C   UNL d   1      -3.760 -16.252  -3.518  0.00  0.00     0.019 C 
ATOM     20  C   UNL d   1      -5.194 -14.556  -4.668  0.00  0.00     0.019 C 
ENDBRANCH  15  18
ENDBRANCH  11  14
ENDBRANCH   1   7
BRANCH   2  21
ATOM     21  C   UNL d   1      -0.219  -3.811  -1.498  0.00  0.00     0.103 A 
ATOM     22  C   UNL d   1       0.504  -2.958  -2.330  0.00  0.00     0.049 A 
ATOM     23  C   UNL d   1       0.838  -1.672  -1.909  0.00  0.00     0.021 A 
ATOM     24  C   UNL d   1       0.455  -1.241  -0.643  0.00  0.00     0.063 A 
ATOM     25  C   UNL d   1      -0.245  -2.142   0.137  0.00  0.00     0.106 A 
ATOM     26  N   UNL d   1      -0.578  -3.394  -0.263  0.00  0.00    -0.352 N 
ATOM     27  HN  UNL d   1      -1.093  -4.015   0.361  1.00  0.00     0.166 HD
BRANCH  24  28
ATOM     28  C   UNL d   1       0.797   0.127  -0.152  0.00  0.00     0.418 C 
ATOM     29  F   UNL d   1       0.349   0.389   1.106  0.00  0.00    -0.166 F 
ATOM     30  F   UNL d   1       0.279   1.106  -0.945  0.00  0.00    -0.166 F 
ATOM     31  F   UNL d   1       2.141   0.348  -0.123  0.00  0.00    -0.166 F 
ENDBRANCH  24  28
ENDBRANCH   2  21
TORSDOF 5
