REMARK  4 active torsions:
REMARK  status: ('A' for Active; 'I' for Inactive)
REMARK    1  A    between atoms: C_3  and  N_1 
REMARK    2  A    between atoms: O_14  and  C_6 
REMARK    3  A    between atoms: O_16  and  C_9 
REMARK    4  A    between atoms: O_15  and  C_10 
ROOT
ATOM      1  C   UNL d   1       0.216  -2.474  -0.036  0.00  0.00     0.049 A 
ATOM      2  C   UNL d   1      -0.112  -5.289   0.094  0.00  0.00     0.135 A 
ATOM      3  C   UNL d   1       0.819  -3.214   0.986  0.00  0.00     0.070 A 
ATOM      4  C   UNL d   1      -0.532  -3.143  -1.002  0.00  0.00     0.070 A 
ATOM      5  C   UNL d   1       0.641  -4.606   1.080  0.00  0.00     0.106 A 
ATOM      6  C   UNL d   1      -0.710  -4.535  -0.941  0.00  0.00     0.106 A 
ENDROOT
BRANCH   1   7
ATOM      7  N   UNL d   1       0.352  -1.055  -0.066  0.00  0.00    -0.266 N 
ATOM      8  C   UNL d   1      -0.716  -0.188   0.093  0.00  0.00     0.148 A 
ATOM      9  S   UNL d   1      -0.165   1.480   0.008  0.00  0.00    -0.090 SA
ATOM     10  S   UNL d   1      -2.318  -0.533   0.428  0.00  0.00    -0.052 SA
ATOM     11  C   UNL d   1       1.566   1.020  -0.138  0.00  0.00     0.185 A 
ATOM     12  C   UNL d   1       1.619  -0.484  -0.142  0.00  0.00     0.239 A 
ATOM     13  O   UNL d   1       2.681  -1.088  -0.211  0.00  0.00    -0.272 OA
ENDBRANCH   1   7
BRANCH   5  14
ATOM     14  O   UNL d   1       1.155  -5.336   2.121  0.00  0.00    -0.353 OA
ATOM     15  C   UNL d   1       1.903  -4.672   3.131  0.00  0.00     0.210 C 
ENDBRANCH   5  14
BRANCH   6  16
ATOM     16  O   UNL d   1      -1.457  -5.007  -1.996  0.00  0.00    -0.353 OA
ATOM     17  C   UNL d   1      -2.240  -6.175  -1.783  0.00  0.00     0.210 C 
ENDBRANCH   6  16
BRANCH   2  18
ATOM     18  O   UNL d   1      -0.304  -6.643   0.021  0.00  0.00    -0.351 OA
ATOM     19  C   UNL d   1       0.259  -7.515   0.992  0.00  0.00     0.210 C 
ENDBRANCH   2  18
TORSDOF 4
