REMARK  5 active torsions:
REMARK  status: ('A' for Active; 'I' for Inactive)
REMARK    1  A    between atoms: C_8  and  N_1 
REMARK    2  A    between atoms: C_7  and  C_2 
REMARK    3  A    between atoms: N_11  and  C_9 
REMARK    4  A    between atoms: C_10  and  N_11 
REMARK    5  A    between atoms: O_19  and  C_12 
ROOT
ATOM      1  N   UNL d   1       0.757   0.452  -0.219  0.00  0.00    -0.225 N 
ATOM      2  C   UNL d   1       1.214  -0.697   0.420  0.00  0.00     0.139 C 
ATOM      3  N   UNL d   1      -0.576   0.005   1.396  0.00  0.00    -0.007 NA
ATOM      4  N   UNL d   1      -0.284   0.937   0.503  0.00  0.00     0.001 NA
ATOM      5  N   UNL d   1       0.331  -1.017   1.352  0.00  0.00    -0.270 N 
ATOM      6  HN  UNL d   1       0.327  -1.861   1.924  1.00  0.00     0.185 HD
ENDROOT
BRANCH   2   7
ATOM      7  C   UNL d   1       2.485  -1.262   0.157  0.00  0.00     0.063 C 
ATOM      8  C   UNL d   1       2.714  -2.573   0.318  0.00  0.00     0.066 C 
BRANCH   8   9
ATOM      9  N   UNL d   1       3.937  -3.203   0.146  0.00  0.00    -0.267 NA
ATOM     10  H   UNL d   1       3.796  -4.174  -0.150  0.00  0.00     0.133 HD
BRANCH   9  11
ATOM     11  C   UNL d   1       4.876  -3.309   1.228  0.00  0.00     0.045 A 
ATOM     12  C   UNL d   1       6.239  -3.580   0.988  0.00  0.00     0.089 A 
ATOM     13  C   UNL d   1       7.104  -3.840   2.062  0.00  0.00     0.038 A 
ATOM     14  C   UNL d   1       6.639  -3.842   3.375  0.00  0.00     0.003 A 
ATOM     15  C   UNL d   1       5.294  -3.599   3.625  0.00  0.00     0.002 A 
ATOM     16  C   UNL d   1       4.422  -3.338   2.564  0.00  0.00     0.026 A 
BRANCH  12  17
ATOM     17  O   UNL d   1       6.853  -3.689  -0.234  0.00  0.00    -0.354 OA
ATOM     18  C   UNL d   1       6.406  -2.802  -1.251  0.00  0.00     0.210 C 
ENDBRANCH  12  17
ENDBRANCH   9  11
ENDBRANCH   8   9
ENDBRANCH   2   7
BRANCH   1  19
ATOM     19  C   UNL d   1       1.122   1.056  -1.453  0.00  0.00     0.056 A 
ATOM     20  C   UNL d   1       1.737   0.314  -2.472  0.00  0.00     0.032 A 
ATOM     21  C   UNL d   1       1.995   0.908  -3.712  0.00  0.00     0.021 A 
ATOM     22  C   UNL d   1       1.655   2.241  -3.931  0.00  0.00     0.011 A 
ATOM     23  C   UNL d   1       1.058   2.992  -2.922  0.00  0.00     0.021 A 
ATOM     24 BR   UNL d   1       1.976   3.025  -5.621  0.00  0.00    -0.051 Br
ATOM     25  C   UNL d   1       0.778   2.398  -1.687  0.00  0.00     0.032 A 
ENDBRANCH   1  19
TORSDOF 5
