REMARK  3 active torsions:
REMARK  status: ('A' for Active; 'I' for Inactive)
REMARK       I    between atoms: N_2  and  C_1 
REMARK    1  A    between atoms: C_3  and  C_1 
REMARK    2  A    between atoms: C_5  and  C_9 
REMARK    3  A    between atoms: O_16  and  C_14 
ROOT
ATOM      1  C   UNL d   1       0.930   0.024   0.014  0.00  0.00     0.254 C 
ATOM      2  N   UNL d   1      -0.004  -0.929  -0.458  0.00  0.00    -0.348 N 
ATOM      3  O   UNL d   1       2.026  -0.309   0.451  0.00  0.00    -0.267 OA
ATOM      4  C   UNL d   1      -1.207  -0.618  -1.234  0.00  0.00     0.127 C 
ATOM      5  C   UNL d   1       0.455  -2.317  -0.514  0.00  0.00     0.127 C 
ATOM      6  C   UNL d   1      -1.940  -3.060  -1.087  0.00  0.00     0.022 C 
ATOM      7  C   UNL d   1      -2.352  -1.591  -1.021  0.00  0.00     0.029 C 
ATOM      8  C   UNL d   1      -0.667  -3.321  -0.275  0.00  0.00     0.029 C 
ENDROOT
BRANCH   1   9
ATOM      9  C   UNL d   1       0.588   1.482   0.019  0.00  0.00     0.043 C 
ATOM     10  C   UNL d   1       0.797   2.295   1.179  0.00  0.00    -0.010 A 
ATOM     11  C   UNL d   1       0.365   3.647   1.126  0.00  0.00    -0.025 A 
ATOM     12  C   UNL d   1       1.415   1.868   2.383  0.00  0.00     0.013 A 
ATOM     13  C   UNL d   1       0.564   4.504   2.223  0.00  0.00     0.012 A 
ATOM     14  C   UNL d   1      -0.252   4.151  -0.029  0.00  0.00     0.012 C 
ATOM     15  C   UNL d   1       1.211   4.058   3.374  0.00  0.00     0.001 A 
ATOM     16  C   UNL d   1       1.636   2.742   3.453  0.00  0.00     0.001 A 
ATOM     17  C   UNL d   1      -0.367   3.370  -1.173  0.00  0.00     0.002 C 
ATOM     18  C   UNL d   1       0.105   2.066  -1.162  0.00  0.00     0.018 C 
ENDBRANCH   1   9
BRANCH   6  19
ATOM     19  C   UNL d   1      -1.932  -3.613  -2.505  0.00  0.00    -0.051 A 
ATOM     20  C   UNL d   1      -2.950  -4.516  -2.866  0.00  0.00     0.044 A 
ATOM     21  C   UNL d   1      -3.030  -5.051  -4.152  0.00  0.00     0.068 A 
ATOM     22  C   UNL d   1      -2.075  -4.688  -5.099  0.00  0.00     0.037 A 
ATOM     23  C   UNL d   1      -1.060  -3.794  -4.766  0.00  0.00     0.003 A 
ATOM     24  C   UNL d   1      -0.993  -3.255  -3.481  0.00  0.00     0.007 A 
BRANCH  21  25
ATOM     25  O   UNL d   1      -3.987  -5.924  -4.594  0.00  0.00    -0.356 OA
ATOM     26  C   UNL d   1      -4.991  -6.293  -3.655  0.00  0.00     0.210 C 
ENDBRANCH  21  25
ENDBRANCH   6  19
TORSDOF 3
