REMARK  5 active torsions:
REMARK  status: ('A' for Active; 'I' for Inactive)
REMARK    1  A    between atoms: C_3  and  C_1 
REMARK    2  A    between atoms: C_4  and  C_1 
REMARK    3  A    between atoms: C_8  and  C_2 
REMARK       I    between atoms: N_14  and  C_3 
REMARK    4  A    between atoms: N_5  and  C_4 
REMARK    5  A    between atoms: C_15  and  N_14 
ROOT
ATOM      1  C   UNL d   1       1.059   0.048   0.065  0.00  0.00     0.095 C 
ATOM      2  C   UNL d   1       0.378   0.139  -1.094  0.00  0.00     0.046 C 
ENDROOT
BRANCH   1   3
ATOM      3  C   UNL d   1       0.316  -0.043   1.355  0.00  0.00     0.261 C 
ATOM      4  O   UNL d   1      -0.912  -0.029   1.384  0.00  0.00    -0.267 OA
ATOM      5  N   UNL d   1       1.089  -0.149   2.492  0.00  0.00    -0.357 N 
ATOM      6  H   UNL d   1       2.101  -0.111   2.450  0.00  0.00     0.162 HD
BRANCH   5   7
ATOM      7  C   UNL d   1       0.502  -0.221   3.816  0.00  0.00     0.118 C 
ATOM      8  C   UNL d   1       0.307   1.159   4.417  0.00  0.00     0.026 C 
ENDBRANCH   5   7
ENDBRANCH   1   3
BRANCH   1   9
ATOM      9  C   UNL d   1       2.579   0.048   0.065  0.00  0.00    -0.031 C 
BRANCH   9  10
ATOM     10  N   UNL d   1       3.840   0.048   0.065  0.00  0.00    -0.365 N 
ATOM     11  HN2 UNL d   1       2.820   0.048   0.065  1.00  0.00     0.165 HD
ATOM     12  HN1 UNL d   1       4.860   0.048   0.065  1.00  0.00     0.165 HD
ENDBRANCH   9  10
ENDBRANCH   1   9
BRANCH   2  13
ATOM     13  C   UNL d   1       1.062   0.215  -2.343  0.00  0.00     0.006 A 
ATOM     14  S   UNL d   1       1.536   1.740  -2.982  0.00  0.00    -0.102 SA
ATOM     15  C   UNL d   1       2.347   1.015  -4.301  0.00  0.00     0.050 A 
ATOM     16  C   UNL d   1       2.219  -0.355  -4.294  0.00  0.00     0.008 A 
ATOM     17  C   UNL d   1       1.466  -0.814  -3.174  0.00  0.00     0.019 A 
ENDBRANCH   2  13
TORSDOF 5
