REMARK  3 active torsions:
REMARK  status: ('A' for Active; 'I' for Inactive)
REMARK    1  A    between atoms: C_5  and  N_1 
REMARK    2  A    between atoms: C_9  and  C_5 
REMARK    3  A    between atoms: O_15  and  C_10 
ROOT
ATOM      1  C   UNL d   1       0.259  -2.222  -0.050  0.00  0.00     0.173 C 
ENDROOT
BRANCH   1   2
ATOM      2  N   UNL d   1       0.407  -0.975  -0.785  0.00  0.00    -0.289 N 
ATOM      3  C   UNL d   1       0.194  -0.750  -2.116  0.00  0.00     0.177 A 
ATOM      4  N   UNL d   1       0.434   0.582  -2.384  0.00  0.00    -0.358 N 
ATOM      5  S   UNL d   1      -0.291  -1.792  -3.309  0.00  0.00    -0.041 SA
ATOM      6  C   UNL d   1       0.793   1.312  -1.202  0.00  0.00     0.225 A 
ATOM      7  H   UNL d   1       0.326   0.975  -3.312  0.00  0.00     0.162 HD
ATOM      8  C   UNL d   1       0.764   0.199  -0.164  0.00  0.00     0.244 A 
ATOM      9  O   UNL d   1       1.001   0.360   1.025  0.00  0.00    -0.271 OA
ENDBRANCH   1   2
BRANCH   1  10
ATOM     10  C   UNL d   1       1.557  -2.990   0.059  0.00  0.00    -0.040 A 
ATOM     11  C   UNL d   1       2.409  -2.799   1.155  0.00  0.00     0.011 A 
ATOM     12  C   UNL d   1       3.621  -3.495   1.252  0.00  0.00     0.037 A 
ATOM     13  C   UNL d   1       4.005  -4.379   0.245  0.00  0.00     0.068 A 
ATOM     14  C   UNL d   1       3.157  -4.577  -0.845  0.00  0.00     0.037 A 
ATOM     15  C   UNL d   1       1.943  -3.893  -0.939  0.00  0.00     0.011 A 
BRANCH  13  16
ATOM     16  O   UNL d   1       5.167  -5.099   0.203  0.00  0.00    -0.356 OA
ATOM     17  C   UNL d   1       6.092  -4.888   1.262  0.00  0.00     0.210 C 
ENDBRANCH  13  16
ENDBRANCH   1  10
TORSDOF 3
