REMARK  0 active torsions:
REMARK  status: ('A' for Active; 'I' for Inactive)
ROOT
ATOM      1  N   UNL d   1       2.427  -0.675   0.031  0.00  0.00    -0.263 N 
ATOM      2  N   UNL d   1       2.406   0.711   0.022  0.00  0.00    -0.263 N 
ATOM      3  C   UNL d   1       1.285  -1.439   0.047  0.00  0.00     0.271 A 
ATOM      4  C   UNL d   1       1.244   1.441   0.022  0.00  0.00     0.271 A 
ATOM      5  C   UNL d   1      -0.001  -0.714   0.026  0.00  0.00     0.049 A 
ATOM      6  C   UNL d   1      -0.021   0.679   0.009  0.00  0.00     0.049 A 
ATOM      7  O   UNL d   1       1.333  -2.663   0.073  0.00  0.00    -0.266 OA
ATOM      8  O   UNL d   1       1.255   2.667   0.032  0.00  0.00    -0.266 OA
ATOM      9  C   UNL d   1      -1.204  -1.432   0.012  0.00  0.00     0.018 A 
ATOM     10  C   UNL d   1      -1.244   1.362  -0.024  0.00  0.00     0.018 A 
ATOM     11  C   UNL d   1      -2.422  -0.750  -0.025  0.00  0.00     0.001 A 
ATOM     12  C   UNL d   1      -2.442   0.645  -0.044  0.00  0.00     0.001 A 
ATOM     13  H   UNL d   1       3.320  -1.159   0.037  0.00  0.00     0.190 HD
ATOM     14  H   UNL d   1       3.284   1.221   0.037  0.00  0.00     0.190 HD
ENDROOT
TORSDOF 0
