REMARK  2 active torsions:
REMARK  status: ('A' for Active; 'I' for Inactive)
REMARK    1  A    between atoms: C_3  and  C_1 
REMARK    2  A    between atoms: C_2  and  C_4 
ROOT
ATOM      1  C   UNL d   1       1.318  -0.831  -1.552  0.00  0.00     0.048 C 
ATOM      2  C   UNL d   1       0.795  -3.213  -1.675  0.00  0.00    -0.052 C 
ATOM      3  C   UNL d   1       1.704  -2.175  -1.428  0.00  0.00     0.023 C 
ATOM      4  C   UNL d   1       0.043  -0.530  -2.048  0.00  0.00     0.016 C 
ATOM      5  C   UNL d   1      -0.460  -2.884  -2.216  0.00  0.00     0.007 C 
ATOM      6  C   UNL d   1      -0.829  -1.553  -2.410  0.00  0.00     0.001 C 
ENDROOT
BRANCH   2   7
ATOM      7  C   UNL d   1       1.011  -4.637  -1.169  0.00  0.00     0.032 C 
ATOM      8  C   UNL d   1       0.356  -4.767   0.214  0.00  0.00     0.088 C 
ATOM      9  C   UNL d   1       1.148  -3.991   1.246  0.00  0.00     0.134 C 
ATOM     10  O   UNL d   1       0.590  -3.272   2.067  0.00  0.00    -0.298 OA
ATOM     11  C   UNL d   1       2.624  -4.266   1.321  0.00  0.00     0.156 C 
ATOM     12  C   UNL d   1       3.278  -4.545  -0.005  0.00  0.00     0.134 C 
ATOM     13  C   UNL d   1       2.449  -5.161  -1.113  0.00  0.00     0.088 C 
ATOM     14  O   UNL d   1       4.490  -4.389  -0.154  0.00  0.00    -0.298 OA
ENDBRANCH   2   7
BRANCH   1  15
ATOM     15  C   UNL d   1       2.223   0.270  -1.054  0.00  0.00     0.417 C 
ATOM     16  F   UNL d   1       3.425  -0.181  -0.598  0.00  0.00    -0.166 F 
ATOM     17  F   UNL d   1       1.671   0.957  -0.015  0.00  0.00    -0.166 F 
ATOM     18  F   UNL d   1       2.507   1.196  -2.009  0.00  0.00    -0.166 F 
ENDBRANCH   1  15
TORSDOF 2
