REMARK  4 active torsions:
REMARK  status: ('A' for Active; 'I' for Inactive)
REMARK    1  A    between atoms: C_10  and  C_1 
REMARK    2  A    between atoms: N_2  and  C_14 
REMARK    3  A    between atoms: C_15  and  N_3 
REMARK    4  A    between atoms: C_13  and  C_8 
ROOT
ATOM      1  C   UNL d   1       4.376   3.162  -0.055  0.00  0.00     0.046 A 
ATOM      2  C   UNL d   1       2.070   1.516  -0.002  0.00  0.00     0.057 A 
ATOM      3  C   UNL d   1       3.494   3.172   1.036  0.00  0.00     0.032 A 
ATOM      4  C   UNL d   1       4.106   2.262  -1.097  0.00  0.00     0.032 A 
ATOM      5  C   UNL d   1       2.358   2.358   1.071  0.00  0.00     0.034 A 
ATOM      6  C   UNL d   1       2.980   1.424  -1.061  0.00  0.00     0.034 A 
ENDROOT
BRANCH   2   7
ATOM      7  N   UNL d   1       0.868   0.762  -0.041  0.00  0.00    -0.251 N 
ATOM      8  C   UNL d   1      -0.384   1.066   0.451  0.00  0.00     0.142 C 
ATOM      9  C   UNL d   1      -1.142  -0.081   0.311  0.00  0.00     0.072 C 
ATOM     10  C   UNL d   1      -0.320  -1.010  -0.363  0.00  0.00     0.134 C 
ATOM     11  N   UNL d   1       0.872  -0.455  -0.650  0.00  0.00    -0.289 N 
ATOM     12  HN  UNL d   1       1.623  -0.863  -1.207  1.00  0.00     0.187 HD
BRANCH   8  13
ATOM     13  C   UNL d   1      -0.816   2.389   0.933  0.00  0.00     0.434 C 
ATOM     14  F   UNL d   1      -0.011   3.419   0.591  0.00  0.00    -0.165 F 
ATOM     15  F   UNL d   1      -2.044   2.700   0.438  0.00  0.00    -0.165 F 
ATOM     16  F   UNL d   1      -0.933   2.401   2.284  0.00  0.00    -0.165 F 
ENDBRANCH   8  13
BRANCH  10  17
ATOM     17  C   UNL d   1      -0.714  -2.411  -0.757  0.00  0.00     0.434 C 
ATOM     18  F   UNL d   1       0.269  -3.105  -1.385  0.00  0.00    -0.165 F 
ATOM     19  F   UNL d   1      -1.078  -3.143   0.332  0.00  0.00    -0.165 F 
ATOM     20  F   UNL d   1      -1.790  -2.407  -1.589  0.00  0.00    -0.165 F 
ENDBRANCH  10  17
ENDBRANCH   2   7
BRANCH   1  21
ATOM     21  N   UNL d   1       5.496   4.040  -0.091  0.00  0.00    -0.244 N 
ATOM     22  C   UNL d   1       6.195   4.398  -1.225  0.00  0.00     0.266 A 
ATOM     23  C   UNL d   1       7.238   5.332  -0.808  0.00  0.00     0.048 A 
ATOM     24  O   UNL d   1       6.046   4.094  -2.399  0.00  0.00    -0.267 OA
ATOM     25  C   UNL d   1       8.197   6.004  -1.542  0.00  0.00     0.018 A 
ATOM     26  C   UNL d   1       7.138   5.486   0.557  0.00  0.00     0.048 A 
ATOM     27  C   UNL d   1       9.081   6.833  -0.840  0.00  0.00     0.001 A 
ATOM     28  C   UNL d   1       8.986   6.971   0.559  0.00  0.00     0.001 A 
ATOM     29  C   UNL d   1       8.000   6.291   1.277  0.00  0.00     0.018 A 
ATOM     30  C   UNL d   1       6.026   4.668   1.020  0.00  0.00     0.266 A 
ATOM     31  O   UNL d   1       5.742   4.612   2.200  0.00  0.00    -0.267 OA
ENDBRANCH   1  21
TORSDOF 4
