REMARK  3 active torsions:
REMARK  status: ('A' for Active; 'I' for Inactive)
REMARK    1  A    between atoms: C_2  and  C_1 
REMARK       I    between atoms: N_3  and  C_2 
REMARK    2  A    between atoms: C_5  and  N_3 
REMARK    3  A    between atoms: N_8  and  C_4 
ROOT
ATOM      1  C   UNL d   1       1.246   2.671   0.049  0.00  0.00     0.259 C 
ATOM      2  N   UNL d   1       1.901   2.978   1.230  0.00  0.00    -0.320 N 
ATOM      3  O   UNL d   1       0.926   3.468  -0.828  0.00  0.00    -0.267 OA
ATOM      4  H   UNL d   1       1.900   2.265   1.955  0.00  0.00     0.169 HD
ENDROOT
BRANCH   1   5
ATOM      5  C   UNL d   1       0.807   1.269  -0.085  0.00  0.00     0.074 A 
ATOM      6  C   UNL d   1       1.631   0.154   0.172  0.00  0.00     0.048 A 
ATOM      7  C   UNL d   1       0.998  -1.100   0.118  0.00  0.00     0.047 A 
ATOM      8  C   UNL d   1      -0.352  -1.190  -0.209  0.00  0.00     0.090 A 
ATOM      9  N   UNL d   1      -1.129  -0.131  -0.496  0.00  0.00    -0.374 N 
ATOM     10  C   UNL d   1      -0.531   1.078  -0.432  0.00  0.00     0.106 A 
ATOM     11  HN  UNL d   1      -2.113  -0.235  -0.747  1.00  0.00     0.164 HD
BRANCH   6  12
ATOM     12  N   UNL d   1       2.998   0.289   0.471  0.00  0.00    -0.389 N 
ATOM     13  C   UNL d   1       3.807   0.967  -0.556  0.00  0.00     0.149 C 
ATOM     14  C   UNL d   1       3.695  -0.813   1.134  0.00  0.00     0.149 C 
ENDBRANCH   6  12
ENDBRANCH   1   5
BRANCH   2  15
ATOM     15  C   UNL d   1       2.253   4.287   1.612  0.00  0.00     0.074 A 
ATOM     16  C   UNL d   1       2.201   4.624   2.970  0.00  0.00     0.146 A 
ATOM     17  C   UNL d   1       2.399   5.938   3.385  0.00  0.00     0.086 A 
ATOM     18  F   UNL d   1       1.870   3.695   3.877  0.00  0.00    -0.204 F 
ATOM     19  C   UNL d   1       2.713   6.901   2.437  0.00  0.00     0.119 A 
ATOM     20  C   UNL d   1       2.850   6.571   1.093  0.00  0.00     0.044 A 
ATOM     21  F   UNL d   1       2.881   8.174   2.820  0.00  0.00    -0.206 F 
ATOM     22  C   UNL d   1       2.614   5.261   0.678  0.00  0.00     0.036 A 
ENDBRANCH   2  15
TORSDOF 3
