REMARK  4 active torsions:
REMARK  status: ('A' for Active; 'I' for Inactive)
REMARK    1  A    between atoms: S_2  and  C_1 
REMARK    2  A    between atoms: N_7  and  S_2 
REMARK    3  A    between atoms: C_13  and  N_7 
REMARK    4  A    between atoms: C_9  and  C_13 
ROOT
ATOM      1  N   UNL d   1      -0.355  -3.603  -1.371  0.00  0.00    -0.211 NA
ATOM      2  H   UNL d   1      -0.602  -4.591  -1.300  0.00  0.00     0.140 HD
ENDROOT
BRANCH   1   3
ATOM      3  S   UNL d   1      -0.836  -2.813   0.041  0.00  0.00     0.248 S 
ATOM      4  O   UNL d   1      -0.699  -3.765   1.120  0.00  0.00    -0.205 OA
ATOM      5  O   UNL d   1      -2.084  -2.133  -0.220  0.00  0.00    -0.205 OA
BRANCH   3   6
ATOM      6  C   UNL d   1       0.330  -1.521   0.381  0.00  0.00     0.117 A 
ATOM      7  S   UNL d   1       1.950  -2.015   0.644  0.00  0.00    -0.068 SA
ATOM      8  C   UNL d   1       2.455  -0.414   0.910  0.00  0.00     0.070 A 
ATOM      9 BR   UNL d   1       4.237   0.008   1.316  0.00  0.00    -0.042 Br
ATOM     10  C   UNL d   1       1.428   0.485   0.786  0.00  0.00     0.037 A 
ATOM     11  C   UNL d   1       0.193  -0.148   0.482  0.00  0.00     0.053 A 
ATOM     12 BR   UNL d   1       1.521   2.363   0.973  0.00  0.00    -0.049 Br
ENDBRANCH   3   6
ENDBRANCH   1   3
BRANCH   1  13
ATOM     13  C   UNL d   1      -0.800  -2.977  -2.630  0.00  0.00     0.146 C 
BRANCH  13  14
ATOM     14  C   UNL d   1      -0.260  -3.677  -3.854  0.00  0.00    -0.006 A 
ATOM     15  C   UNL d   1      -1.038  -3.722  -5.019  0.00  0.00     0.126 A 
ATOM     16  C   UNL d   1      -0.574  -4.316  -6.187  0.00  0.00     0.085 A 
ATOM     17  F   UNL d   1      -2.263  -3.178  -5.021  0.00  0.00    -0.205 F 
ATOM     18  C   UNL d   1       0.698  -4.867  -6.197  0.00  0.00     0.119 A 
ATOM     19  C   UNL d   1       1.504  -4.829  -5.063  0.00  0.00     0.043 A 
ATOM     20  F   UNL d   1       1.161  -5.438  -7.316  0.00  0.00    -0.206 F 
ATOM     21  C   UNL d   1       1.031  -4.228  -3.893  0.00  0.00     0.014 A 
ENDBRANCH  13  14
ENDBRANCH   1  13
TORSDOF 4
