REMARK  3 active torsions:
REMARK  status: ('A' for Active; 'I' for Inactive)
REMARK    1  A    between atoms: C_6  and  C_2 
REMARK    2  A    between atoms: C_9  and  C_6 
REMARK    3  A    between atoms: C_8  and  C_9 
ROOT
ATOM      1  N   UNL d   1      -1.560   1.013  -0.007  0.00  0.00    -0.365 N 
ATOM      2  C   UNL d   1      -1.520  -1.218  -0.013  0.00  0.00    -0.030 A 
ATOM      3  C   UNL d   1      -2.344  -0.108  -0.004  0.00  0.00     0.096 A 
ATOM      4  C   UNL d   1      -0.171  -0.730  -0.021  0.00  0.00    -0.002 A 
ATOM      5  C   UNL d   1      -0.231   0.665  -0.010  0.00  0.00     0.042 A 
ATOM      6  C   UNL d   1       1.099  -1.342  -0.036  0.00  0.00     0.014 A 
ATOM      7  C   UNL d   1       0.912   1.475  -0.011  0.00  0.00     0.030 A 
ATOM      8  C   UNL d   1       2.252  -0.548  -0.028  0.00  0.00     0.001 A 
ATOM      9  C   UNL d   1       2.157   0.841  -0.017  0.00  0.00     0.002 A 
ATOM     10  H   UNL d   1      -1.903   1.964  -0.011  0.00  0.00     0.165 HD
ENDROOT
BRANCH   2  11
ATOM     11  C   UNL d   1      -1.975  -2.646  -0.032  0.00  0.00     0.048 C 
BRANCH  11  12
ATOM     12  C   UNL d   1      -1.582  -3.409   1.229  0.00  0.00     0.082 C 
BRANCH  12  13
ATOM     13  C   UNL d   1      -2.101  -4.834   1.218  0.00  0.00     0.123 C 
ATOM     14  O   UNL d   1      -2.799  -5.286   0.313  0.00  0.00    -0.298 OA
ATOM     15  C   UNL d   1      -1.709  -5.687   2.398  0.00  0.00     0.091 C 
ENDBRANCH  12  13
ENDBRANCH  11  12
ENDBRANCH   2  11
TORSDOF 3
