REMARK  3 active torsions:
REMARK  status: ('A' for Active; 'I' for Inactive)
REMARK    1  A    between atoms: C_4  and  C_1 
REMARK       I    between atoms: N_6  and  C_4 
REMARK       I    between atoms: C_5  and  N_6 
REMARK    2  A    between atoms: C_8  and  C_5 
REMARK    3  A    between atoms: O_14  and  C_11 
ROOT
ATOM      1  C   UNL d   1       3.931   0.069   0.312  0.00  0.00     0.267 C 
ATOM      2  C   UNL d   1       5.958  -1.060  -0.304  0.00  0.00     0.261 C 
ATOM      3  N   UNL d   1       4.597  -1.086  -0.072  0.00  0.00    -0.289 N 
ATOM      4  O   UNL d   1       4.551   1.032   0.768  0.00  0.00    -0.267 OA
ATOM      5  O   UNL d   1       6.579  -0.054  -0.650  0.00  0.00    -0.267 OA
ATOM      6  H   UNL d   1       4.089  -1.955  -0.052  0.00  0.00     0.172 HD
ENDROOT
BRANCH   1   7
ATOM      7  C   UNL d   1       2.470   0.076   0.228  0.00  0.00     0.096 A 
ATOM      8  S   UNL d   1       1.712   1.600   0.487  0.00  0.00    -0.082 SA
ATOM      9  C   UNL d   1       0.140   0.992   0.211  0.00  0.00     0.017 A 
ATOM     10  C   UNL d   1      -1.055   1.738   0.234  0.00  0.00     0.020 A 
ATOM     11  C   UNL d   1       0.160  -0.379  -0.050  0.00  0.00     0.004 A 
ATOM     12  C   UNL d   1      -2.264   1.092  -0.012  0.00  0.00     0.001 A 
ATOM     13  C   UNL d   1      -2.287  -0.271  -0.264  0.00  0.00     0.001 A 
ATOM     14  C   UNL d   1      -1.094  -1.009  -0.282  0.00  0.00     0.014 A 
ATOM     15  C   UNL d   1       1.519  -0.892  -0.034  0.00  0.00     0.068 A 
ATOM     16 CL   UNL d   1       1.848  -2.558  -0.321  0.00  0.00    -0.082 Cl
ENDBRANCH   1   7
BRANCH   2  17
ATOM     17  C   UNL d   1       6.748  -2.315  -0.193  0.00  0.00     0.065 A 
ATOM     18  C   UNL d   1       8.120  -2.210   0.116  0.00  0.00     0.081 A 
ATOM     19  C   UNL d   1       8.923  -3.343   0.229  0.00  0.00     0.037 A 
ATOM     20  C   UNL d   1       8.370  -4.602   0.011  0.00  0.00     0.003 A 
ATOM     21  C   UNL d   1       7.017  -4.721  -0.311  0.00  0.00     0.001 A 
ATOM     22  C   UNL d   1       6.202  -3.585  -0.410  0.00  0.00     0.020 A 
BRANCH  18  23
ATOM     23  O   UNL d   1       8.757  -1.013   0.322  0.00  0.00    -0.360 OA
ATOM     24  H   UNL d   1       8.159  -0.292   0.019  0.00  0.00     0.217 HD
ENDBRANCH  18  23
ENDBRANCH   2  17
TORSDOF 3
