REMARK  1 active torsions:
REMARK  status: ('A' for Active; 'I' for Inactive)
REMARK    1  A    between atoms: C_7  and  C_4 
ROOT
ATOM      1  C   UNL d   1      -1.236   0.118  -0.069  0.00  0.00     0.116 C 
ATOM      2  C   UNL d   1      -0.486   1.335   0.261  0.00  0.00     0.302 C 
ATOM      3  C   UNL d   1      -0.643  -1.186   0.256  0.00  0.00     0.302 C 
ATOM      4  C   UNL d   1      -2.423   0.106  -0.707  0.00  0.00     0.043 C 
ATOM      5  O   UNL d   1       0.853   1.197   0.242  0.00  0.00    -0.280 OA
ATOM      6  O   UNL d   1       0.701  -1.181   0.383  0.00  0.00    -0.280 OA
ATOM      7  C   UNL d   1       1.425  -0.058  -0.124  0.00  0.00     0.175 C 
ATOM      8  O   UNL d   1      -1.009   2.395   0.579  0.00  0.00    -0.259 OA
ATOM      9  O   UNL d   1      -1.302  -2.209   0.395  0.00  0.00    -0.259 OA
ATOM     10  C   UNL d   1       1.583  -0.160  -1.645  0.00  0.00     0.080 C 
ATOM     11  C   UNL d   1       2.807  -0.089   0.529  0.00  0.00     0.080 C 
ENDROOT
BRANCH   4  12
ATOM     12  C   UNL d   1      -3.038   1.275  -1.234  0.00  0.00     0.011 A 
ATOM     13  C   UNL d   1      -3.922   2.169  -0.642  0.00  0.00    -0.044 A 
ATOM     14  C   UNL d   1      -4.310   3.204  -1.559  0.00  0.00     0.015 A 
ATOM     15  C   UNL d   1      -4.416   2.115   0.768  0.00  0.00     0.049 C 
ATOM     16  C   UNL d   1      -3.716   3.074  -2.792  0.00  0.00     0.051 A 
ATOM     17  S   UNL d   1      -2.707   1.704  -2.869  0.00  0.00    -0.102 SA
ENDBRANCH   4  12
TORSDOF 1
