REMARK  3 active torsions:
REMARK  status: ('A' for Active; 'I' for Inactive)
REMARK    1  A    between atoms: CA_2  and  C_6 
REMARK    2  A    between atoms: C_7  and  C_4 
REMARK    3  A    between atoms: OXT_11  and  C_6 
ROOT
ATOM      1  N   UNL d   1      -1.275   1.278   0.184  0.00  0.00     0.118 N 
ATOM      2  CA  UNL d   1       0.020   1.300  -0.562  0.00  0.00     0.336 C 
ATOM      3  S   UNL d   1      -0.325  -1.216   0.064  0.00  0.00    -0.117 SA
ATOM      4  C   UNL d   1      -1.764  -0.111   0.099  0.00  0.00     0.317 C 
ATOM      5  C   UNL d   1       0.891   0.150  -0.023  0.00  0.00     0.044 C 
ATOM      6  C   UNL d   1       1.437   0.365   1.397  0.00  0.00     0.029 C 
ATOM      7  C   UNL d   1       2.022  -0.220  -0.980  0.00  0.00     0.029 C 
ATOM      8  H   UNL d   1      -1.956   1.867  -0.303  0.00  0.00     0.319 HD
ENDROOT
BRANCH   4   9
ATOM      9  C   UNL d   1      -2.714  -0.455   1.226  0.00  0.00    -0.015 A 
ATOM     10  C   UNL d   1      -2.564   0.090   2.514  0.00  0.00     0.012 A 
ATOM     11  C   UNL d   1      -3.451  -0.241   3.543  0.00  0.00     0.024 A 
ATOM     12  C   UNL d   1      -4.489  -1.135   3.299  0.00  0.00     0.034 A 
ATOM     13  C   UNL d   1      -4.644  -1.705   2.038  0.00  0.00     0.024 A 
ATOM     14 CL   UNL d   1      -5.583  -1.538   4.564  0.00  0.00    -0.084 Cl
ATOM     15  C   UNL d   1      -3.759  -1.370   1.006  0.00  0.00     0.012 A 
ENDBRANCH   4   9
BRANCH   2  16
ATOM     16  C   UNL d   1       0.685   2.664  -0.363  0.00  0.00     0.175 C 
ATOM     17  O   UNL d   1       1.537   3.135  -1.099  0.00  0.00    -0.648 OA
BRANCH  16  18
ATOM     18  OXT UNL d   1       0.232   3.296   0.750  0.00  0.00    -0.775 OA
ATOM     19  HXT UNL d   1      -0.457   2.720   1.161  0.00  0.00     0.167 HD
ENDBRANCH  16  18
ENDBRANCH   2  16
TORSDOF 3
