REMARK  5 active torsions:
REMARK  status: ('A' for Active; 'I' for Inactive)
REMARK    1  A    between atoms: C_2  and  C_1 
REMARK    2  A    between atoms: O_10  and  C_1 
REMARK    3  A    between atoms: C_4  and  C_3 
REMARK    4  A    between atoms: C_6  and  C_4 
REMARK    5  A    between atoms: C_5  and  O_10 
ROOT
ATOM      1  C   UNL d   1       4.454  -0.302   1.178  0.00  0.00     0.080 C 
ATOM      2  C   UNL d   1       3.118  -0.214   1.171  0.00  0.00     0.150 C 
ENDROOT
BRANCH   2   3
ATOM      3  O   UNL d   1       2.398   0.183   0.036  0.00  0.00    -0.287 OA
BRANCH   3   4
ATOM      4  C   UNL d   1       1.036   0.104   0.151  0.00  0.00     0.297 C 
ATOM      5  O   UNL d   1       0.404  -0.364   1.089  0.00  0.00    -0.259 OA
BRANCH   4   6
ATOM      6  C   UNL d   1       0.360   0.692  -1.042  0.00  0.00     0.042 A 
ATOM      7  C   UNL d   1       1.061   1.177  -2.151  0.00  0.00     0.059 A 
ATOM      8  C   UNL d   1       0.355   1.729  -3.217  0.00  0.00     0.117 A 
ATOM      9  F   UNL d   1       1.029   2.196  -4.276  0.00  0.00    -0.206 F 
ATOM     10  C   UNL d   1      -1.032   1.810  -3.206  0.00  0.00     0.042 A 
ATOM     11  C   UNL d   1      -1.739   1.325  -2.108  0.00  0.00     0.004 A 
ATOM     12  C   UNL d   1      -1.044   0.767  -1.030  0.00  0.00     0.018 A 
ENDBRANCH   4   6
ENDBRANCH   3   4
ENDBRANCH   2   3
BRANCH   1  13
ATOM     13  C   UNL d   1       5.140  -0.661   2.447  0.00  0.00     0.183 C 
ATOM     14  O   UNL d   1       4.604  -0.500   3.539  0.00  0.00    -0.288 OA
BRANCH  13  15
ATOM     15  C   UNL d   1       6.528  -1.191   2.376  0.00  0.00     0.014 A 
ATOM     16  C   UNL d   1       7.391  -0.946   3.456  0.00  0.00     0.017 A 
ATOM     17  C   UNL d   1       8.680  -1.488   3.467  0.00  0.00     0.025 A 
ATOM     18  C   UNL d   1       9.103  -2.285   2.406  0.00  0.00     0.034 A 
ATOM     19  C   UNL d   1       8.252  -2.535   1.328  0.00  0.00     0.025 A 
ATOM     20 CL   UNL d   1      10.674  -2.985   2.434  0.00  0.00    -0.084 Cl
ATOM     21  C   UNL d   1       6.964  -1.988   1.311  0.00  0.00     0.017 A 
ENDBRANCH  13  15
ENDBRANCH   1  13
TORSDOF 5
