REMARK  2 active torsions:
REMARK  status: ('A' for Active; 'I' for Inactive)
REMARK    1  A    between atoms: C_6  and  C_1 
REMARK    2  A    between atoms: C_12  and  C_6 
ROOT
ATOM      1  C   UNL d   1      -2.425   0.105  -0.035  0.00  0.00     0.128 A 
ATOM      2  O   UNL d   1      -1.625  -1.005  -0.061  0.00  0.00    -0.304 OA
ATOM      3  C   UNL d   1      -0.329  -0.580  -0.016  0.00  0.00     0.108 A 
ATOM      4  C   UNL d   1      -0.286   0.810   0.030  0.00  0.00     0.004 A 
ATOM      5  C   UNL d   1      -1.638   1.239   0.050  0.00  0.00     0.055 A 
ATOM      6  C   UNL d   1       0.812  -1.383  -0.018  0.00  0.00     0.070 A 
ATOM      7  C   UNL d   1       2.052  -0.740   0.005  0.00  0.00     0.050 A 
ATOM      8  C   UNL d   1       0.967   1.448   0.049  0.00  0.00     0.038 A 
ATOM      9  C   UNL d   1       2.122   0.654   0.030  0.00  0.00     0.036 A 
ATOM     10 CL   UNL d   1       0.713  -3.095  -0.051  0.00  0.00    -0.081 Cl
ATOM     11 CL   UNL d   1       3.664   1.421   0.036  0.00  0.00    -0.084 Cl
ENDROOT
BRANCH   1  12
ATOM     12  C   UNL d   1      -3.866  -0.032  -0.051  0.00  0.00     0.215 C 
ATOM     13  O   UNL d   1      -4.612   0.825   0.424  0.00  0.00    -0.284 OA
BRANCH  12  14
ATOM     14  C   UNL d   1      -4.494  -1.220  -0.698  0.00  0.00     0.017 A 
ATOM     15  C   UNL d   1      -3.913  -1.853  -1.804  0.00  0.00     0.015 A 
ATOM     16  C   UNL d   1      -4.561  -2.926  -2.420  0.00  0.00     0.001 A 
ATOM     17  C   UNL d   1      -5.794  -3.366  -1.939  0.00  0.00     0.000 A 
ATOM     18  C   UNL d   1      -6.384  -2.733  -0.845  0.00  0.00     0.001 A 
ATOM     19  C   UNL d   1      -5.741  -1.659  -0.230  0.00  0.00     0.015 A 
ENDBRANCH  12  14
ENDBRANCH   1  12
TORSDOF 2
