REMARK  2 active torsions:
REMARK  status: ('A' for Active; 'I' for Inactive)
REMARK    1  A    between atoms: C_16  and  N_1 
REMARK    2  A    between atoms: C_9  and  C_20 
ROOT
ATOM      1  N   UNL d   1      -2.318   0.121   0.053  0.00  0.00    -0.252 N 
ATOM      2  C   UNL d   1      -1.631   1.190   0.594  0.00  0.00     0.236 C 
ATOM      3  C   UNL d   1      -1.494  -0.956  -0.199  0.00  0.00     0.236 C 
ATOM      4  C   UNL d   1      -0.224   0.753   0.914  0.00  0.00     0.100 C 
ATOM      5  C   UNL d   1      -0.113  -0.647   0.286  0.00  0.00     0.100 C 
ATOM      6  C   UNL d   1       0.929  -0.442  -0.836  0.00  0.00     0.022 C 
ATOM      7  C   UNL d   1       0.855   1.559   0.165  0.00  0.00     0.022 C 
ATOM      8  C   UNL d   1       2.202   0.940   0.488  0.00  0.00    -0.025 C 
ATOM      9  C   UNL d   1       2.254  -0.251  -0.131  0.00  0.00    -0.025 C 
ATOM     10  C   UNL d   1       0.705   1.016  -1.261  0.00  0.00     0.018 C 
ATOM     11  O   UNL d   1      -1.758  -2.004  -0.779  0.00  0.00    -0.272 OA
ATOM     12  O   UNL d   1      -2.032   2.320   0.833  0.00  0.00    -0.272 OA
ENDROOT
BRANCH   1  13
ATOM     13  C   UNL d   1      -3.711   0.124  -0.248  0.00  0.00     0.045 A 
ATOM     14  C   UNL d   1      -4.449  -1.070  -0.219  0.00  0.00     0.031 A 
ATOM     15  C   UNL d   1      -5.830  -1.083  -0.451  0.00  0.00     0.016 A 
ATOM     16  C   UNL d   1      -6.513   0.100  -0.744  0.00  0.00    -0.008 A 
ATOM     17  C   UNL d   1      -5.781   1.290  -0.815  0.00  0.00     0.016 A 
ATOM     18  C   UNL d   1      -4.402   1.304  -0.552  0.00  0.00     0.031 A 
BRANCH  16  19
ATOM     19  C   UNL d   1      -7.952   0.114  -0.968  0.00  0.00     0.063 A 
ATOM     20  N   UNL d   1      -8.541   1.022  -1.841  0.00  0.00    -0.292 N 
ATOM     21  N   UNL d   1      -9.854   0.876  -1.895  0.00  0.00    -0.061 NA
ATOM     22  HN  UNL d   1      -8.021   1.718  -2.376  1.00  0.00     0.183 HD
ATOM     23  S   UNL d   1     -10.416  -0.335  -0.888  0.00  0.00    -0.010 SA
ATOM     24  C   UNL d   1      -8.844  -0.728  -0.324  0.00  0.00     0.096 A 
ENDBRANCH  16  19
ENDBRANCH   1  13
TORSDOF 2
