REMARK  4 active torsions:
REMARK  status: ('A' for Active; 'I' for Inactive)
REMARK    1  A    between atoms: C_2  and  S_1 
REMARK    2  A    between atoms: N_3  and  S_1 
REMARK    3  A    between atoms: C_9  and  C_14 
REMARK    4  A    between atoms: C_16  and  C_9 
ROOT
ATOM      1  N   UNL d   1       0.395  -1.633  -0.011  0.00  0.00    -0.307 N 
ATOM      2  C   UNL d   1       1.464  -2.651   0.173  0.00  0.00     0.136 C 
ATOM      3  C   UNL d   1      -0.668  -1.999  -0.967  0.00  0.00     0.136 C 
ATOM      4  C   UNL d   1      -0.157  -4.451  -0.677  0.00  0.00     0.064 C 
ATOM      5  C   UNL d   1      -1.238  -3.370  -0.638  0.00  0.00     0.033 C 
ATOM      6  C   UNL d   1       0.895  -4.064   0.382  0.00  0.00     0.033 C 
ENDROOT
BRANCH   1   7
ATOM      7  S   UNL d   1       0.913  -0.003  -0.142  0.00  0.00     0.265 S 
ATOM      8  O   UNL d   1      -0.259   0.837  -0.205  0.00  0.00    -0.200 OA
ATOM      9  O   UNL d   1       1.939   0.225   0.857  0.00  0.00    -0.200 OA
BRANCH   7  10
ATOM     10  C   UNL d   1       1.705   0.267  -1.644  0.00  0.00     0.134 A 
ATOM     11  C   UNL d   1       1.181   0.719  -2.841  0.00  0.00     0.098 A 
ATOM     12  O   UNL d   1       2.190   0.803  -3.752  0.00  0.00    -0.241 OA
ATOM     13  C   UNL d   1      -0.130   1.137  -3.374  0.00  0.00     0.081 C 
ATOM     14  N   UNL d   1       3.380   0.433  -3.172  0.00  0.00    -0.264 N 
ATOM     15  C   UNL d   1       3.092   0.126  -1.901  0.00  0.00     0.054 A 
ATOM     16  HN  UNL d   1       4.296   0.400  -3.618  1.00  0.00     0.194 HD
ATOM     17  C   UNL d   1       4.196  -0.271  -0.996  0.00  0.00     0.072 C 
ENDBRANCH   7  10
ENDBRANCH   1   7
BRANCH   4  18
ATOM     18  C   UNL d   1       0.508  -4.649  -2.050  0.00  0.00     0.163 C 
ATOM     19  O   UNL d   1       1.728  -4.539  -2.182  0.00  0.00    -0.292 OA
BRANCH  18  20
ATOM     20  C   UNL d   1      -0.297  -4.979  -3.269  0.00  0.00     0.010 A 
ATOM     21  C   UNL d   1      -1.645  -5.349  -3.230  0.00  0.00     0.015 A 
ATOM     22  C   UNL d   1      -2.356  -5.546  -4.419  0.00  0.00     0.001 A 
ATOM     23  C   UNL d   1      -1.715  -5.423  -5.651  0.00  0.00     0.000 A 
ATOM     24  C   UNL d   1      -0.359  -5.114  -5.700  0.00  0.00     0.001 A 
ATOM     25  C   UNL d   1       0.345  -4.890  -4.515  0.00  0.00     0.015 A 
ENDBRANCH  18  20
ENDBRANCH   4  18
TORSDOF 4
