REMARK  7 active torsions:
REMARK  status: ('A' for Active; 'I' for Inactive)
REMARK    1  A    between atoms: C_22  and  N_1 
REMARK    2  A    between atoms: C_23  and  N_2 
REMARK    3  A    between atoms: C_3  and  S_13 
REMARK    4  A    between atoms: C_21  and  C_8 
REMARK    5  A    between atoms: S_13  and  C_14 
REMARK    6  A    between atoms: C_25  and  C_22 
REMARK    7  A    between atoms: C_24  and  C_23 
ROOT
ATOM      1  N   UNL d   1      -3.657  -3.392  -0.792  0.00  0.00    -0.307 N 
ATOM      2  C   UNL d   1      -2.796  -3.607   0.258  0.00  0.00     0.169 A 
ATOM      3  C   UNL d   1      -4.855  -3.989  -0.423  0.00  0.00     0.135 A 
ATOM      4  N   UNL d   1      -4.661  -4.595   0.739  0.00  0.00    -0.283 N 
ATOM      5  HN  UNL d   1      -5.351  -5.161   1.233  1.00  0.00     0.188 HD
ATOM      6  N   UNL d   1      -3.384  -4.338   1.172  0.00  0.00    -0.278 N 
ATOM      7  HN  UNL d   1      -2.969  -4.659   2.047  1.00  0.00     0.189 HD
ENDROOT
BRANCH   2   8
ATOM      8  S   UNL d   1      -1.144  -3.094   0.303  0.00  0.00    -0.033 SA
BRANCH   8   9
ATOM      9  C   UNL d   1      -1.174  -2.150   1.820  0.00  0.00     0.099 A 
ATOM     10  C   UNL d   1      -0.482  -2.535   2.944  0.00  0.00     0.086 A 
ATOM     11  C   UNL d   1      -0.467  -1.636   3.994  0.00  0.00     0.130 A 
ATOM     12  S   UNL d   1       0.476  -3.962   3.317  0.00  0.00    -0.054 SA
ATOM     13  N   UNL d   1       0.307  -2.079   5.096  0.00  0.00    -0.314 N 
ATOM     14  N   UNL d   1      -1.079  -0.444   3.976  0.00  0.00    -0.337 N 
ATOM     15  C   UNL d   1       0.901  -3.323   4.919  0.00  0.00     0.147 A 
ATOM     16  S   UNL d   1       1.891  -4.155   5.973  0.00  0.00    -0.052 SA
ATOM     17  C   UNL d   1      -1.734  -0.168   2.842  0.00  0.00     0.182 A 
ATOM     18  HN  UNL d   1      -1.048   0.202   4.764  1.00  0.00     0.168 HD
ATOM     19  N   UNL d   1      -1.804  -0.952   1.753  0.00  0.00    -0.345 N 
ATOM     20  HN  UNL d   1      -2.309  -0.661   0.916  1.00  0.00     0.167 HD
BRANCH  13  21
ATOM     21  C   UNL d   1       0.458  -1.221   6.265  0.00  0.00     0.158 C 
BRANCH  21  22
ATOM     22  C   UNL d   1      -0.558  -1.498   7.341  0.00  0.00    -0.017 C 
ATOM     23  C   UNL d   1      -1.605  -2.332   7.314  0.00  0.00     0.008 C 
ENDBRANCH  21  22
ENDBRANCH  13  21
ENDBRANCH   8   9
ENDBRANCH   2   8
BRANCH   1  24
ATOM     24  C   UNL d   1      -3.336  -2.809  -2.084  0.00  0.00     0.159 C 
BRANCH  24  25
ATOM     25  C   UNL d   1      -3.625  -1.337  -2.228  0.00  0.00    -0.017 C 
ATOM     26  C   UNL d   1      -3.728  -0.423  -1.253  0.00  0.00     0.008 C 
ENDBRANCH  24  25
ENDBRANCH   1  24
BRANCH   3  27
ATOM     27  C   UNL d   1      -6.136  -3.990  -1.148  0.00  0.00     0.009 A 
ATOM     28  C   UNL d   1      -6.953  -5.133  -1.115  0.00  0.00     0.015 A 
ATOM     29  C   UNL d   1      -8.217  -5.136  -1.718  0.00  0.00     0.001 A 
ATOM     30  C   UNL d   1      -8.684  -3.998  -2.372  0.00  0.00     0.000 A 
ATOM     31  C   UNL d   1      -7.888  -2.859  -2.414  0.00  0.00     0.001 A 
ATOM     32  C   UNL d   1      -6.636  -2.853  -1.796  0.00  0.00     0.015 A 
ENDBRANCH   3  27
TORSDOF 7
