REMARK  8 active torsions:
REMARK  status: ('A' for Active; 'I' for Inactive)
REMARK    1  A    between atoms: C_8  and  N_1 
REMARK    2  A    between atoms: C_7  and  C_6 
REMARK    3  A    between atoms: C_18  and  C_8 
REMARK    4  A    between atoms: O_19  and  C_9 
REMARK    5  A    between atoms: O_21  and  C_11 
REMARK    6  A    between atoms: O_22  and  C_13 
REMARK    7  A    between atoms: O_23  and  C_15 
REMARK    8  A    between atoms: C_17  and  C_18 
ROOT
ATOM      1  N   UNL d   1       0.905   0.472  -0.430  0.00  0.00    -0.298 N 
ATOM      2  C   UNL d   1       0.577  -0.870  -0.442  0.00  0.00     0.148 C 
ATOM      3  C   UNL d   1      -1.438   0.605  -0.589  0.00  0.00     0.076 C 
ATOM      4  C   UNL d   1      -0.158   1.364  -0.556  0.00  0.00     0.266 C 
ATOM      5  S   UNL d   1      -1.128  -1.065  -0.825  0.00  0.00    -0.055 SA
ATOM      6  C   UNL d   1      -2.596   1.175  -0.234  0.00  0.00     0.039 C 
ATOM      7  S   UNL d   1       1.543  -2.189  -0.107  0.00  0.00    -0.052 SA
ATOM      8  O   UNL d   1      -0.095   2.583  -0.531  0.00  0.00    -0.266 OA
ENDROOT
BRANCH   1   9
ATOM      9  C   UNL d   1       2.224   1.004  -0.058  0.00  0.00     0.138 C 
BRANCH   9  10
ATOM     10  C   UNL d   1       3.337   0.707  -1.071  0.00  0.00     0.059 C 
BRANCH  10  11
ATOM     11  C   UNL d   1       4.642   1.356  -0.668  0.00  0.00    -0.054 A 
ATOM     12  C   UNL d   1       5.531   0.708   0.210  0.00  0.00     0.046 A 
ATOM     13  C   UNL d   1       6.735   1.314   0.611  0.00  0.00     0.102 A 
ATOM     14  C   UNL d   1       7.054   2.584   0.100  0.00  0.00     0.101 A 
ATOM     15  C   UNL d   1       6.155   3.236  -0.753  0.00  0.00     0.040 A 
ATOM     16  C   UNL d   1       4.961   2.631  -1.137  0.00  0.00     0.010 A 
BRANCH  13  17
ATOM     17  O   UNL d   1       7.608   0.752   1.503  0.00  0.00    -0.353 OA
ATOM     18  C   UNL d   1       7.287  -0.515   2.060  0.00  0.00     0.210 C 
ENDBRANCH  13  17
BRANCH  14  19
ATOM     19  O   UNL d   1       8.164   3.338   0.387  0.00  0.00    -0.353 OA
ATOM     20  C   UNL d   1       9.377   2.629   0.608  0.00  0.00     0.210 C 
ENDBRANCH  14  19
ENDBRANCH  10  11
ENDBRANCH   9  10
ENDBRANCH   1   9
BRANCH   6  21
ATOM     21  C   UNL d   1      -3.831   0.424   0.050  0.00  0.00     0.002 A 
ATOM     22  C   UNL d   1      -4.158  -0.168   1.298  0.00  0.00     0.111 A 
ATOM     23  C   UNL d   1      -5.347  -0.933   1.387  0.00  0.00     0.102 A 
ATOM     24  C   UNL d   1      -6.180  -1.074   0.267  0.00  0.00     0.040 A 
ATOM     25  C   UNL d   1      -5.864  -0.475  -0.944  0.00  0.00     0.004 A 
ATOM     26  C   UNL d   1      -4.695   0.269  -1.051  0.00  0.00     0.014 A 
BRANCH  22  27
ATOM     27  O   UNL d   1      -3.434  -0.097   2.455  0.00  0.00    -0.352 OA
ATOM     28  C   UNL d   1      -2.284   0.707   2.617  0.00  0.00     0.210 C 
ENDBRANCH  22  27
BRANCH  23  29
ATOM     29  O   UNL d   1      -5.858  -1.610   2.469  0.00  0.00    -0.353 OA
ATOM     30  C   UNL d   1      -5.139  -1.640   3.692  0.00  0.00     0.210 C 
ENDBRANCH  23  29
ENDBRANCH   6  21
TORSDOF 8
