REMARK  3 active torsions:
REMARK  status: ('A' for Active; 'I' for Inactive)
REMARK       I    between atoms: N_2  and  C_1 
REMARK    1  A    between atoms: O_3  and  C_1 
REMARK    2  A    between atoms: C_7  and  O_3 
REMARK    3  A    between atoms: O_11  and  C_10 
ROOT
ATOM      1  C   UNL d   1       0.926   0.041  -0.007  0.00  0.00     0.363 C 
ATOM      2  N   UNL d   1       0.337   0.630   1.098  0.00  0.00    -0.328 N 
ATOM      3  O   UNL d   1       1.765   0.618  -0.692  0.00  0.00    -0.238 OA
ATOM      4  C   UNL d   1      -0.674   0.006   1.939  0.00  0.00     0.130 C 
ATOM      5  C   UNL d   1       0.718   1.985   1.473  0.00  0.00     0.130 C 
ATOM      6  C   UNL d   1      -1.941   0.861   1.979  0.00  0.00     0.051 C 
ATOM      7  C   UNL d   1      -0.499   2.902   1.458  0.00  0.00     0.051 C 
ATOM      8  C   UNL d   1      -1.654   2.335   2.286  0.00  0.00     0.121 C 
ENDROOT
BRANCH   1   9
ATOM      9  O   UNL d   1       0.493  -1.226  -0.247  0.00  0.00    -0.294 OA
BRANCH   9  10
ATOM     10  C   UNL d   1       1.064  -1.990  -1.349  0.00  0.00     0.061 C 
ATOM     11  C   UNL d   1       2.563  -2.242  -1.133  0.00  0.00     0.046 C 
ATOM     12  C   UNL d   1       0.350  -3.353  -1.328  0.00  0.00     0.046 C 
ATOM     13  C   UNL d   1       0.780  -1.330  -2.705  0.00  0.00     0.046 C 
ENDBRANCH   9  10
ENDBRANCH   1   9
BRANCH   8  14
ATOM     14  O   UNL d   1      -1.403   2.514   3.679  0.00  0.00    -0.395 OA
ATOM     15  H   UNL d   1      -0.599   2.030   3.926  0.00  0.00     0.210 HD
ENDBRANCH   8  14
TORSDOF 3
