REMARK  3 active torsions:
REMARK  status: ('A' for Active; 'I' for Inactive)
REMARK    1  A    between atoms: C_7  and  C_1 
REMARK    2  A    between atoms: S_9  and  C_4 
REMARK    3  A    between atoms: S_10  and  C_5 
REMARK       I    between atoms: N_11  and  C_7 
ROOT
ATOM      1  C   UNL d   1      -1.508  -0.852  -0.005  0.00  0.00     0.090 A 
ATOM      2  N   UNL d   1      -0.100   1.072  -0.008  0.00  0.00    -0.319 N 
ATOM      3  HN  UNL d   1       0.157   2.059  -0.020  1.00  0.00     0.175 HD
ATOM      4  C   UNL d   1      -0.239  -1.446   0.004  0.00  0.00     0.076 A 
ATOM      5  C   UNL d   1      -1.337   0.597  -0.012  0.00  0.00     0.093 A 
ATOM      6  S   UNL d   1       0.947  -0.182   0.021  0.00  0.00    -0.006 SA
ENDROOT
BRANCH   1   7
ATOM      7  C   UNL d   1      -2.785  -1.555   0.014  0.00  0.00     0.254 C 
ATOM      8  O   UNL d   1      -2.977  -2.634   0.567  0.00  0.00    -0.268 OA
ATOM      9  N   UNL d   1      -3.846  -0.958  -0.606  0.00  0.00    -0.366 N 
ATOM     10  H   UNL d   1      -3.836   0.029  -0.830  0.00  0.00     0.159 HD
ATOM     11  H   UNL d   1      -4.749  -1.391  -0.456  0.00  0.00     0.159 HD
ENDBRANCH   1   7
BRANCH   4  12
ATOM     12  S   UNL d   1       0.443  -3.068  -0.041  0.00  0.00    -0.125 SA
ATOM     13  C   UNL d   1      -0.866  -4.281   0.005  0.00  0.00     0.096 C 
ENDBRANCH   4  12
BRANCH   5  14
ATOM     14  S   UNL d   1      -2.662   1.779   0.001  0.00  0.00    -0.115 SA
ATOM     15  C   UNL d   1      -1.769   3.352  -0.058  0.00  0.00     0.097 C 
ENDBRANCH   5  14
TORSDOF 3
