REMARK  6 active torsions:
REMARK  status: ('A' for Active; 'I' for Inactive)
REMARK    1  A    between atoms: C_6  and  C_1 
REMARK    2  A    between atoms: C_11  and  N_2 
REMARK    3  A    between atoms: C_16  and  C_3 
REMARK       I    between atoms: N_9  and  C_6 
REMARK    4  A    between atoms: N_8  and  C_10 
REMARK    5  A    between atoms: C_13  and  N_9 
REMARK    6  A    between atoms: C_23  and  C_16 
ROOT
ATOM      1  C   UNL d   1      -0.618   2.510  -0.008  0.00  0.00     0.259 C 
ATOM      2  N   UNL d   1       0.342   3.468   0.266  0.00  0.00    -0.323 N 
ATOM      3  O   UNL d   1      -1.795   2.765  -0.243  0.00  0.00    -0.267 OA
ATOM      4  H   UNL d   1       1.285   3.154   0.398  0.00  0.00     0.169 HD
ENDROOT
BRANCH   1   5
ATOM      5  C   UNL d   1      -0.208   1.098   0.041  0.00  0.00     0.073 C 
ATOM      6  C   UNL d   1       1.009   0.396   0.063  0.00  0.00     0.051 C 
ATOM      7  N   UNL d   1       0.658  -0.968   0.151  0.00  0.00    -0.260 N 
ATOM      8  N   UNL d   1      -0.675  -1.122   0.331  0.00  0.00    -0.304 N 
ATOM      9  C   UNL d   1      -1.185   0.081   0.140  0.00  0.00     0.126 C 
ATOM     10  HN  UNL d   1      -1.175  -1.980   0.563  1.00  0.00     0.186 HD
BRANCH   6  11
ATOM     11  C   UNL d   1       2.431   0.878   0.157  0.00  0.00     0.060 C 
BRANCH  11  12
ATOM     12  C   UNL d   1       3.112   1.272  -1.160  0.00  0.00     0.002 C 
ATOM     13  C   UNL d   1       2.368   2.248  -2.054  0.00  0.00     0.005 C 
ENDBRANCH  11  12
ENDBRANCH   6  11
BRANCH   7  14
ATOM     14  C   UNL d   1       1.418  -2.171   0.028  0.00  0.00     0.056 A 
ATOM     15  C   UNL d   1       0.965  -3.326   0.693  0.00  0.00     0.031 A 
ATOM     16  C   UNL d   1       1.563  -4.566   0.461  0.00  0.00     0.002 A 
ATOM     17  C   UNL d   1       2.607  -4.671  -0.453  0.00  0.00     0.000 A 
ATOM     18  C   UNL d   1       3.073  -3.532  -1.106  0.00  0.00     0.002 A 
ATOM     19  C   UNL d   1       2.487  -2.284  -0.861  0.00  0.00     0.031 A 
ENDBRANCH   7  14
ENDBRANCH   1   5
BRANCH   2  20
ATOM     20  C   UNL d   1       0.117   4.847   0.520  0.00  0.00     0.035 A 
ATOM     21  C   UNL d   1      -1.136   5.444   0.535  0.00  0.00     0.032 A 
ATOM     22  C   UNL d   1      -1.296   6.773   0.961  0.00  0.00     0.031 A 
ATOM     23  C   UNL d   1      -0.228   7.570   1.404  0.00  0.00     0.030 A 
ATOM     24  C   UNL d   1       1.039   6.977   1.276  0.00  0.00     0.031 A 
ATOM     25  C   UNL d   1       1.215   5.646   0.843  0.00  0.00     0.032 A 
BRANCH  23  26
ATOM     26  N   UNL d   1      -0.423   8.811   1.986  0.00  0.00    -0.381 N 
ATOM     27  C   UNL d   1       0.598   9.867   1.991  0.00  0.00     0.123 C 
ATOM     28  C   UNL d   1       0.711  10.480   3.391  0.00  0.00     0.020 C 
ATOM     29  C   UNL d   1      -0.641  10.954   3.918  0.00  0.00     0.003 C 
ATOM     30  C   UNL d   1      -1.678   9.842   3.825  0.00  0.00     0.020 C 
ATOM     31  C   UNL d   1      -1.757   9.263   2.412  0.00  0.00     0.123 C 
ENDBRANCH  23  26
ENDBRANCH   2  20
TORSDOF 6
