REMARK  7 active torsions:
REMARK  status: ('A' for Active; 'I' for Inactive)
REMARK    1  A    between atoms: C_9  and  C_1 
REMARK    2  A    between atoms: C_12  and  N_2 
REMARK    3  A    between atoms: C_7  and  C_5 
REMARK    4  A    between atoms: C_19  and  C_6 
REMARK    5  A    between atoms: N_8  and  C_14 
REMARK    6  A    between atoms: O_28  and  C_9 
REMARK    7  A    between atoms: C_32  and  O_28 
ROOT
ATOM      1  C   UNL d   1      -1.313  -0.020  -0.199  0.00  0.00     0.241 C 
ATOM      2  N   UNL d   1      -0.382   1.072   0.195  0.00  0.00    -0.257 N 
ATOM      3  N   UNL d   1       0.925   0.673   0.206  0.00  0.00    -0.298 N 
ATOM      4  HN  UNL d   1       1.737   1.280   0.327  1.00  0.00     0.187 HD
ATOM      5  C   UNL d   1       0.952  -0.612   0.036  0.00  0.00     0.050 C 
ATOM      6  C   UNL d   1      -0.421  -1.272   0.043  0.00  0.00     0.126 C 
ATOM      7  C   UNL d   1      -1.729   0.110  -1.615  0.00  0.00     0.105 C 
ATOM      8  N   UNL d   1      -2.057   0.193  -2.728  0.00  0.00    -0.194 NA
ENDROOT
BRANCH   1   9
ATOM      9  C   UNL d   1      -2.566  -0.043   0.695  0.00  0.00     0.305 C 
ATOM     10  O   UNL d   1      -3.714  -0.167   0.280  0.00  0.00    -0.261 OA
BRANCH   9  11
ATOM     11  O   UNL d   1      -2.280   0.135   2.023  0.00  0.00    -0.319 OA
BRANCH  11  12
ATOM     12  C   UNL d   1      -3.385   0.573   2.839  0.00  0.00     0.174 C 
ATOM     13  C   UNL d   1      -4.032  -0.581   3.580  0.00  0.00     0.034 C 
ENDBRANCH  11  12
ENDBRANCH   9  11
ENDBRANCH   1   9
BRANCH   2  14
ATOM     14  C   UNL d   1      -0.678   2.404   0.464  0.00  0.00     0.053 A 
ATOM     15  C   UNL d   1       0.214   3.167   1.248  0.00  0.00     0.034 A 
ATOM     16  C   UNL d   1      -0.041   4.497   1.592  0.00  0.00     0.038 A 
ATOM     17  C   UNL d   1      -1.205   5.105   1.127  0.00  0.00     0.103 A 
ATOM     18  C   UNL d   1      -2.103   4.390   0.328  0.00  0.00     0.038 A 
ATOM     19  C   UNL d   1      -1.838   3.049   0.009  0.00  0.00     0.034 A 
BRANCH  17  20
ATOM     20  N   UNL d   1      -1.489   6.504   1.482  0.00  0.00    -0.116 N 
ATOM     21  O   UNL d   1      -2.509   7.019   1.012  0.00  0.00    -0.532 OA
ATOM     22  O   UNL d   1      -0.693   7.076   2.238  0.00  0.00    -0.532 OA
ENDBRANCH  17  20
ENDBRANCH   2  14
BRANCH   6  23
ATOM     23  C   UNL d   1      -0.605  -2.453  -0.887  0.00  0.00    -0.044 A 
ATOM     24  C   UNL d   1      -1.442  -3.509  -0.494  0.00  0.00     0.008 A 
ATOM     25  C   UNL d   1      -1.643  -4.605  -1.335  0.00  0.00     0.001 A 
ATOM     26  C   UNL d   1      -1.016  -4.659  -2.577  0.00  0.00     0.000 A 
ATOM     27  C   UNL d   1      -0.192  -3.615  -2.985  0.00  0.00     0.001 A 
ATOM     28  C   UNL d   1       0.008  -2.517  -2.150  0.00  0.00     0.008 A 
ENDBRANCH   6  23
BRANCH   5  29
ATOM     29  C   UNL d   1       2.233  -1.366  -0.060  0.00  0.00     0.011 A 
ATOM     30  C   UNL d   1       3.337  -0.872  -0.781  0.00  0.00     0.048 A 
ATOM     31  C   UNL d   1       4.528  -1.606  -0.842  0.00  0.00     0.048 A 
ATOM     32 CL   UNL d   1       3.295   0.592  -1.701  0.00  0.00    -0.083 Cl
ATOM     33  C   UNL d   1       4.618  -2.837  -0.198  0.00  0.00     0.035 A 
ATOM     34  C   UNL d   1       3.527  -3.344   0.504  0.00  0.00     0.025 A 
ATOM     35 CL   UNL d   1       6.078  -3.741  -0.279  0.00  0.00    -0.084 Cl
ATOM     36  C   UNL d   1       2.339  -2.610   0.579  0.00  0.00     0.017 A 
ENDBRANCH   5  29
TORSDOF 7
