REMARK  4 active torsions:
REMARK  status: ('A' for Active; 'I' for Inactive)
REMARK       I    between atoms: N_2  and  C_1 
REMARK    1  A    between atoms: C_5  and  C_1 
REMARK    2  A    between atoms: C_17  and  N_2 
REMARK    3  A    between atoms: N_8  and  C_6 
REMARK    4  A    between atoms: C_16  and  C_17 
ROOT
ATOM      1  C   UNL d   1       0.992   0.013   0.087  0.00  0.00     0.251 C 
ATOM      2  N   UNL d   1       0.274   1.188   0.009  0.00  0.00    -0.353 N 
ATOM      3  O   UNL d   1       2.208  -0.033   0.207  0.00  0.00    -0.268 OA
ATOM      4  H   UNL d   1      -0.723   1.167   0.168  0.00  0.00     0.163 HD
ENDROOT
BRANCH   2   5
ATOM      5  C   UNL d   1       0.917   2.482   0.053  0.00  0.00     0.161 C 
BRANCH   5   6
ATOM      6  C   UNL d   1       0.107   3.512  -0.698  0.00  0.00    -0.040 A 
ATOM      7  C   UNL d   1      -0.414   4.641  -0.043  0.00  0.00     0.018 A 
ATOM      8  C   UNL d   1      -1.130   5.569  -0.783  0.00  0.00    -0.022 A 
ATOM      9  C   UNL d   1      -1.713   6.865  -0.372  0.00  0.00     0.068 C 
ATOM     10  C   UNL d   1      -1.325   5.399  -2.145  0.00  0.00     0.075 A 
ATOM     11  C   UNL d   1      -2.563   7.155  -1.611  0.00  0.00     0.180 C 
ATOM     12  O   UNL d   1      -2.030   6.416  -2.735  0.00  0.00    -0.350 OA
ATOM     13  C   UNL d   1      -0.819   4.310  -2.822  0.00  0.00     0.038 A 
ATOM     14  C   UNL d   1      -0.103   3.360  -2.090  0.00  0.00     0.011 A 
ENDBRANCH   5   6
ENDBRANCH   2   5
BRANCH   1  15
ATOM     15  C   UNL d   1       0.186  -1.241   0.035  0.00  0.00     0.032 A 
ATOM     16  C   UNL d   1      -1.049  -1.295  -0.613  0.00  0.00     0.019 A 
ATOM     17  C   UNL d   1      -1.780  -2.493  -0.654  0.00  0.00     0.030 A 
ATOM     18  C   UNL d   1      -1.310  -3.685  -0.078  0.00  0.00     0.029 A 
ATOM     19  C   UNL d   1      -0.052  -3.602   0.548  0.00  0.00     0.030 A 
ATOM     20  C   UNL d   1       0.687  -2.408   0.609  0.00  0.00     0.019 A 
BRANCH  18  21
ATOM     21  N   UNL d   1      -2.001  -4.886  -0.178  0.00  0.00    -0.390 N 
ATOM     22  C   UNL d   1      -1.908  -5.904   0.869  0.00  0.00     0.149 C 
ATOM     23  C   UNL d   1      -3.152  -5.049  -1.064  0.00  0.00     0.149 C 
ENDBRANCH  18  21
ENDBRANCH   1  15
TORSDOF 4
