REMARK  5 active torsions:
REMARK  status: ('A' for Active; 'I' for Inactive)
REMARK    1  A    between atoms: C_2  and  C_1 
REMARK       I    between atoms: N_5  and  C_1 
REMARK    2  A    between atoms: C_3  and  C_4 
REMARK    3  A    between atoms: O_13  and  C_3 
REMARK    4  A    between atoms: C_11  and  N_5 
REMARK    5  A    between atoms: C_12  and  C_6 
ROOT
ATOM      1  C   UNL d   1       1.164   0.684  -1.987  0.00  0.00     0.245 C 
ATOM      2  N   UNL d   1       0.299   0.713  -0.914  0.00  0.00    -0.324 N 
ATOM      3  O   UNL d   1       0.903   0.957  -3.154  0.00  0.00    -0.268 OA
ATOM      4  H   UNL d   1       0.688   0.604   0.016  0.00  0.00     0.169 HD
ENDROOT
BRANCH   2   5
ATOM      5  C   UNL d   1      -1.104   0.875  -0.981  0.00  0.00     0.035 A 
ATOM      6  C   UNL d   1      -1.819   0.811  -2.176  0.00  0.00     0.030 A 
ATOM      7  C   UNL d   1      -3.213   0.902  -2.182  0.00  0.00     0.010 A 
ATOM      8  C   UNL d   1      -3.930   1.071  -0.993  0.00  0.00    -0.055 A 
ATOM      9  C   UNL d   1      -3.210   1.164   0.206  0.00  0.00     0.010 A 
ATOM     10  C   UNL d   1      -1.811   1.057   0.212  0.00  0.00     0.030 A 
BRANCH   8  11
ATOM     11  C   UNL d   1      -5.449   1.117  -0.995  0.00  0.00     0.010 C 
ATOM     12  C   UNL d   1      -5.986   2.271  -1.845  0.00  0.00     0.015 C 
ATOM     13  C   UNL d   1      -6.037  -0.217  -1.470  0.00  0.00     0.015 C 
ENDBRANCH   8  11
ENDBRANCH   2   5
BRANCH   1  14
ATOM     14  C   UNL d   1       2.543   0.281  -1.615  0.00  0.00     0.081 C 
ATOM     15  C   UNL d   1       3.460   0.194  -2.592  0.00  0.00     0.086 C 
BRANCH  15  16
ATOM     16  C   UNL d   1       4.824  -0.244  -2.265  0.00  0.00     0.165 C 
ATOM     17  O   UNL d   1       5.202  -0.524  -1.141  0.00  0.00    -0.647 OA
BRANCH  16  18
ATOM     18  O   UNL d   1       5.613  -0.306  -3.354  0.00  0.00    -0.773 OA
ATOM     19  H   UNL d   1       5.190  -0.061  -4.199  0.00  0.00     0.167 HD
ENDBRANCH  16  18
ENDBRANCH  15  16
ENDBRANCH   1  14
TORSDOF 5
