REMARK  9 active torsions:
REMARK  status: ('A' for Active; 'I' for Inactive)
REMARK    1  A    between atoms: S_13  and  C_2 
REMARK    2  A    between atoms: C_6  and  N_14 
REMARK    3  A    between atoms: N_10  and  C_6 
REMARK    4  A    between atoms: C_8  and  C_23 
REMARK       I    between atoms: N_15  and  C_8 
REMARK    5  A    between atoms: C_9  and  N_10 
REMARK    6  A    between atoms: C_23  and  S_13 
REMARK    7  A    between atoms: N_14  and  N_15 
REMARK    8  A    between atoms: O_24  and  C_19 
REMARK    9  A    between atoms: O_25  and  C_20 
ROOT
ATOM      1  C   UNL d   1       4.117   2.185   1.186  0.00  0.00     0.245 C 
ATOM      2  N   UNL d   1       4.961   1.304   0.552  0.00  0.00    -0.267 N 
ATOM      3  O   UNL d   1       3.049   1.752   1.628  0.00  0.00    -0.271 OA
ATOM      4  H   UNL d   1       4.695   0.320   0.552  0.00  0.00     0.190 HD
ENDROOT
BRANCH   2   5
ATOM      5  N   UNL d   1       6.226   1.622   0.063  0.00  0.00    -0.274 N 
ATOM      6  H   UNL d   1       6.472   2.601   0.004  0.00  0.00     0.189 HD
BRANCH   5   7
ATOM      7  C   UNL d   1       7.259   0.703   0.061  0.00  0.00     0.191 C 
ATOM      8  S   UNL d   1       7.103  -0.923   0.414  0.00  0.00    -0.039 SA
BRANCH   7   9
ATOM      9  N   UNL d   1       8.516   1.221  -0.164  0.00  0.00    -0.332 N 
ATOM     10  H   UNL d   1       9.275   0.653   0.198  0.00  0.00     0.168 HD
BRANCH   9  11
ATOM     11  C   UNL d   1       8.839   2.471  -0.725  0.00  0.00     0.039 A 
ATOM     12  C   UNL d   1       9.963   3.156  -0.256  0.00  0.00     0.066 A 
ATOM     13  C   UNL d   1      10.223   4.451  -0.717  0.00  0.00     0.073 A 
ATOM     14  C   UNL d   1       9.401   5.021  -1.699  0.00  0.00     0.073 A 
ATOM     15  C   UNL d   1       8.336   4.301  -2.232  0.00  0.00     0.073 A 
ATOM     16  C   UNL d   1       8.056   3.033  -1.737  0.00  0.00     0.066 A 
BRANCH  13  17
ATOM     17  O   UNL d   1      11.224   5.274  -0.279  0.00  0.00    -0.356 OA
ATOM     18  C   UNL d   1      12.057   4.789   0.767  0.00  0.00     0.210 C 
ENDBRANCH  13  17
BRANCH  15  19
ATOM     19  O   UNL d   1       7.476   4.742  -3.196  0.00  0.00    -0.356 OA
ATOM     20  C   UNL d   1       8.013   5.691  -4.109  0.00  0.00     0.210 C 
ENDBRANCH  15  19
ENDBRANCH   9  11
ENDBRANCH   7   9
ENDBRANCH   5   7
ENDBRANCH   2   5
BRANCH   1  21
ATOM     21  C   UNL d   1       4.520   3.662   1.257  0.00  0.00     0.186 C 
BRANCH  21  22
ATOM     22  S   UNL d   1       3.673   4.496   2.626  0.00  0.00    -0.095 SA
BRANCH  22  23
ATOM     23  C   UNL d   1       4.300   6.129   2.528  0.00  0.00     0.115 A 
ATOM     24  S   UNL d   1       3.835   7.306   3.692  0.00  0.00    -0.045 SA
ATOM     25  C   UNL d   1       4.827   8.444   2.914  0.00  0.00     0.103 A 
ATOM     26  C   UNL d   1       5.445   7.865   1.808  0.00  0.00     0.067 A 
ATOM     27  N   UNL d   1       4.958   9.713   3.356  0.00  0.00    -0.358 N 
ATOM     28  C   UNL d   1       6.297   8.693   1.057  0.00  0.00     0.034 A 
ATOM     29  N   UNL d   1       5.138   6.525   1.593  0.00  0.00    -0.343 N 
ATOM     30  C   UNL d   1       6.468  10.017   1.473  0.00  0.00     0.019 A 
ATOM     31  C   UNL d   1       5.792  10.459   2.602  0.00  0.00     0.089 A 
ATOM     32  HN  UNL d   1       5.502   5.945   0.837  1.00  0.00     0.167 HD
ATOM     33  HN  UNL d   1       4.473  10.072   4.179  1.00  0.00     0.166 HD
ENDBRANCH  22  23
ENDBRANCH  21  22
ENDBRANCH   1  21
TORSDOF 9
