REMARK  3 active torsions:
REMARK  status: ('A' for Active; 'I' for Inactive)
REMARK    1  A    between atoms: C_2  and  C_1 
REMARK    2  A    between atoms: C_4  and  C_3 
REMARK    3  A    between atoms: N_16  and  C_6 
ROOT
ATOM      1  C   UNL d   1       0.181  -1.294   0.089  0.00  0.00     0.086 A 
ATOM      2  C   UNL d   1      -1.839   0.057  -0.056  0.00  0.00     0.064 A 
ATOM      3  C   UNL d   1      -1.221  -1.192   0.011  0.00  0.00     0.037 A 
ATOM      4  C   UNL d   1       0.917  -0.118   0.088  0.00  0.00     0.092 A 
ATOM      5  N   UNL d   1       0.337   1.097   0.019  0.00  0.00    -0.356 N 
ATOM      6  HN  UNL d   1       0.903   1.946   0.023  1.00  0.00     0.166 HD
ATOM      7  C   UNL d   1      -1.012   1.165  -0.055  0.00  0.00     0.105 A 
ENDROOT
BRANCH   1   8
ATOM      8  C   UNL d   1       0.854  -2.628   0.160  0.00  0.00     0.420 C 
ATOM      9  F   UNL d   1      -0.027  -3.671   0.122  0.00  0.00    -0.166 F 
ATOM     10  F   UNL d   1       1.703  -2.839  -0.887  0.00  0.00    -0.166 F 
ATOM     11  F   UNL d   1       1.589  -2.819   1.288  0.00  0.00    -0.166 F 
ENDBRANCH   1   8
BRANCH   4  12
ATOM     12  N   UNL d   1       2.297  -0.092   0.221  0.00  0.00    -0.288 NA
ATOM     13  H   UNL d   1       2.792  -0.674  -0.446  0.00  0.00     0.125 HD
ATOM     14  H   UNL d   1       2.594   0.880   0.161  0.00  0.00     0.125 HD
ENDBRANCH   4  12
BRANCH   2  15
ATOM     15  C   UNL d   1      -3.325   0.231  -0.122  0.00  0.00     0.418 C 
ATOM     16  F   UNL d   1      -4.006  -0.948  -0.111  0.00  0.00    -0.166 F 
ATOM     17  F   UNL d   1      -3.811   0.953   0.924  0.00  0.00    -0.166 F 
ATOM     18  F   UNL d   1      -3.726   0.883  -1.247  0.00  0.00    -0.166 F 
ENDBRANCH   2  15
TORSDOF 3
