REMARK  8 active torsions:
REMARK  status: ('A' for Active; 'I' for Inactive)
REMARK    1  A    between atoms: C_7  and  C_1 
REMARK    2  A    between atoms: C_11  and  C_2 
REMARK    3  A    between atoms: N_5  and  C_6 
REMARK    4  A    between atoms: C_8  and  C_13 
REMARK       I    between atoms: N_24  and  C_11 
REMARK    5  A    between atoms: C_14  and  N_25 
REMARK    6  A    between atoms: C_30  and  N_24 
REMARK    7  A    between atoms: N_25  and  C_31 
REMARK    8  A    between atoms: C_31  and  C_30 
ROOT
ATOM      1  C   UNL d   1       2.499  -2.046  -0.835  0.00  0.00     0.256 C 
ATOM      2  O   UNL d   1       3.511  -2.327  -1.457  0.00  0.00    -0.267 OA
ATOM      3  N   UNL d   1       1.752  -2.986  -0.138  0.00  0.00    -0.355 N 
ATOM      4  H   UNL d   1       0.808  -2.741   0.114  0.00  0.00     0.162 HD
ENDROOT
BRANCH   3   5
ATOM      5  C   UNL d   1       2.080  -4.410  -0.128  0.00  0.00     0.142 C 
BRANCH   5   6
ATOM      6  C   UNL d   1       3.575  -4.793  -0.147  0.00  0.00     0.139 C 
BRANCH   6   7
ATOM      7  N   UNL d   1       4.314  -4.091   0.908  0.00  0.00    -0.386 N 
ATOM      8  H   UNL d   1       3.904  -4.231   1.837  0.00  0.00     0.159 HD
BRANCH   7   9
ATOM      9  C   UNL d   1       5.716  -4.103   0.916  0.00  0.00     0.061 A 
ATOM     10  C   UNL d   1       6.487  -4.020   2.100  0.00  0.00     0.130 A 
ATOM     11  C   UNL d   1       7.900  -3.979   2.056  0.00  0.00     0.054 A 
ATOM     12  C   UNL d   1       8.582  -3.994   0.832  0.00  0.00     0.050 A 
ATOM     13  C   UNL d   1       7.830  -4.028  -0.343  0.00  0.00     0.018 A 
ATOM     14  C   UNL d   1       6.431  -4.065  -0.296  0.00  0.00     0.032 A 
BRANCH  10  15
ATOM     15  N   UNL d   1       5.852  -3.998   3.434  0.00  0.00    -0.113 N 
ATOM     16  O   UNL d   1       6.595  -3.871   4.421  0.00  0.00    -0.532 OA
ATOM     17  O   UNL d   1       4.620  -4.132   3.513  0.00  0.00    -0.532 OA
ENDBRANCH  10  15
BRANCH  12  18
ATOM     18  C   UNL d   1      10.089  -3.956   0.759  0.00  0.00     0.417 C 
ATOM     19  F   UNL d   1      10.690  -3.895   1.979  0.00  0.00    -0.166 F 
ATOM     20  F   UNL d   1      10.601  -5.058   0.144  0.00  0.00    -0.166 F 
ATOM     21  F   UNL d   1      10.549  -2.886   0.055  0.00  0.00    -0.166 F 
ENDBRANCH  12  18
ENDBRANCH   7   9
ENDBRANCH   6   7
ENDBRANCH   5   6
ENDBRANCH   3   5
BRANCH   1  22
ATOM     22  C   UNL d   1       1.944  -0.708  -0.868  0.00  0.00     0.092 A 
ATOM     23  C   UNL d   1       2.088   0.255  -1.931  0.00  0.00     0.085 A 
ATOM     24  N   UNL d   1       1.446   1.389  -1.612  0.00  0.00    -0.259 N 
ATOM     25  O   UNL d   1       0.930   1.211  -0.353  0.00  0.00    -0.241 OA
ATOM     26  HN  UNL d   1       1.358   2.223  -2.193  1.00  0.00     0.195 HD
ATOM     27  C   UNL d   1       1.206  -0.039   0.094  0.00  0.00     0.090 A 
ATOM     28  C   UNL d   1       0.693  -0.326   1.448  0.00  0.00     0.080 C 
BRANCH  23  29
ATOM     29  C   UNL d   1       2.727   0.090  -3.250  0.00  0.00     0.015 A 
ATOM     30  C   UNL d   1       3.485   1.094  -3.878  0.00  0.00     0.046 A 
ATOM     31 CL   UNL d   1       3.831   2.629  -3.155  0.00  0.00    -0.083 Cl
ATOM     32  C   UNL d   1       4.042   0.874  -5.149  0.00  0.00     0.025 A 
ATOM     33  C   UNL d   1       3.883  -0.351  -5.796  0.00  0.00     0.002 A 
ATOM     34  C   UNL d   1       3.149  -1.357  -5.184  0.00  0.00     0.001 A 
ATOM     35  C   UNL d   1       2.559  -1.129  -3.939  0.00  0.00     0.015 A 
ENDBRANCH  23  29
ENDBRANCH   1  22
TORSDOF 8
