REMARK  2 active torsions:
REMARK  status: ('A' for Active; 'I' for Inactive)
REMARK    1  A    between atoms: C_6  and  C_3 
REMARK    2  A    between atoms: C_13  and  C_5 
ROOT
ATOM      1  N   UNL d   1      -0.495   1.563  -0.797  0.00  0.00    -0.358 N 
ATOM      2  HN  UNL d   1      -0.335   2.089  -1.656  1.00  0.00     0.166 HD
ATOM      3  C   UNL d   1      -2.396  -0.565   0.645  0.00  0.00     0.092 C 
ATOM      4  S   UNL d   1      -1.136  -1.582  -0.258  0.00  0.00    -0.118 SA
ATOM      5  C   UNL d   1      -1.626   1.704  -0.175  0.00  0.00     0.021 C 
ATOM      6  C   UNL d   1      -2.018   0.869   1.026  0.00  0.00     0.078 C 
ATOM      7  C   UNL d   1       0.516   0.711  -0.324  0.00  0.00     0.049 A 
ATOM      8  C   UNL d   1       0.371  -0.662  -0.044  0.00  0.00     0.028 A 
ATOM      9  C   UNL d   1       1.788   1.286  -0.184  0.00  0.00     0.031 A 
ATOM     10  C   UNL d   1       1.492  -1.412   0.351  0.00  0.00     0.021 A 
ATOM     11  C   UNL d   1       2.744  -0.818   0.490  0.00  0.00     0.002 A 
ATOM     12  C   UNL d   1       2.894   0.539   0.224  0.00  0.00     0.002 A 
ENDROOT
BRANCH   3  13
ATOM     13  C   UNL d   1      -3.760  -0.684  -0.043  0.00  0.00    -0.022 A 
ATOM     14  C   UNL d   1      -4.948  -0.889   0.686  0.00  0.00     0.043 A 
ATOM     15  C   UNL d   1      -6.156  -1.160   0.034  0.00  0.00     0.048 A 
ATOM     16 CL   UNL d   1      -4.991  -0.816   2.413  0.00  0.00    -0.084 Cl
ATOM     17  C   UNL d   1      -6.199  -1.205  -1.356  0.00  0.00     0.035 A 
ATOM     18  C   UNL d   1      -5.062  -0.925  -2.102  0.00  0.00     0.024 A 
ATOM     19 CL   UNL d   1      -7.665  -1.618  -2.155  0.00  0.00    -0.084 Cl
ATOM     20  C   UNL d   1      -3.858  -0.647  -1.451  0.00  0.00     0.012 A 
ENDBRANCH   3  13
BRANCH   5  21
ATOM     21  C   UNL d   1      -2.574   2.754  -0.669  0.00  0.00    -0.014 A 
ATOM     22  C   UNL d   1      -2.584   3.072  -2.033  0.00  0.00     0.013 A 
ATOM     23  C   UNL d   1      -3.411   4.089  -2.516  0.00  0.00     0.001 A 
ATOM     24  C   UNL d   1      -4.226   4.802  -1.638  0.00  0.00     0.000 A 
ATOM     25  C   UNL d   1      -4.213   4.501  -0.278  0.00  0.00     0.001 A 
ATOM     26  C   UNL d   1      -3.385   3.486   0.210  0.00  0.00     0.013 A 
ENDBRANCH   5  21
TORSDOF 2
