REMARK  6 active torsions:
REMARK  status: ('A' for Active; 'I' for Inactive)
REMARK    1  A    between atoms: C1*_2  and  N_1 
REMARK    2  A    between atoms: C_13  and  C_3 
REMARK    3  A    between atoms: C2*_8  and  O2*_15 
REMARK    4  A    between atoms: C3*_11  and  O3*_17 
REMARK    5  A    between atoms: C4*_12  and  C5*_18 
REMARK       I    between atoms: N_16  and  C_13 
REMARK    6  A    between atoms: O5*_19  and  C5*_18 
ROOT
ATOM      1  N   UNL d   1      -0.317   1.221   0.281  0.00  0.00    -0.254 N 
ATOM      2  C   UNL d   1      -1.022  -0.653   0.908  0.00  0.00     0.190 A 
ATOM      3  N   UNL d   1      -1.466   0.599   0.633  0.00  0.00    -0.275 N 
ATOM      4  HN  UNL d   1      -2.413   0.973   0.679  1.00  0.00     0.189 HD
ATOM      5  N   UNL d   1       0.336  -0.816   0.698  0.00  0.00    -0.332 N 
ATOM      6  HN  UNL d   1       0.895  -1.659   0.823  1.00  0.00     0.168 HD
ATOM      7  C   UNL d   1       0.735   0.362   0.301  0.00  0.00     0.205 A 
ENDROOT
BRANCH   1   8
ATOM      8  C1* UNL d   1      -0.247   2.636  -0.029  0.00  0.00     0.276 C 
ATOM      9  C2* UNL d   1      -1.201   3.540   0.762  0.00  0.00     0.200 C 
ATOM     10  C3* UNL d   1      -2.056   4.201  -0.314  0.00  0.00     0.182 C 
ATOM     11  C4* UNL d   1      -1.194   4.076  -1.565  0.00  0.00     0.179 C 
ATOM     12  O4* UNL d   1      -0.506   2.820  -1.438  0.00  0.00    -0.352 OA
BRANCH   9  13
ATOM     13  O2* UNL d   1      -0.455   4.529   1.499  0.00  0.00    -0.388 OA
ATOM     14  H2* UNL d   1      -0.441   5.348   0.964  0.00  0.00     0.210 HD
ENDBRANCH   9  13
BRANCH  10  15
ATOM     15  O3* UNL d   1      -2.305   5.570   0.001  0.00  0.00    -0.390 OA
ATOM     16  H3* UNL d   1      -2.716   5.591   0.887  0.00  0.00     0.210 HD
ENDBRANCH  10  15
BRANCH  11  17
ATOM     17  C5* UNL d   1      -1.983   4.102  -2.871  0.00  0.00     0.198 C 
BRANCH  17  18
ATOM     18  O5* UNL d   1      -2.884   2.999  -2.937  0.00  0.00    -0.398 OA
ATOM     19  H5* UNL d   1      -2.335   2.194  -2.868  0.00  0.00     0.209 HD
ENDBRANCH  17  18
ENDBRANCH  11  17
ENDBRANCH   1   8
BRANCH   2  20
ATOM     20  C   UNL d   1      -1.899  -1.731   1.408  0.00  0.00     0.284 C 
ATOM     21  O   UNL d   1      -1.527  -2.869   1.684  0.00  0.00    -0.265 OA
ATOM     22  N   UNL d   1      -3.213  -1.372   1.561  0.00  0.00    -0.363 N 
ATOM     23  H   UNL d   1      -3.510  -0.439   1.313  0.00  0.00     0.159 HD
ATOM     24  H   UNL d   1      -3.871  -2.061   1.893  0.00  0.00     0.159 HD
ENDBRANCH   2  20
TORSDOF 6
