REMARK  4 active torsions:
REMARK  status: ('A' for Active; 'I' for Inactive)
REMARK    1  A    between atoms: C_2  and  C_1 
REMARK    2  A    between atoms: N_3  and  C_1 
REMARK    3  A    between atoms: C_6  and  N_3 
REMARK    4  A    between atoms: O_8  and  N_4 
ROOT
ATOM      1  C   UNL d   1       0.843   2.448  -0.914  0.00  0.00     0.063 C 
ATOM      2  C   UNL d   1       2.361   2.667  -1.081  0.00  0.00     0.044 C 
ATOM      3  C   UNL d   1       0.456   3.029   0.458  0.00  0.00     0.044 C 
ENDROOT
BRANCH   1   4
ATOM      4  C   UNL d   1       0.574   0.922  -1.033  0.00  0.00     0.033 C 
ATOM      5  N   UNL d   1       0.097   0.274  -0.006  0.00  0.00    -0.275 N 
ATOM      6  HN  UNL d   1      -0.090   0.696   0.903  1.00  0.00     0.193 HD
ATOM      7  C   UNL d   1       0.873   0.241  -2.357  0.00  0.00     0.068 C 
BRANCH   5   8
ATOM      8  O   UNL d   1      -0.125  -1.074  -0.308  0.00  0.00    -0.290 OA
ATOM      9  H   UNL d   1      -0.573  -1.400   0.496  0.00  0.00     0.244 HD
ENDBRANCH   5   8
ENDBRANCH   1   4
BRANCH   1  10
ATOM     10  N   UNL d   1       0.149   3.216  -1.982  0.00  0.00    -0.376 N 
ATOM     11  H   UNL d   1       0.777   3.519  -2.721  0.00  0.00     0.160 HD
BRANCH  10  12
ATOM     12  C   UNL d   1      -1.118   2.897  -2.465  0.00  0.00     0.028 A 
ATOM     13  C   UNL d   1      -2.110   2.260  -1.712  0.00  0.00     0.030 A 
ATOM     14  C   UNL d   1      -3.357   1.940  -2.260  0.00  0.00     0.021 A 
ATOM     15  C   UNL d   1      -3.643   2.290  -3.573  0.00  0.00     0.011 A 
ATOM     16  C   UNL d   1      -2.701   2.975  -4.331  0.00  0.00     0.021 A 
ATOM     17 BR   UNL d   1      -5.317   1.841  -4.322  0.00  0.00    -0.051 Br
ATOM     18  C   UNL d   1      -1.457   3.287  -3.773  0.00  0.00     0.030 A 
ENDBRANCH  10  12
ENDBRANCH   1  10
TORSDOF 4
