REMARK  3 active torsions:
REMARK  status: ('A' for Active; 'I' for Inactive)
REMARK    1  A    between atoms: C_10  and  N_1 
REMARK    2  A    between atoms: C_4  and  C_2 
REMARK    3  A    between atoms: C_3  and  C_11 
ROOT
ATOM      1  C   UNL d   1       2.147  -1.524  -0.028  0.00  0.00     0.064 C 
ATOM      2  C   UNL d   1       2.686  -2.040  -1.151  0.00  0.00     0.126 C 
ATOM      3  N   UNL d   1       1.816  -1.541  -3.533  0.00  0.00    -0.191 NA
ATOM      4  N   UNL d   1       4.712  -3.624  -0.881  0.00  0.00    -0.191 NA
ATOM      5  C   UNL d   1       3.807  -2.910  -1.026  0.00  0.00     0.111 C 
ATOM      6  C   UNL d   1       2.193  -1.760  -2.458  0.00  0.00     0.111 C 
ENDROOT
BRANCH   1   7
ATOM      7  C   UNL d   1       1.022  -0.657  -0.015  0.00  0.00     0.041 A 
ATOM      8  N   UNL d   1      -0.303  -1.117   0.009  0.00  0.00    -0.322 N 
ATOM      9  C   UNL d   1      -1.114   0.005  -0.104  0.00  0.00     0.097 A 
ATOM     10  C   UNL d   1      -0.342   1.142  -0.083  0.00  0.00     0.020 A 
ATOM     11  C   UNL d   1       1.000   0.727  -0.025  0.00  0.00     0.031 A 
BRANCH   8  12
ATOM     12  C   UNL d   1      -0.810  -2.450   0.170  0.00  0.00     0.039 A 
ATOM     13  C   UNL d   1      -0.078  -3.433   0.845  0.00  0.00     0.031 A 
ATOM     14  C   UNL d   1      -0.617  -4.707   1.054  0.00  0.00     0.018 A 
ATOM     15  C   UNL d   1      -1.904  -5.026   0.601  0.00  0.00     0.048 A 
ATOM     16  C   UNL d   1      -2.635  -4.047  -0.082  0.00  0.00     0.018 A 
ATOM     17  C   UNL d   1      -2.096  -2.772  -0.295  0.00  0.00     0.031 A 
BRANCH  15  18
ATOM     18  C   UNL d   1      -2.479  -6.393   0.878  0.00  0.00     0.417 C 
ATOM     19  F   UNL d   1      -3.744  -6.561   0.404  0.00  0.00    -0.166 F 
ATOM     20  F   UNL d   1      -1.736  -7.391   0.326  0.00  0.00    -0.166 F 
ATOM     21  F   UNL d   1      -2.540  -6.667   2.211  0.00  0.00    -0.166 F 
ENDBRANCH  15  18
ENDBRANCH   8  12
ENDBRANCH   1   7
TORSDOF 3
