REMARK  2 active torsions:
REMARK  status: ('A' for Active; 'I' for Inactive)
REMARK    1  A    between atoms: C_6  and  N_1 
REMARK    2  A    between atoms: N_2  and  C_8 
ROOT
ATOM      1  C   UNL d   1       0.173   1.174  -0.201  0.00  0.00     0.103 A 
ATOM      2  C   UNL d   1      -1.259   3.572  -0.484  0.00  0.00     0.039 A 
ATOM      3  C   UNL d   1       0.547   2.096  -1.184  0.00  0.00     0.038 A 
ATOM      4  C   UNL d   1      -0.917   1.436   0.635  0.00  0.00     0.038 A 
ATOM      5  C   UNL d   1      -0.171   3.290  -1.326  0.00  0.00     0.032 A 
ATOM      6  C   UNL d   1      -1.629   2.634   0.494  0.00  0.00     0.032 A 
ENDROOT
BRANCH   2   7
ATOM      7  N   UNL d   1      -1.977   4.799  -0.619  0.00  0.00    -0.317 N 
ATOM      8  C   UNL d   1      -3.008   5.258   0.174  0.00  0.00     0.188 A 
ATOM      9  N   UNL d   1      -3.467   6.427  -0.215  0.00  0.00    -0.360 N 
ATOM     10  C   UNL d   1      -2.711   6.761  -1.299  0.00  0.00     0.106 A 
ATOM     11  HN  UNL d   1      -4.225   6.967   0.203  1.00  0.00     0.166 HD
ATOM     12  C   UNL d   1      -1.783   5.783  -1.565  0.00  0.00     0.115 A 
ENDBRANCH   2   7
BRANCH   1  13
ATOM     13  N   UNL d   1       0.931  -0.073  -0.043  0.00  0.00    -0.116 N 
ATOM     14  O   UNL d   1       1.898  -0.259  -0.795  0.00  0.00    -0.532 OA
ATOM     15  O   UNL d   1       0.560  -0.865   0.835  0.00  0.00    -0.532 OA
ENDBRANCH   1  13
TORSDOF 2
