REMARK  3 active torsions:
REMARK  status: ('A' for Active; 'I' for Inactive)
REMARK    1  A    between atoms: N_2  and  S_1 
REMARK    2  A    between atoms: C_4  and  S_1 
REMARK    3  A    between atoms: C_7  and  C_3 
ROOT
ATOM      1  N   UNL d   1       0.668  -0.811  -1.259  0.00  0.00    -0.298 N 
ATOM      2  C   UNL d   1       1.192  -0.183  -2.516  0.00  0.00     0.130 C 
ATOM      3  C   UNL d   1       0.780  -2.303  -1.191  0.00  0.00     0.136 C 
ATOM      4  C   UNL d   1       0.704  -0.960  -3.760  0.00  0.00     0.031 C 
ATOM      5  C   UNL d   1       0.293  -3.004  -2.445  0.00  0.00     0.021 C 
ATOM      6  C   UNL d   1       0.996  -2.447  -3.667  0.00  0.00     0.004 C 
ENDROOT
BRANCH   1   7
ATOM      7  S   UNL d   1       1.087  -0.054   0.245  0.00  0.00     0.261 S 
ATOM      8  O   UNL d   1       0.105  -0.501   1.217  0.00  0.00    -0.200 OA
ATOM      9  O   UNL d   1       1.361   1.352   0.069  0.00  0.00    -0.200 OA
BRANCH   7  10
ATOM     10  C   UNL d   1       2.631  -0.824   0.696  0.00  0.00     0.079 A 
ATOM     11  C   UNL d   1       3.835  -0.346   0.178  0.00  0.00     0.026 A 
ATOM     12  C   UNL d   1       5.025  -0.993   0.518  0.00  0.00     0.008 A 
ATOM     13  C   UNL d   1       5.016  -2.102   1.381  0.00  0.00    -0.062 A 
ATOM     14  C   UNL d   1       3.802  -2.550   1.913  0.00  0.00     0.008 A 
ATOM     15  C   UNL d   1       6.297  -2.806   1.719  0.00  0.00     0.048 C 
ATOM     16  C   UNL d   1       2.612  -1.905   1.585  0.00  0.00     0.026 A 
ENDBRANCH   7  10
ENDBRANCH   1   7
BRANCH   2  17
ATOM     17  C   UNL d   1       0.756   1.257  -2.733  0.00  0.00    -0.019 A 
ATOM     18  C   UNL d   1       1.591   2.151  -3.400  0.00  0.00     0.096 A 
ATOM     19  N   UNL d   1       1.300   3.454  -3.622  0.00  0.00    -0.375 N 
ATOM     20  C   UNL d   1       0.121   3.899  -3.138  0.00  0.00     0.087 A 
ATOM     21  HN  UNL d   1       1.939   4.067  -4.129  1.00  0.00     0.164 HD
ATOM     22  C   UNL d   1      -0.798   3.094  -2.487  0.00  0.00     0.018 A 
ATOM     23  C   UNL d   1      -0.484   1.750  -2.305  0.00  0.00     0.012 A 
ENDBRANCH   2  17
TORSDOF 3
