REMARK  7 active torsions:
REMARK  status: ('A' for Active; 'I' for Inactive)
REMARK    1  A    between atoms: C_13  and  N_1 
REMARK    2  A    between atoms: C_2  and  N_14 
REMARK    3  A    between atoms: C_21  and  N_3 
REMARK    4  A    between atoms: S_18  and  C_4 
REMARK    5  A    between atoms: O_28  and  C_5 
REMARK       I    between atoms: N_14  and  C_19 
REMARK    6  A    between atoms: C_27  and  S_18 
REMARK    7  A    between atoms: C_19  and  C_27 
ROOT
ATOM      1  N   UNL d   1      -0.085  -0.356  -1.331  0.00  0.00    -0.255 N 
ATOM      2  C   UNL d   1       0.588  -1.390  -0.684  0.00  0.00     0.169 A 
ATOM      3  C   UNL d   1      -1.158  -0.104  -0.489  0.00  0.00     0.245 A 
ATOM      4  N   UNL d   1      -0.082  -1.778   0.377  0.00  0.00    -0.276 N 
ATOM      5  HN  UNL d   1       0.165  -2.552   0.994  1.00  0.00     0.189 HD
ATOM      6  N   UNL d   1      -1.172  -0.957   0.508  0.00  0.00    -0.263 N 
ATOM      7  HN  UNL d   1      -1.870  -1.001   1.250  1.00  0.00     0.190 HD
ENDROOT
BRANCH   2   8
ATOM      8  S   UNL d   1       2.207  -1.898  -1.068  0.00  0.00    -0.083 SA
BRANCH   8   9
ATOM      9  C   UNL d   1       2.461  -3.267   0.101  0.00  0.00     0.185 C 
BRANCH   9  10
ATOM     10  C   UNL d   1       3.925  -3.700   0.198  0.00  0.00     0.233 C 
ATOM     11  N   UNL d   1       4.698  -3.402  -0.914  0.00  0.00    -0.311 N 
ATOM     12  H   UNL d   1       4.184  -3.150  -1.746  0.00  0.00     0.170 HD
ATOM     13  O   UNL d   1       4.316  -4.357   1.160  0.00  0.00    -0.272 OA
BRANCH  11  14
ATOM     14  C   UNL d   1       6.045  -3.727  -1.004  0.00  0.00     0.132 A 
ATOM     15  N   UNL d   1       6.694  -4.085  -2.188  0.00  0.00    -0.240 N 
ATOM     16  N   UNL d   1       7.973  -4.483  -1.956  0.00  0.00    -0.297 N 
ATOM     17  C   UNL d   1       8.176  -4.258  -0.656  0.00  0.00     0.026 A 
ATOM     18  HN  UNL d   1       8.634  -4.870  -2.629  1.00  0.00     0.187 HD
ATOM     19  C   UNL d   1       6.990  -3.845  -0.010  0.00  0.00     0.076 A 
ATOM     20  C   UNL d   1       9.523  -4.455  -0.071  0.00  0.00     0.070 C 
BRANCH  15  21
ATOM     21  C   UNL d   1       6.148  -4.215  -3.495  0.00  0.00     0.058 A 
ATOM     22  C   UNL d   1       5.207  -3.305  -3.992  0.00  0.00     0.031 A 
ATOM     23  C   UNL d   1       4.644  -3.509  -5.254  0.00  0.00     0.002 A 
ATOM     24  C   UNL d   1       5.029  -4.606  -6.024  0.00  0.00     0.000 A 
ATOM     25  C   UNL d   1       5.992  -5.494  -5.547  0.00  0.00     0.002 A 
ATOM     26  C   UNL d   1       6.563  -5.293  -4.290  0.00  0.00     0.031 A 
ENDBRANCH  15  21
ENDBRANCH  11  14
ENDBRANCH   9  10
ENDBRANCH   8   9
ENDBRANCH   2   8
BRANCH   1  27
ATOM     27  C   UNL d   1       0.280   0.317  -2.527  0.00  0.00     0.048 A 
ATOM     28  C   UNL d   1       0.847  -0.408  -3.586  0.00  0.00     0.069 A 
ATOM     29  C   UNL d   1       1.347   0.258  -4.703  0.00  0.00     0.104 A 
ATOM     30  O   UNL d   1       1.983  -0.515  -5.640  0.00  0.00    -0.346 OA
ATOM     31  C   UNL d   1       1.216   1.642  -4.812  0.00  0.00     0.102 A 
ATOM     32  C   UNL d   1       2.851   0.290  -6.447  0.00  0.00     0.202 C 
ATOM     33  C   UNL d   1       2.107   1.513  -6.958  0.00  0.00     0.202 C 
ATOM     34  O   UNL d   1       1.693   2.359  -5.877  0.00  0.00    -0.346 OA
ATOM     35  C   UNL d   1       0.603   2.364  -3.787  0.00  0.00     0.042 A 
ATOM     36  C   UNL d   1       0.137   1.707  -2.640  0.00  0.00     0.033 A 
ENDBRANCH   1  27
BRANCH   3  37
ATOM     37  O   UNL d   1      -2.123   0.792  -0.669  0.00  0.00    -0.331 OA
ATOM     38  H   UNL d   1      -2.120   1.082  -1.593  0.00  0.00     0.221 HD
ENDBRANCH   3  37
TORSDOF 7
