REMARK  5 active torsions:
REMARK  status: ('A' for Active; 'I' for Inactive)
REMARK    1  A    between atoms: C_6  and  N_1 
REMARK    2  A    between atoms: S_7  and  C_4 
REMARK    3  A    between atoms: C_9  and  S_7 
REMARK    4  A    between atoms: N_14  and  C_12 
REMARK    5  A    between atoms: O_16  and  C_13 
ROOT
ATOM      1  N   UNL d   1       0.078   0.837   0.001  0.00  0.00    -0.251 N 
ATOM      2  C   UNL d   1      -1.053   0.085   0.215  0.00  0.00     0.232 C 
ATOM      3  C   UNL d   1       1.190   0.035  -0.144  0.00  0.00     0.245 C 
ATOM      4  C   UNL d   1       0.760  -1.414  -0.202  0.00  0.00     0.154 C 
ATOM      5  C   UNL d   1      -0.709  -1.374   0.166  0.00  0.00     0.129 C 
ATOM      6  O   UNL d   1      -2.198   0.465   0.431  0.00  0.00    -0.273 OA
ATOM      7  O   UNL d   1       2.368   0.378  -0.178  0.00  0.00    -0.271 OA
ENDROOT
BRANCH   4   8
ATOM      8  S   UNL d   1       1.090  -2.026  -1.897  0.00  0.00    -0.113 SA
BRANCH   8   9
ATOM      9  C   UNL d   1       0.685  -3.769  -1.737  0.00  0.00     0.022 A 
ATOM     10  C   UNL d   1      -0.285  -4.336  -2.592  0.00  0.00     0.022 A 
ATOM     11  C   UNL d   1      -0.587  -5.698  -2.474  0.00  0.00     0.024 A 
ATOM     12  C   UNL d   1       0.135  -6.513  -1.602  0.00  0.00     0.002 A 
ATOM     13  C   UNL d   1       1.133  -5.964  -0.801  0.00  0.00     0.001 A 
ATOM     14  C   UNL d   1       1.405  -4.594  -0.863  0.00  0.00     0.020 A 
BRANCH  10  15
ATOM     15  N   UNL d   1      -1.104  -3.524  -3.405  0.00  0.00    -0.302 NA
ATOM     16  H   UNL d   1      -0.625  -2.660  -3.656  0.00  0.00     0.124 HD
ATOM     17  H   UNL d   1      -1.469  -4.008  -4.220  0.00  0.00     0.124 HD
ENDBRANCH  10  15
ENDBRANCH   8   9
ENDBRANCH   4   8
BRANCH   1  18
ATOM     18  C   UNL d   1       0.115   2.266  -0.021  0.00  0.00     0.048 A 
ATOM     19  C   UNL d   1      -0.860   3.039   0.638  0.00  0.00     0.066 A 
ATOM     20  C   UNL d   1      -0.818   4.439   0.616  0.00  0.00     0.070 A 
ATOM     21  C   UNL d   1       0.187   5.084  -0.101  0.00  0.00     0.037 A 
ATOM     22  C   UNL d   1       1.154   4.343  -0.772  0.00  0.00     0.005 A 
ATOM     23  C   UNL d   1       1.124   2.947  -0.721  0.00  0.00     0.030 A 
BRANCH  20  24
ATOM     24  O   UNL d   1      -1.689   5.280   1.254  0.00  0.00    -0.356 OA
ATOM     25  C   UNL d   1      -2.693   4.678   2.064  0.00  0.00     0.210 C 
ENDBRANCH  20  24
ENDBRANCH   1  18
TORSDOF 5
