REMARK  3 active torsions:
REMARK  status: ('A' for Active; 'I' for Inactive)
REMARK    1  A    between atoms: C_4  and  C_2 
REMARK    2  A    between atoms: C_5  and  C_3 
REMARK    3  A    between atoms: N_14  and  C_5 
ROOT
ATOM      1  S   UNL d   1      -1.024  -0.035   0.031  0.00  0.00    -0.085 SA
ATOM      2  C   UNL d   1       0.126   1.228  -0.033  0.00  0.00     0.041 A 
ATOM      3  C   UNL d   1       0.177  -1.270   0.017  0.00  0.00     0.043 A 
ATOM      4  C   UNL d   1       1.410   0.727  -0.031  0.00  0.00     0.023 A 
ATOM      5  C   UNL d   1       1.440  -0.700  -0.005  0.00  0.00     0.023 A 
ENDROOT
BRANCH   2   6
ATOM      6  C   UNL d   1      -0.248   2.615  -0.091  0.00  0.00     0.117 A 
ATOM      7  O   UNL d   1       0.683   3.622  -0.157  0.00  0.00    -0.237 OA
ATOM      8  N   UNL d   1       0.056   4.854  -0.229  0.00  0.00    -0.272 N 
ATOM      9  C   UNL d   1      -1.248   4.585  -0.205  0.00  0.00     0.117 A 
ATOM     10  HN  UNL d   1       0.498   5.771  -0.288  1.00  0.00     0.194 HD
ATOM     11  C   UNL d   1      -1.497   3.206  -0.111  0.00  0.00     0.059 A 
ENDBRANCH   2   6
BRANCH   3  12
ATOM     12  C   UNL d   1      -0.216  -2.671   0.024  0.00  0.00     0.111 C 
ATOM     13  S   UNL d   1       0.898  -3.912  -0.022  0.00  0.00    -0.059 SA
BRANCH  12  14
ATOM     14  N   UNL d   1      -1.547  -2.983   0.064  0.00  0.00    -0.389 N 
ATOM     15  H   UNL d   1      -2.262  -2.268   0.085  0.00  0.00     0.157 HD
ATOM     16  H   UNL d   1      -1.830  -3.954   0.058  0.00  0.00     0.157 HD
ENDBRANCH  12  14
ENDBRANCH   3  12
TORSDOF 3
