REMARK  4 active torsions:
REMARK  status: ('A' for Active; 'I' for Inactive)
REMARK    1  A    between atoms: C_2  and  N_1 
REMARK    2  A    between atoms: C_4  and  N_1 
REMARK    3  A    between atoms: C_3  and  C_2 
REMARK    4  A    between atoms: O_9  and  N_5 
ROOT
ATOM      1  N   UNL d   1      -1.079  -1.520  -2.792  0.00  0.00    -0.374 N 
ATOM      2  H   UNL d   1      -1.375  -0.822  -3.469  0.00  0.00     0.161 HD
ENDROOT
BRANCH   1   3
ATOM      3  C   UNL d   1       0.389  -1.642  -2.664  0.00  0.00     0.063 C 
ATOM      4  C   UNL d   1       0.962  -2.445  -3.843  0.00  0.00     0.044 C 
ATOM      5  C   UNL d   1       0.980  -0.217  -2.760  0.00  0.00     0.044 C 
BRANCH   3   6
ATOM      6  C   UNL d   1       0.799  -2.168  -1.264  0.00  0.00     0.033 C 
ATOM      7  N   UNL d   1       1.834  -2.955  -1.151  0.00  0.00    -0.275 N 
ATOM      8  HN  UNL d   1       2.416  -3.254  -1.933  1.00  0.00     0.193 HD
ATOM      9  C   UNL d   1      -0.004  -1.705  -0.057  0.00  0.00     0.068 C 
BRANCH   7  10
ATOM     10  O   UNL d   1       2.044  -3.337   0.179  0.00  0.00    -0.290 OA
ATOM     11  H   UNL d   1       2.713  -4.040   0.090  0.00  0.00     0.244 HD
ENDBRANCH   7  10
ENDBRANCH   3   6
ENDBRANCH   1   3
BRANCH   1  12
ATOM     12  C   UNL d   1      -2.021  -2.531  -2.611  0.00  0.00     0.068 A 
ATOM     13  C   UNL d   1      -1.764  -3.867  -2.267  0.00  0.00     0.142 A 
ATOM     14  F   UNL d   1      -0.515  -4.337  -2.168  0.00  0.00    -0.204 F 
ATOM     15  C   UNL d   1      -2.787  -4.787  -2.023  0.00  0.00     0.044 A 
ATOM     16  C   UNL d   1      -4.113  -4.381  -2.079  0.00  0.00     0.003 A 
ATOM     17  C   UNL d   1      -4.408  -3.057  -2.380  0.00  0.00     0.002 A 
ATOM     18  C   UNL d   1      -3.375  -2.147  -2.640  0.00  0.00     0.032 A 
ENDBRANCH   1  12
TORSDOF 4
