REMARK  9 active torsions:
REMARK  status: ('A' for Active; 'I' for Inactive)
REMARK    1  A    between atoms: C_2  and  C_1 
REMARK    2  A    between atoms: C_5  and  C_3 
REMARK    3  A    between atoms: C_6  and  C_4 
REMARK       I    between atoms: N_12  and  C_5 
REMARK    4  A    between atoms: O_14  and  C_6 
REMARK    5  A    between atoms: O_17  and  C_7 
REMARK    6  A    between atoms: O_18  and  C_8 
REMARK    7  A    between atoms: C_19  and  N_12 
REMARK    8  A    between atoms: C_15  and  C_24 
REMARK    9  A    between atoms: C_24  and  C_19 
ROOT
ATOM      1  C   UNL d   1       0.996  -0.486   1.641  0.00  0.00    -0.009 A 
ATOM      2  C   UNL d   1       0.564  -1.262   0.524  0.00  0.00     0.043 A 
ATOM      3  C   UNL d   1       0.346   0.759   1.806  0.00  0.00     0.013 A 
ATOM      4  C   UNL d   1      -0.423  -0.777  -0.363  0.00  0.00     0.018 A 
ATOM      5  C   UNL d   1      -0.597   1.249   0.891  0.00  0.00     0.001 A 
ATOM      6  C   UNL d   1      -0.981   0.483  -0.199  0.00  0.00     0.001 A 
ENDROOT
BRANCH   2   7
ATOM      7  C   UNL d   1       1.014  -2.643   0.185  0.00  0.00     0.252 C 
ATOM      8  O   UNL d   1       0.182  -3.492  -0.128  0.00  0.00    -0.268 OA
ATOM      9  N   UNL d   1       2.365  -2.912   0.226  0.00  0.00    -0.357 N 
ATOM     10  H   UNL d   1       3.017  -2.179   0.480  0.00  0.00     0.162 HD
BRANCH   9  11
ATOM     11  C   UNL d   1       2.833  -4.268   0.020  0.00  0.00     0.127 C 
BRANCH  11  12
ATOM     12  C   UNL d   1       4.311  -4.457   0.361  0.00  0.00     0.058 C 
BRANCH  12  13
ATOM     13  C   UNL d   1       4.872  -5.812  -0.013  0.00  0.00    -0.054 A 
ATOM     14  C   UNL d   1       6.210  -5.905  -0.434  0.00  0.00     0.046 A 
ATOM     15  C   UNL d   1       6.775  -7.128  -0.833  0.00  0.00     0.102 A 
ATOM     16  C   UNL d   1       6.003  -8.296  -0.747  0.00  0.00     0.101 A 
ATOM     17  C   UNL d   1       4.678  -8.210  -0.307  0.00  0.00     0.040 A 
ATOM     18  C   UNL d   1       4.120  -6.988   0.069  0.00  0.00     0.010 A 
BRANCH  15  19
ATOM     19  O   UNL d   1       8.065  -7.218  -1.288  0.00  0.00    -0.353 OA
ATOM     20  C   UNL d   1       8.553  -6.083  -1.997  0.00  0.00     0.210 C 
ENDBRANCH  15  19
BRANCH  16  21
ATOM     21  O   UNL d   1       6.366  -9.565  -1.118  0.00  0.00    -0.353 OA
ATOM     22  C   UNL d   1       7.731  -9.917  -0.940  0.00  0.00     0.210 C 
ENDBRANCH  16  21
ENDBRANCH  12  13
ENDBRANCH  11  12
ENDBRANCH   9  11
ENDBRANCH   2   7
BRANCH   1  23
ATOM     23  C   UNL d   1       2.055  -0.909   2.620  0.00  0.00    -0.008 C 
ATOM     24  C   UNL d   1       3.090  -0.071   3.121  0.00  0.00     0.048 C 
ATOM     25  C   UNL d   1       4.151  -0.596   3.892  0.00  0.00     0.019 C 
ATOM     26  C   UNL d   1       4.199  -1.948   4.204  0.00  0.00     0.001 C 
ATOM     27  C   UNL d   1       3.158  -2.771   3.805  0.00  0.00     0.001 C 
ATOM     28  C   UNL d   1       2.087  -2.249   3.067  0.00  0.00     0.013 C 
BRANCH  24  29
ATOM     29  C   UNL d   1       3.199   1.379   2.825  0.00  0.00     0.177 C 
ATOM     30  O   UNL d   1       3.118   1.852   1.701  0.00  0.00    -0.646 OA
BRANCH  29  31
ATOM     31  O   UNL d   1       3.414   2.127   3.929  0.00  0.00    -0.773 OA
ATOM     32  H   UNL d   1       3.414   1.644   4.779  0.00  0.00     0.167 HD
ENDBRANCH  29  31
ENDBRANCH  24  29
ENDBRANCH   1  23
TORSDOF 9
