REMARK  1 active torsions:
REMARK  status: ('A' for Active; 'I' for Inactive)
REMARK    1  A    between atoms: C_10  and  O_19 
ROOT
ATOM      1  C   UNL d   1      -3.333  -1.600   1.332  0.00  0.00    -0.012 C 
ATOM      2  C   UNL d   1      -2.548  -5.576  -0.637  0.00  0.00    -0.009 C 
ATOM      3  C   UNL d   1      -2.728  -0.557   0.344  0.00  0.00    -0.046 C 
ATOM      4  C   UNL d   1      -2.012  -3.004  -0.356  0.00  0.00     0.018 C 
ATOM      5  C   UNL d   1      -2.628  -3.021   1.072  0.00  0.00     0.006 C 
ATOM      6  C   UNL d   1      -1.791  -4.303  -1.132  0.00  0.00     0.005 C 
ATOM      7  C   UNL d   1      -0.918  -1.937  -0.293  0.00  0.00    -0.021 C 
ATOM      8  C   UNL d   1      -1.294  -0.717   0.113  0.00  0.00     0.004 C 
ATOM      9  C   UNL d   1      -3.424   0.046  -0.640  0.00  0.00     0.058 C 
ATOM     10  C   UNL d   1      -1.634  -6.767  -1.153  0.00  0.00     0.062 C 
ATOM     11  C   UNL d   1      -2.737  -5.534   0.900  0.00  0.00     0.013 C 
ATOM     12  C   UNL d   1      -3.458  -4.268   1.378  0.00  0.00     0.007 C 
ATOM     13  C   UNL d   1      -4.877  -1.611   1.170  0.00  0.00     0.022 C 
ATOM     14  C   UNL d   1      -0.369  -4.747  -1.443  0.00  0.00     0.009 C 
ATOM     15  C   UNL d   1      -4.796  -0.416  -0.972  0.00  0.00     0.149 C 
ATOM     16  C   UNL d   1      -0.638  -6.088  -2.112  0.00  0.00     0.038 C 
ATOM     17  O   UNL d   1      -5.410   0.119  -1.897  0.00  0.00    -0.293 OA
ATOM     18  C   UNL d   1      -5.312  -1.653  -0.282  0.00  0.00     0.084 C 
ATOM     19  C   UNL d   1      -3.057  -1.129   2.781  0.00  0.00     0.021 C 
ATOM     20  C   UNL d   1      -3.949  -5.630  -1.301  0.00  0.00     0.018 C 
ATOM     21  C   UNL d   1      -0.853  -7.525  -0.078  0.00  0.00     0.046 C 
ENDROOT
BRANCH  10  22
ATOM     22  O   UNL d   1      -2.375  -7.765  -1.856  0.00  0.00    -0.389 OA
ATOM     23  H   UNL d   1      -2.626  -7.420  -2.727  0.00  0.00     0.210 HD
ENDBRANCH  10  22
TORSDOF 1
