REMARK  5 active torsions:
REMARK  status: ('A' for Active; 'I' for Inactive)
REMARK    1  A    between atoms: C_10  and  N_1 
REMARK    2  A    between atoms: C_19  and  C_10 
REMARK    3  A    between atoms: O_13  and  C_18 
REMARK    4  A    between atoms: C_18  and  C_20 
REMARK    5  A    between atoms: C_20  and  C_19 
ROOT
ATOM      1  N   UNL d   1       2.264  -0.141   0.111  0.00  0.00    -0.280 N 
ATOM      2  C   UNL d   1       1.684   1.128   0.110  0.00  0.00     0.261 A 
ATOM      3  C   UNL d   1       1.553  -1.337   0.009  0.00  0.00     0.261 A 
ATOM      4  C   UNL d   1       0.205   1.194   0.031  0.00  0.00     0.044 A 
ATOM      5  C   UNL d   1       0.075  -1.245   0.026  0.00  0.00     0.044 A 
ATOM      6  C   UNL d   1      -0.542   0.010   0.024  0.00  0.00     0.005 A 
ATOM      7  O   UNL d   1       2.080  -2.442  -0.096  0.00  0.00    -0.267 OA
ATOM      8  O   UNL d   1       2.326   2.174   0.175  0.00  0.00    -0.267 OA
ATOM      9  C   UNL d   1      -1.955   0.084   0.010  0.00  0.00    -0.024 A 
ATOM     10  C   UNL d   1      -0.688  -2.419   0.041  0.00  0.00     0.018 A 
ATOM     11  C   UNL d   1      -0.432   2.441  -0.010  0.00  0.00     0.018 A 
ATOM     12  C   UNL d   1      -2.078  -2.345   0.050  0.00  0.00     0.002 A 
ATOM     13  C   UNL d   1      -1.823   2.512  -0.043  0.00  0.00     0.002 A 
ATOM     14  C   UNL d   1      -2.579   1.340  -0.024  0.00  0.00     0.012 A 
ATOM     15  C   UNL d   1      -2.707  -1.101   0.030  0.00  0.00     0.012 A 
ENDROOT
BRANCH   1  16
ATOM     16  C   UNL d   1       3.720  -0.221   0.193  0.00  0.00     0.135 C 
BRANCH  16  17
ATOM     17  C   UNL d   1       4.250  -0.140   1.631  0.00  0.00     0.022 C 
BRANCH  17  18
ATOM     18  C   UNL d   1       3.864  -1.335   2.504  0.00  0.00     0.028 C 
BRANCH  18  19
ATOM     19  C   UNL d   1       4.492  -1.233   3.891  0.00  0.00     0.164 C 
BRANCH  19  20
ATOM     20  O   UNL d   1       4.086  -2.348   4.671  0.00  0.00    -0.401 OA
ATOM     21  H   UNL d   1       4.514  -2.258   5.540  0.00  0.00     0.209 HD
ENDBRANCH  19  20
ENDBRANCH  18  19
ENDBRANCH  17  18
ENDBRANCH  16  17
ENDBRANCH   1  16
TORSDOF 5
