REMARK  2 active torsions:
REMARK  status: ('A' for Active; 'I' for Inactive)
REMARK    1  A    between atoms: C_12  and  N_1 
REMARK    2  A    between atoms: N_4  and  C_13 
ROOT
ATOM      1  C   UNL d   1       2.091  -1.369  -0.028  0.00  0.00     0.056 A 
ATOM      2  C   UNL d   1       4.423  -2.946  -0.157  0.00  0.00     0.039 A 
ATOM      3  C   UNL d   1       2.209  -2.388  -0.984  0.00  0.00     0.034 A 
ATOM      4  C   UNL d   1       3.135  -1.163   0.878  0.00  0.00     0.034 A 
ATOM      5  C   UNL d   1       3.371  -3.170  -1.051  0.00  0.00     0.032 A 
ATOM      6  C   UNL d   1       4.301  -1.930   0.799  0.00  0.00     0.032 A 
ENDROOT
BRANCH   1   7
ATOM      7  N   UNL d   1       0.892  -0.602   0.038  0.00  0.00    -0.261 N 
ATOM      8  N   UNL d   1      -0.264  -1.133  -0.446  0.00  0.00    -0.298 N 
ATOM      9  C   UNL d   1      -1.229  -0.312  -0.027  0.00  0.00     0.024 C 
ATOM     10  HN  UNL d   1      -0.370  -1.978  -1.008  1.00  0.00     0.187 HD
ATOM     11  C   UNL d   1      -2.656  -0.631  -0.267  0.00  0.00     0.070 C 
ATOM     12  C   UNL d   1      -0.700   0.829   0.597  0.00  0.00     0.052 C 
ATOM     13  C   UNL d   1       0.669   0.665   0.569  0.00  0.00     0.032 C 
ATOM     14  C   UNL d   1       1.708   1.657   0.951  0.00  0.00     0.070 C 
ENDBRANCH   1   7
BRANCH   2  15
ATOM     15  N   UNL d   1       5.595  -3.767  -0.184  0.00  0.00    -0.320 N 
ATOM     16  C   UNL d   1       6.286  -4.255   0.932  0.00  0.00     0.013 A 
ATOM     17  C   UNL d   1       7.357  -5.003   0.486  0.00  0.00     0.027 A 
ATOM     18  C   UNL d   1       5.886  -4.090   2.361  0.00  0.00     0.068 C 
ATOM     19  C   UNL d   1       7.332  -5.009  -0.915  0.00  0.00     0.027 A 
ATOM     20  C   UNL d   1       6.258  -4.237  -1.322  0.00  0.00     0.013 A 
ATOM     21  C   UNL d   1       5.935  -3.893  -2.737  0.00  0.00     0.068 C 
ENDBRANCH   2  15
TORSDOF 2
