REMARK  4 active torsions:
REMARK  status: ('A' for Active; 'I' for Inactive)
REMARK    1  A    between atoms: C_3  and  C_1 
REMARK    2  A    between atoms: C_2  and  C_3 
REMARK    3  A    between atoms: N_10  and  N_4 
REMARK    4  A    between atoms: C_14  and  N_10 
ROOT
ATOM      1  C   UNL d   1       1.033  -0.007  -0.000  0.00  0.00     0.179 C 
ATOM      2  N   UNL d   1       0.364   1.067  -0.306  0.00  0.00    -0.287 N 
ATOM      3  HN  UNL d   1       0.875   1.915  -0.554  1.00  0.00     0.188 HD
ATOM      4  C   UNL d   1       0.315  -1.179   0.433  0.00  0.00     0.123 C 
ATOM      5  N   UNL d   1      -0.319  -2.092   0.774  0.00  0.00    -0.190 NA
ENDROOT
BRANCH   1   6
ATOM      6  C   UNL d   1       2.534   0.008  -0.072  0.00  0.00     0.221 C 
ATOM      7  O   UNL d   1       3.120  -0.599   0.820  0.00  0.00    -0.284 OA
BRANCH   6   8
ATOM      8  C   UNL d   1       3.268   0.688  -1.147  0.00  0.00     0.024 A 
ATOM      9  C   UNL d   1       2.704   1.383  -2.202  0.00  0.00     0.065 A 
ATOM     10  S   UNL d   1       3.866   2.057  -3.263  0.00  0.00    -0.113 SA
ATOM     11  C   UNL d   1       5.154   1.426  -2.339  0.00  0.00     0.050 A 
ATOM     12  C   UNL d   1       4.704   0.721  -1.245  0.00  0.00     0.023 A 
ENDBRANCH   6   8
ENDBRANCH   1   6
BRANCH   2  13
ATOM     13  N   UNL d   1      -0.995   1.092  -0.305  0.00  0.00    -0.300 N 
ATOM     14  H   UNL d   1      -1.572   0.312   0.019  0.00  0.00     0.187 HD
BRANCH  13  15
ATOM     15  C   UNL d   1      -1.627   2.350  -0.209  0.00  0.00     0.048 A 
ATOM     16  C   UNL d   1      -0.900   3.551  -0.227  0.00  0.00     0.032 A 
ATOM     17  C   UNL d   1      -1.546   4.787  -0.154  0.00  0.00     0.026 A 
ATOM     18  C   UNL d   1      -2.935   4.835  -0.096  0.00  0.00     0.034 A 
ATOM     19  C   UNL d   1      -3.679   3.658  -0.122  0.00  0.00     0.026 A 
ATOM     20 CL   UNL d   1      -3.733   6.354   0.005  0.00  0.00    -0.084 Cl
ATOM     21  C   UNL d   1      -3.026   2.422  -0.189  0.00  0.00     0.032 A 
ENDBRANCH  13  15
ENDBRANCH   2  13
TORSDOF 4
