REMARK  8 active torsions:
REMARK  status: ('A' for Active; 'I' for Inactive)
REMARK    1  A    between atoms: C_10  and  N_1 
REMARK    2  A    between atoms: N_7  and  C_4 
REMARK    3  A    between atoms: S_12  and  C_5 
REMARK    4  A    between atoms: C_11  and  C_6 
REMARK       I    between atoms: C_8  and  N_7 
REMARK    5  A    between atoms: C_9  and  C_8 
REMARK    6  A    between atoms: O_19  and  C_11 
REMARK    7  A    between atoms: O_20  and  C_14 
REMARK    8  A    between atoms: C_24  and  O_19 
ROOT
ATOM      1  N   UNL d   1      -0.370  -1.368  -0.303  0.00  0.00    -0.281 N 
ATOM      2  N   UNL d   1       0.944   0.414  -0.642  0.00  0.00    -0.320 N 
ATOM      3  HN  UNL d   1       1.758   0.994  -0.844  1.00  0.00     0.169 HD
ATOM      4  C   UNL d   1      -0.264   0.830  -0.210  0.00  0.00     0.144 C 
ATOM      5  C   UNL d   1       0.855  -0.887  -0.749  0.00  0.00     0.153 C 
ATOM      6  C   UNL d   1      -1.160  -0.227  -0.065  0.00  0.00     0.162 C 
ENDROOT
BRANCH   1   7
ATOM      7  C   UNL d   1      -0.729  -2.744  -0.150  0.00  0.00     0.075 A 
ATOM      8  C   UNL d   1       0.096  -3.632   0.575  0.00  0.00     0.095 A 
ATOM      9  C   UNL d   1      -0.275  -4.982   0.665  0.00  0.00     0.039 A 
ATOM     10  C   UNL d   1      -1.454  -5.439   0.075  0.00  0.00     0.003 A 
ATOM     11  C   UNL d   1      -2.267  -4.559  -0.629  0.00  0.00     0.002 A 
ATOM     12  C   UNL d   1      -1.896  -3.221  -0.762  0.00  0.00     0.033 A 
BRANCH   8  13
ATOM     13  O   UNL d   1       1.184  -3.107   1.222  0.00  0.00    -0.354 OA
ATOM     14  C   UNL d   1       2.095  -4.019   1.827  0.00  0.00     0.210 C 
ENDBRANCH   8  13
ENDBRANCH   1   7
BRANCH   5  15
ATOM     15  S   UNL d   1       2.048  -1.852  -1.578  0.00  0.00    -0.098 SA
ATOM     16  C   UNL d   1       2.960  -0.558  -2.452  0.00  0.00     0.099 C 
ENDBRANCH   5  15
BRANCH   6  17
ATOM     17  C   UNL d   1      -2.558  -0.177   0.303  0.00  0.00     0.314 C 
ATOM     18  O   UNL d   1      -3.369  -1.089   0.221  0.00  0.00    -0.257 OA
BRANCH  17  19
ATOM     19  O   UNL d   1      -2.894   1.074   0.731  0.00  0.00    -0.317 OA
BRANCH  19  20
ATOM     20  C   UNL d   1      -4.279   1.258   1.087  0.00  0.00     0.175 C 
ATOM     21  C   UNL d   1      -5.062   1.736  -0.124  0.00  0.00     0.034 C 
ENDBRANCH  19  20
ENDBRANCH  17  19
ENDBRANCH   6  17
BRANCH   4  22
ATOM     22  N   UNL d   1      -0.539   2.167   0.010  0.00  0.00    -0.307 N 
ATOM     23  C   UNL d   1       0.357   3.215  -0.193  0.00  0.00     0.278 C 
ATOM     24  O   UNL d   1       1.500   3.074  -0.635  0.00  0.00    -0.268 OA
ATOM     25  H   UNL d   1      -1.473   2.375   0.352  0.00  0.00     0.170 HD
BRANCH  23  26
ATOM     26  C   UNL d   1      -0.170   4.615   0.206  0.00  0.00     0.269 C 
ATOM     27 CL   UNL d   1      -1.926   4.595   0.576  0.00  0.00    -0.073 Cl
ATOM     28 CL   UNL d   1       0.716   5.152   1.658  0.00  0.00    -0.073 Cl
ATOM     29 CL   UNL d   1       0.107   5.750  -1.143  0.00  0.00    -0.073 Cl
ENDBRANCH  23  26
ENDBRANCH   4  22
TORSDOF 8
