REMARK  4 active torsions:
REMARK  status: ('A' for Active; 'I' for Inactive)
REMARK    1  A    between atoms: C_2  and  C_1 
REMARK       I    between atoms: N_5  and  C_2 
REMARK    2  A    between atoms: C_4  and  C_3 
REMARK    3  A    between atoms: C_11  and  N_5 
REMARK    4  A    between atoms: C_23  and  N_5 
ROOT
ATOM      1  C   UNL d   1       0.679   1.235  -0.061  0.00  0.00     0.063 A 
ATOM      2  C   UNL d   1       1.172   0.215   0.758  0.00  0.00     0.068 A 
ATOM      3  C   UNL d   1      -0.285   0.890  -0.994  0.00  0.00     0.107 A 
ATOM      4  N   UNL d   1      -0.836  -0.344  -1.102  0.00  0.00    -0.352 N 
ATOM      5  HN  UNL d   1      -1.578  -0.526  -1.778  1.00  0.00     0.166 HD
ATOM      6  C   UNL d   1      -0.383  -1.322  -0.299  0.00  0.00     0.101 A 
ATOM      7  C   UNL d   1       0.621  -1.076   0.626  0.00  0.00     0.065 A 
ATOM      8  N   UNL d   1      -0.936  -2.546  -0.529  0.00  0.00    -0.381 N 
ATOM      9  C   UNL d   1      -0.740  -3.741   0.246  0.00  0.00     0.147 C 
ATOM     10  H   UNL d   1      -1.724  -2.501  -1.165  0.00  0.00     0.160 HD
ENDROOT
BRANCH   1  11
ATOM     11  C   UNL d   1       1.246   2.601  -0.014  0.00  0.00     0.260 C 
ATOM     12  N   UNL d   1       0.427   3.746   0.079  0.00  0.00    -0.314 N 
ATOM     13  O   UNL d   1       2.471   2.662  -0.081  0.00  0.00    -0.267 OA
BRANCH  12  14
ATOM     14  C   UNL d   1      -0.989   3.717  -0.028  0.00  0.00     0.037 A 
ATOM     15  C   UNL d   1      -1.761   2.999   0.891  0.00  0.00     0.031 A 
ATOM     16  C   UNL d   1      -3.151   2.925   0.734  0.00  0.00     0.026 A 
ATOM     17  C   UNL d   1      -3.763   3.570  -0.337  0.00  0.00     0.034 A 
ATOM     18  C   UNL d   1      -3.006   4.306  -1.245  0.00  0.00     0.026 A 
ATOM     19 CL   UNL d   1      -5.467   3.453  -0.547  0.00  0.00    -0.084 Cl
ATOM     20  C   UNL d   1      -1.621   4.390  -1.084  0.00  0.00     0.031 A 
ENDBRANCH  12  14
BRANCH  12  21
ATOM     21  C   UNL d   1       1.106   5.050   0.008  0.00  0.00     0.128 C 
ATOM     22  C   UNL d   1       0.434   6.174   0.792  0.00  0.00     0.027 C 
ENDBRANCH  12  21
ENDBRANCH   1  11
BRANCH   2  23
ATOM     23  C   UNL d   1       2.306   0.430   1.724  0.00  0.00     0.418 C 
ATOM     24  F   UNL d   1       2.278   1.631   2.362  0.00  0.00    -0.166 F 
ATOM     25  F   UNL d   1       2.295  -0.494   2.732  0.00  0.00    -0.166 F 
ATOM     26  F   UNL d   1       3.530   0.306   1.144  0.00  0.00    -0.166 F 
ENDBRANCH   2  23
TORSDOF 4
