REMARK  2 active torsions:
REMARK  status: ('A' for Active; 'I' for Inactive)
REMARK    1  A    between atoms: C_2  and  C_1 
REMARK    2  A    between atoms: C_14  and  C_8 
ROOT
ATOM      1  C   UNL d   1       1.094  -0.104   1.074  0.00  0.00     0.184 A 
ATOM      2  O   UNL d   1       0.624   1.193   1.025  0.00  0.00    -0.276 OA
ATOM      3  N   UNL d   1       0.473  -0.873   0.197  0.00  0.00    -0.277 N 
ATOM      4  HN  UNL d   1       0.643  -1.866   0.037  1.00  0.00     0.189 HD
ATOM      5  N   UNL d   1      -0.446  -0.088  -0.459  0.00  0.00    -0.281 N 
ATOM      6  HN  UNL d   1      -1.086  -0.383  -1.197  1.00  0.00     0.189 HD
ATOM      7  C   UNL d   1      -0.336   1.116   0.054  0.00  0.00     0.144 A 
ENDROOT
BRANCH   1   8
ATOM      8  C   UNL d   1       2.111  -0.562   1.962  0.00  0.00     0.095 A 
ATOM      9  C   UNL d   1       2.662  -1.824   2.152  0.00  0.00     0.041 A 
ATOM     10  N   UNL d   1       3.647  -1.879   3.138  0.00  0.00    -0.296 N 
ATOM     11  C   UNL d   1       2.344  -3.103   1.463  0.00  0.00     0.071 C 
ATOM     12  N   UNL d   1       3.859  -0.703   3.698  0.00  0.00    -0.061 NA
ATOM     13  HN  UNL d   1       4.146  -2.730   3.397  1.00  0.00     0.183 HD
ATOM     14  S   UNL d   1       2.891   0.498   3.065  0.00  0.00     0.006 SA
ENDBRANCH   1   8
BRANCH   7  15
ATOM     15  C   UNL d   1      -1.123   2.335  -0.272  0.00  0.00     0.062 C 
ATOM     16  C   UNL d   1      -1.817   2.921   0.963  0.00  0.00     0.013 C 
ATOM     17  C   UNL d   1      -2.704   4.101   0.572  0.00  0.00     0.001 C 
ATOM     18  C   UNL d   1      -1.929   5.171  -0.195  0.00  0.00     0.000 C 
ATOM     19  C   UNL d   1      -1.141   4.597  -1.371  0.00  0.00     0.001 C 
ATOM     20  C   UNL d   1      -0.273   3.408  -0.958  0.00  0.00     0.013 C 
ENDBRANCH   7  15
TORSDOF 2
