REMARK  4 active torsions:
REMARK  status: ('A' for Active; 'I' for Inactive)
REMARK       I    between atoms: N_4  and  C_1 
REMARK       I    between atoms: N_6  and  C_1 
REMARK       I    between atoms: C_2  and  N_5 
REMARK    1  A    between atoms: O_7  and  C_2 
REMARK    2  A    between atoms: C_3  and  C_8 
REMARK    3  A    between atoms: C_17  and  N_6 
REMARK    4  A    between atoms: C_13  and  O_7 
ROOT
ATOM      1  C   UNL d   1       0.743  -0.017   0.269  0.00  0.00     0.322 C 
ATOM      2  C   UNL d   1      -2.706  -3.030  -2.638  0.00  0.00     0.363 C 
ATOM      3  N   UNL d   1       0.298  -0.713  -0.861  0.00  0.00    -0.332 N 
ATOM      4  N   UNL d   1      -2.110  -2.422  -1.540  0.00  0.00    -0.326 N 
ATOM      5  N   UNL d   1       0.635   1.352   0.153  0.00  0.00    -0.309 N 
ATOM      6  O   UNL d   1       1.257  -0.592   1.222  0.00  0.00    -0.247 OA
ATOM      7  O   UNL d   1      -3.134  -2.395  -3.595  0.00  0.00    -0.238 OA
ATOM      8  C   UNL d   1      -2.133  -0.959  -1.443  0.00  0.00     0.148 C 
ATOM      9  C   UNL d   1      -0.791  -0.274  -1.743  0.00  0.00     0.147 C 
ATOM     10  C   UNL d   1      -0.060  -3.121  -0.218  0.00  0.00     0.040 C 
ATOM     11  C   UNL d   1      -1.580  -3.149  -0.390  0.00  0.00     0.129 C 
ATOM     12  C   UNL d   1       0.725  -2.096  -1.027  0.00  0.00     0.129 C 
ATOM     13  H   UNL d   1       0.696   1.683  -0.798  0.00  0.00     0.170 HD
ENDROOT
BRANCH   5  14
ATOM     14  C   UNL d   1       0.928   2.303   1.155  0.00  0.00     0.036 A 
ATOM     15  C   UNL d   1       1.296   3.588   0.743  0.00  0.00     0.030 A 
ATOM     16  C   UNL d   1       1.556   4.594   1.681  0.00  0.00     0.018 A 
ATOM     17  C   UNL d   1       1.425   4.340   3.052  0.00  0.00     0.048 A 
ATOM     18  C   UNL d   1       1.065   3.046   3.463  0.00  0.00     0.018 A 
ATOM     19  C   UNL d   1       0.826   2.034   2.521  0.00  0.00     0.030 A 
BRANCH  17  20
ATOM     20  C   UNL d   1       1.630   5.437   4.070  0.00  0.00     0.417 C 
ATOM     21  F   UNL d   1       2.036   6.617   3.521  0.00  0.00    -0.166 F 
ATOM     22  F   UNL d   1       0.490   5.724   4.758  0.00  0.00    -0.166 F 
ATOM     23  F   UNL d   1       2.565   5.122   5.008  0.00  0.00    -0.166 F 
ENDBRANCH  17  20
ENDBRANCH   5  14
BRANCH   2  24
ATOM     24  O   UNL d   1      -2.785  -4.385  -2.529  0.00  0.00    -0.294 OA
BRANCH  24  25
ATOM     25  C   UNL d   1      -3.447  -5.180  -3.555  0.00  0.00     0.061 C 
ATOM     26  C   UNL d   1      -2.777  -5.000  -4.924  0.00  0.00     0.046 C 
ATOM     27  C   UNL d   1      -3.271  -6.644  -3.118  0.00  0.00     0.046 C 
ATOM     28  C   UNL d   1      -4.950  -4.876  -3.616  0.00  0.00     0.046 C 
ENDBRANCH  24  25
ENDBRANCH   2  24
TORSDOF 4
