REMARK  2 active torsions:
REMARK  status: ('A' for Active; 'I' for Inactive)
REMARK       I    between atoms: N_2  and  C_1 
REMARK       I    between atoms: N_3  and  C_1 
REMARK    1  A    between atoms: C_5  and  N_2 
REMARK    2  A    between atoms: C_6  and  N_3 
ROOT
ATOM      1  C   UNL d   1       1.031  -0.004  -0.164  0.00  0.00     0.325 C 
ATOM      2  N   UNL d   1       0.447   1.090   0.457  0.00  0.00    -0.309 N 
ATOM      3  N   UNL d   1       0.151  -1.073  -0.243  0.00  0.00    -0.309 N 
ATOM      4  O   UNL d   1       2.188  -0.035  -0.568  0.00  0.00    -0.247 OA
ATOM      5  H   UNL d   1      -0.453   0.942   0.886  0.00  0.00     0.170 HD
ATOM      6  H   UNL d   1      -0.822  -0.875  -0.074  0.00  0.00     0.170 HD
ENDROOT
BRANCH   2   7
ATOM      7  C   UNL d   1       1.090   2.313   0.765  0.00  0.00     0.036 A 
ATOM      8  C   UNL d   1       2.350   2.669   0.272  0.00  0.00     0.036 A 
ATOM      9  C   UNL d   1       2.983   3.854   0.671  0.00  0.00    -0.060 A 
ATOM     10  C   UNL d   1       4.359   4.181   0.172  0.00  0.00     0.048 C 
ATOM     11  C   UNL d   1       2.331   4.705   1.566  0.00  0.00     0.007 A 
ATOM     12  C   UNL d   1       1.057   4.383   2.035  0.00  0.00     0.003 A 
ATOM     13  C   UNL d   1       0.437   3.196   1.632  0.00  0.00     0.029 A 
ENDBRANCH   2   7
BRANCH   3  14
ATOM     14  C   UNL d   1       0.462  -2.387  -0.664  0.00  0.00     0.036 A 
ATOM     15  C   UNL d   1       1.760  -2.824  -0.949  0.00  0.00     0.036 A 
ATOM     16  C   UNL d   1       2.016  -4.140  -1.358  0.00  0.00    -0.060 A 
ATOM     17  C   UNL d   1       3.415  -4.576  -1.681  0.00  0.00     0.048 C 
ATOM     18  C   UNL d   1       0.950  -5.036  -1.473  0.00  0.00     0.007 A 
ATOM     19  C   UNL d   1      -0.348  -4.618  -1.180  0.00  0.00     0.003 A 
ATOM     20  C   UNL d   1      -0.591  -3.300  -0.778  0.00  0.00     0.029 A 
ENDBRANCH   3  14
TORSDOF 2
