REMARK  6 active torsions:
REMARK  status: ('A' for Active; 'I' for Inactive)
REMARK    1  A    between atoms: C_2  and  C_1 
REMARK       I    between atoms: N_4  and  C_2 
REMARK    2  A    between atoms: O_5  and  C_3 
REMARK    3  A    between atoms: C_11  and  N_4 
REMARK    4  A    between atoms: C_13  and  O_5 
REMARK    5  A    between atoms: C_12  and  C_11 
REMARK    6  A    between atoms: C_14  and  C_12 
ROOT
ATOM      1  C   UNL d   1       0.623   1.228   0.235  0.00  0.00     0.083 A 
ATOM      2  C   UNL d   1      -0.646   0.695   0.420  0.00  0.00     0.163 A 
ATOM      3  N   UNL d   1      -0.898  -0.644   0.314  0.00  0.00    -0.346 N 
ATOM      4  HN  UNL d   1      -1.832  -1.013   0.498  1.00  0.00     0.167 HD
ATOM      5  C   UNL d   1       1.640   0.335  -0.158  0.00  0.00     0.023 A 
ATOM      6  C   UNL d   1       0.108  -1.468  -0.036  0.00  0.00     0.090 A 
ATOM      7  C   UNL d   1       1.381  -1.025  -0.308  0.00  0.00     0.018 A 
ENDROOT
BRANCH   1   8
ATOM      8  C   UNL d   1       1.092   2.572   0.625  0.00  0.00     0.257 C 
ATOM      9  N   UNL d   1       0.589   3.767   0.115  0.00  0.00    -0.352 N 
ATOM     10  C   UNL d   1      -0.652   3.932  -0.621  0.00  0.00     0.152 C 
ATOM     11  O   UNL d   1       2.073   2.578   1.383  0.00  0.00    -0.267 OA
BRANCH   9  12
ATOM     12  C   UNL d   1       1.290   5.000   0.520  0.00  0.00     0.131 C 
BRANCH  12  13
ATOM     13  C   UNL d   1       2.638   5.173  -0.199  0.00  0.00     0.077 C 
BRANCH  13  14
ATOM     14  C   UNL d   1       3.488   6.224   0.468  0.00  0.00     0.010 A 
ATOM     15  N   UNL d   1       3.354   7.501   0.035  0.00  0.00    -0.369 N 
ATOM     16  C   UNL d   1       4.111   8.443   0.642  0.00  0.00     0.088 A 
ATOM     17  HN  UNL d   1       2.711   7.741  -0.719  1.00  0.00     0.165 HD
ATOM     18  C   UNL d   1       4.996   8.179   1.676  0.00  0.00     0.017 A 
ATOM     19  C   UNL d   1       5.115   6.866   2.113  0.00  0.00     0.003 A 
ATOM     20  C   UNL d   1       4.352   5.873   1.504  0.00  0.00     0.025 A 
ENDBRANCH  13  14
ENDBRANCH  12  13
ENDBRANCH   9  12
ENDBRANCH   1   8
BRANCH   2  21
ATOM     21  O   UNL d   1      -1.726   1.511   0.730  0.00  0.00    -0.293 OA
BRANCH  21  22
ATOM     22  C   UNL d   1      -2.979   1.018   0.400  0.00  0.00     0.077 A 
ATOM     23  C   UNL d   1      -3.984   1.117   1.361  0.00  0.00     0.039 A 
ATOM     24  C   UNL d   1      -5.238   0.545   1.119  0.00  0.00     0.026 A 
ATOM     25  C   UNL d   1      -5.485  -0.112  -0.086  0.00  0.00     0.034 A 
ATOM     26  C   UNL d   1      -4.505  -0.163  -1.075  0.00  0.00     0.026 A 
ATOM     27 CL   UNL d   1      -7.000  -0.882  -0.351  0.00  0.00    -0.084 Cl
ATOM     28  C   UNL d   1      -3.261   0.428  -0.841  0.00  0.00     0.039 A 
ENDBRANCH  21  22
ENDBRANCH   2  21
TORSDOF 6
