REMARK  7 active torsions:
REMARK  status: ('A' for Active; 'I' for Inactive)
REMARK    1  A    between atoms: C_14  and  C_3 
REMARK    2  A    between atoms: N_17  and  C_4 
REMARK    3  A    between atoms: C_8  and  C_9 
REMARK    4  A    between atoms: C_11  and  N_22 
REMARK    5  A    between atoms: C_30  and  N_17 
REMARK    6  A    between atoms: N_22  and  C_31 
REMARK    7  A    between atoms: C_31  and  C_30 
ROOT
ATOM      1  N   UNL d   1       0.474   0.388   0.635  0.00  0.00    -0.327 N 
ATOM      2  HN  UNL d   1       1.380   0.676   1.004  1.00  0.00     0.169 HD
ATOM      3  C   UNL d   1      -0.007  -0.840   0.881  0.00  0.00     0.117 A 
ATOM      4  C   UNL d   1      -0.265   1.231  -0.110  0.00  0.00     0.126 A 
ATOM      5  N   UNL d   1      -1.156  -1.313   0.372  0.00  0.00    -0.344 N 
ATOM      6  HN  UNL d   1      -1.473  -2.261   0.571  1.00  0.00     0.167 HD
ATOM      7  C   UNL d   1      -1.484   0.827  -0.660  0.00  0.00     0.100 A 
ATOM      8  C   UNL d   1      -1.878  -0.480  -0.415  0.00  0.00     0.032 A 
ATOM      9 CL   UNL d   1      -2.419   1.911  -1.631  0.00  0.00    -0.078 Cl
ATOM     10  C   UNL d   1      -3.123  -1.103  -0.972  0.00  0.00     0.070 C 
ENDROOT
BRANCH   4  11
ATOM     11  N   UNL d   1       0.213   2.525  -0.321  0.00  0.00    -0.374 N 
ATOM     12  H   UNL d   1      -0.446   3.235  -0.009  0.00  0.00     0.161 HD
BRANCH  11  13
ATOM     13  C   UNL d   1       1.630   2.859  -0.161  0.00  0.00     0.136 C 
BRANCH  13  14
ATOM     14  C   UNL d   1       2.246   2.634   1.231  0.00  0.00     0.113 C 
BRANCH  14  15
ATOM     15  N   UNL d   1       3.659   3.039   1.248  0.00  0.00    -0.277 NA
ATOM     16  H   UNL d   1       3.801   4.003   0.959  0.00  0.00     0.129 HD
BRANCH  15  17
ATOM     17  C   UNL d   1       4.357   2.753   2.425  0.00  0.00     0.095 A 
ATOM     18  C   UNL d   1       5.722   3.017   2.535  0.00  0.00     0.086 A 
ATOM     19  C   UNL d   1       6.374   2.688   3.740  0.00  0.00     0.021 A 
ATOM     20  C   UNL d   1       5.671   2.107   4.784  0.00  0.00     0.018 A 
ATOM     21  C   UNL d   1       4.331   1.862   4.585  0.00  0.00     0.089 A 
ATOM     22  N   UNL d   1       3.681   2.163   3.441  0.00  0.00    -0.356 N 
ATOM     23  HN  UNL d   1       2.688   1.949   3.342  1.00  0.00     0.166 HD
BRANCH  18  24
ATOM     24  C   UNL d   1       6.539   3.623   1.433  0.00  0.00     0.420 C 
ATOM     25  F   UNL d   1       5.861   3.985   0.309  0.00  0.00    -0.166 F 
ATOM     26  F   UNL d   1       7.165   4.767   1.846  0.00  0.00    -0.166 F 
ATOM     27  F   UNL d   1       7.543   2.799   1.015  0.00  0.00    -0.166 F 
ENDBRANCH  18  24
ENDBRANCH  15  17
ENDBRANCH  14  15
ENDBRANCH  13  14
ENDBRANCH  11  13
ENDBRANCH   4  11
BRANCH   3  28
ATOM     28  C   UNL d   1       0.738  -1.718   1.806  0.00  0.00     0.011 A 
ATOM     29  C   UNL d   1       1.907  -1.298   2.460  0.00  0.00     0.032 A 
ATOM     30  C   UNL d   1       2.553  -2.157   3.337  0.00  0.00     0.088 A 
ATOM     31  N   UNL d   1       2.124  -3.401   3.618  0.00  0.00    -0.375 N 
ATOM     32  C   UNL d   1       1.002  -3.804   2.990  0.00  0.00     0.088 A 
ATOM     33  HN  UNL d   1       2.622  -4.007   4.271  1.00  0.00     0.164 HD
ATOM     34  C   UNL d   1       0.291  -3.014   2.098  0.00  0.00     0.032 A 
ENDBRANCH   3  28
TORSDOF 7
