REMARK  4 active torsions:
REMARK  status: ('A' for Active; 'I' for Inactive)
REMARK    1  A    between atoms: C_8  and  S_1 
REMARK    2  A    between atoms: C_9  and  S_1 
REMARK    3  A    between atoms: C_3  and  C_12 
REMARK    4  A    between atoms: C_17  and  C_9 
ROOT
ATOM      1  C   UNL d   1       1.725  -3.428   3.952  0.00  0.00    -0.008 A 
ATOM      2  C   UNL d   1       2.449  -2.228   3.977  0.00  0.00     0.014 A 
ATOM      3  C   UNL d   1       0.553  -3.488   3.188  0.00  0.00     0.014 A 
ATOM      4  C   UNL d   1       0.849  -1.186   2.467  0.00  0.00    -0.044 A 
ATOM      5  C   UNL d   1       2.017  -1.121   3.238  0.00  0.00     0.009 A 
ATOM      6  C   UNL d   1       0.109  -2.376   2.467  0.00  0.00     0.009 A 
ENDROOT
BRANCH   4   7
ATOM      7  C   UNL d   1       0.413  -0.007   1.637  0.00  0.00     0.184 C 
BRANCH   7   8
ATOM      8  S   UNL d   1       1.178  -0.022   0.024  0.00  0.00     0.179 S 
ATOM      9  O   UNL d   1       0.613   1.083  -0.733  0.00  0.00    -0.222 OA
ATOM     10  O   UNL d   1       2.619  -0.128   0.167  0.00  0.00    -0.222 OA
BRANCH   8  11
ATOM     11  C   UNL d   1       0.605  -1.515  -0.766  0.00  0.00     0.059 A 
ATOM     12  C   UNL d   1      -0.559  -1.483  -1.543  0.00  0.00     0.025 A 
ATOM     13  C   UNL d   1      -0.993  -2.648  -2.183  0.00  0.00     0.025 A 
ATOM     14  C   UNL d   1      -0.260  -3.828  -2.048  0.00  0.00     0.034 A 
ATOM     15  C   UNL d   1       0.907  -3.855  -1.284  0.00  0.00     0.025 A 
ATOM     16 CL   UNL d   1      -0.797  -5.258  -2.839  0.00  0.00    -0.084 Cl
ATOM     17  C   UNL d   1       1.352  -2.693  -0.651  0.00  0.00     0.025 A 
ENDBRANCH   8  11
ENDBRANCH   7   8
ENDBRANCH   4   7
BRANCH   1  18
ATOM     18  C   UNL d   1       2.174  -4.611   4.674  0.00  0.00     0.063 A 
ATOM     19  N   UNL d   1       1.880  -5.889   4.208  0.00  0.00    -0.292 N 
ATOM     20  N   UNL d   1       2.375  -6.830   4.995  0.00  0.00    -0.061 NA
ATOM     21  HN  UNL d   1       1.345  -6.078   3.360  1.00  0.00     0.183 HD
ATOM     22  S   UNL d   1       3.187  -6.208   6.317  0.00  0.00    -0.010 SA
ATOM     23  C   UNL d   1       2.893  -4.582   5.857  0.00  0.00     0.096 A 
ENDBRANCH   1  18
TORSDOF 4
