REMARK  0 active torsions:
REMARK  status: ('A' for Active; 'I' for Inactive)
ROOT
ATOM      1  N   UNL d   1       2.402  -0.636   0.015  0.00  0.00    -0.323 N 
ATOM      2  C   UNL d   1       1.286  -1.453   0.026  0.00  0.00     0.115 A 
ATOM      3  C   UNL d   1      -0.029  -0.757   0.015  0.00  0.00     0.030 A 
ATOM      4  C   UNL d   1       2.402   0.729  -0.000  0.00  0.00     0.177 A 
ATOM      5  N   UNL d   1       1.190   1.348  -0.004  0.00  0.00    -0.332 N 
ATOM      6  C   UNL d   1      -0.021   0.646  -0.001  0.00  0.00     0.047 A 
ATOM      7  S   UNL d   1       1.530  -3.110   0.049  0.00  0.00    -0.059 SA
ATOM      8  S   UNL d   1       3.817   1.599  -0.015  0.00  0.00    -0.040 SA
ATOM      9  C   UNL d   1      -1.254  -1.437   0.014  0.00  0.00     0.040 A 
ATOM     10  C   UNL d   1      -1.218   1.365  -0.020  0.00  0.00     0.032 A 
ATOM     11  C   UNL d   1      -2.446  -0.713  -0.008  0.00  0.00     0.035 A 
ATOM     12  C   UNL d   1      -2.434   0.681  -0.025  0.00  0.00     0.026 A 
ATOM     13 CL   UNL d   1      -3.951  -1.548  -0.019  0.00  0.00    -0.084 Cl
ATOM     14  H   UNL d   1       3.306  -1.094   0.017  0.00  0.00     0.169 HD
ATOM     15  H   UNL d   1       1.190   2.362  -0.015  0.00  0.00     0.168 HD
ENDROOT
TORSDOF 0
