REMARK  2 active torsions:
REMARK  status: ('A' for Active; 'I' for Inactive)
REMARK    1  A    between atoms: C_8  and  N_1 
REMARK    2  A    between atoms: C_5  and  C_2 
ROOT
ATOM      1  N   UNL d   1       0.938  -1.077  -0.060  0.00  0.00    -0.274 N 
ATOM      2  C   UNL d   1       0.954   0.271  -0.266  0.00  0.00     0.112 C 
ATOM      3  N   UNL d   1      -0.248   0.802  -0.332  0.00  0.00    -0.286 N 
ATOM      4  HN  UNL d   1      -0.479   1.794  -0.379  1.00  0.00     0.188 HD
ATOM      5  C   UNL d   1      -0.382  -1.390  -0.444  0.00  0.00     0.199 C 
ATOM      6  N   UNL d   1      -1.106  -0.224  -0.325  0.00  0.00    -0.274 N 
ATOM      7  S   UNL d   1      -1.091  -2.711  -1.181  0.00  0.00    -0.039 SA
ATOM      8  H   UNL d   1      -2.051  -0.107  -0.679  0.00  0.00     0.189 HD
ENDROOT
BRANCH   1   9
ATOM      9  C   UNL d   1       1.915  -2.089   0.267  0.00  0.00     0.055 C 
ATOM     10  C   UNL d   1       3.311  -1.983   0.153  0.00  0.00    -0.034 C 
ATOM     11  C   UNL d   1       4.068  -3.135  -0.174  0.00  0.00     0.009 C 
ATOM     12  C   UNL d   1       4.132  -0.922   0.844  0.00  0.00     0.050 C 
ATOM     13  C   UNL d   1       3.507  -4.401  -0.109  0.00  0.00     0.001 C 
ATOM     14  C   UNL d   1       2.242  -4.521   0.434  0.00  0.00     0.009 C 
ATOM     15  C   UNL d   1       1.481  -3.369   0.701  0.00  0.00    -0.034 C 
ATOM     16  C   UNL d   1       0.312  -3.557   1.649  0.00  0.00     0.050 C 
ENDBRANCH   1   9
BRANCH   2  17
ATOM     17  C   UNL d   1       2.108   1.247  -0.493  0.00  0.00     0.087 C 
ATOM     18  C   UNL d   1       3.113   0.890  -1.605  0.00  0.00     0.133 C 
ATOM     19  O   UNL d   1       3.566   2.196  -2.063  0.00  0.00    -0.380 OA
ATOM     20  C   UNL d   1       2.454   0.388  -2.879  0.00  0.00     0.035 C 
ATOM     21  C   UNL d   1       2.267   2.715  -2.404  0.00  0.00     0.122 C 
ATOM     22  C   UNL d   1       1.606   2.632  -1.035  0.00  0.00     0.046 C 
ATOM     23  C   UNL d   1       1.736   1.644  -3.364  0.00  0.00     0.034 C 
ENDBRANCH   2  17
TORSDOF 2
