REMARK  5 active torsions:
REMARK  status: ('A' for Active; 'I' for Inactive)
REMARK    1  A    between atoms: C_8  and  C_3 
REMARK    2  A    between atoms: C_9  and  C_4 
REMARK    3  A    between atoms: C_10  and  C_8 
REMARK    4  A    between atoms: C_18  and  C_15 
REMARK    5  A    between atoms: C_23  and  C_18 
ROOT
ATOM      1  N   UNL d   1      -0.690  -0.556   0.138  0.00  0.00    -0.322 N 
ATOM      2  HN  UNL d   1      -1.367  -0.991   0.764  1.00  0.00     0.169 HD
ATOM      3  C   UNL d   1       0.481  -1.012  -0.250  0.00  0.00     0.156 A 
ATOM      4  C   UNL d   1      -0.773   0.658  -0.512  0.00  0.00     0.137 A 
ATOM      5  N   UNL d   1       0.316   0.956  -1.242  0.00  0.00    -0.242 N 
ATOM      6  HN  UNL d   1       0.493   1.796  -1.793  1.00  0.00     0.196 HD
ATOM      7  O   UNL d   1       1.147  -0.148  -1.070  0.00  0.00    -0.222 OA
ENDROOT
BRANCH   3   8
ATOM      8  C   UNL d   1       1.099  -2.358  -0.047  0.00  0.00     0.092 C 
ATOM      9  C   UNL d   1       0.015  -3.443  -0.045  0.00  0.00     0.023 C 
BRANCH   8  10
ATOM     10  C   UNL d   1       1.968  -2.460   1.198  0.00  0.00    -0.046 A 
ATOM     11  C   UNL d   1       1.450  -2.219   2.479  0.00  0.00     0.008 A 
ATOM     12  C   UNL d   1       2.240  -2.411   3.618  0.00  0.00     0.007 A 
ATOM     13  C   UNL d   1       3.566  -2.844   3.507  0.00  0.00    -0.058 A 
ATOM     14  C   UNL d   1       4.094  -3.067   2.230  0.00  0.00     0.007 A 
ATOM     15  C   UNL d   1       3.306  -2.872   1.089  0.00  0.00     0.008 A 
BRANCH  13  16
ATOM     16  C   UNL d   1       4.378  -3.129   4.752  0.00  0.00     0.042 C 
BRANCH  16  17
ATOM     17  C   UNL d   1       5.704  -2.352   4.878  0.00  0.00    -0.019 C 
ATOM     18  C   UNL d   1       5.482  -0.841   4.958  0.00  0.00     0.010 C 
ATOM     19  C   UNL d   1       6.459  -2.825   6.125  0.00  0.00     0.010 C 
ENDBRANCH  16  17
ENDBRANCH  13  16
ENDBRANCH   8  10
ENDBRANCH   3   8
BRANCH   4  20
ATOM     20  C   UNL d   1      -1.972   1.490  -0.452  0.00  0.00     0.010 A 
ATOM     21  C   UNL d   1      -3.054   1.109   0.356  0.00  0.00     0.016 A 
ATOM     22  C   UNL d   1      -4.223   1.876   0.392  0.00  0.00     0.007 A 
ATOM     23  C   UNL d   1      -4.336   3.034  -0.383  0.00  0.00    -0.062 A 
ATOM     24  C   UNL d   1      -3.256   3.423  -1.183  0.00  0.00     0.007 A 
ATOM     25  C   UNL d   1      -5.599   3.844  -0.342  0.00  0.00     0.048 C 
ATOM     26  C   UNL d   1      -2.087   2.657  -1.218  0.00  0.00     0.016 A 
ENDBRANCH   4  20
TORSDOF 5
