REMARK  1 active torsions:
REMARK  status: ('A' for Active; 'I' for Inactive)
REMARK    1  A    between atoms: C_8  and  C_5 
ROOT
ATOM      1  N   UNL d   1      -0.798  -1.032  -0.195  0.00  0.00    -0.266 N 
ATOM      2  C   UNL d   1       0.546  -1.059  -0.135  0.00  0.00     0.370 C 
ATOM      3  C   UNL d   1      -1.238   0.245  -0.084  0.00  0.00     0.262 C 
ATOM      4  O   UNL d   1       1.040   0.207  -0.029  0.00  0.00    -0.284 OA
ATOM      5  C   UNL d   1      -0.033   1.134  -0.270  0.00  0.00     0.259 C 
ATOM      6  O   UNL d   1       1.260  -2.050  -0.146  0.00  0.00    -0.238 OA
ATOM      7  O   UNL d   1      -2.391   0.609   0.084  0.00  0.00    -0.270 OA
ATOM      8  C   UNL d   1      -1.660  -2.173  -0.348  0.00  0.00     0.165 C 
ENDROOT
BRANCH   5   9
ATOM      9  C   UNL d   1       0.025   1.700  -1.678  0.00  0.00    -0.020 A 
ATOM     10  C   UNL d   1      -1.048   2.464  -2.166  0.00  0.00     0.010 A 
ATOM     11  C   UNL d   1      -1.055   2.928  -3.482  0.00  0.00     0.001 A 
ATOM     12  C   UNL d   1       0.016   2.647  -4.326  0.00  0.00     0.000 A 
ATOM     13  C   UNL d   1       1.097   1.906  -3.853  0.00  0.00     0.001 A 
ATOM     14  C   UNL d   1       1.105   1.440  -2.538  0.00  0.00     0.010 A 
ENDBRANCH   5   9
TORSDOF 1
