REMARK  4 active torsions:
REMARK  status: ('A' for Active; 'I' for Inactive)
REMARK    1  A    between atoms: C_2  and  C_1 
REMARK       I    between atoms: N_3  and  C_1 
REMARK    2  A    between atoms: C_6  and  N_3 
REMARK    3  A    between atoms: C_4  and  C_5 
REMARK    4  A    between atoms: N_16  and  C_7 
ROOT
ATOM      1  C   UNL d   1       0.233  -0.633   1.043  0.00  0.00     0.085 A 
ATOM      2  C   UNL d   1      -1.057  -1.186   1.063  0.00  0.00     0.068 A 
ATOM      3  C   UNL d   1       1.008  -0.660   2.229  0.00  0.00     0.096 A 
ATOM      4  N   UNL d   1       0.549  -1.253   3.359  0.00  0.00    -0.356 N 
ATOM      5  HN  UNL d   1       1.118  -1.261   4.205  1.00  0.00     0.166 HD
ATOM      6  C   UNL d   1      -0.662  -1.827   3.351  0.00  0.00     0.090 A 
ATOM      7  C   UNL d   1      -1.495  -1.795   2.257  0.00  0.00     0.034 A 
ENDROOT
BRANCH   1   8
ATOM      8  C   UNL d   1       0.922  -0.191  -0.205  0.00  0.00     0.260 C 
ATOM      9  N   UNL d   1       0.256   0.722  -1.010  0.00  0.00    -0.322 N 
ATOM     10  H   UNL d   1      -0.480   1.260  -0.583  0.00  0.00     0.169 HD
ATOM     11  O   UNL d   1       2.051  -0.627  -0.414  0.00  0.00    -0.267 OA
BRANCH   9  12
ATOM     12  C   UNL d   1       0.703   1.136  -2.292  0.00  0.00     0.046 C 
ATOM     13  C   UNL d   1       1.257   0.234  -3.232  0.00  0.00    -0.035 C 
ATOM     14  C   UNL d   1       1.823   0.728  -4.422  0.00  0.00     0.009 C 
ATOM     15  C   UNL d   1       1.182  -1.269  -3.117  0.00  0.00     0.050 C 
ATOM     16  C   UNL d   1       1.774   2.081  -4.728  0.00  0.00     0.001 C 
ATOM     17  C   UNL d   1       1.115   2.949  -3.866  0.00  0.00     0.009 C 
ATOM     18  C   UNL d   1       0.554   2.493  -2.656  0.00  0.00    -0.035 C 
ATOM     19  C   UNL d   1      -0.142   3.533  -1.818  0.00  0.00     0.050 C 
ENDBRANCH   9  12
ENDBRANCH   1   8
BRANCH   2  20
ATOM     20  C   UNL d   1      -2.063  -1.214  -0.055  0.00  0.00     0.418 C 
ATOM     21  F   UNL d   1      -1.702  -0.673  -1.239  0.00  0.00    -0.166 F 
ATOM     22  F   UNL d   1      -2.468  -2.483  -0.343  0.00  0.00    -0.166 F 
ATOM     23  F   UNL d   1      -3.201  -0.546   0.303  0.00  0.00    -0.166 F 
ENDBRANCH   2  20
BRANCH   3  24
ATOM     24  N   UNL d   1       2.212   0.059   2.321  0.00  0.00    -0.282 NA
ATOM     25  C   UNL d   1       3.012  -0.120   3.526  0.00  0.00     0.114 C 
ATOM     26  H   UNL d   1       2.761  -0.098   1.471  0.00  0.00     0.128 HD
ENDBRANCH   3  24
TORSDOF 4
