REMARK  8 active torsions:
REMARK  status: ('A' for Active; 'I' for Inactive)
REMARK    1  A    between atoms: C_14  and  N_5 
REMARK    2  A    between atoms: C_26  and  N_11 
REMARK    3  A    between atoms: C_21  and  C_12 
REMARK    4  A    between atoms: C_15  and  C_14 
REMARK       I    between atoms: N_17  and  C_15 
REMARK    5  A    between atoms: C_25  and  N_17 
REMARK    6  A    between atoms: C_19  and  C_20 
REMARK    7  A    between atoms: C_34  and  C_26 
REMARK    8  A    between atoms: C_35  and  C_34 
ROOT
ATOM      1  N   UNL d   1       1.184  -0.014  -0.412  0.00  0.00    -0.203 N 
ATOM      2  C   UNL d   1       1.241   1.375  -0.551  0.00  0.00     0.136 A 
ATOM      3  C   UNL d   1      -1.199   0.035  -0.328  0.00  0.00     0.062 A 
ATOM      4  C   UNL d   1      -1.125   1.353  -0.566  0.00  0.00     0.118 A 
ATOM      5  N   UNL d   1       0.066   2.106  -0.719  0.00  0.00    -0.318 N 
ATOM      6  C   UNL d   1       0.009  -0.779  -0.301  0.00  0.00     0.278 A 
ATOM      7  N   UNL d   1       2.406  -0.582  -0.306  0.00  0.00    -0.289 N 
ATOM      8  HN  UNL d   1       2.625  -1.578  -0.279  1.00  0.00     0.188 HD
ATOM      9  C   UNL d   1       2.574   1.686  -0.402  0.00  0.00     0.082 A 
ATOM     10  C   UNL d   1      -2.564   1.790  -0.564  0.00  0.00     0.271 A 
ATOM     11  N   UNL d   1      -3.340   0.671  -0.263  0.00  0.00    -0.342 N 
ATOM     12  C   UNL d   1       3.267   0.442  -0.244  0.00  0.00     0.062 A 
ATOM     13  C   UNL d   1      -2.537  -0.496  -0.018  0.00  0.00     0.173 A 
ATOM     14  O   UNL d   1       0.013  -1.994  -0.165  0.00  0.00    -0.265 OA
ATOM     15  O   UNL d   1      -2.963   2.911  -0.817  0.00  0.00    -0.266 OA
ENDROOT
BRANCH   5  16
ATOM     16  C   UNL d   1       0.067   3.536  -0.254  0.00  0.00     0.234 C 
BRANCH  16  17
ATOM     17  C   UNL d   1       1.009   4.575  -0.910  0.00  0.00     0.240 C 
ATOM     18  N   UNL d   1       1.326   4.412  -2.244  0.00  0.00    -0.326 N 
ATOM     19  H   UNL d   1       1.043   3.533  -2.661  0.00  0.00     0.169 HD
ATOM     20  O   UNL d   1       1.375   5.538  -0.231  0.00  0.00    -0.271 OA
BRANCH  18  21
ATOM     21  C   UNL d   1       2.010   5.336  -3.095  0.00  0.00     0.034 A 
ATOM     22  C   UNL d   1       2.404   6.635  -2.751  0.00  0.00     0.030 A 
ATOM     23  C   UNL d   1       3.026   7.500  -3.695  0.00  0.00     0.010 A 
ATOM     24  C   UNL d   1       3.275   7.093  -5.022  0.00  0.00    -0.051 A 
ATOM     25  C   UNL d   1       2.901   5.774  -5.337  0.00  0.00     0.010 A 
ATOM     26  C   UNL d   1       2.278   4.923  -4.400  0.00  0.00     0.030 A 
BRANCH  24  27
ATOM     27  C   UNL d   1       3.903   8.047  -6.070  0.00  0.00    -0.024 C 
ATOM     28  C   UNL d   1       4.027   7.416  -7.481  0.00  0.00     0.019 C 
ATOM     29  C   UNL d   1       3.043   9.323  -6.240  0.00  0.00     0.019 C 
ATOM     30  C   UNL d   1       5.325   8.481  -5.654  0.00  0.00     0.019 C 
ENDBRANCH  24  27
ENDBRANCH  18  21
ENDBRANCH  16  17
ENDBRANCH   5  16
BRANCH  12  31
ATOM     31  C   UNL d   1       4.704   0.213  -0.027  0.00  0.00    -0.008 A 
ATOM     32  C   UNL d   1       5.235  -1.089  -0.040  0.00  0.00     0.014 A 
ATOM     33  C   UNL d   1       6.597  -1.314   0.175  0.00  0.00     0.001 A 
ATOM     34  C   UNL d   1       7.450  -0.238   0.402  0.00  0.00     0.000 A 
ATOM     35  C   UNL d   1       6.942   1.059   0.423  0.00  0.00     0.001 A 
ATOM     36  C   UNL d   1       5.579   1.283   0.210  0.00  0.00     0.014 A 
ENDBRANCH  12  31
BRANCH  11  37
ATOM     37  C   UNL d   1      -4.795   0.639  -0.128  0.00  0.00     0.126 C 
BRANCH  37  38
ATOM     38  C   UNL d   1      -5.261   0.909   1.306  0.00  0.00     0.020 C 
BRANCH  38  39
ATOM     39  C   UNL d   1      -6.764   0.665   1.496  0.00  0.00    -0.003 C 
ATOM     40  C   UNL d   1      -7.195   0.953   2.929  0.00  0.00     0.005 C 
ENDBRANCH  38  39
ENDBRANCH  37  38
ENDBRANCH  11  37
TORSDOF 8
