REMARK  7 active torsions:
REMARK  status: ('A' for Active; 'I' for Inactive)
REMARK    1  A    between atoms: N_3  and  C_1 
REMARK    2  A    between atoms: C_2  and  N_3 
REMARK    3  A    between atoms: S_8  and  C_2 
REMARK    4  A    between atoms: C_7  and  C_13 
REMARK    5  A    between atoms: O_14  and  C_7 
REMARK    6  A    between atoms: C_13  and  S_8 
REMARK    7  A    between atoms: C_18  and  O_14 
ROOT
ATOM      1  N   UNL d   1       2.732  -0.469  -0.218  0.00  0.00    -0.341 N 
ATOM      2  H   UNL d   1       2.885  -1.365  -0.664  0.00  0.00     0.167 HD
ENDROOT
BRANCH   1   3
ATOM      3  C   UNL d   1       3.934   0.067   0.161  0.00  0.00     0.139 C 
ATOM      4  S   UNL d   1       4.310   1.204   1.317  0.00  0.00    -0.053 SA
BRANCH   3   5
ATOM      5  S   UNL d   1       5.178  -0.772  -0.783  0.00  0.00    -0.091 SA
BRANCH   5   6
ATOM      6  C   UNL d   1       6.129  -1.593   0.530  0.00  0.00     0.192 C 
BRANCH   6   7
ATOM      7  C   UNL d   1       5.277  -2.485   1.410  0.00  0.00     0.268 C 
ATOM      8  O   UNL d   1       4.119  -2.811   1.206  0.00  0.00    -0.264 OA
BRANCH   7   9
ATOM      9  O   UNL d   1       6.020  -2.863   2.494  0.00  0.00    -0.321 OA
BRANCH   9  10
ATOM     10  C   UNL d   1       5.291  -3.478   3.567  0.00  0.00     0.174 C 
ATOM     11  C   UNL d   1       4.914  -2.391   4.557  0.00  0.00     0.034 C 
ENDBRANCH   9  10
ENDBRANCH   7   9
ENDBRANCH   6   7
ENDBRANCH   5   6
ENDBRANCH   3   5
ENDBRANCH   1   3
BRANCH   1  12
ATOM     12  C   UNL d   1       1.369  -0.141  -0.013  0.00  0.00     0.045 A 
ATOM     13  C   UNL d   1       0.849   1.172  -0.003  0.00  0.00    -0.034 A 
ATOM     14  C   UNL d   1      -0.550   1.366   0.092  0.00  0.00     0.015 A 
ATOM     15  C   UNL d   1       1.647   2.434  -0.179  0.00  0.00     0.050 C 
ATOM     16  C   UNL d   1      -1.446   0.300   0.109  0.00  0.00    -0.061 A 
ATOM     17  C   UNL d   1      -0.935  -0.991   0.081  0.00  0.00     0.015 A 
ATOM     18  C   UNL d   1      -2.924   0.550   0.112  0.00  0.00     0.048 C 
ATOM     19  C   UNL d   1       0.455  -1.230   0.021  0.00  0.00    -0.034 A 
ATOM     20  C   UNL d   1       0.842  -2.690   0.040  0.00  0.00     0.050 C 
ENDBRANCH   1  12
TORSDOF 7
