REMARK  1 active torsions:
REMARK  status: ('A' for Active; 'I' for Inactive)
REMARK    1  A    between atoms: C_7  and  C_3 
ROOT
ATOM      1  N   UNL d   1       0.912   0.481  -0.034  0.00  0.00    -0.322 N 
ATOM      2  C   UNL d   1       1.718  -0.634  -0.105  0.00  0.00     0.044 A 
ATOM      3  C   UNL d   1       1.087  -1.978  -0.318  0.00  0.00     0.172 C 
ATOM      4  N   UNL d   1      -0.340  -2.033   0.001  0.00  0.00    -0.373 N 
ATOM      5  C   UNL d   1      -0.500   0.416  -0.042  0.00  0.00     0.065 A 
ATOM      6  C   UNL d   1      -1.083  -0.858   0.049  0.00  0.00     0.056 A 
ATOM      7  C   UNL d   1       1.721   1.592   0.068  0.00  0.00     0.097 A 
ATOM      8  C   UNL d   1       3.037  -0.225  -0.034  0.00  0.00     0.029 A 
ATOM      9  C   UNL d   1       3.037   1.181   0.086  0.00  0.00     0.020 A 
ATOM     10  C   UNL d   1      -1.289   1.573  -0.088  0.00  0.00     0.032 A 
ATOM     11  C   UNL d   1      -2.479  -0.944   0.106  0.00  0.00     0.031 A 
ATOM     12  C   UNL d   1      -2.679   1.460  -0.050  0.00  0.00     0.002 A 
ATOM     13  C   UNL d   1      -3.273   0.204   0.054  0.00  0.00     0.002 A 
ATOM     14  H   UNL d   1      -0.614  -2.752   0.659  0.00  0.00     0.161 HD
ENDROOT
BRANCH   3  15
ATOM     15  C   UNL d   1       1.864  -3.088   0.365  0.00  0.00     0.011 A 
ATOM     16  S   UNL d   1       2.514  -4.379  -0.565  0.00  0.00    -0.104 SA
ATOM     17  C   UNL d   1       3.180  -5.130   0.817  0.00  0.00     0.050 A 
ATOM     18  C   UNL d   1       2.914  -4.424   1.969  0.00  0.00     0.008 A 
ATOM     19  C   UNL d   1       2.148  -3.251   1.710  0.00  0.00     0.017 A 
ENDBRANCH   3  15
TORSDOF 1
