REMARK  5 active torsions:
REMARK  status: ('A' for Active; 'I' for Inactive)
REMARK    1  A    between atoms: C_2  and  C_1 
REMARK    2  A    between atoms: C_4  and  C_3 
REMARK    3  A    between atoms: O_14  and  C_4 
REMARK    4  A    between atoms: N_6  and  O_14 
REMARK    5  A    between atoms: C_17  and  C_16 
ROOT
ATOM      1  C   UNL d   1      -0.333  -1.864  -1.925  0.00  0.00     0.316 C 
ATOM      2  O   UNL d   1      -1.293  -2.422  -2.430  0.00  0.00    -0.257 OA
ENDROOT
BRANCH   1   3
ATOM      3  C   UNL d   1      -0.063  -0.418  -2.108  0.00  0.00     0.056 A 
ATOM      4  C   UNL d   1      -0.172   0.215  -3.358  0.00  0.00     0.064 A 
ATOM      5  C   UNL d   1      -0.009   1.618  -3.412  0.00  0.00     0.017 A 
ATOM      6  C   UNL d   1       0.280   2.360  -2.267  0.00  0.00     0.001 A 
ATOM      7  C   UNL d   1       0.408   1.720  -1.041  0.00  0.00     0.001 A 
ATOM      8  C   UNL d   1       0.229   0.341  -0.957  0.00  0.00     0.018 A 
BRANCH   4   9
ATOM      9  C   UNL d   1      -0.445  -0.499  -4.661  0.00  0.00     0.418 C 
ATOM     10  F   UNL d   1      -0.257  -1.840  -4.660  0.00  0.00    -0.166 F 
ATOM     11  F   UNL d   1       0.384  -0.039  -5.650  0.00  0.00    -0.166 F 
ATOM     12  F   UNL d   1      -1.705  -0.271  -5.123  0.00  0.00    -0.166 F 
ENDBRANCH   4   9
ENDBRANCH   1   3
BRANCH   1  13
ATOM     13  O   UNL d   1       0.625  -2.375  -1.091  0.00  0.00    -0.195 OA
BRANCH  13  14
ATOM     14  N   UNL d   1       0.410  -3.752  -0.889  0.00  0.00    -0.268 N 
ATOM     15  C   UNL d   1       1.165  -4.166   0.080  0.00  0.00     0.126 C 
ATOM     16  HN  UNL d   1      -0.238  -4.332  -1.422  1.00  0.00     0.194 HD
BRANCH  15  17
ATOM     17  C   UNL d   1       1.184  -5.585   0.487  0.00  0.00    -0.017 A 
ATOM     18  C   UNL d   1       2.011  -5.978   1.547  0.00  0.00     0.040 A 
ATOM     19  C   UNL d   1       2.061  -7.325   1.916  0.00  0.00     0.073 A 
ATOM     20 CL   UNL d   1       3.083  -7.807   3.215  0.00  0.00    -0.081 Cl
ATOM     21  C   UNL d   1       1.293  -8.268   1.231  0.00  0.00     0.138 A 
ATOM     22  C   UNL d   1       0.465  -7.878   0.182  0.00  0.00     0.045 A 
ATOM     23  F   UNL d   1       1.339  -9.564   1.569  0.00  0.00    -0.204 F 
ATOM     24  C   UNL d   1       0.410  -6.534  -0.191  0.00  0.00     0.016 A 
ENDBRANCH  15  17
ENDBRANCH  13  14
ENDBRANCH   1  13
TORSDOF 5
