REMARK  5 active torsions:
REMARK  status: ('A' for Active; 'I' for Inactive)
REMARK    1  A    between atoms: O_4  and  S_1 
REMARK    2  A    between atoms: C_5  and  S_1 
REMARK    3  A    between atoms: N_2  and  C_3 
REMARK    4  A    between atoms: C_12  and  O_4 
REMARK       I    between atoms: C_10  and  N_13 
REMARK    5  A    between atoms: N_13  and  C_19 
ROOT
ATOM      1  S   UNL d   1       1.103   0.013   0.007  0.00  0.00     0.303 S 
ATOM      2  O   UNL d   1       0.436  -0.627   1.125  0.00  0.00    -0.193 OA
ATOM      3  O   UNL d   1       2.549  -0.043  -0.120  0.00  0.00    -0.193 OA
ENDROOT
BRANCH   1   4
ATOM      4  O   UNL d   1       0.605   1.572  -0.078  0.00  0.00    -0.229 OA
BRANCH   4   5
ATOM      5  C   UNL d   1       0.951   2.481   0.896  0.00  0.00     0.092 A 
ATOM      6  C   UNL d   1       0.040   3.505   1.167  0.00  0.00     0.074 A 
ATOM      7  C   UNL d   1       0.333   4.496   2.135  0.00  0.00     0.111 A 
ATOM      8  C   UNL d   1       1.561   4.468   2.834  0.00  0.00    -0.029 A 
ATOM      9  C   UNL d   1       2.465   3.438   2.526  0.00  0.00     0.012 A 
ATOM     10  C   UNL d   1       1.987   5.460   3.882  0.00  0.00     0.050 C 
ATOM     11  C   UNL d   1       2.169   2.465   1.571  0.00  0.00     0.039 A 
BRANCH   7  12
ATOM     12  N   UNL d   1      -0.688   5.542   2.366  0.00  0.00    -0.115 N 
ATOM     13  O   UNL d   1      -1.726   5.487   1.691  0.00  0.00    -0.532 OA
ATOM     14  O   UNL d   1      -0.466   6.421   3.209  0.00  0.00    -0.532 OA
ENDBRANCH   7  12
ENDBRANCH   4   5
ENDBRANCH   1   4
BRANCH   1  15
ATOM     15  C   UNL d   1       0.465  -0.731  -1.484  0.00  0.00     0.086 A 
ATOM     16  C   UNL d   1       1.259  -0.755  -2.635  0.00  0.00     0.028 A 
ATOM     17  C   UNL d   1       0.796  -1.408  -3.783  0.00  0.00     0.031 A 
ATOM     18  C   UNL d   1      -0.454  -2.042  -3.791  0.00  0.00     0.034 A 
ATOM     19  C   UNL d   1      -1.221  -2.032  -2.621  0.00  0.00     0.031 A 
ATOM     20  C   UNL d   1      -0.766  -1.384  -1.467  0.00  0.00     0.028 A 
BRANCH  18  21
ATOM     21  N   UNL d   1      -0.866  -2.654  -4.996  0.00  0.00    -0.328 N 
ATOM     22  C   UNL d   1      -2.070  -3.285  -5.242  0.00  0.00     0.218 C 
ATOM     23  O   UNL d   1      -2.989  -3.449  -4.443  0.00  0.00    -0.274 OA
ATOM     24  C   UNL d   1      -2.208  -3.791  -6.657  0.00  0.00     0.117 C 
ATOM     25  H   UNL d   1      -0.211  -2.597  -5.767  0.00  0.00     0.169 HD
ENDBRANCH  18  21
ENDBRANCH   1  15
TORSDOF 5
