REMARK  2 active torsions:
REMARK  status: ('A' for Active; 'I' for Inactive)
REMARK    1  A    between atoms: C_4  and  C_1 
REMARK    2  A    between atoms: C_2  and  C_3 
REMARK       I    between atoms: N_11  and  C_4 
ROOT
ATOM      1  C   UNL d   1       0.569  -1.335   0.027  0.00  0.00     0.037 C 
ATOM      2  C   UNL d   1       1.490  -0.134   0.170  0.00  0.00     0.135 C 
ATOM      3  C   UNL d   1      -0.753  -1.160  -0.142  0.00  0.00     0.096 C 
ATOM      4  N   UNL d   1      -1.347   0.080  -0.173  0.00  0.00    -0.398 N 
ATOM      5  C   UNL d   1       0.814   1.169  -0.321  0.00  0.00     0.038 C 
ATOM      6  C   UNL d   1      -0.620   1.285   0.201  0.00  0.00     0.120 C 
ATOM      7  H   UNL d   1      -2.351   0.093   0.001  0.00  0.00     0.158 HD
ENDROOT
BRANCH   1   8
ATOM      8  C   UNL d   1       1.236  -2.665   0.047  0.00  0.00     0.247 C 
ATOM      9  O   UNL d   1       2.448  -2.771  -0.101  0.00  0.00    -0.268 OA
ATOM     10  N   UNL d   1       0.464  -3.751   0.298  0.00  0.00    -0.366 N 
ATOM     11  H   UNL d   1      -0.502  -3.702   0.586  0.00  0.00     0.159 HD
ATOM     12  H   UNL d   1       0.941  -4.639   0.387  0.00  0.00     0.159 HD
ENDBRANCH   1   8
BRANCH   2  13
ATOM     13  C   UNL d   1       2.027   0.008   1.599  0.00  0.00     0.395 C 
ATOM     14  F   UNL d   1       1.667  -1.009   2.413  0.00  0.00    -0.170 F 
ATOM     15  F   UNL d   1       3.380   0.065   1.600  0.00  0.00    -0.170 F 
ATOM     16  F   UNL d   1       1.593   1.148   2.192  0.00  0.00    -0.170 F 
ENDBRANCH   2  13
TORSDOF 2
