REMARK  7 active torsions:
REMARK  status: ('A' for Active; 'I' for Inactive)
REMARK    1  A    between atoms: O_3  and  S_1 
REMARK    2  A    between atoms: C_6  and  S_1 
REMARK    3  A    between atoms: S_2  and  O_7 
REMARK    4  A    between atoms: C_9  and  S_2 
REMARK    5  A    between atoms: C_4  and  O_3 
REMARK    6  A    between atoms: O_7  and  C_17 
REMARK    7  A    between atoms: C_8  and  C_17 
ROOT
ATOM      1  C   UNL d   1       1.109   1.796  -1.705  0.00  0.00     0.147 C 
ATOM      2  C   UNL d   1       0.254   3.086  -1.677  0.00  0.00     0.022 C 
ATOM      3  C   UNL d   1      -0.206   3.329  -0.212  0.00  0.00     0.018 C 
ATOM      4  C   UNL d   1       1.121   4.260  -2.172  0.00  0.00     0.008 C 
ATOM      5  C   UNL d   1       2.401   2.037  -0.892  0.00  0.00     0.038 C 
ATOM      6  C   UNL d   1       1.039   3.454   0.693  0.00  0.00     0.012 C 
ATOM      7  C   UNL d   1       2.328   3.389  -0.151  0.00  0.00    -0.012 C 
ATOM      8  C   UNL d   1       2.274   4.515  -1.196  0.00  0.00     0.005 C 
ENDROOT
BRANCH   3   9
ATOM      9  C   UNL d   1      -1.173   4.513  -0.079  0.00  0.00     0.195 C 
BRANCH   9  10
ATOM     10  O   UNL d   1      -2.300   4.265  -0.909  0.00  0.00    -0.272 OA
BRANCH  10  11
ATOM     11  S   UNL d   1      -3.458   5.404  -0.976  0.00  0.00     0.298 S 
ATOM     12  O   UNL d   1      -4.027   5.534   0.353  0.00  0.00    -0.193 OA
ATOM     13  O   UNL d   1      -2.909   6.550  -1.673  0.00  0.00    -0.193 OA
BRANCH  11  14
ATOM     14  C   UNL d   1      -4.735   4.734  -2.014  0.00  0.00     0.086 A 
ATOM     15  C   UNL d   1      -4.598   3.481  -2.612  0.00  0.00     0.026 A 
ATOM     16  C   UNL d   1      -5.643   2.976  -3.393  0.00  0.00     0.008 A 
ATOM     17  C   UNL d   1      -6.820   3.716  -3.579  0.00  0.00    -0.062 A 
ATOM     18  C   UNL d   1      -6.938   4.977  -2.979  0.00  0.00     0.008 A 
ATOM     19  C   UNL d   1      -7.946   3.141  -4.387  0.00  0.00     0.048 C 
ATOM     20  C   UNL d   1      -5.899   5.488  -2.199  0.00  0.00     0.026 A 
ENDBRANCH  11  14
ENDBRANCH  10  11
ENDBRANCH   9  10
ENDBRANCH   3   9
BRANCH   1  21
ATOM     21  O   UNL d   1       0.413   0.691  -1.124  0.00  0.00    -0.266 OA
BRANCH  21  22
ATOM     22  S   UNL d   1      -0.869   0.063  -1.912  0.00  0.00     0.298 S 
ATOM     23  O   UNL d   1      -0.439  -0.283  -3.250  0.00  0.00    -0.193 OA
ATOM     24  O   UNL d   1      -2.024   0.912  -1.691  0.00  0.00    -0.193 OA
BRANCH  22  25
ATOM     25  C   UNL d   1      -1.209  -1.457  -1.056  0.00  0.00     0.086 A 
ATOM     26  C   UNL d   1      -1.032  -1.533   0.327  0.00  0.00     0.026 A 
ATOM     27  C   UNL d   1      -1.193  -2.763   0.968  0.00  0.00     0.008 A 
ATOM     28  C   UNL d   1      -1.520  -3.912   0.231  0.00  0.00    -0.062 A 
ATOM     29  C   UNL d   1      -1.747  -3.804  -1.148  0.00  0.00     0.008 A 
ATOM     30  C   UNL d   1      -1.593  -5.246   0.913  0.00  0.00     0.048 C 
ATOM     31  C   UNL d   1      -1.591  -2.579  -1.794  0.00  0.00     0.026 A 
ENDBRANCH  22  25
ENDBRANCH  21  22
ENDBRANCH   1  21
TORSDOF 7
