REMARK  4 active torsions:
REMARK  status: ('A' for Active; 'I' for Inactive)
REMARK       I    between atoms: N_2  and  C_1 
REMARK       I    between atoms: N_3  and  C_1 
REMARK    1  A    between atoms: C_7  and  N_2 
REMARK    2  A    between atoms: C_11  and  N_3 
REMARK    3  A    between atoms: C_4  and  O_6 
REMARK    4  A    between atoms: O_6  and  C_8 
ROOT
ATOM      1  C   UNL d   1       1.104   0.117   0.019  0.00  0.00     0.325 C 
ATOM      2  N   UNL d   1       0.470  -0.043  -1.206  0.00  0.00    -0.309 N 
ATOM      3  N   UNL d   1       0.268   0.673   0.971  0.00  0.00    -0.309 N 
ATOM      4  O   UNL d   1       2.280  -0.170   0.219  0.00  0.00    -0.247 OA
ATOM      5  H   UNL d   1      -0.424   0.409  -1.326  0.00  0.00     0.170 HD
ATOM      6  H   UNL d   1      -0.710   0.755   0.740  0.00  0.00     0.170 HD
ENDROOT
BRANCH   2   7
ATOM      7  C   UNL d   1       1.094  -0.537  -2.377  0.00  0.00     0.036 A 
ATOM      8  C   UNL d   1       2.313  -1.219  -2.365  0.00  0.00     0.032 A 
ATOM      9  C   UNL d   1       2.934  -1.624  -3.549  0.00  0.00     0.039 A 
ATOM     10  C   UNL d   1       2.324  -1.377  -4.773  0.00  0.00     0.075 A 
ATOM     11  C   UNL d   1       1.095  -0.713  -4.798  0.00  0.00     0.039 A 
ATOM     12  C   UNL d   1       0.472  -0.310  -3.608  0.00  0.00     0.032 A 
BRANCH  10  13
ATOM     13  O   UNL d   1       2.842  -1.708  -5.992  0.00  0.00    -0.290 OA
BRANCH  13  14
ATOM     14  C   UNL d   1       3.734  -2.812  -5.998  0.00  0.00     0.505 C 
ATOM     15  F   UNL d   1       3.078  -3.917  -5.568  0.00  0.00    -0.184 F 
ATOM     16  F   UNL d   1       4.080  -3.045  -7.290  0.00  0.00    -0.184 F 
ENDBRANCH  13  14
ENDBRANCH  10  13
ENDBRANCH   2   7
BRANCH   3  17
ATOM     17  C   UNL d   1       0.648   1.074   2.275  0.00  0.00     0.036 A 
ATOM     18  C   UNL d   1       1.956   0.983   2.765  0.00  0.00     0.029 A 
ATOM     19  C   UNL d   1       2.270   1.405   4.060  0.00  0.00     0.002 A 
ATOM     20  C   UNL d   1       1.279   1.932   4.878  0.00  0.00     0.000 A 
ATOM     21  C   UNL d   1      -0.025   2.035   4.401  0.00  0.00     0.002 A 
ATOM     22  C   UNL d   1      -0.341   1.607   3.108  0.00  0.00     0.029 A 
ENDBRANCH   3  17
TORSDOF 4
