REMARK  4 active torsions:
REMARK  status: ('A' for Active; 'I' for Inactive)
REMARK       I    between atoms: N_2  and  C_1 
REMARK    1  A    between atoms: C_4  and  C_1 
REMARK    2  A    between atoms: C_3  and  N_2 
REMARK    3  A    between atoms: C_10  and  N_2 
REMARK    4  A    between atoms: O_13  and  C_9 
ROOT
ATOM      1  C   UNL d   1       0.821  -0.038   0.071  0.00  0.00     0.258 C 
ATOM      2  N   UNL d   1       0.148  -1.114  -0.538  0.00  0.00    -0.313 N 
ATOM      3  O   UNL d   1       2.054  -0.004   0.103  0.00  0.00    -0.267 OA
ENDROOT
BRANCH   2   4
ATOM      4  C   UNL d   1      -1.257  -1.228  -0.669  0.00  0.00     0.048 A 
ATOM      5  C   UNL d   1      -1.982  -0.527  -1.666  0.00  0.00     0.001 A 
ATOM      6  C   UNL d   1      -3.395  -0.636  -1.664  0.00  0.00    -0.024 A 
ATOM      7  C   UNL d   1      -1.377   0.274  -2.663  0.00  0.00     0.014 A 
ATOM      8  C   UNL d   1      -4.149   0.058  -2.626  0.00  0.00     0.012 A 
ATOM      9  C   UNL d   1      -4.035  -1.435  -0.701  0.00  0.00     0.012 A 
ATOM     10  C   UNL d   1      -3.526   0.840  -3.597  0.00  0.00     0.001 A 
ATOM     11  C   UNL d   1      -2.140   0.942  -3.622  0.00  0.00     0.001 A 
ATOM     12  C   UNL d   1      -3.301  -2.154   0.241  0.00  0.00     0.003 A 
ATOM     13  C   UNL d   1      -1.913  -2.065   0.246  0.00  0.00     0.031 A 
ENDBRANCH   2   4
BRANCH   2  14
ATOM     14  C   UNL d   1       0.929  -2.061  -1.346  0.00  0.00     0.128 C 
ATOM     15  C   UNL d   1       1.472  -3.225  -0.536  0.00  0.00     0.027 C 
ENDBRANCH   2  14
BRANCH   1  16
ATOM     16  C   UNL d   1       0.102   1.157   0.637  0.00  0.00     0.035 A 
ATOM     17  C   UNL d   1       0.777   2.392   0.565  0.00  0.00     0.053 A 
ATOM     18  C   UNL d   1       0.169   3.572   1.002  0.00  0.00     0.069 A 
ATOM     19  C   UNL d   1      -1.133   3.526   1.500  0.00  0.00     0.037 A 
ATOM     20  C   UNL d   1      -1.794   2.309   1.626  0.00  0.00     0.004 A 
ATOM     21  C   UNL d   1      -1.164   1.128   1.229  0.00  0.00     0.017 A 
BRANCH  18  22
ATOM     22  O   UNL d   1       0.723   4.822   0.979  0.00  0.00    -0.356 OA
ATOM     23  C   UNL d   1       2.115   4.899   0.700  0.00  0.00     0.210 C 
ENDBRANCH  18  22
ENDBRANCH   1  16
TORSDOF 4
