REMARK  5 active torsions:
REMARK  status: ('A' for Active; 'I' for Inactive)
REMARK    1  A    between atoms: C_11  and  N_5 
REMARK    2  A    between atoms: N_12  and  C_7 
REMARK    3  A    between atoms: C_13  and  C_11 
REMARK    4  A    between atoms: C_16  and  N_12 
REMARK    5  A    between atoms: C_21  and  C_16 
ROOT
ATOM      1  C   UNL d   1      -0.254  -0.817   0.410  0.00  0.00     0.146 A 
ATOM      2  C   UNL d   1      -0.458   0.521   0.553  0.00  0.00     0.151 A 
ATOM      3  N   UNL d   1      -1.414  -1.509   0.446  0.00  0.00    -0.316 N 
ATOM      4  HN  UNL d   1      -1.529  -2.522   0.406  1.00  0.00     0.170 HD
ATOM      5  N   UNL d   1      -1.813   0.662   0.755  0.00  0.00    -0.311 N 
ATOM      6  N   UNL d   1       0.992  -1.357   0.190  0.00  0.00    -0.287 N 
ATOM      7  C   UNL d   1      -2.366  -0.602   0.544  0.00  0.00     0.164 C 
ATOM      8  N   UNL d   1       1.855   0.868   0.258  0.00  0.00    -0.269 N 
ATOM      9  C   UNL d   1       2.096  -0.508   0.105  0.00  0.00     0.332 A 
ATOM     10  C   UNL d   1       0.602   1.467   0.444  0.00  0.00     0.282 A 
ATOM     11  O   UNL d   1       3.227  -0.954  -0.107  0.00  0.00    -0.246 OA
ATOM     12  O   UNL d   1       0.425   2.681   0.475  0.00  0.00    -0.265 OA
ATOM     13  C   UNL d   1       1.187  -2.780   0.012  0.00  0.00     0.163 C 
ATOM     14  C   UNL d   1       2.981   1.775   0.118  0.00  0.00     0.164 C 
ENDROOT
BRANCH   7  15
ATOM     15  N   UNL d   1      -3.710  -0.849   0.467  0.00  0.00    -0.254 NA
ATOM     16  C   UNL d   1      -4.424  -0.249  -0.673  0.00  0.00     0.120 C 
BRANCH  15  17
ATOM     17  C   UNL d   1      -4.072  -2.280   0.636  0.00  0.00     0.136 C 
BRANCH  17  18
ATOM     18  C   UNL d   1      -5.267  -2.459   1.547  0.00  0.00    -0.045 A 
ATOM     19  C   UNL d   1      -6.326  -3.302   1.176  0.00  0.00     0.008 A 
ATOM     20  C   UNL d   1      -7.366  -3.570   2.069  0.00  0.00     0.001 A 
ATOM     21  C   UNL d   1      -7.357  -3.001   3.341  0.00  0.00     0.000 A 
ATOM     22  C   UNL d   1      -6.314  -2.158   3.720  0.00  0.00     0.001 A 
ATOM     23  C   UNL d   1      -5.274  -1.889   2.829  0.00  0.00     0.008 A 
ENDBRANCH  17  18
ENDBRANCH  15  17
ENDBRANCH   7  15
BRANCH   5  24
ATOM     24  C   UNL d   1      -2.555   1.915   0.888  0.00  0.00     0.172 C 
BRANCH  24  25
ATOM     25  C   UNL d   1      -2.295   2.827   2.068  0.00  0.00    -0.018 A 
ATOM     26  C   UNL d   1      -2.883   4.114   2.061  0.00  0.00     0.042 A 
ATOM     27 CL   UNL d   1      -3.863   4.662   0.740  0.00  0.00    -0.084 Cl
ATOM     28  C   UNL d   1      -2.728   4.994   3.136  0.00  0.00     0.024 A 
ATOM     29  C   UNL d   1      -1.986   4.607   4.245  0.00  0.00     0.002 A 
ATOM     30  C   UNL d   1      -1.411   3.338   4.281  0.00  0.00     0.001 A 
ATOM     31  C   UNL d   1      -1.571   2.449   3.209  0.00  0.00     0.010 A 
ENDBRANCH  24  25
ENDBRANCH   5  24
TORSDOF 5
