REMARK  3 active torsions:
REMARK  status: ('A' for Active; 'I' for Inactive)
REMARK    1  A    between atoms: O_11  and  C_9 
REMARK    2  A    between atoms: C_10  and  C_13 
REMARK    3  A    between atoms: C_13  and  O_11 
ROOT
ATOM      1  C   UNL d   1      -0.010   0.608   0.010  0.00  0.00     0.092 A 
ATOM      2  C   UNL d   1       0.035  -0.790   0.004  0.00  0.00     0.044 A 
ATOM      3  C   UNL d   1       1.189   1.342   0.036  0.00  0.00     0.006 A 
ATOM      4  C   UNL d   1      -1.224  -1.552   0.091  0.00  0.00     0.165 C 
ATOM      5  O   UNL d   1      -1.189   1.310  -0.001  0.00  0.00    -0.339 OA
ATOM      6  C   UNL d   1      -2.356   0.581  -0.426  0.00  0.00     0.067 C 
ATOM      7  C   UNL d   1      -2.467  -0.747   0.321  0.00  0.00     0.121 C 
ATOM      8  C   UNL d   1       1.254  -1.466  -0.046  0.00  0.00     0.021 A 
ATOM      9  C   UNL d   1       2.421   0.654  -0.022  0.00  0.00     0.077 A 
ATOM     10  O   UNL d   1      -1.232  -2.778   0.041  0.00  0.00    -0.292 OA
ATOM     11  C   UNL d   1       2.446  -0.744  -0.066  0.00  0.00     0.038 A 
ATOM     12  C   UNL d   1       1.189   2.847   0.115  0.00  0.00     0.054 C 
ATOM     13  C   UNL d   1      -2.350   0.405  -1.956  0.00  0.00     0.046 C 
ATOM     14  C   UNL d   1      -3.563   1.455  -0.055  0.00  0.00     0.046 C 
ENDROOT
BRANCH   9  15
ATOM     15  O   UNL d   1       3.549   1.433   0.031  0.00  0.00    -0.346 OA
BRANCH  15  16
ATOM     16  C   UNL d   1       4.722   0.918  -0.602  0.00  0.00     0.217 C 
BRANCH  16  17
ATOM     17  C   UNL d   1       5.865   1.900  -0.496  0.00  0.00     0.004 A 
ATOM     18  C   UNL d   1       7.089   1.570  -1.086  0.00  0.00     0.124 A 
ATOM     19  F   UNL d   1       7.212   0.413  -1.753  0.00  0.00    -0.205 F 
ATOM     20  C   UNL d   1       8.195   2.409  -0.990  0.00  0.00     0.043 A 
ATOM     21  C   UNL d   1       8.091   3.609  -0.290  0.00  0.00     0.003 A 
ATOM     22  C   UNL d   1       6.878   3.962   0.302  0.00  0.00     0.001 A 
ATOM     23  C   UNL d   1       5.772   3.114   0.201  0.00  0.00     0.012 A 
ENDBRANCH  16  17
ENDBRANCH  15  16
ENDBRANCH   9  15
TORSDOF 3
