REMARK  1 active torsions:
REMARK  status: ('A' for Active; 'I' for Inactive)
REMARK       I    between atoms: N_4  and  C_1 
REMARK       I    between atoms: N_7  and  C_1 
REMARK    1  A    between atoms: C_5  and  N_4 
ROOT
ATOM      1  C   UNL d   1       2.174   0.834  -2.332  0.00  0.00    -0.086 C 
ATOM      2  C   UNL d   1       3.145   0.194  -2.628  0.00  0.00     0.015 C 
ATOM      3  C   UNL d   1       0.924   1.566  -1.995  0.00  0.00     0.097 C 
ATOM      4  C   UNL d   1       1.306   2.940  -1.382  0.00  0.00     0.044 C 
ATOM      5  C   UNL d   1       0.096   1.808  -3.279  0.00  0.00     0.044 C 
ATOM      6  C   UNL d   1       0.092   3.842  -1.145  0.00  0.00     0.004 C 
ATOM      7  C   UNL d   1      -1.113   2.718  -3.050  0.00  0.00     0.004 C 
ATOM      8  C   UNL d   1      -0.707   4.048  -2.426  0.00  0.00     0.000 C 
ENDROOT
BRANCH   3   9
ATOM      9  N   UNL d   1       0.191   0.796  -0.984  0.00  0.00    -0.323 N 
ATOM     10  C   UNL d   1      -0.281  -0.467  -1.172  0.00  0.00     0.315 C 
ATOM     11  O   UNL d   1      -0.274  -1.103  -2.213  0.00  0.00    -0.248 OA
ATOM     12  N   UNL d   1      -0.823  -0.993  -0.042  0.00  0.00    -0.352 N 
ATOM     13  H   UNL d   1      -0.582  -0.640   0.869  0.00  0.00     0.160 HD
ATOM     14  H   UNL d   1      -1.060  -1.974  -0.108  0.00  0.00     0.160 HD
ATOM     15  H   UNL d   1       0.309   1.081  -0.027  0.00  0.00     0.166 HD
ENDBRANCH   3   9
TORSDOF 1
