REMARK  2 active torsions:
REMARK  status: ('A' for Active; 'I' for Inactive)
REMARK    1  A    between atoms: C_3  and  C_1 
REMARK    2  A    between atoms: O_10  and  C_3 
ROOT
ATOM      1  C   UNL d   1       0.698   1.118   0.221  0.00  0.00     0.049 C 
ATOM      2  C   UNL d   1      -0.432   0.172   0.753  0.00  0.00     0.027 C 
ATOM      3  C   UNL d   1      -1.046  -0.589  -0.401  0.00  0.00    -0.024 C 
ATOM      4  C   UNL d   1      -0.117  -1.448  -0.847  0.00  0.00    -0.026 C 
ATOM      5  C   UNL d   1       1.763   0.073  -0.273  0.00  0.00     0.029 C 
ATOM      6  C   UNL d   1       1.099  -1.289   0.034  0.00  0.00     0.010 C 
ATOM      7  C   UNL d   1       0.395  -0.978   1.354  0.00  0.00     0.018 C 
ATOM      8  C   UNL d   1       0.243   2.058  -0.901  0.00  0.00     0.027 C 
ENDROOT
BRANCH   1   9
ATOM      9  C   UNL d   1       1.193   1.992   1.376  0.00  0.00     0.149 C 
ATOM     10  O   UNL d   1       0.526   2.274   2.361  0.00  0.00    -0.649 OA
BRANCH   9  11
ATOM     11  O   UNL d   1       2.431   2.506   1.199  0.00  0.00    -0.776 OA
ATOM     12  H   UNL d   1       2.856   2.274   0.354  0.00  0.00     0.167 HD
ENDBRANCH   9  11
ENDBRANCH   1   9
TORSDOF 2
