REMARK  3 active torsions:
REMARK  status: ('A' for Active; 'I' for Inactive)
REMARK    1  A    between atoms: C_10  and  C_3 
REMARK    2  A    between atoms: C_7  and  C_4 
REMARK    3  A    between atoms: C_12  and  C_13 
ROOT
ATOM      1  N   UNL d   1       1.427  -0.559   0.013  0.00  0.00    -0.349 N 
ATOM      2  HN  UNL d   1       2.304  -1.080   0.013  1.00  0.00     0.166 HD
ATOM      3  C   UNL d   1       0.227  -1.105  -0.008  0.00  0.00     0.084 A 
ATOM      4  C   UNL d   1       1.327   0.824   0.035  0.00  0.00     0.050 A 
ATOM      5  S   UNL d   1      -1.080   0.024   0.021  0.00  0.00    -0.081 SA
ATOM      6  C   UNL d   1       0.037   1.314   0.024  0.00  0.00     0.082 A 
ENDROOT
BRANCH   4   7
ATOM      7  C   UNL d   1       2.509   1.675   0.043  0.00  0.00    -0.006 A 
ATOM      8  C   UNL d   1       2.496   2.924   0.678  0.00  0.00     0.053 A 
ATOM      9  C   UNL d   1       3.619   3.753   0.649  0.00  0.00     0.102 A 
ATOM     10  O   UNL d   1       3.445   4.968   1.263  0.00  0.00    -0.348 OA
ATOM     11  C   UNL d   1       4.797   3.312   0.032  0.00  0.00     0.102 A 
ATOM     12  C   UNL d   1       4.111   6.036   0.590  0.00  0.00     0.178 C 
ATOM     13  C   UNL d   1       5.553   6.152   1.051  0.00  0.00     0.053 C 
ATOM     14  C   UNL d   1       6.229   4.795   1.148  0.00  0.00     0.178 C 
ATOM     15  O   UNL d   1       5.978   4.008  -0.018  0.00  0.00    -0.348 OA
ATOM     16  C   UNL d   1       4.814   2.071  -0.610  0.00  0.00     0.040 A 
ATOM     17  C   UNL d   1       3.679   1.254  -0.599  0.00  0.00     0.017 A 
ENDBRANCH   4   7
BRANCH   3  18
ATOM     18  C   UNL d   1      -0.037  -2.553  -0.024  0.00  0.00    -0.002 A 
ATOM     19  C   UNL d   1       0.852  -3.439   0.595  0.00  0.00     0.015 A 
ATOM     20  C   UNL d   1       0.619  -4.823   0.581  0.00  0.00     0.009 A 
ATOM     21  C   UNL d   1      -0.501  -5.370  -0.071  0.00  0.00    -0.051 A 
ATOM     22  C   UNL d   1      -1.385  -4.471  -0.687  0.00  0.00     0.009 A 
ATOM     23  C   UNL d   1      -1.155  -3.092  -0.667  0.00  0.00     0.015 A 
BRANCH  21  24
ATOM     24  C   UNL d   1      -0.715  -6.893  -0.134  0.00  0.00    -0.024 C 
ATOM     25  C   UNL d   1      -1.980  -7.299  -0.927  0.00  0.00     0.019 C 
ATOM     26  C   UNL d   1       0.493  -7.553  -0.832  0.00  0.00     0.019 C 
ATOM     27  C   UNL d   1      -0.860  -7.482   1.284  0.00  0.00     0.019 C 
ENDBRANCH  21  24
ENDBRANCH   3  18
TORSDOF 3
