REMARK  6 active torsions:
REMARK  status: ('A' for Active; 'I' for Inactive)
REMARK       I    between atoms: C_2  and  N_1 
REMARK       I    between atoms: N_7  and  C_2 
REMARK    1  A    between atoms: C_5  and  C_3 
REMARK    2  A    between atoms: C_6  and  C_5 
REMARK       I    between atoms: N_11  and  C_6 
REMARK    3  A    between atoms: C_19  and  N_7 
REMARK    4  A    between atoms: C_8  and  C_10 
REMARK    5  A    between atoms: O_20  and  C_8 
REMARK    6  A    between atoms: C_15  and  N_11 
ROOT
ATOM      1  N   UNL d   1      -1.439  -1.717   0.045  0.00  0.00    -0.318 N 
ATOM      2  C   UNL d   1      -2.321  -2.410   0.897  0.00  0.00     0.323 C 
ATOM      3  C   UNL d   1       0.019  -1.693   0.360  0.00  0.00     0.189 C 
ATOM      4  C   UNL d   1       0.329  -0.529   1.338  0.00  0.00     0.241 C 
ATOM      5  N   UNL d   1      -3.654  -2.239   0.572  0.00  0.00    -0.309 N 
ATOM      6  N   UNL d   1      -0.401   0.632   1.151  0.00  0.00    -0.358 N 
ATOM      7  O   UNL d   1      -1.920  -3.096   1.827  0.00  0.00    -0.247 OA
ATOM      8  O   UNL d   1       1.289  -0.511   2.104  0.00  0.00    -0.271 OA
ATOM      9  C   UNL d   1      -1.845  -0.439  -0.561  0.00  0.00     0.148 C 
ATOM     10  C   UNL d   1      -1.700   0.660   0.496  0.00  0.00     0.142 C 
ATOM     11  H   UNL d   1      -3.834  -1.938  -0.371  0.00  0.00     0.170 HD
ATOM     12  H   UNL d   1      -0.162   1.372   1.801  0.00  0.00     0.162 HD
ENDROOT
BRANCH   3  13
ATOM     13  C   UNL d   1       0.732  -2.998   0.736  0.00  0.00     0.138 C 
BRANCH  13  14
ATOM     14  C   UNL d   1       0.988  -3.841  -0.500  0.00  0.00     0.224 C 
ATOM     15  N   UNL d   1       0.593  -5.159  -0.355  0.00  0.00    -0.327 N 
ATOM     16  H   UNL d   1       0.074  -5.383   0.488  0.00  0.00     0.169 HD
ATOM     17  O   UNL d   1       1.516  -3.352  -1.494  0.00  0.00    -0.273 OA
BRANCH  15  18
ATOM     18  C   UNL d   1       0.678  -6.187  -1.322  0.00  0.00     0.035 A 
ATOM     19  C   UNL d   1       1.376  -6.080  -2.531  0.00  0.00     0.047 A 
ATOM     20  C   UNL d   1       1.321  -7.117  -3.478  0.00  0.00     0.041 A 
ATOM     21  C   UNL d   1       0.601  -8.284  -3.189  0.00  0.00     0.018 A 
ATOM     22  C   UNL d   1      -0.061  -8.413  -1.972  0.00  0.00     0.003 A 
ATOM     23  C   UNL d   1      -0.019  -7.371  -1.043  0.00  0.00     0.029 A 
BRANCH  20  24
ATOM     24  C   UNL d   1       1.954  -7.024  -4.824  0.00  0.00     0.293 C 
ATOM     25  O   UNL d   1       2.087  -7.980  -5.567  0.00  0.00    -0.259 OA
BRANCH  24  26
ATOM     26  O   UNL d   1       2.259  -5.737  -5.120  0.00  0.00    -0.323 OA
ATOM     27  C   UNL d   1       2.655  -5.500  -6.473  0.00  0.00     0.213 C 
ENDBRANCH  24  26
ENDBRANCH  20  24
ENDBRANCH  15  18
ENDBRANCH  13  14
ENDBRANCH   3  13
BRANCH   5  28
ATOM     28  C   UNL d   1      -4.798  -2.706   1.257  0.00  0.00     0.036 A 
ATOM     29  C   UNL d   1      -4.771  -3.376   2.481  0.00  0.00     0.029 A 
ATOM     30  C   UNL d   1      -5.954  -3.878   3.039  0.00  0.00     0.002 A 
ATOM     31  C   UNL d   1      -7.176  -3.691   2.396  0.00  0.00     0.000 A 
ATOM     32  C   UNL d   1      -7.222  -2.975   1.203  0.00  0.00     0.002 A 
ATOM     33  C   UNL d   1      -6.040  -2.485   0.640  0.00  0.00     0.029 A 
ENDBRANCH   5  28
TORSDOF 6
