REMARK  2 active torsions:
REMARK  status: ('A' for Active; 'I' for Inactive)
REMARK    1  A    between atoms: C_3  and  C_1 
REMARK       I    between atoms: N_5  and  C_3 
REMARK    2  A    between atoms: C_8  and  N_5 
ROOT
ATOM      1  C   UNL d   1      -1.532  -2.829   0.155  0.00  0.00     0.259 C 
ATOM      2  N   UNL d   1      -0.354  -3.524  -0.049  0.00  0.00    -0.320 N 
ATOM      3  O   UNL d   1      -2.627  -3.344   0.373  0.00  0.00    -0.267 OA
ATOM      4  H   UNL d   1       0.503  -2.989   0.050  0.00  0.00     0.169 HD
ENDROOT
BRANCH   1   5
ATOM      5  C   UNL d   1      -1.452  -1.337   0.189  0.00  0.00     0.066 A 
ATOM      6  C   UNL d   1      -0.283  -0.594   0.092  0.00  0.00     0.092 A 
ATOM      7  O   UNL d   1       0.988  -1.105  -0.005  0.00  0.00    -0.339 OA
ATOM      8  C   UNL d   1      -0.310   0.795   0.111  0.00  0.00    -0.021 A 
ATOM      9  C   UNL d   1       1.882   0.048  -0.072  0.00  0.00     0.064 A 
ATOM     10  C   UNL d   1       2.622  -0.016  -1.411  0.00  0.00     0.046 C 
ATOM     11  C   UNL d   1       2.876  -0.074   1.086  0.00  0.00     0.046 C 
ATOM     12  C   UNL d   1       1.060   1.348   0.043  0.00  0.00     0.079 A 
ATOM     13  C   UNL d   1      -1.499   1.499   0.218  0.00  0.00     0.010 A 
ATOM     14  C   UNL d   1      -2.682   0.779   0.345  0.00  0.00     0.002 A 
ATOM     15  C   UNL d   1      -2.658  -0.624   0.338  0.00  0.00     0.020 A 
ENDBRANCH   1   5
BRANCH   2  16
ATOM     16  C   UNL d   1      -0.246  -4.937  -0.093  0.00  0.00     0.074 A 
ATOM     17  C   UNL d   1      -1.283  -5.802  -0.485  0.00  0.00     0.146 A 
ATOM     18  C   UNL d   1      -1.149  -7.185  -0.388  0.00  0.00     0.086 A 
ATOM     19  F   UNL d   1      -2.405  -5.339  -1.053  0.00  0.00    -0.204 F 
ATOM     20  C   UNL d   1       0.043  -7.716   0.073  0.00  0.00     0.119 A 
ATOM     21  C   UNL d   1       1.116  -6.890   0.392  0.00  0.00     0.044 A 
ATOM     22  F   UNL d   1       0.172  -9.043   0.198  0.00  0.00    -0.206 F 
ATOM     23  C   UNL d   1       0.978  -5.501   0.294  0.00  0.00     0.036 A 
ENDBRANCH   2  16
TORSDOF 2
