REMARK  4 active torsions:
REMARK  status: ('A' for Active; 'I' for Inactive)
REMARK    1  A    between atoms: C_13  and  C_3 
REMARK    2  A    between atoms: C_16  and  N_5 
REMARK    3  A    between atoms: C_17  and  N_9 
REMARK       I    between atoms: N_14  and  C_13 
REMARK    4  A    between atoms: C_19  and  N_14 
ROOT
ATOM      1  C   UNL d   1      -1.357  -0.175  -0.178  0.00  0.00     0.117 C 
ATOM      2  C   UNL d   1      -2.574  -0.169  -0.758  0.00  0.00     0.093 C 
ATOM      3  C   UNL d   1       0.569   0.494   1.114  0.00  0.00     0.160 C 
ATOM      4  C   UNL d   1      -3.408  -1.344  -1.132  0.00  0.00     0.282 C 
ATOM      5  N   UNL d   1      -0.584  -1.219   0.369  0.00  0.00    -0.247 N 
ATOM      6  S   UNL d   1      -0.490   1.345   0.041  0.00  0.00    -0.045 SA
ATOM      7  N   UNL d   1       0.501  -0.799   1.187  0.00  0.00    -0.281 N 
ATOM      8  HN  UNL d   1       1.115  -1.405   1.732  1.00  0.00     0.188 HD
ATOM      9  N   UNL d   1      -4.326  -0.793  -2.041  0.00  0.00    -0.220 N 
ATOM     10  N   UNL d   1      -4.329   0.591  -2.064  0.00  0.00    -0.294 N 
ATOM     11  HN  UNL d   1      -4.953   1.192  -2.602  1.00  0.00     0.187 HD
ATOM     12  C   UNL d   1      -3.379   0.972  -1.262  0.00  0.00     0.041 C 
ATOM     13  O   UNL d   1      -3.292  -2.485  -0.718  0.00  0.00    -0.265 OA
ATOM     14  C   UNL d   1      -3.255   2.407  -0.855  0.00  0.00     0.071 C 
ENDROOT
BRANCH   5  15
ATOM     15  C   UNL d   1      -0.416  -2.509  -0.210  0.00  0.00     0.057 A 
ATOM     16  C   UNL d   1      -0.305  -2.690  -1.600  0.00  0.00     0.031 A 
ATOM     17  C   UNL d   1      -0.174  -3.969  -2.149  0.00  0.00     0.002 A 
ATOM     18  C   UNL d   1      -0.153  -5.086  -1.318  0.00  0.00     0.000 A 
ATOM     19  C   UNL d   1      -0.246  -4.925   0.063  0.00  0.00     0.002 A 
ATOM     20  C   UNL d   1      -0.362  -3.644   0.613  0.00  0.00     0.031 A 
ENDBRANCH   5  15
BRANCH   3  21
ATOM     21  C   UNL d   1       1.414   1.500   1.858  0.00  0.00     0.281 C 
ATOM     22  N   UNL d   1       2.608   1.013   2.364  0.00  0.00    -0.321 N 
ATOM     23  H   UNL d   1       2.798   0.025   2.234  0.00  0.00     0.169 HD
ATOM     24  O   UNL d   1       0.993   2.642   1.987  0.00  0.00    -0.265 OA
BRANCH  22  25
ATOM     25  C   UNL d   1       3.577   1.785   3.056  0.00  0.00     0.035 A 
ATOM     26  C   UNL d   1       3.456   3.162   3.286  0.00  0.00     0.029 A 
ATOM     27  C   UNL d   1       4.466   3.881   3.932  0.00  0.00     0.002 A 
ATOM     28  C   UNL d   1       5.614   3.230   4.364  0.00  0.00     0.000 A 
ATOM     29  C   UNL d   1       5.741   1.857   4.165  0.00  0.00     0.002 A 
ATOM     30  C   UNL d   1       4.728   1.137   3.517  0.00  0.00     0.029 A 
ENDBRANCH  22  25
ENDBRANCH   3  21
BRANCH   9  31
ATOM     31  C   UNL d   1      -5.264  -1.462  -2.865  0.00  0.00     0.060 A 
ATOM     32  C   UNL d   1      -5.451  -2.847  -2.813  0.00  0.00     0.031 A 
ATOM     33  C   UNL d   1      -6.358  -3.477  -3.674  0.00  0.00     0.002 A 
ATOM     34  C   UNL d   1      -7.080  -2.733  -4.605  0.00  0.00     0.000 A 
ATOM     35  C   UNL d   1      -6.906  -1.356  -4.672  0.00  0.00     0.002 A 
ATOM     36  C   UNL d   1      -6.011  -0.728  -3.805  0.00  0.00     0.031 A 
ENDBRANCH   9  31
TORSDOF 4
