REMARK  5 active torsions:
REMARK  status: ('A' for Active; 'I' for Inactive)
REMARK    1  A    between atoms: C_16  and  N_2 
REMARK    2  A    between atoms: C_15  and  N_4 
REMARK    3  A    between atoms: C_11  and  C_5 
REMARK    4  A    between atoms: N_12  and  C_17 
REMARK    5  A    between atoms: C_27  and  C_14 
ROOT
ATOM      1  C   UNL d   1       0.026  -0.223  -0.397  0.00  0.00     0.247 C 
ATOM      2  N   UNL d   1       1.164  -1.045  -0.735  0.00  0.00    -0.265 N 
ATOM      3  S   UNL d   1      -0.627  -0.704   1.255  0.00  0.00    -0.042 SA
ATOM      4  N   UNL d   1      -1.188  -0.218  -1.229  0.00  0.00    -0.241 N 
ATOM      5  C   UNL d   1      -2.188  -0.095   0.750  0.00  0.00     0.101 C 
ATOM      6  N   UNL d   1      -2.356   0.067  -0.526  0.00  0.00    -0.287 N 
ATOM      7  HN  UNL d   1      -3.231   0.364  -0.959  1.00  0.00     0.188 HD
ATOM      8  S   UNL d   1       0.688   1.493  -0.204  0.00  0.00    -0.056 SA
ATOM      9  C   UNL d   1       2.339  -0.595  -0.119  0.00  0.00     0.268 C 
ATOM     10  C   UNL d   1       2.276   0.886   0.101  0.00  0.00     0.074 C 
ATOM     11  C   UNL d   1       3.287   1.695   0.435  0.00  0.00     0.035 C 
ATOM     12  O   UNL d   1       3.286  -1.289   0.217  0.00  0.00    -0.266 OA
ENDROOT
BRANCH   2  13
ATOM     13  C   UNL d   1       1.145  -2.356  -1.281  0.00  0.00     0.041 A 
ATOM     14  C   UNL d   1       0.151  -3.299  -1.019  0.00  0.00     0.030 A 
ATOM     15  C   UNL d   1       0.178  -4.546  -1.655  0.00  0.00     0.002 A 
ATOM     16  C   UNL d   1       1.165  -4.842  -2.595  0.00  0.00     0.000 A 
ATOM     17  C   UNL d   1       2.190  -3.933  -2.825  0.00  0.00     0.002 A 
ATOM     18  C   UNL d   1       2.196  -2.716  -2.145  0.00  0.00     0.030 A 
ENDBRANCH   2  13
BRANCH   4  19
ATOM     19  C   UNL d   1      -1.304  -0.206  -2.616  0.00  0.00     0.055 C 
ATOM     20  C   UNL d   1      -2.435  -0.822  -3.200  0.00  0.00     0.034 C 
ATOM     21  C   UNL d   1      -2.546  -1.034  -4.577  0.00  0.00     0.038 C 
ATOM     22  C   UNL d   1      -1.548  -0.541  -5.414  0.00  0.00     0.103 C 
ATOM     23  C   UNL d   1      -0.491   0.214  -4.885  0.00  0.00     0.038 C 
ATOM     24  C   UNL d   1      -0.370   0.360  -3.492  0.00  0.00     0.034 C 
BRANCH  22  25
ATOM     25  N   UNL d   1      -1.591  -0.853  -6.846  0.00  0.00    -0.116 N 
ATOM     26  O   UNL d   1      -0.689  -0.412  -7.565  0.00  0.00    -0.532 OA
ATOM     27  O   UNL d   1      -2.519  -1.578  -7.249  0.00  0.00    -0.532 OA
ENDBRANCH  22  25
ENDBRANCH   4  19
BRANCH   5  28
ATOM     28  C   UNL d   1      -3.192   0.210   1.796  0.00  0.00     0.021 A 
ATOM     29  C   UNL d   1      -4.584   0.179   1.545  0.00  0.00     0.048 A 
ATOM     30  C   UNL d   1      -5.486   0.505   2.572  0.00  0.00     0.048 A 
ATOM     31 CL   UNL d   1      -5.279  -0.283   0.042  0.00  0.00    -0.083 Cl
ATOM     32  C   UNL d   1      -5.011   0.859   3.836  0.00  0.00     0.035 A 
ATOM     33  C   UNL d   1      -3.651   0.895   4.089  0.00  0.00     0.025 A 
ATOM     34 CL   UNL d   1      -6.122   1.249   5.089  0.00  0.00    -0.084 Cl
ATOM     35  C   UNL d   1      -2.747   0.584   3.071  0.00  0.00     0.018 A 
ENDBRANCH   5  28
BRANCH  11  36
ATOM     36  C   UNL d   1       4.672   1.297   0.643  0.00  0.00    -0.035 A 
ATOM     37  C   UNL d   1       5.560   1.251  -0.437  0.00  0.00     0.012 A 
ATOM     38  C   UNL d   1       6.880   0.840  -0.242  0.00  0.00     0.007 A 
ATOM     39  C   UNL d   1       7.333   0.480   1.033  0.00  0.00    -0.062 A 
ATOM     40  C   UNL d   1       6.449   0.557   2.115  0.00  0.00     0.007 A 
ATOM     41  C   UNL d   1       8.738  -0.012   1.216  0.00  0.00     0.048 C 
ATOM     42  C   UNL d   1       5.126   0.959   1.922  0.00  0.00     0.012 A 
ENDBRANCH  11  36
TORSDOF 5
