REMARK  4 active torsions:
REMARK  status: ('A' for Active; 'I' for Inactive)
REMARK    1  A    between atoms: C_13  and  C_2 
REMARK    2  A    between atoms: S_11  and  C_5 
REMARK       I    between atoms: N_6  and  C_10 
REMARK    3  A    between atoms: C_10  and  C_15 
REMARK    4  A    between atoms: C_15  and  S_11 
ROOT
ATOM      1  N   UNL d   1      -0.825  -0.350   0.962  0.00  0.00    -0.315 N 
ATOM      2  C   UNL d   1      -0.833   0.899   0.371  0.00  0.00     0.134 A 
ATOM      3  N   UNL d   1       0.237   0.981  -0.408  0.00  0.00    -0.283 N 
ATOM      4  HN  UNL d   1       0.499   1.790  -0.971  1.00  0.00     0.188 HD
ATOM      5  C   UNL d   1       0.284  -0.993   0.473  0.00  0.00     0.163 A 
ATOM      6  N   UNL d   1       0.936  -0.200  -0.336  0.00  0.00    -0.278 N 
ATOM      7  HN  UNL d   1       1.805  -0.418  -0.825  1.00  0.00     0.189 HD
ATOM      8  C   UNL d   1      -1.799  -0.919   1.861  0.00  0.00     0.160 C 
ENDROOT
BRANCH   5   9
ATOM      9  S   UNL d   1       0.673  -2.633   0.855  0.00  0.00    -0.083 SA
BRANCH   9  10
ATOM     10  C   UNL d   1       2.239  -2.861  -0.035  0.00  0.00     0.185 C 
BRANCH  10  11
ATOM     11  C   UNL d   1       2.654  -4.326   0.082  0.00  0.00     0.234 C 
ATOM     12  N   UNL d   1       2.347  -5.154  -0.988  0.00  0.00    -0.317 N 
ATOM     13  C   UNL d   1       2.651  -6.529  -1.081  0.00  0.00     0.043 A 
ATOM     14  C   UNL d   1       1.743  -4.736  -2.266  0.00  0.00     0.137 C 
ATOM     15  C   UNL d   1       2.238  -7.033  -2.316  0.00  0.00    -0.030 A 
ATOM     16  C   UNL d   1       3.270  -7.358  -0.159  0.00  0.00     0.030 A 
ATOM     17  C   UNL d   1       2.453  -8.358  -2.669  0.00  0.00     0.009 A 
ATOM     18  C   UNL d   1       1.533  -5.991  -3.120  0.00  0.00     0.061 C 
ATOM     19  C   UNL d   1       3.090  -9.193  -1.751  0.00  0.00     0.001 A 
ATOM     20  C   UNL d   1       3.488  -8.698  -0.501  0.00  0.00     0.002 A 
ATOM     21  O   UNL d   1       3.215  -4.710   1.111  0.00  0.00    -0.272 OA
ENDBRANCH  10  11
ENDBRANCH   9  10
ENDBRANCH   5   9
BRANCH   2  22
ATOM     22  C   UNL d   1      -1.873   1.933   0.461  0.00  0.00     0.012 A 
ATOM     23  C   UNL d   1      -2.585   2.210   1.630  0.00  0.00     0.032 A 
ATOM     24  C   UNL d   1      -3.613   3.142   1.581  0.00  0.00     0.088 A 
ATOM     25  N   UNL d   1      -3.948   3.833   0.473  0.00  0.00    -0.375 N 
ATOM     26  C   UNL d   1      -3.209   3.602  -0.631  0.00  0.00     0.088 A 
ATOM     27  HN  UNL d   1      -4.722   4.497   0.471  1.00  0.00     0.164 HD
ATOM     28  C   UNL d   1      -2.177   2.679  -0.682  0.00  0.00     0.032 A 
ENDBRANCH   2  22
TORSDOF 4
