REMARK  3 active torsions:
REMARK  status: ('A' for Active; 'I' for Inactive)
REMARK    1  A    between atoms: N_3  and  C_1 
REMARK    2  A    between atoms: N_10  and  C_2 
REMARK    3  A    between atoms: C_8  and  N_3 
ROOT
ATOM      1  C   UNL d   1      -1.979   0.762  -0.018  0.00  0.00     0.053 A 
ATOM      2  C   UNL d   1      -1.566  -0.589  -0.094  0.00  0.00     0.034 A 
ATOM      3  C   UNL d   1      -0.198  -0.888  -0.111  0.00  0.00     0.049 A 
ATOM      4  C   UNL d   1      -1.007   1.767   0.133  0.00  0.00     0.033 A 
ATOM      5  C   UNL d   1       0.750   0.130   0.013  0.00  0.00     0.035 A 
ATOM      6  C   UNL d   1       0.351   1.453   0.138  0.00  0.00     0.026 A 
ATOM      7 CL   UNL d   1       2.427  -0.256  -0.001  0.00  0.00    -0.084 Cl
ENDROOT
BRANCH   1   8
ATOM      8  N   UNL d   1      -3.370   1.077   0.015  0.00  0.00    -0.355 N 
ATOM      9  H   UNL d   1      -3.763   0.705   0.877  0.00  0.00     0.166 HD
BRANCH   8  10
ATOM     10  C   UNL d   1      -3.926   2.335  -0.323  0.00  0.00     0.035 A 
ATOM     11  C   UNL d   1      -3.523   3.007  -1.480  0.00  0.00     0.046 A 
ATOM     12  C   UNL d   1      -4.042   4.263  -1.740  0.00  0.00     0.090 A 
ATOM     13  N   UNL d   1      -4.942   4.878  -0.947  0.00  0.00    -0.375 N 
ATOM     14  C   UNL d   1      -5.350   4.196   0.144  0.00  0.00     0.090 A 
ATOM     15  HN  UNL d   1      -5.297   5.810  -1.160  1.00  0.00     0.164 HD
ATOM     16  C   UNL d   1      -4.886   2.935   0.490  0.00  0.00     0.046 A 
ENDBRANCH   8  10
ENDBRANCH   1   8
BRANCH   2  17
ATOM     17  N   UNL d   1      -2.490  -1.608  -0.379  0.00  0.00    -0.301 NA
ATOM     18  H   UNL d   1      -3.457  -1.346  -0.213  0.00  0.00     0.124 HD
ATOM     19  H   UNL d   1      -2.238  -2.531  -0.045  0.00  0.00     0.124 HD
ENDBRANCH   2  17
TORSDOF 3
