REMARK  7 active torsions:
REMARK  status: ('A' for Active; 'I' for Inactive)
REMARK    1  A    between atoms: C_9  and  N_1 
REMARK    2  A    between atoms: S_8  and  C_2 
REMARK    3  A    between atoms: O_18  and  C_3 
REMARK    4  A    between atoms: C_17  and  S_8 
REMARK    5  A    between atoms: C_10  and  C_17 
REMARK       I    between atoms: N_11  and  C_10 
REMARK    6  A    between atoms: C_21  and  N_11 
REMARK    7  A    between atoms: C_12  and  C_13 
ROOT
ATOM      1  N   UNL d   1       0.260  -5.086   0.952  0.00  0.00    -0.254 N 
ATOM      2  C   UNL d   1       1.510  -5.686   0.880  0.00  0.00     0.169 A 
ATOM      3  C   UNL d   1       0.144  -4.786   2.307  0.00  0.00     0.245 A 
ATOM      4  N   UNL d   1       2.029  -5.824   2.080  0.00  0.00    -0.276 N 
ATOM      5  HN  UNL d   1       2.923  -6.262   2.301  1.00  0.00     0.189 HD
ATOM      6  N   UNL d   1       1.157  -5.273   2.982  0.00  0.00    -0.263 N 
ATOM      7  HN  UNL d   1       1.275  -5.247   3.995  1.00  0.00     0.190 HD
ENDROOT
BRANCH   2   8
ATOM      8  S   UNL d   1       2.308  -6.268  -0.548  0.00  0.00    -0.083 SA
BRANCH   8   9
ATOM      9  C   UNL d   1       3.885  -5.352  -0.415  0.00  0.00     0.185 C 
BRANCH   9  10
ATOM     10  C   UNL d   1       3.684  -3.839  -0.337  0.00  0.00     0.231 C 
ATOM     11  N   UNL d   1       4.871  -3.138  -0.161  0.00  0.00    -0.327 N 
ATOM     12  H   UNL d   1       5.740  -3.629  -0.327  0.00  0.00     0.169 HD
ATOM     13  O   UNL d   1       2.581  -3.309  -0.457  0.00  0.00    -0.272 OA
BRANCH  11  14
ATOM     14  C   UNL d   1       4.976  -1.771   0.183  0.00  0.00     0.034 A 
ATOM     15  C   UNL d   1       3.905  -1.019   0.659  0.00  0.00     0.030 A 
ATOM     16  C   UNL d   1       4.080   0.307   1.063  0.00  0.00     0.010 A 
ATOM     17  C   UNL d   1       5.335   0.937   1.008  0.00  0.00    -0.051 A 
ATOM     18  C   UNL d   1       6.401   0.182   0.493  0.00  0.00     0.010 A 
ATOM     19  C   UNL d   1       6.228  -1.156   0.097  0.00  0.00     0.030 A 
BRANCH  17  20
ATOM     20  C   UNL d   1       5.491   2.372   1.541  0.00  0.00    -0.024 C 
ATOM     21  C   UNL d   1       6.933   2.914   1.445  0.00  0.00     0.019 C 
ATOM     22  C   UNL d   1       4.578   3.338   0.753  0.00  0.00     0.019 C 
ATOM     23  C   UNL d   1       5.087   2.414   3.033  0.00  0.00     0.019 C 
ENDBRANCH  17  20
ENDBRANCH  11  14
ENDBRANCH   9  10
ENDBRANCH   8   9
ENDBRANCH   2   8
BRANCH   1  24
ATOM     24  C   UNL d   1      -0.702  -4.770  -0.046  0.00  0.00     0.060 A 
ATOM     25  C   UNL d   1      -2.055  -4.717   0.287  0.00  0.00     0.117 A 
ATOM     26  N   UNL d   1      -3.029  -4.301  -0.556  0.00  0.00    -0.373 N 
ATOM     27  C   UNL d   1      -2.649  -3.951  -1.801  0.00  0.00     0.088 A 
ATOM     28  HN  UNL d   1      -4.005  -4.256  -0.263  1.00  0.00     0.164 HD
ATOM     29  C   UNL d   1      -1.341  -4.018  -2.245  0.00  0.00     0.019 A 
ATOM     30  C   UNL d   1      -0.353  -4.440  -1.354  0.00  0.00     0.033 A 
ENDBRANCH   1  24
BRANCH   3  31
ATOM     31  O   UNL d   1      -0.780  -4.017   2.870  0.00  0.00    -0.331 OA
ATOM     32  H   UNL d   1      -1.056  -3.347   2.222  0.00  0.00     0.221 HD
ENDBRANCH   3  31
TORSDOF 7
