REMARK  5 active torsions:
REMARK  status: ('A' for Active; 'I' for Inactive)
REMARK    1  A    between atoms: N_2  and  C_1 
REMARK       I    between atoms: C_4  and  N_2 
REMARK    2  A    between atoms: C_3  and  C_7 
REMARK    3  A    between atoms: C_8  and  C_4 
REMARK    4  A    between atoms: O_18  and  C_6 
REMARK    5  A    between atoms: O_19  and  C_12 
ROOT
ATOM      1  N   UNL d   1      -0.591   2.317  -0.291  0.00  0.00    -0.319 N 
ATOM      2  C   UNL d   1      -1.957   2.351  -0.075  0.00  0.00     0.256 C 
ATOM      3  O   UNL d   1      -2.686   1.393   0.133  0.00  0.00    -0.267 OA
ATOM      4  H   UNL d   1      -0.109   3.136   0.051  0.00  0.00     0.169 HD
ENDROOT
BRANCH   1   5
ATOM      5  C   UNL d   1       0.232   1.166  -0.367  0.00  0.00     0.090 C 
ATOM      6  C   UNL d   1      -0.149  -0.089  -0.856  0.00  0.00     0.066 C 
ATOM      7  C   UNL d   1       0.695  -1.196  -0.681  0.00  0.00     0.063 C 
ATOM      8 CL   UNL d   1      -1.535  -0.355  -1.859  0.00  0.00    -0.082 Cl
ATOM      9  C   UNL d   1       1.946  -1.062  -0.078  0.00  0.00     0.072 C 
ATOM     10  C   UNL d   1       2.384   0.204   0.302  0.00  0.00     0.076 C 
ATOM     11  C   UNL d   1       1.544   1.311   0.129  0.00  0.00     0.099 C 
BRANCH   9  12
ATOM     12  O   UNL d   1       2.636  -2.235   0.056  0.00  0.00    -0.356 OA
ATOM     13  C   UNL d   1       3.916  -2.172   0.669  0.00  0.00     0.210 C 
ENDBRANCH   9  12
BRANCH  11  14
ATOM     14  O   UNL d   1       2.017   2.516   0.603  0.00  0.00    -0.353 OA
ATOM     15  C   UNL d   1       2.252   3.481  -0.432  0.00  0.00     0.210 C 
ENDBRANCH  11  14
ENDBRANCH   1   5
BRANCH   2  16
ATOM     16  C   UNL d   1      -2.516   3.727   0.059  0.00  0.00     0.033 A 
ATOM     17  C   UNL d   1      -1.922   4.837  -0.564  0.00  0.00     0.033 A 
ATOM     18  C   UNL d   1      -2.408   6.133  -0.326  0.00  0.00     0.048 A 
ATOM     19  C   UNL d   1      -3.523   6.295   0.514  0.00  0.00     0.016 A 
ATOM     20  C   UNL d   1      -4.141   5.190   1.098  0.00  0.00     0.002 A 
ATOM     21  C   UNL d   1      -3.638   3.908   0.872  0.00  0.00     0.017 A 
BRANCH  18  22
ATOM     22  C   UNL d   1      -1.736   7.341  -0.928  0.00  0.00     0.417 C 
ATOM     23  F   UNL d   1      -0.688   7.025  -1.740  0.00  0.00    -0.166 F 
ATOM     24  F   UNL d   1      -2.579   8.098  -1.678  0.00  0.00    -0.166 F 
ATOM     25  F   UNL d   1      -1.226   8.173   0.023  0.00  0.00    -0.166 F 
ENDBRANCH  18  22
ENDBRANCH   2  16
TORSDOF 5
