REMARK  7 active torsions:
REMARK  status: ('A' for Active; 'I' for Inactive)
REMARK    1  A    between atoms: C_8  and  N_1 
REMARK    2  A    between atoms: S_9  and  C_2 
REMARK    3  A    between atoms: O_19  and  C_3 
REMARK    4  A    between atoms: C_18  and  S_9 
REMARK    5  A    between atoms: C_14  and  C_18 
REMARK       I    between atoms: N_15  and  C_14 
REMARK    6  A    between atoms: C_22  and  N_15 
REMARK    7  A    between atoms: C_23  and  C_16 
ROOT
ATOM      1  N   UNL d   1      -0.125  -0.459  -1.447  0.00  0.00    -0.286 N 
ATOM      2  C   UNL d   1       0.647  -1.424  -0.847  0.00  0.00     0.165 A 
ATOM      3  C   UNL d   1      -1.281  -0.433  -0.703  0.00  0.00     0.240 A 
ATOM      4  N   UNL d   1      -0.017  -1.985   0.137  0.00  0.00    -0.277 N 
ATOM      5  HN  UNL d   1       0.313  -2.746   0.729  1.00  0.00     0.189 HD
ATOM      6  N   UNL d   1      -1.238  -1.362   0.223  0.00  0.00    -0.263 N 
ATOM      7  HN  UNL d   1      -1.979  -1.582   0.889  1.00  0.00     0.190 HD
ENDROOT
BRANCH   2   8
ATOM      8  S   UNL d   1       2.269  -1.803  -1.301  0.00  0.00    -0.083 SA
BRANCH   8   9
ATOM      9  C   UNL d   1       2.643  -3.210  -0.199  0.00  0.00     0.185 C 
BRANCH   9  10
ATOM     10  C   UNL d   1       4.125  -3.575  -0.249  0.00  0.00     0.231 C 
ATOM     11  N   UNL d   1       4.469  -4.571   0.662  0.00  0.00    -0.327 N 
ATOM     12  H   UNL d   1       3.719  -5.120   1.060  0.00  0.00     0.169 HD
ATOM     13  O   UNL d   1       4.917  -3.054  -1.036  0.00  0.00    -0.272 OA
BRANCH  11  14
ATOM     14  C   UNL d   1       5.787  -5.011   0.931  0.00  0.00     0.034 A 
ATOM     15  C   UNL d   1       6.914  -4.220   0.701  0.00  0.00     0.030 A 
ATOM     16  C   UNL d   1       8.196  -4.691   1.009  0.00  0.00     0.010 A 
ATOM     17  C   UNL d   1       8.384  -5.972   1.542  0.00  0.00    -0.055 A 
ATOM     18  C   UNL d   1       7.248  -6.762   1.774  0.00  0.00     0.010 A 
ATOM     19  C   UNL d   1       5.963  -6.279   1.490  0.00  0.00     0.030 A 
BRANCH  17  20
ATOM     20  C   UNL d   1       9.764  -6.495   1.902  0.00  0.00     0.010 C 
ATOM     21  C   UNL d   1      10.736  -6.462   0.719  0.00  0.00     0.015 C 
ATOM     22  C   UNL d   1      10.344  -5.730   3.096  0.00  0.00     0.015 C 
ENDBRANCH  17  20
ENDBRANCH  11  14
ENDBRANCH   9  10
ENDBRANCH   8   9
ENDBRANCH   2   8
BRANCH   1  23
ATOM     23  C   UNL d   1       0.164   0.302  -2.647  0.00  0.00     0.104 C 
ATOM     24  C   UNL d   1       0.280   1.829  -2.415  0.00  0.00     0.065 C 
ATOM     25  C   UNL d   1      -0.345   2.398  -3.649  0.00  0.00    -0.050 A 
ATOM     26  C   UNL d   1      -0.366   3.727  -4.046  0.00  0.00     0.007 A 
ATOM     27  C   UNL d   1      -0.972   1.414  -4.415  0.00  0.00    -0.050 A 
ATOM     28  C   UNL d   1      -1.016   4.058  -5.235  0.00  0.00     0.001 A 
ATOM     29  C   UNL d   1      -1.642   3.067  -6.008  0.00  0.00     0.001 A 
ATOM     30  C   UNL d   1      -1.626   1.735  -5.596  0.00  0.00     0.007 A 
ATOM     31  C   UNL d   1      -0.865   0.064  -3.782  0.00  0.00     0.065 C 
ENDBRANCH   1  23
BRANCH   3  32
ATOM     32  O   UNL d   1      -2.321   0.371  -0.862  0.00  0.00    -0.331 OA
ATOM     33  H   UNL d   1      -2.115   1.081  -1.487  0.00  0.00     0.221 HD
ENDBRANCH   3  32
TORSDOF 7
