REMARK  5 active torsions:
REMARK  status: ('A' for Active; 'I' for Inactive)
REMARK    1  A    between atoms: N_2  and  C_1 
REMARK    2  A    between atoms: N_3  and  C_1 
REMARK    3  A    between atoms: C_5  and  N_2 
REMARK    4  A    between atoms: N_7  and  N_3 
REMARK    5  A    between atoms: S_9  and  C_8 
ROOT
ATOM      1  N   UNL d   1       0.662  -1.296   0.004  0.00  0.00    -0.332 N 
ATOM      2  H   UNL d   1       1.172  -0.438   0.194  0.00  0.00     0.168 HD
ENDROOT
BRANCH   1   3
ATOM      3  C   UNL d   1      -0.252  -1.068  -1.000  0.00  0.00     0.186 C 
ATOM      4  S   UNL d   1      -1.468  -2.031  -1.607  0.00  0.00    -0.040 SA
BRANCH   3   5
ATOM      5  N   UNL d   1      -0.101   0.184  -1.584  0.00  0.00    -0.296 N 
ATOM      6  H   UNL d   1      -0.717   0.394  -2.365  0.00  0.00     0.183 HD
BRANCH   5   7
ATOM      7  N   UNL d   1       0.992   1.036  -1.290  0.00  0.00    -0.238 NA
ATOM      8  C   UNL d   1       2.092   0.777  -2.230  0.00  0.00     0.135 C 
ATOM      9  C   UNL d   1       0.570   2.438  -1.397  0.00  0.00     0.135 C 
ENDBRANCH   5   7
ENDBRANCH   3   5
ENDBRANCH   1   3
BRANCH   1  10
ATOM     10  C   UNL d   1       1.035  -2.433   0.751  0.00  0.00     0.035 A 
ATOM     11  C   UNL d   1       2.022  -2.242   1.734  0.00  0.00     0.048 A 
ATOM     12  C   UNL d   1       2.514  -3.311   2.495  0.00  0.00     0.002 A 
ATOM     13  C   UNL d   1       1.992  -4.588   2.281  0.00  0.00     0.018 A 
ATOM     14  C   UNL d   1       1.006  -4.791   1.319  0.00  0.00     0.004 A 
ATOM     15  C   UNL d   1       0.533  -3.718   0.557  0.00  0.00     0.029 A 
BRANCH  12  16
ATOM     16  S   UNL d   1       3.756  -3.130   3.769  0.00  0.00    -0.134 SA
ATOM     17  C   UNL d   1       4.836  -1.858   3.062  0.00  0.00     0.095 C 
ENDBRANCH  12  16
ENDBRANCH   1  10
TORSDOF 5
