REMARK  3 active torsions:
REMARK  status: ('A' for Active; 'I' for Inactive)
REMARK    1  A    between atoms: N_8  and  N_1 
REMARK    2  A    between atoms: S_10  and  C_2 
REMARK    3  A    between atoms: C_11  and  C_7 
ROOT
ATOM      1  N   UNL d   1       1.451  -1.043  -0.162  0.00  0.00    -0.216 N 
ATOM      2  C   UNL d   1       0.129  -1.368  -0.012  0.00  0.00     0.165 A 
ATOM      3  C   UNL d   1       1.555   0.328  -0.133  0.00  0.00     0.291 A 
ATOM      4  C   UNL d   1       0.133   0.742   0.035  0.00  0.00     0.105 A 
ATOM      5  N   UNL d   1      -0.687  -0.363   0.124  0.00  0.00    -0.331 N 
ATOM      6  HN  UNL d   1      -1.697  -0.387   0.264  1.00  0.00     0.168 HD
ATOM      7  C   UNL d   1      -0.236   2.027   0.022  0.00  0.00     0.046 C 
ATOM      8  O   UNL d   1       2.522   1.060  -0.247  0.00  0.00    -0.264 OA
ENDROOT
BRANCH   7   9
ATOM      9  C   UNL d   1      -1.628   2.465   0.095  0.00  0.00    -0.034 A 
ATOM     10  C   UNL d   1      -2.226   2.712   1.335  0.00  0.00     0.013 A 
ATOM     11  C   UNL d   1      -3.548   3.158   1.399  0.00  0.00     0.024 A 
ATOM     12  C   UNL d   1      -4.272   3.352   0.224  0.00  0.00     0.034 A 
ATOM     13  C   UNL d   1      -3.690   3.094  -1.016  0.00  0.00     0.024 A 
ATOM     14 CL   UNL d   1      -5.894   3.921   0.304  0.00  0.00    -0.084 Cl
ATOM     15  C   UNL d   1      -2.368   2.648  -1.081  0.00  0.00     0.013 A 
ENDBRANCH   7   9
BRANCH   1  16
ATOM     16  N   UNL d   1       2.513  -1.941  -0.425  0.00  0.00    -0.228 NA
ATOM     17  C   UNL d   1       3.133  -1.681  -1.728  0.00  0.00     0.136 C 
ATOM     18  C   UNL d   1       3.529  -1.913   0.630  0.00  0.00     0.136 C 
ENDBRANCH   1  16
BRANCH   2  19
ATOM     19  S   UNL d   1      -0.402  -3.018  -0.024  0.00  0.00    -0.097 SA
ATOM     20  C   UNL d   1      -2.172  -2.811   0.301  0.00  0.00     0.099 C 
ENDBRANCH   2  19
TORSDOF 3
