REMARK  2 active torsions:
REMARK  status: ('A' for Active; 'I' for Inactive)
REMARK    1  A    between atoms: N_5  and  C_2 
REMARK       I    between atoms: C_6  and  N_7 
REMARK    2  A    between atoms: C_14  and  C_6 
ROOT
ATOM      1  N   UNL d   1       1.648  -2.782   0.180  0.00  0.00    -0.265 NA
ATOM      2  C   UNL d   1       3.178  -6.632  -0.205  0.00  0.00     0.253 C 
ATOM      3  N   UNL d   1       2.495  -5.498   0.230  0.00  0.00    -0.346 N 
ATOM      4  C   UNL d   1       1.227  -3.675  -0.921  0.00  0.00     0.117 C 
ATOM      5  C   UNL d   1       2.979  -3.142   0.712  0.00  0.00     0.117 C 
ATOM      6  C   UNL d   1       2.880  -4.562   1.296  0.00  0.00     0.141 C 
ATOM      7  C   UNL d   1       1.213  -5.140  -0.411  0.00  0.00     0.141 C 
ATOM      8  O   UNL d   1       2.684  -7.426  -0.999  0.00  0.00    -0.267 OA
ENDROOT
BRANCH   1   9
ATOM      9  C   UNL d   1       1.539  -1.412  -0.056  0.00  0.00     0.103 A 
ATOM     10  C   UNL d   1       1.339  -0.501   0.999  0.00  0.00     0.070 A 
ATOM     11  S   UNL d   1       1.131  -0.806   2.684  0.00  0.00    -0.096 SA
ATOM     12  C   UNL d   1       1.273   0.862   0.731  0.00  0.00     0.060 A 
ATOM     13  C   UNL d   1       0.999   0.852   3.043  0.00  0.00     0.059 A 
ATOM     14  C   UNL d   1       1.083   1.650   1.919  0.00  0.00    -0.027 A 
ATOM     15  C   UNL d   1       0.982   3.137   1.956  0.00  0.00     0.051 C 
ATOM     16  N   UNL d   1       1.388   1.356  -0.527  0.00  0.00    -0.351 N 
ATOM     17  C   UNL d   1       1.548   0.421  -1.469  0.00  0.00     0.182 A 
ATOM     18  HN  UNL d   1       1.356   2.354  -0.736  1.00  0.00     0.166 HD
ATOM     19  N   UNL d   1       1.619  -0.911  -1.307  0.00  0.00    -0.342 N 
ATOM     20  HN  UNL d   1       1.732  -1.529  -2.111  1.00  0.00     0.167 HD
ENDBRANCH   1   9
BRANCH   2  21
ATOM     21  C   UNL d   1       4.560  -6.931   0.276  0.00  0.00     0.032 A 
ATOM     22  C   UNL d   1       4.920  -8.275   0.454  0.00  0.00     0.018 A 
ATOM     23  C   UNL d   1       6.211  -8.614   0.877  0.00  0.00     0.025 A 
ATOM     24  C   UNL d   1       7.139  -7.609   1.139  0.00  0.00     0.034 A 
ATOM     25  C   UNL d   1       6.803  -6.272   0.939  0.00  0.00     0.025 A 
ATOM     26 CL   UNL d   1       8.717  -8.016   1.686  0.00  0.00    -0.084 Cl
ATOM     27  C   UNL d   1       5.530  -5.940   0.465  0.00  0.00     0.018 A 
ENDBRANCH   2  21
TORSDOF 2
