REMARK  2 active torsions:
REMARK  status: ('A' for Active; 'I' for Inactive)
REMARK       I    between atoms: C_7  and  N_12 
REMARK    1  A    between atoms: C_11  and  C_7 
REMARK    2  A    between atoms: N_12  and  C_10 
ROOT
ATOM      1  C   UNL d   1      -1.141   1.289   0.893  0.00  0.00     0.069 A 
ATOM      2  S   UNL d   1       0.798   2.559   1.564  0.00  0.00     0.068 SA
ATOM      3  C   UNL d   1       0.069   0.412   0.742  0.00  0.00     0.067 A 
ATOM      4  C   UNL d   1      -2.436   0.804   0.581  0.00  0.00     0.061 A 
ATOM      5  N   UNL d   1      -0.849   2.517   1.350  0.00  0.00    -0.310 N 
ATOM      6  HN  UNL d   1      -1.507   3.274   1.530  1.00  0.00     0.176 HD
ATOM      7  N   UNL d   1       1.213   1.022   1.084  0.00  0.00    -0.310 N 
ATOM      8  HN  UNL d   1       2.152   0.623   1.056  1.00  0.00     0.176 HD
ATOM      9  C   UNL d   1      -2.526  -0.533   0.148  0.00  0.00     0.037 A 
ATOM     10  C   UNL d   1      -0.058  -0.919   0.285  0.00  0.00     0.035 A 
ATOM     11  C   UNL d   1      -1.371  -1.354   0.010  0.00  0.00     0.032 A 
ENDROOT
BRANCH   9  12
ATOM     12  N   UNL d   1      -3.769  -1.156  -0.116  0.00  0.00    -0.322 N 
ATOM     13  C   UNL d   1      -5.013  -0.548  -0.198  0.00  0.00     0.263 C 
ATOM     14  O   UNL d   1      -5.175   0.668  -0.269  0.00  0.00    -0.267 OA
ATOM     15  H   UNL d   1      -3.766  -2.161  -0.240  0.00  0.00     0.169 HD
BRANCH  13  16
ATOM     16  C   UNL d   1      -6.156  -1.459  -0.198  0.00  0.00     0.072 A 
ATOM     17  S   UNL d   1      -5.995  -3.158  -0.035  0.00  0.00    -0.097 SA
ATOM     18  C   UNL d   1      -7.690  -3.386  -0.009  0.00  0.00     0.050 A 
ATOM     19  C   UNL d   1      -8.373  -2.201  -0.156  0.00  0.00     0.009 A 
ATOM     20  C   UNL d   1      -7.489  -1.093  -0.280  0.00  0.00     0.025 A 
ENDBRANCH  13  16
ENDBRANCH   9  12
TORSDOF 2
