REMARK  1 active torsions:
REMARK  status: ('A' for Active; 'I' for Inactive)
REMARK    1  A    between atoms: C_8  and  C_1 
ROOT
ATOM      1  C   UNL d   1       1.661  -1.594  -0.011  0.00  0.00     0.162 A 
ATOM      2  N   UNL d   1       0.410  -1.920  -0.038  0.00  0.00    -0.335 N 
ATOM      3  HN  UNL d   1       0.117  -2.896  -0.068  1.00  0.00     0.168 HD
ATOM      4  O   UNL d   1       2.161  -0.341   0.022  0.00  0.00    -0.257 OA
ATOM      5  C   UNL d   1       1.319   0.720   0.028  0.00  0.00     0.302 A 
ATOM      6  C   UNL d   1      -0.121   0.443   0.005  0.00  0.00     0.066 A 
ATOM      7  C   UNL d   1      -0.518  -0.885  -0.026  0.00  0.00     0.050 A 
ATOM      8  O   UNL d   1       1.737   1.872   0.055  0.00  0.00    -0.259 OA
ATOM      9  C   UNL d   1      -1.063   1.478   0.020  0.00  0.00     0.020 A 
ATOM     10  C   UNL d   1      -1.881  -1.187  -0.038  0.00  0.00     0.030 A 
ATOM     11  C   UNL d   1      -2.423   1.169   0.006  0.00  0.00     0.001 A 
ATOM     12  C   UNL d   1      -2.832  -0.165  -0.021  0.00  0.00     0.002 A 
ENDROOT
BRANCH   1  13
ATOM     13  C   UNL d   1       2.748  -2.606   0.001  0.00  0.00     0.017 A 
ATOM     14  C   UNL d   1       4.099  -2.244   0.071  0.00  0.00     0.039 A 
ATOM     15  C   UNL d   1       5.078  -3.236   0.115  0.00  0.00     0.035 A 
ATOM     16 CL   UNL d   1       6.737  -2.791   0.221  0.00  0.00    -0.084 Cl
ATOM     17  C   UNL d   1       4.728  -4.586   0.082  0.00  0.00     0.024 A 
ATOM     18  C   UNL d   1       3.386  -4.952   0.000  0.00  0.00     0.003 A 
ATOM     19  C   UNL d   1       2.399  -3.966  -0.040  0.00  0.00     0.016 A 
ENDBRANCH   1  13
TORSDOF 1
