REMARK  5 active torsions:
REMARK  status: ('A' for Active; 'I' for Inactive)
REMARK    1  A    between atoms: C_13  and  N_4 
REMARK    2  A    between atoms: N_10  and  C_14 
REMARK    3  A    between atoms: C_12  and  C_13 
REMARK       I    between atoms: N_20  and  C_12 
REMARK    4  A    between atoms: N_15  and  N_20 
REMARK    5  A    between atoms: C_25  and  C_24 
ROOT
ATOM      1  C   UNL d   1       5.451   1.312  -0.267  0.00  0.00     0.254 C 
ATOM      2  N   UNL d   1       6.012   0.574   0.766  0.00  0.00    -0.269 N 
ATOM      3  O   UNL d   1       5.948   1.482  -1.379  0.00  0.00    -0.270 OA
ATOM      4  H   UNL d   1       5.472   0.374   1.611  0.00  0.00     0.190 HD
ENDROOT
BRANCH   1   5
ATOM      5  C   UNL d   1       4.124   1.957   0.104  0.00  0.00     0.237 C 
BRANCH   5   6
ATOM      6  N   UNL d   1       3.005   1.030   0.078  0.00  0.00    -0.301 N 
ATOM      7  C   UNL d   1       2.793   0.209   1.185  0.00  0.00     0.262 A 
ATOM      8  C   UNL d   1       1.500  -0.453   1.194  0.00  0.00     0.073 A 
ATOM      9  O   UNL d   1       3.628   0.080   2.085  0.00  0.00    -0.267 OA
ATOM     10  C   UNL d   1       0.640  -0.179   0.150  0.00  0.00     0.091 A 
ATOM     11  C   UNL d   1       0.934  -1.391   2.123  0.00  0.00    -0.026 C 
ATOM     12  N   UNL d   1       0.918   0.552  -0.959  0.00  0.00    -0.346 N 
ATOM     13  S   UNL d   1      -0.901  -0.869   0.391  0.00  0.00    -0.075 SA
ATOM     14  C   UNL d   1       2.083   1.113  -0.950  0.00  0.00     0.187 A 
ATOM     15  HN  UNL d   1       0.263   0.651  -1.734  1.00  0.00     0.167 HD
ATOM     16  C   UNL d   1      -0.393  -1.638   1.818  0.00  0.00    -0.008 C 
ATOM     17  C   UNL d   1      -1.310  -2.504   2.622  0.00  0.00     0.047 C 
ATOM     18  C   UNL d   1      -0.483  -3.541   3.391  0.00  0.00     0.005 C 
ATOM     19  C   UNL d   1       0.665  -2.874   4.163  0.00  0.00     0.005 C 
ATOM     20  C   UNL d   1       1.632  -2.098   3.248  0.00  0.00     0.041 C 
ENDBRANCH   5   6
ENDBRANCH   1   5
BRANCH   2  21
ATOM     21  N   UNL d   1       7.252   0.043   0.603  0.00  0.00    -0.308 N 
ATOM     22  C   UNL d   1       7.734  -0.609   1.610  0.00  0.00     0.118 C 
ATOM     23  HN  UNL d   1       7.773   0.153  -0.267  1.00  0.00     0.186 HD
BRANCH  22  24
ATOM     24  C   UNL d   1       9.087  -1.207   1.540  0.00  0.00    -0.019 A 
ATOM     25  C   UNL d   1       9.827  -1.139   0.350  0.00  0.00     0.015 A 
ATOM     26  C   UNL d   1      11.110  -1.684   0.287  0.00  0.00     0.037 A 
ATOM     27  C   UNL d   1      11.655  -2.295   1.425  0.00  0.00     0.102 A 
ATOM     28  C   UNL d   1      10.914  -2.370   2.616  0.00  0.00     0.037 A 
ATOM     29  C   UNL d   1       9.629  -1.826   2.672  0.00  0.00     0.015 A 
BRANCH  27  30
ATOM     30  N   UNL d   1      13.007  -2.857   1.370  0.00  0.00    -0.116 N 
ATOM     31  O   UNL d   1      13.646  -2.732   0.312  0.00  0.00    -0.532 OA
ATOM     32  O   UNL d   1      13.441  -3.419   2.386  0.00  0.00    -0.532 OA
ENDBRANCH  27  30
ENDBRANCH  22  24
ENDBRANCH   2  21
TORSDOF 5
