REMARK  5 active torsions:
REMARK  status: ('A' for Active; 'I' for Inactive)
REMARK    1  A    between atoms: N_7  and  C_2 
REMARK    2  A    between atoms: N_13  and  N_8 
REMARK       I    between atoms: C_9  and  N_13 
REMARK    3  A    between atoms: C_10  and  C_9 
REMARK    4  A    between atoms: C_12  and  C_11 
REMARK    5  A    between atoms: O_18  and  C_12 
ROOT
ATOM      1  C   UNL d   1       2.011  -4.753  -0.402  0.00  0.00     0.271 C 
ATOM      2  N   UNL d   1       1.055  -3.774  -0.238  0.00  0.00    -0.264 N 
ATOM      3  O   UNL d   1       3.220  -4.533  -0.419  0.00  0.00    -0.266 OA
ATOM      4  H   UNL d   1       0.079  -3.943  -0.517  0.00  0.00     0.190 HD
ENDROOT
BRANCH   2   5
ATOM      5  N   UNL d   1       1.470  -2.440  -0.229  0.00  0.00    -0.279 N 
ATOM      6  C   UNL d   1       0.603  -1.433   0.054  0.00  0.00     0.172 A 
ATOM      7  C   UNL d   1      -0.595  -1.383   0.746  0.00  0.00     0.173 A 
ATOM      8  N   UNL d   1       0.823  -0.128  -0.336  0.00  0.00    -0.278 N 
ATOM      9  C   UNL d   1      -1.049  -0.048   0.663  0.00  0.00     0.059 A 
ATOM     10  C   UNL d   1      -2.307   0.550   1.178  0.00  0.00     0.072 C 
ATOM     11  N   UNL d   1      -0.178   0.718  -0.004  0.00  0.00    -0.299 N 
ATOM     12  HN  UNL d   1      -0.252   1.713  -0.215  1.00  0.00     0.187 HD
ATOM     13  C   UNL d   1       1.941   0.424  -1.064  0.00  0.00     0.179 C 
ATOM     14  H   UNL d   1       2.364  -2.311  -0.710  0.00  0.00     0.189 HD
BRANCH   7  15
ATOM     15  N   UNL d   1      -1.237  -2.450   1.440  0.00  0.00    -0.110 N 
ATOM     16  O   UNL d   1      -1.513  -3.471   0.797  0.00  0.00    -0.532 OA
ATOM     17  O   UNL d   1      -1.505  -2.251   2.633  0.00  0.00    -0.532 OA
ENDBRANCH   7  15
ENDBRANCH   2   5
BRANCH   1  18
ATOM     18  C   UNL d   1       1.520  -6.154  -0.482  0.00  0.00     0.050 A 
ATOM     19  C   UNL d   1       0.511  -6.613  -1.343  0.00  0.00     0.053 A 
ATOM     20  C   UNL d   1       0.119  -7.965  -1.305  0.00  0.00     0.019 A 
ATOM     21  C   UNL d   1       0.760  -8.862  -0.451  0.00  0.00     0.001 A 
ATOM     22  C   UNL d   1       1.788  -8.419   0.376  0.00  0.00     0.001 A 
ATOM     23  C   UNL d   1       2.166  -7.075   0.361  0.00  0.00     0.018 A 
BRANCH  19  24
ATOM     24  C   UNL d   1      -0.170  -5.729  -2.312  0.00  0.00     0.177 C 
ATOM     25  O   UNL d   1      -0.630  -4.641  -2.020  0.00  0.00    -0.646 OA
BRANCH  24  26
ATOM     26  O   UNL d   1      -0.233  -6.254  -3.553  0.00  0.00    -0.773 OA
ATOM     27  H   UNL d   1       0.250  -7.092  -3.684  0.00  0.00     0.167 HD
ENDBRANCH  24  26
ENDBRANCH  19  24
ENDBRANCH   1  18
TORSDOF 5
