REMARK  5 active torsions:
REMARK  status: ('A' for Active; 'I' for Inactive)
REMARK    1  A    between atoms: N_2  and  S_1 
REMARK    2  A    between atoms: C_4  and  S_1 
REMARK       I    between atoms: C_3  and  N_2 
REMARK       I    between atoms: N_5  and  C_3 
REMARK    3  A    between atoms: C_11  and  N_5 
REMARK    4  A    between atoms: C_12  and  C_11 
REMARK    5  A    between atoms: C_15  and  C_12 
ROOT
ATOM      1  N   UNL d   1       0.769   0.549   1.286  0.00  0.00    -0.232 N 
ATOM      2  C   UNL d   1       0.929   0.061   2.576  0.00  0.00     0.331 C 
ATOM      3  N   UNL d   1       1.624  -1.129   2.744  0.00  0.00    -0.337 N 
ATOM      4  O   UNL d   1       0.471   0.694   3.518  0.00  0.00    -0.246 OA
ATOM      5  C   UNL d   1       2.240  -1.900   1.671  0.00  0.00     0.154 C 
ATOM      6  H   UNL d   1       1.244   0.167   0.485  0.00  0.00     0.183 HD
ENDROOT
BRANCH   1   7
ATOM      7  S   UNL d   1      -0.283   1.760   0.854  0.00  0.00     0.266 S 
ATOM      8  O   UNL d   1      -1.627   1.351   1.199  0.00  0.00    -0.200 OA
ATOM      9  O   UNL d   1       0.050   2.061  -0.526  0.00  0.00    -0.200 OA
BRANCH   7  10
ATOM     10  C   UNL d   1       0.153   3.192   1.813  0.00  0.00     0.080 A 
ATOM     11  C   UNL d   1       1.169   4.045   1.375  0.00  0.00     0.026 A 
ATOM     12  C   UNL d   1       1.368   5.272   2.018  0.00  0.00     0.008 A 
ATOM     13  C   UNL d   1       0.547   5.659   3.087  0.00  0.00    -0.062 A 
ATOM     14  C   UNL d   1      -0.448   4.783   3.537  0.00  0.00     0.008 A 
ATOM     15  C   UNL d   1       0.708   7.018   3.707  0.00  0.00     0.048 C 
ATOM     16  C   UNL d   1      -0.649   3.556   2.900  0.00  0.00     0.026 A 
ENDBRANCH   7  10
ENDBRANCH   1   7
BRANCH   3  17
ATOM     17  C   UNL d   1       1.994  -1.585   4.101  0.00  0.00     0.133 C 
BRANCH  17  18
ATOM     18  C   UNL d   1       0.935  -1.479   5.210  0.00  0.00     0.077 C 
BRANCH  18  19
ATOM     19  C   UNL d   1       1.385  -2.110   6.509  0.00  0.00     0.010 A 
ATOM     20  N   UNL d   1       2.208  -3.185   6.448  0.00  0.00    -0.369 N 
ATOM     21  C   UNL d   1       2.580  -3.753   7.616  0.00  0.00     0.088 A 
ATOM     22  HN  UNL d   1       2.534  -3.552   5.554  1.00  0.00     0.165 HD
ATOM     23  C   UNL d   1       2.163  -3.308   8.858  0.00  0.00     0.017 A 
ATOM     24  C   UNL d   1       1.310  -2.213   8.908  0.00  0.00     0.003 A 
ATOM     25  C   UNL d   1       0.909  -1.608   7.720  0.00  0.00     0.025 A 
ENDBRANCH  18  19
ENDBRANCH  17  18
ENDBRANCH   3  17
TORSDOF 5
