REMARK  4 active torsions:
REMARK  status: ('A' for Active; 'I' for Inactive)
REMARK    1  A    between atoms: C_6  and  C_1 
REMARK    2  A    between atoms: C_7  and  N_2 
REMARK    3  A    between atoms: O_14  and  C_6 
REMARK    4  A    between atoms: C_8  and  C_7 
ROOT
ATOM      1  C   UNL d   1      -0.482  -1.204   0.019  0.00  0.00     0.061 A 
ATOM      2  N   UNL d   1       0.889   0.580   0.035  0.00  0.00    -0.349 N 
ATOM      3  C   UNL d   1       0.851  -0.804   0.101  0.00  0.00     0.025 A 
ATOM      4  C   UNL d   1      -1.260  -0.014  -0.024  0.00  0.00     0.045 A 
ATOM      5  C   UNL d   1      -0.404   1.070   0.006  0.00  0.00     0.009 A 
ATOM      6  C   UNL d   1       2.057  -1.679   0.209  0.00  0.00     0.069 C 
ATOM      7  C   UNL d   1      -0.740   2.521  -0.030  0.00  0.00     0.068 C 
ENDROOT
BRANCH   2   8
ATOM      8  C   UNL d   1       2.094   1.418   0.002  0.00  0.00     0.174 C 
BRANCH   8   9
ATOM      9  C   UNL d   1       2.458   1.821  -1.399  0.00  0.00     0.001 A 
ATOM     10  S   UNL d   1       3.030   3.415  -1.691  0.00  0.00    -0.105 SA
ATOM     11  C   UNL d   1       3.142   3.140  -3.373  0.00  0.00     0.050 A 
ATOM     12  C   UNL d   1       2.799   1.851  -3.710  0.00  0.00     0.008 A 
ATOM     13  C   UNL d   1       2.426   1.083  -2.569  0.00  0.00     0.017 A 
ENDBRANCH   8   9
ENDBRANCH   2   8
BRANCH   1  14
ATOM     14  C   UNL d   1      -0.944  -2.594  -0.027  0.00  0.00     0.178 C 
ATOM     15  O   UNL d   1      -0.265  -3.530  -0.424  0.00  0.00    -0.646 OA
BRANCH  14  16
ATOM     16  O   UNL d   1      -2.210  -2.776   0.431  0.00  0.00    -0.773 OA
ATOM     17  H   UNL d   1      -2.567  -1.965   0.829  0.00  0.00     0.167 HD
ENDBRANCH  14  16
ENDBRANCH   1  14
TORSDOF 4
