REMARK  5 active torsions:
REMARK  status: ('A' for Active; 'I' for Inactive)
REMARK    1  A    between atoms: C_8  and  N_1 
REMARK    2  A    between atoms: S_13  and  C_2 
REMARK    3  A    between atoms: C_9  and  C_7 
REMARK    4  A    between atoms: C_10  and  C_8 
REMARK    5  A    between atoms: O_18  and  C_16 
ROOT
ATOM      1  N   UNL d   1       1.448  -1.035  -0.207  0.00  0.00    -0.286 N 
ATOM      2  C   UNL d   1       0.128  -1.351  -0.100  0.00  0.00     0.150 A 
ATOM      3  C   UNL d   1       0.119   0.755  -0.093  0.00  0.00     0.104 A 
ATOM      4  C   UNL d   1       1.538   0.328  -0.220  0.00  0.00     0.276 A 
ATOM      5  N   UNL d   1      -0.693  -0.352  -0.025  0.00  0.00    -0.332 N 
ATOM      6  HN  UNL d   1      -1.708  -0.380   0.063  1.00  0.00     0.168 HD
ATOM      7  C   UNL d   1      -0.249   2.039  -0.043  0.00  0.00     0.049 C 
ATOM      8  O   UNL d   1       2.520   1.040  -0.294  0.00  0.00    -0.265 OA
ENDROOT
BRANCH   7   9
ATOM      9  C   UNL d   1      -1.654   2.449   0.050  0.00  0.00    -0.001 A 
ATOM     10  C   UNL d   1      -2.317   2.639   1.270  0.00  0.00     0.075 A 
ATOM     11  C   UNL d   1      -3.658   3.017   1.302  0.00  0.00     0.037 A 
ATOM     12  C   UNL d   1      -4.359   3.192   0.110  0.00  0.00     0.003 A 
ATOM     13  C   UNL d   1      -3.714   3.005  -1.112  0.00  0.00     0.001 A 
ATOM     14  C   UNL d   1      -2.367   2.639  -1.141  0.00  0.00     0.014 A 
BRANCH  10  15
ATOM     15  O   UNL d   1      -1.709   2.464   2.484  0.00  0.00    -0.360 OA
ATOM     16  H   UNL d   1      -0.886   1.972   2.337  0.00  0.00     0.217 HD
ENDBRANCH  10  15
ENDBRANCH   7   9
BRANCH   1  17
ATOM     17  C   UNL d   1       2.621  -1.885  -0.246  0.00  0.00     0.199 C 
BRANCH  17  18
ATOM     18  C   UNL d   1       2.992  -2.206  -1.650  0.00  0.00     0.070 A 
ATOM     19  O   UNL d   1       2.998  -3.529  -1.988  0.00  0.00    -0.325 OA
ATOM     20  C   UNL d   1       3.370  -3.607  -3.292  0.00  0.00     0.142 A 
ATOM     21  C   UNL d   1       3.610  -2.353  -3.799  0.00  0.00     0.027 A 
ATOM     22  C   UNL d   1       3.389  -1.446  -2.734  0.00  0.00     0.036 A 
ENDBRANCH  17  18
ENDBRANCH   1  17
BRANCH   2  23
ATOM     23  S   UNL d   1      -0.383  -3.005  -0.049  0.00  0.00    -0.098 SA
ATOM     24  C   UNL d   1      -2.182  -2.821   0.071  0.00  0.00     0.099 C 
ENDBRANCH   2  23
TORSDOF 5
