REMARK  2 active torsions:
REMARK  status: ('A' for Active; 'I' for Inactive)
REMARK    1  A    between atoms: C_2  and  C_1 
REMARK       I    between atoms: N_7  and  C_2 
REMARK    2  A    between atoms: C_12  and  N_7 
ROOT
ATOM      1  C   UNL d   1      -3.302  -1.808   0.081  0.00  0.00     0.265 C 
ATOM      2  N   UNL d   1      -4.558  -1.177  -0.070  0.00  0.00    -0.318 N 
ATOM      3  O   UNL d   1      -3.220  -3.020   0.309  0.00  0.00    -0.267 OA
ATOM      4  C   UNL d   1      -4.763   0.273  -0.115  0.00  0.00     0.159 C 
ENDROOT
BRANCH   1   5
ATOM      5  C   UNL d   1      -2.054  -1.045  -0.026  0.00  0.00     0.075 A 
ATOM      6  S   UNL d   1      -1.780   0.162  -1.219  0.00  0.00    -0.084 SA
ATOM      7  C   UNL d   1      -0.151   0.404  -0.647  0.00  0.00     0.023 A 
ATOM      8  C   UNL d   1       0.914   1.302  -0.963  0.00  0.00     0.027 A 
ATOM      9  C   UNL d   1       0.180  -0.492   0.328  0.00  0.00     0.023 A 
ATOM     10  C   UNL d   1       2.035   1.008  -0.220  0.00  0.00     0.052 A 
ATOM     11  S   UNL d   1       1.837  -0.319   0.846  0.00  0.00    -0.101 SA
ATOM     12  C   UNL d   1      -0.900  -1.350   0.679  0.00  0.00     0.044 A 
ENDBRANCH   1   5
BRANCH   2  13
ATOM     13  C   UNL d   1      -5.761  -1.951  -0.037  0.00  0.00     0.037 A 
ATOM     14  C   UNL d   1      -5.976  -2.914   0.957  0.00  0.00     0.029 A 
ATOM     15  C   UNL d   1      -7.178  -3.624   1.011  0.00  0.00     0.002 A 
ATOM     16  C   UNL d   1      -8.166  -3.398   0.057  0.00  0.00     0.000 A 
ATOM     17  C   UNL d   1      -7.960  -2.452  -0.945  0.00  0.00     0.002 A 
ATOM     18  C   UNL d   1      -6.770  -1.719  -0.982  0.00  0.00     0.029 A 
ENDBRANCH   2  13
TORSDOF 2
