REMARK  9 active torsions:
REMARK  status: ('A' for Active; 'I' for Inactive)
REMARK    1  A    between atoms: C1*_5  and  N_1 
REMARK    2  A    between atoms: N_17  and  C_4 
REMARK    3  A    between atoms: C2*_12  and  O2*_20 
REMARK    4  A    between atoms: N_19  and  C_13 
REMARK    5  A    between atoms: C3*_15  and  O3*_21 
REMARK    6  A    between atoms: C4*_16  and  C5*_23 
REMARK    7  A    between atoms: C_22  and  N_17 
REMARK    8  A    between atoms: C_24  and  C_22 
REMARK    9  A    between atoms: O5*_25  and  C5*_23 
ROOT
ATOM      1  N   UNL d   1       1.569  -1.190   0.100  0.00  0.00    -0.135 N 
ATOM      2  C   UNL d   1       0.263  -0.764   0.084  0.00  0.00     0.174 A 
ATOM      3  C   UNL d   1       0.336   0.602  -0.041  0.00  0.00     0.163 A 
ATOM      4  C   UNL d   1       2.366  -0.059  -0.019  0.00  0.00     0.685 A 
ATOM      5  N   UNL d   1       1.628   1.027  -0.132  0.00  0.00    -0.182 N 
ATOM      6  HN  UNL d   1       1.955   1.984  -0.261  1.00  0.00     0.184 HD
ATOM      7  N   UNL d   1      -0.850  -1.533   0.180  0.00  0.00    -0.173 N 
ATOM      8  HN  UNL d   1      -0.824  -2.550   0.259  1.00  0.00     0.186 HD
ATOM      9  C   UNL d   1      -0.897   1.354  -0.057  0.00  0.00     0.290 A 
ATOM     10  N   UNL d   1      -2.009   0.532   0.040  0.00  0.00    -0.154 N 
ATOM     11  C   UNL d   1      -1.959  -0.841   0.160  0.00  0.00     0.680 A 
ATOM     12  O   UNL d   1      -0.994   2.575  -0.143  0.00  0.00    -0.265 OA
ATOM     13  H   UNL d   1      -2.892   1.014   0.087  0.00  0.00     0.187 HD
ENDROOT
BRANCH   1  14
ATOM     14  C1* UNL d   1       2.011  -2.566   0.182  0.00  0.00     0.279 C 
ATOM     15  C2* UNL d   1       1.632  -3.441  -1.024  0.00  0.00     0.199 C 
ATOM     16  C3* UNL d   1       0.694  -4.495  -0.446  0.00  0.00     0.182 C 
ATOM     17  C4* UNL d   1       1.059  -4.511   1.033  0.00  0.00     0.179 C 
ATOM     18  O4* UNL d   1       1.469  -3.175   1.372  0.00  0.00    -0.353 OA
BRANCH  15  19
ATOM     19  O2* UNL d   1       2.785  -4.087  -1.604  0.00  0.00    -0.388 OA
ATOM     20  H2* UNL d   1       3.273  -4.545  -0.894  0.00  0.00     0.210 HD
ENDBRANCH  15  19
BRANCH  16  21
ATOM     21  O3* UNL d   1       0.895  -5.780  -1.034  0.00  0.00    -0.390 OA
ATOM     22  H3* UNL d   1       1.481  -5.649  -1.806  0.00  0.00     0.210 HD
ENDBRANCH  16  21
BRANCH  17  23
ATOM     23  C5* UNL d   1      -0.092  -4.935   1.945  0.00  0.00     0.198 C 
BRANCH  23  24
ATOM     24  O5* UNL d   1      -1.238  -4.106   1.766  0.00  0.00    -0.398 OA
ATOM     25  H5* UNL d   1      -0.914  -3.181   1.726  0.00  0.00     0.209 HD
ENDBRANCH  23  24
ENDBRANCH  17  23
ENDBRANCH   1  14
BRANCH   4  26
ATOM     26  N   UNL d   1       3.716  -0.088  -0.002  0.00  0.00    -0.221 N 
ATOM     27  H   UNL d   1       4.271  -0.932   0.029  0.00  0.00     0.178 HD
BRANCH  26  28
ATOM     28  C   UNL d   1       4.440   1.074  -0.496  0.00  0.00     0.176 C 
BRANCH  28  29
ATOM     29  C   UNL d   1       5.755   1.236   0.230  0.00  0.00    -0.040 A 
ATOM     30  C   UNL d   1       6.976   1.093  -0.445  0.00  0.00     0.009 A 
ATOM     31  C   UNL d   1       8.183   1.336   0.215  0.00  0.00     0.001 A 
ATOM     32  C   UNL d   1       8.183   1.718   1.555  0.00  0.00     0.000 A 
ATOM     33  C   UNL d   1       6.978   1.847   2.242  0.00  0.00     0.001 A 
ATOM     34  C   UNL d   1       5.770   1.605   1.584  0.00  0.00     0.009 A 
ENDBRANCH  28  29
ENDBRANCH  26  28
ENDBRANCH   4  26
BRANCH  11  35
ATOM     35  N   UNL d   1      -3.156  -1.474   0.256  0.00  0.00    -0.234 N 
ATOM     36  H   UNL d   1      -3.942  -1.074  -0.234  0.00  0.00     0.174 HD
ATOM     37  H   UNL d   1      -3.086  -2.485   0.149  0.00  0.00     0.174 HD
ENDBRANCH  11  35
TORSDOF 9
