REMARK  4 active torsions:
REMARK  status: ('A' for Active; 'I' for Inactive)
REMARK    1  A    between atoms: N_6  and  C_1 
REMARK    2  A    between atoms: C_7  and  C_12 
REMARK    3  A    between atoms: C_10  and  C_7 
REMARK    4  A    between atoms: C_12  and  N_8 
ROOT
ATOM      1  N   UNL d   1      -0.087   2.754   0.750  0.00  0.00     0.105 N 
ATOM      2  N   UNL d   1      -2.244   2.219   2.816  0.00  0.00     0.099 N 
ATOM      3  C   UNL d   1       0.206   2.186   2.071  0.00  0.00     0.304 C 
ATOM      4  C   UNL d   1      -1.243   3.643   0.863  0.00  0.00     0.304 C 
ATOM      5  C   UNL d   1      -0.976   1.471   2.750  0.00  0.00     0.303 C 
ATOM      6  C   UNL d   1      -2.458   3.144   1.688  0.00  0.00     0.303 C 
ENDROOT
BRANCH   2   7
ATOM      7  C   UNL d   1      -2.432   2.819   4.141  0.00  0.00     0.356 C 
BRANCH   7   8
ATOM      8  C   UNL d   1      -3.816   3.430   4.325  0.00  0.00     0.187 C 
ATOM      9  O   UNL d   1      -3.936   4.652   4.489  0.00  0.00    -0.290 OA
BRANCH   8  10
ATOM     10  C   UNL d   1      -5.047   2.583   4.354  0.00  0.00     0.014 C 
ATOM     11  C   UNL d   1      -5.058   1.228   4.011  0.00  0.00     0.054 C 
ATOM     12  C   UNL d   1      -6.268   0.519   3.994  0.00  0.00     0.102 C 
ATOM     13  O   UNL d   1      -6.202  -0.739   3.439  0.00  0.00    -0.348 OA
ATOM     14  C   UNL d   1      -7.453   1.112   4.453  0.00  0.00     0.102 C 
ATOM     15  C   UNL d   1      -7.306  -0.963   2.552  0.00  0.00     0.178 C 
ATOM     16  C   UNL d   1      -8.475  -1.568   3.308  0.00  0.00     0.053 C 
ATOM     17  C   UNL d   1      -8.635  -0.928   4.678  0.00  0.00     0.178 C 
ATOM     18  O   UNL d   1      -8.673   0.497   4.573  0.00  0.00    -0.348 OA
ATOM     19  C   UNL d   1      -7.446   2.466   4.776  0.00  0.00     0.040 C 
ATOM     20  C   UNL d   1      -6.260   3.200   4.707  0.00  0.00     0.018 C 
ENDBRANCH   8  10
ENDBRANCH   7   8
ENDBRANCH   2   7
BRANCH   1  21
ATOM     21  C   UNL d   1      -0.068   1.825  -0.400  0.00  0.00     0.290 C 
ATOM     22  C   UNL d   1       1.314   1.158  -0.523  0.00  0.00    -0.009 A 
ATOM     23  C   UNL d   1       1.197  -0.240  -0.369  0.00  0.00    -0.017 A 
ATOM     24  C   UNL d   1       2.553   1.759  -0.694  0.00  0.00     0.010 A 
ATOM     25  C   UNL d   1       2.320  -1.052  -0.393  0.00  0.00     0.013 A 
ATOM     26  C   UNL d   1      -0.199  -0.580  -0.214  0.00  0.00    -0.017 C 
ATOM     27  C   UNL d   1       3.571  -0.451  -0.562  0.00  0.00     0.001 A 
ATOM     28  C   UNL d   1       3.686   0.941  -0.709  0.00  0.00     0.001 A 
ATOM     29  C   UNL d   1      -0.974   0.595  -0.340  0.00  0.00    -0.009 C 
ATOM     30  C   UNL d   1      -0.799  -1.805   0.036  0.00  0.00     0.013 C 
ATOM     31  C   UNL d   1      -2.359   0.513  -0.383  0.00  0.00     0.010 C 
ATOM     32  C   UNL d   1      -2.966  -0.713  -0.106  0.00  0.00     0.001 C 
ATOM     33  C   UNL d   1      -2.190  -1.859   0.128  0.00  0.00     0.001 C 
ENDBRANCH   1  21
TORSDOF 4
