REMARK  2 active torsions:
REMARK  status: ('A' for Active; 'I' for Inactive)
REMARK       I    between atoms: C_7  and  N_1 
REMARK    1  A    between atoms: C_9  and  C_6 
REMARK       I    between atoms: N_10  and  C_7 
REMARK    2  A    between atoms: C_19  and  N_10 
ROOT
ATOM      1  N   UNL d   1      -3.089   1.047  -0.029  0.00  0.00    -0.232 N 
ATOM      2  N   UNL d   1      -1.787   1.511  -0.150  0.00  0.00    -0.297 N 
ATOM      3  HN  UNL d   1      -1.481   2.449  -0.408  1.00  0.00     0.187 HD
ATOM      4  C   UNL d   1      -1.044   0.481   0.139  0.00  0.00     0.043 C 
ATOM      5  C   UNL d   1      -1.776  -0.727   0.674  0.00  0.00     0.068 C 
ATOM      6  C   UNL d   1      -3.179  -0.400   0.192  0.00  0.00     0.163 C 
ATOM      7  C   UNL d   1      -4.222   1.844  -0.078  0.00  0.00     0.342 C 
ATOM      8  C   UNL d   1       0.419   0.419   0.073  0.00  0.00    -0.005 A 
ATOM      9  N   UNL d   1      -3.959   3.177  -0.303  0.00  0.00    -0.307 N 
ATOM     10  C   UNL d   1      -1.140  -2.081   0.382  0.00  0.00     0.018 C 
ATOM     11  O   UNL d   1      -5.341   1.354   0.078  0.00  0.00    -0.245 OA
ATOM     12  C   UNL d   1       0.990  -0.841  -0.175  0.00  0.00    -0.046 A 
ATOM     13  C   UNL d   1       0.107  -2.016  -0.500  0.00  0.00     0.040 C 
ATOM     14  C   UNL d   1       1.206   1.550   0.272  0.00  0.00     0.014 A 
ATOM     15  C   UNL d   1       2.386  -0.947  -0.212  0.00  0.00     0.008 A 
ATOM     16  C   UNL d   1       2.595   1.423   0.248  0.00  0.00     0.001 A 
ATOM     17  C   UNL d   1       3.183   0.177   0.009  0.00  0.00     0.001 A 
ATOM     18  H   UNL d   1      -2.982   3.357  -0.504  0.00  0.00     0.170 HD
ENDROOT
BRANCH   6  19
ATOM     19  C   UNL d   1      -3.635  -1.077  -1.081  0.00  0.00     0.008 A 
ATOM     20  S   UNL d   1      -5.028  -2.088  -1.024  0.00  0.00    -0.104 SA
ATOM     21  C   UNL d   1      -4.995  -2.353  -2.708  0.00  0.00     0.050 A 
ATOM     22  C   UNL d   1      -3.920  -1.735  -3.306  0.00  0.00     0.008 A 
ATOM     23  C   UNL d   1      -3.134  -1.000  -2.369  0.00  0.00     0.017 A 
ENDBRANCH   6  19
BRANCH   9  24
ATOM     24  C   UNL d   1      -4.918   4.199  -0.465  0.00  0.00     0.036 A 
ATOM     25  C   UNL d   1      -6.276   4.024  -0.171  0.00  0.00     0.031 A 
ATOM     26  C   UNL d   1      -7.211   5.022  -0.453  0.00  0.00     0.026 A 
ATOM     27  C   UNL d   1      -6.789   6.218  -1.019  0.00  0.00     0.034 A 
ATOM     28  C   UNL d   1      -5.435   6.436  -1.262  0.00  0.00     0.026 A 
ATOM     29 CL   UNL d   1      -7.947   7.422  -1.429  0.00  0.00    -0.084 Cl
ATOM     30  C   UNL d   1      -4.499   5.432  -0.976  0.00  0.00     0.031 A 
ENDBRANCH   9  24
TORSDOF 2
