REMARK  2 active torsions:
REMARK  status: ('A' for Active; 'I' for Inactive)
REMARK    1  A    between atoms: C_2  and  S_1 
REMARK    2  A    between atoms: N_8  and  S_1 
ROOT
ATOM      1  C   UNL d   1       0.448   0.605   1.535  0.00  0.00     0.096 A 
ATOM      2  C   UNL d   1       0.596   1.968   1.817  0.00  0.00     0.059 A 
ATOM      3  C   UNL d   1      -0.103  -0.260   2.494  0.00  0.00     0.029 A 
ATOM      4  C   UNL d   1       0.194   2.460   3.062  0.00  0.00     0.067 A 
ATOM      5  C   UNL d   1      -0.351   1.596   4.004  0.00  0.00     0.118 A 
ATOM      6 CL   UNL d   1       1.266   3.119   0.716  0.00  0.00    -0.083 Cl
ATOM      7  C   UNL d   1      -0.503   0.242   3.733  0.00  0.00     0.044 A 
ATOM      8  F   UNL d   1      -0.737   2.078   5.191  0.00  0.00    -0.206 F 
ENDROOT
BRANCH   1   9
ATOM      9  S   UNL d   1       0.905  -0.058  -0.035  0.00  0.00     0.241 S 
ATOM     10  O   UNL d   1       0.241   0.691  -1.077  0.00  0.00    -0.206 OA
ATOM     11  O   UNL d   1       0.836  -1.499   0.028  0.00  0.00    -0.206 OA
BRANCH   9  12
ATOM     12  N   UNL d   1       2.543   0.294  -0.133  0.00  0.00    -0.225 NA
ATOM     13  H   UNL d   1       2.700   1.090  -0.752  0.00  0.00     0.136 HD
ATOM     14  H   UNL d   1       3.063  -0.545  -0.395  0.00  0.00     0.136 HD
ENDBRANCH   9  12
ENDBRANCH   1   9
TORSDOF 2
