REMARK  5 active torsions:
REMARK  status: ('A' for Active; 'I' for Inactive)
REMARK       I    between atoms: N_3  and  C_1 
REMARK    1  A    between atoms: C_10  and  C_1 
REMARK       I    between atoms: C_2  and  N_4 
REMARK    2  A    between atoms: C_9  and  N_3 
REMARK    3  A    between atoms: N_4  and  C_8 
REMARK    4  A    between atoms: O_7  and  C_10 
REMARK    5  A    between atoms: C_11  and  O_7 
ROOT
ATOM      1  C   UNL d   1       0.848  -0.131  -0.353  0.00  0.00     0.246 C 
ATOM      2  N   UNL d   1       0.370  -1.243   0.334  0.00  0.00    -0.325 N 
ATOM      3  O   UNL d   1       0.171   0.641  -1.024  0.00  0.00    -0.271 OA
ATOM      4  H   UNL d   1       0.872  -1.391   1.204  0.00  0.00     0.169 HD
ENDROOT
BRANCH   2   5
ATOM      5  C   UNL d   1      -1.004  -1.540   0.383  0.00  0.00     0.034 A 
ATOM      6  C   UNL d   1      -1.676  -2.075  -0.717  0.00  0.00     0.032 A 
ATOM      7  C   UNL d   1      -3.000  -2.520  -0.571  0.00  0.00     0.032 A 
ATOM      8  C   UNL d   1      -3.668  -2.405   0.657  0.00  0.00     0.034 A 
ATOM      9  C   UNL d   1      -2.996  -1.809   1.729  0.00  0.00     0.032 A 
ATOM     10  C   UNL d   1      -1.664  -1.408   1.599  0.00  0.00     0.032 A 
BRANCH   8  11
ATOM     11  N   UNL d   1      -4.975  -2.930   0.754  0.00  0.00    -0.328 N 
ATOM     12  C   UNL d   1      -5.774  -2.976   1.882  0.00  0.00     0.218 C 
ATOM     13  O   UNL d   1      -5.527  -2.487   2.986  0.00  0.00    -0.274 OA
ATOM     14  C   UNL d   1      -7.076  -3.708   1.675  0.00  0.00     0.117 C 
ATOM     15  H   UNL d   1      -5.341  -3.361  -0.086  0.00  0.00     0.169 HD
ENDBRANCH   8  11
ENDBRANCH   2   5
BRANCH   1  16
ATOM     16  C   UNL d   1       2.358   0.047  -0.169  0.00  0.00     0.278 C 
BRANCH  16  17
ATOM     17  O   UNL d   1       2.698   0.505   1.132  0.00  0.00    -0.342 OA
BRANCH  17  18
ATOM     18  C   UNL d   1       3.052   1.823   1.280  0.00  0.00     0.069 A 
ATOM     19  C   UNL d   1       2.778   2.849   0.377  0.00  0.00     0.037 A 
ATOM     20  C   UNL d   1       3.195   4.157   0.645  0.00  0.00     0.009 A 
ATOM     21  C   UNL d   1       3.873   4.465   1.835  0.00  0.00    -0.062 A 
ATOM     22  C   UNL d   1       4.130   3.438   2.745  0.00  0.00     0.009 A 
ATOM     23  C   UNL d   1       4.312   5.873   2.107  0.00  0.00     0.048 C 
ATOM     24  C   UNL d   1       3.717   2.127   2.470  0.00  0.00     0.037 A 
ENDBRANCH  17  18
ENDBRANCH  16  17
ENDBRANCH   1  16
TORSDOF 5
