REMARK  5 active torsions:
REMARK  status: ('A' for Active; 'I' for Inactive)
REMARK    1  A    between atoms: C_8  and  C_1 
REMARK    2  A    between atoms: N_4  and  C_2 
REMARK       I    between atoms: C_7  and  N_4 
REMARK    3  A    between atoms: C_6  and  C_10 
REMARK    4  A    between atoms: C_11  and  C_7 
REMARK    5  A    between atoms: O_18  and  C_8 
ROOT
ATOM      1  N   UNL d   1       1.454   2.234   0.099  0.00  0.00    -0.321 N 
ATOM      2  C   UNL d   1       2.791   2.233  -0.241  0.00  0.00     0.256 C 
ATOM      3  O   UNL d   1       3.440   1.248  -0.579  0.00  0.00    -0.267 OA
ATOM      4  H   UNL d   1       1.125   3.015   0.656  0.00  0.00     0.169 HD
ENDROOT
BRANCH   1   5
ATOM      5  C   UNL d   1       0.594   1.130   0.131  0.00  0.00     0.064 A 
ATOM      6  C   UNL d   1      -0.334   1.044   1.171  0.00  0.00     0.107 A 
ATOM      7  S   UNL d   1      -1.428  -0.248   0.965  0.00  0.00    -0.093 SA
ATOM      8  C   UNL d   1      -0.606  -0.793  -0.413  0.00  0.00     0.059 A 
ATOM      9  C   UNL d   1       0.486  -0.007  -0.758  0.00  0.00    -0.027 A 
ATOM     10  C   UNL d   1       1.303  -0.369  -1.957  0.00  0.00     0.051 C 
BRANCH   6  11
ATOM     11  C   UNL d   1      -0.387   1.882   2.356  0.00  0.00     0.302 C 
ATOM     12  O   UNL d   1       0.082   3.020   2.420  0.00  0.00    -0.259 OA
BRANCH  11  13
ATOM     13  O   UNL d   1      -0.890   1.194   3.418  0.00  0.00    -0.322 OA
ATOM     14  C   UNL d   1      -0.697   1.814   4.687  0.00  0.00     0.213 C 
ENDBRANCH  11  13
ENDBRANCH   6  11
ENDBRANCH   1   5
BRANCH   2  15
ATOM     15  C   UNL d   1       3.529   3.535  -0.086  0.00  0.00     0.033 A 
ATOM     16  C   UNL d   1       4.822   3.612  -0.635  0.00  0.00     0.033 A 
ATOM     17  C   UNL d   1       5.623   4.754  -0.464  0.00  0.00     0.048 A 
ATOM     18  C   UNL d   1       5.101   5.846   0.241  0.00  0.00     0.016 A 
ATOM     19  C   UNL d   1       3.815   5.791   0.776  0.00  0.00     0.002 A 
ATOM     20  C   UNL d   1       3.033   4.641   0.621  0.00  0.00     0.017 A 
BRANCH  17  21
ATOM     21  C   UNL d   1       7.036   4.803  -0.992  0.00  0.00     0.417 C 
ATOM     22  F   UNL d   1       7.435   3.655  -1.604  0.00  0.00    -0.166 F 
ATOM     23  F   UNL d   1       7.217   5.797  -1.904  0.00  0.00    -0.166 F 
ATOM     24  F   UNL d   1       7.945   5.033  -0.004  0.00  0.00    -0.166 F 
ENDBRANCH  17  21
ENDBRANCH   2  15
TORSDOF 5
