REMARK  5 active torsions:
REMARK  status: ('A' for Active; 'I' for Inactive)
REMARK    1  A    between atoms: C_2  and  C_1 
REMARK    2  A    between atoms: O_7  and  C_1 
REMARK    3  A    between atoms: C_6  and  C_2 
REMARK    4  A    between atoms: C_5  and  O_13 
REMARK    5  A    between atoms: O_13  and  C_6 
ROOT
ATOM      1  C   UNL d   1       2.680  -5.935  -4.162  0.00  0.00     0.116 A 
ATOM      2  C   UNL d   1       1.183  -3.888  -2.996  0.00  0.00     0.069 A 
ATOM      3  F   UNL d   1       3.394  -6.920  -4.723  0.00  0.00    -0.206 F 
ATOM      4  C   UNL d   1       1.612  -5.386  -4.857  0.00  0.00     0.045 A 
ATOM      5  C   UNL d   1       3.015  -5.477  -2.894  0.00  0.00     0.045 A 
ATOM      6  C   UNL d   1       0.864  -4.362  -4.275  0.00  0.00     0.040 A 
ATOM      7  C   UNL d   1       2.266  -4.451  -2.311  0.00  0.00     0.040 A 
ENDROOT
BRANCH   2   8
ATOM      8  O   UNL d   1       0.515  -2.890  -2.328  0.00  0.00    -0.351 OA
BRANCH   8   9
ATOM      9  C   UNL d   1      -0.619  -2.355  -3.016  0.00  0.00     0.186 C 
BRANCH   9  10
ATOM     10  C   UNL d   1      -1.286  -1.279  -2.173  0.00  0.00     0.136 C 
BRANCH  10  11
ATOM     11  C   UNL d   1      -2.482  -0.737  -2.913  0.00  0.00     0.141 C 
ATOM     12  O   UNL d   1      -2.851  -1.106  -4.018  0.00  0.00    -0.650 OA
BRANCH  11  13
ATOM     13  O   UNL d   1      -3.133   0.227  -2.227  0.00  0.00    -0.776 OA
ATOM     14  H   UNL d   1      -2.738   0.431  -1.358  0.00  0.00     0.167 HD
ENDBRANCH  11  13
ENDBRANCH  10  11
ENDBRANCH   9  10
ENDBRANCH   8   9
ENDBRANCH   2   8
TORSDOF 5
