REMARK  4 active torsions:
REMARK  status: ('A' for Active; 'I' for Inactive)
REMARK    1  A    between atoms: C_2  and  C_1 
REMARK       I    between atoms: N_5  and  C_1 
REMARK    2  A    between atoms: C_3  and  C_4 
REMARK    3  A    between atoms: O_8  and  C_3 
REMARK    4  A    between atoms: C_9  and  N_5 
ROOT
ATOM      1  C   UNL d   1      -1.308   0.726   0.748  0.00  0.00     0.084 C 
ATOM      2  C   UNL d   1      -1.805   0.476  -0.715  0.00  0.00     0.025 C 
ATOM      3  C   UNL d   1      -1.488   2.234   1.126  0.00  0.00     0.025 C 
ATOM      4  C   UNL d   1      -1.016  -0.313  -1.771  0.00  0.00     0.002 C 
ATOM      5  C   UNL d   1      -0.772   3.256   0.212  0.00  0.00     0.002 C 
ATOM      6  C   UNL d   1       1.429   4.455  -0.383  0.00  0.00     0.000 C 
ATOM      7  C   UNL d   1       0.623   3.686   0.681  0.00  0.00     0.000 C 
ATOM      8  C   UNL d   1       0.475  -0.018  -1.882  0.00  0.00     0.000 C 
ATOM      9  C   UNL d   1       0.880   0.926  -3.010  0.00  0.00     0.000 C 
ATOM     10  C   UNL d   1       2.301   1.478  -2.787  0.00  0.00     0.000 C 
ATOM     11  C   UNL d   1       2.454   2.411  -1.572  0.00  0.00     0.000 C 
ATOM     12  C   UNL d   1       1.671   3.720  -1.710  0.00  0.00     0.000 C 
ENDROOT
BRANCH   1  13
ATOM     13  N   UNL d   1       0.020   0.287   1.177  0.00  0.00    -0.353 N 
ATOM     14  C   UNL d   1       0.626  -0.920   1.305  0.00  0.00     0.241 C 
ATOM     15  O   UNL d   1       1.737  -0.978   1.831  0.00  0.00    -0.269 OA
ATOM     16  H   UNL d   1       0.587   0.986   1.640  0.00  0.00     0.163 HD
BRANCH  14  17
ATOM     17  C   UNL d   1      -0.006  -2.122   0.738  0.00  0.00     0.080 C 
ATOM     18  C   UNL d   1       0.812  -3.116   0.354  0.00  0.00     0.086 C 
BRANCH  18  19
ATOM     19  C   UNL d   1       0.260  -4.275  -0.357  0.00  0.00     0.165 C 
ATOM     20  O   UNL d   1      -0.905  -4.366  -0.719  0.00  0.00    -0.647 OA
BRANCH  19  21
ATOM     21  O   UNL d   1       1.185  -5.225  -0.587  0.00  0.00    -0.773 OA
ATOM     22  H   UNL d   1       2.072  -5.045  -0.224  0.00  0.00     0.167 HD
ENDBRANCH  19  21
ENDBRANCH  18  19
ENDBRANCH  14  17
ENDBRANCH   1  13
TORSDOF 4
