REMARK  1 active torsions:
REMARK  status: ('A' for Active; 'I' for Inactive)
REMARK    1  A    between atoms: C_15  and  C_9 
ROOT
ATOM      1  C   UNL d   1       1.650  -1.572   0.141  0.00  0.00     0.167 A 
ATOM      2  C   UNL d   1       2.639  -2.611   0.004  0.00  0.00     0.076 A 
ATOM      3  N   UNL d   1       1.995  -0.440   0.654  0.00  0.00    -0.335 N 
ATOM      4  HN  UNL d   1       2.943  -0.277   0.994  1.00  0.00     0.168 HD
ATOM      5  O   UNL d   1       0.421  -1.911  -0.309  0.00  0.00    -0.256 OA
ATOM      6  N   UNL d   1       3.843  -4.402  -0.721  0.00  0.00    -0.259 N 
ATOM      7  HN  UNL d   1       4.166  -5.205  -1.261  1.00  0.00     0.195 HD
ATOM      8  C   UNL d   1      -0.577  -1.000  -0.281  0.00  0.00     0.302 A 
ATOM      9  C   UNL d   1       2.818  -3.588  -1.027  0.00  0.00     0.082 A 
ATOM     10  C   UNL d   1      -0.271   0.324   0.271  0.00  0.00     0.066 A 
ATOM     11  C   UNL d   1       1.020   0.550   0.723  0.00  0.00     0.050 A 
ATOM     12  O   UNL d   1       4.372  -3.941   0.464  0.00  0.00    -0.241 OA
ATOM     13  C   UNL d   1       3.667  -2.865   0.890  0.00  0.00     0.089 A 
ATOM     14  O   UNL d   1      -1.697  -1.255  -0.706  0.00  0.00    -0.259 OA
ATOM     15  C   UNL d   1      -1.246   1.327   0.334  0.00  0.00     0.020 A 
ATOM     16  C   UNL d   1       1.348   1.804   1.239  0.00  0.00     0.030 A 
ATOM     17  C   UNL d   1       4.112  -2.249   2.156  0.00  0.00     0.080 C 
ATOM     18  C   UNL d   1      -0.913   2.575   0.859  0.00  0.00     0.001 A 
ATOM     19  C   UNL d   1       0.385   2.814   1.309  0.00  0.00     0.002 A 
ENDROOT
BRANCH   9  20
ATOM     20  C   UNL d   1       2.084  -3.757  -2.286  0.00  0.00    -0.006 A 
ATOM     21  C   UNL d   1       1.883  -5.036  -2.823  0.00  0.00     0.014 A 
ATOM     22  C   UNL d   1       1.162  -5.205  -4.009  0.00  0.00     0.001 A 
ATOM     23  C   UNL d   1       0.630  -4.099  -4.668  0.00  0.00     0.000 A 
ATOM     24  C   UNL d   1       0.843  -2.821  -4.160  0.00  0.00     0.001 A 
ATOM     25  C   UNL d   1       1.583  -2.650  -2.988  0.00  0.00     0.014 A 
ENDBRANCH   9  20
TORSDOF 1
