REMARK  2 active torsions:
REMARK  status: ('A' for Active; 'I' for Inactive)
REMARK       I    between atoms: C_8  and  N_13 
REMARK    1  A    between atoms: C_11  and  C_8 
REMARK    2  A    between atoms: N_13  and  C_12 
ROOT
ATOM      1  C   UNL d   1      -4.872  -0.766   0.184  0.00  0.00     0.252 C 
ATOM      2  N   UNL d   1      -5.854  -0.707   1.161  0.00  0.00    -0.325 N 
ATOM      3  O   UNL d   1      -4.143  -1.734  -0.031  0.00  0.00    -0.270 OA
ATOM      4  H   UNL d   1      -6.540   0.034   1.048  0.00  0.00     0.169 HD
ENDROOT
BRANCH   2   5
ATOM      5  C   UNL d   1      -6.064  -1.670   2.177  0.00  0.00     0.037 A 
ATOM      6  C   UNL d   1      -5.060  -2.597   2.529  0.00  0.00     0.061 A 
ATOM      7  C   UNL d   1      -5.358  -3.506   3.574  0.00  0.00     0.069 A 
ATOM      8  C   UNL d   1      -6.691  -3.473   4.264  0.00  0.00     0.067 A 
ATOM      9  N   UNL d   1      -4.534  -4.448   4.059  0.00  0.00    -0.310 N 
ATOM     10  N   UNL d   1      -6.814  -4.404   5.224  0.00  0.00    -0.310 N 
ATOM     11  C   UNL d   1      -7.671  -2.526   3.889  0.00  0.00     0.035 A 
ATOM     12  S   UNL d   1      -5.374  -5.234   5.257  0.00  0.00     0.068 SA
ATOM     13  HN  UNL d   1      -7.629  -4.568   5.815  1.00  0.00     0.176 HD
ATOM     14  C   UNL d   1      -7.313  -1.635   2.853  0.00  0.00     0.032 A 
ATOM     15  HN  UNL d   1      -3.581  -4.643   3.753  1.00  0.00     0.176 HD
ENDBRANCH   2   5
BRANCH   1  16
ATOM     16  C   UNL d   1      -4.676   0.542  -0.585  0.00  0.00     0.225 C 
ATOM     17  O   UNL d   1      -5.846   1.378  -0.726  0.00  0.00    -0.336 OA
ATOM     18  C   UNL d   1      -5.572   2.074  -1.883  0.00  0.00     0.076 A 
ATOM     19  C   UNL d   1      -6.198   3.236  -2.279  0.00  0.00     0.037 A 
ATOM     20  C   UNL d   1      -4.574   1.488  -2.651  0.00  0.00    -0.022 A 
ATOM     21  C   UNL d   1      -5.787   3.820  -3.483  0.00  0.00     0.003 A 
ATOM     22  C   UNL d   1      -4.785   3.222  -4.267  0.00  0.00     0.001 A 
ATOM     23  C   UNL d   1      -4.174   2.037  -3.855  0.00  0.00     0.010 A 
ATOM     24  C   UNL d   1      -4.120   0.249  -1.984  0.00  0.00     0.083 C 
ENDBRANCH   1  16
TORSDOF 2
