REMARK  4 active torsions:
REMARK  status: ('A' for Active; 'I' for Inactive)
REMARK    1  A    between atoms: N_6  and  S_1 
REMARK    2  A    between atoms: C_10  and  S_1 
REMARK    3  A    between atoms: C_2  and  C_11 
REMARK    4  A    between atoms: C_14  and  N_6 
ROOT
ATOM      1  C   UNL d   1       1.658   0.330  -5.461  0.00  0.00    -0.002 A 
ATOM      2  C   UNL d   1       1.006  -0.271  -2.790  0.00  0.00     0.042 A 
ATOM      3  C   UNL d   1       2.604   0.480  -4.434  0.00  0.00     0.016 A 
ATOM      4  C   UNL d   1       0.365  -0.089  -5.114  0.00  0.00     0.016 A 
ATOM      5  C   UNL d   1       0.045  -0.406  -3.789  0.00  0.00     0.031 A 
ATOM      6  C   UNL d   1       2.279   0.193  -3.106  0.00  0.00     0.031 A 
ENDROOT
BRANCH   2   7
ATOM      7  N   UNL d   1       0.716  -0.705  -1.469  0.00  0.00    -0.281 N 
ATOM      8  H   UNL d   1       1.003  -0.102  -0.700  0.00  0.00     0.179 HD
BRANCH   7   9
ATOM      9  S   UNL d   1       0.936  -2.344  -1.097  0.00  0.00     0.263 S 
ATOM     10  O   UNL d   1       0.126  -3.147  -1.990  0.00  0.00    -0.200 OA
ATOM     11  O   UNL d   1       0.796  -2.453   0.339  0.00  0.00    -0.200 OA
BRANCH   9  12
ATOM     12  C   UNL d   1       2.651  -2.642  -1.487  0.00  0.00     0.079 A 
ATOM     13  C   UNL d   1       3.631  -2.392  -0.523  0.00  0.00     0.025 A 
ATOM     14  C   UNL d   1       4.974  -2.614  -0.835  0.00  0.00     0.002 A 
ATOM     15  C   UNL d   1       5.331  -3.092  -2.096  0.00  0.00     0.000 A 
ATOM     16  C   UNL d   1       4.346  -3.362  -3.049  0.00  0.00     0.002 A 
ATOM     17  C   UNL d   1       3.001  -3.148  -2.744  0.00  0.00     0.025 A 
ENDBRANCH   9  12
ENDBRANCH   7   9
ENDBRANCH   2   7
BRANCH   1  18
ATOM     18  C   UNL d   1       2.024   0.553  -6.858  0.00  0.00     0.087 A 
ATOM     19  O   UNL d   1       3.345   0.819  -7.097  0.00  0.00    -0.309 OA
ATOM     20  C   UNL d   1       3.507   0.928  -8.441  0.00  0.00     0.086 A 
ATOM     21  C   UNL d   1       4.715   1.173  -9.090  0.00  0.00     0.040 A 
ATOM     22  C   UNL d   1       2.292   0.749  -9.089  0.00  0.00     0.002 A 
ATOM     23  C   UNL d   1       4.670   1.233 -10.487  0.00  0.00     0.026 A 
ATOM     24  C   UNL d   1       3.465   1.057 -11.173  0.00  0.00     0.035 A 
ATOM     25  C   UNL d   1       2.262   0.816 -10.493  0.00  0.00     0.038 A 
ATOM     26 CL   UNL d   1       3.455   1.135 -12.894  0.00  0.00    -0.084 Cl
ATOM     27  C   UNL d   1       1.340   0.518  -8.060  0.00  0.00     0.052 A 
ENDBRANCH   1  18
TORSDOF 4
