REMARK  5 active torsions:
REMARK  status: ('A' for Active; 'I' for Inactive)
REMARK    1  A    between atoms: N_2  and  C_1 
REMARK    2  A    between atoms: C_3  and  S_16 
REMARK    3  A    between atoms: S_16  and  C_5 
REMARK    4  A    between atoms: N_23  and  C_8 
REMARK    5  A    between atoms: N_14  and  C_12 
ROOT
ATOM      1  C   UNL d   1       1.793  -1.207   0.096  0.00  0.00     0.121 A 
ATOM      2  C   UNL d   1       2.492   0.003   0.041  0.00  0.00     0.043 A 
ATOM      3  C   UNL d   1       0.393  -1.252   0.119  0.00  0.00     0.063 A 
ATOM      4  C   UNL d   1       0.318   1.172   0.037  0.00  0.00     0.061 A 
ATOM      5  C   UNL d   1       1.733   1.189   0.003  0.00  0.00     0.053 A 
ATOM      6  C   UNL d   1      -0.348  -0.066   0.086  0.00  0.00     0.063 A 
ATOM      7 CL   UNL d   1      -2.058  -0.281  -0.074  0.00  0.00    -0.082 Cl
ENDROOT
BRANCH   2   8
ATOM      8  S   UNL d   1       4.268   0.144  -0.131  0.00  0.00    -0.061 SA
BRANCH   8   9
ATOM      9  C   UNL d   1       4.747   0.111   1.556  0.00  0.00     0.135 A 
ATOM     10  S   UNL d   1       6.274  -0.484   2.060  0.00  0.00    -0.026 SA
ATOM     11  C   UNL d   1       5.832  -0.056   3.663  0.00  0.00     0.159 A 
ATOM     12  N   UNL d   1       4.633   0.477   3.758  0.00  0.00    -0.279 N 
ATOM     13  N   UNL d   1       3.997   0.574   2.532  0.00  0.00    -0.286 N 
ATOM     14  HN  UNL d   1       4.219   0.785   4.637  1.00  0.00     0.189 HD
ATOM     15  HN  UNL d   1       3.061   0.958   2.402  1.00  0.00     0.188 HD
BRANCH  11  16
ATOM     16  N   UNL d   1       6.665  -0.264   4.701  0.00  0.00    -0.379 N 
ATOM     17  H   UNL d   1       7.396  -0.958   4.600  0.00  0.00     0.158 HD
ATOM     18  H   UNL d   1       6.255  -0.222   5.627  0.00  0.00     0.158 HD
ENDBRANCH  11  16
ENDBRANCH   8   9
ENDBRANCH   2   8
BRANCH   1  19
ATOM     19  N   UNL d   1       2.486  -2.480   0.054  0.00  0.00    -0.114 N 
ATOM     20  O   UNL d   1       3.269  -2.736   0.978  0.00  0.00    -0.532 OA
ATOM     21  O   UNL d   1       2.212  -3.235  -0.889  0.00  0.00    -0.532 OA
ENDBRANCH   1  19
BRANCH   4  22
ATOM     22  N   UNL d   1      -0.369   2.424  -0.001  0.00  0.00    -0.331 N 
ATOM     23  C   UNL d   1      -1.571   2.742   0.599  0.00  0.00     0.096 A 
ATOM     24  C   UNL d   1      -1.908   4.043   0.293  0.00  0.00     0.019 A 
ATOM     25  C   UNL d   1      -0.860   4.571  -0.484  0.00  0.00     0.019 A 
ATOM     26  C   UNL d   1       0.083   3.575  -0.626  0.00  0.00     0.096 A 
ENDBRANCH   4  22
TORSDOF 5
