REMARK  5 active torsions:
REMARK  status: ('A' for Active; 'I' for Inactive)
REMARK    1  A    between atoms: C_2  and  S_1 
REMARK    2  A    between atoms: N_3  and  S_1 
REMARK    3  A    between atoms: C_10  and  N_3 
REMARK    4  A    between atoms: C_5  and  C_7 
REMARK    5  A    between atoms: C_15  and  C_6 
ROOT
ATOM      1  S   UNL d   1       0.912  -0.004   0.003  0.00  0.00     0.253 S 
ATOM      2  O   UNL d   1       0.061   0.230  -1.146  0.00  0.00    -0.205 OA
ATOM      3  O   UNL d   1       2.354   0.012  -0.151  0.00  0.00    -0.205 OA
ENDROOT
BRANCH   1   4
ATOM      4  C   UNL d   1       0.548  -1.629   0.626  0.00  0.00     0.116 A 
ATOM      5  S   UNL d   1      -1.007  -2.253   0.299  0.00  0.00    -0.075 SA
ATOM      6  C   UNL d   1      -0.690  -3.727   1.121  0.00  0.00     0.033 A 
ATOM      7  C   UNL d   1       0.597  -3.730   1.632  0.00  0.00     0.023 A 
ATOM      8  C   UNL d   1       1.309  -2.529   1.347  0.00  0.00     0.034 A 
BRANCH   6   9
ATOM      9  C   UNL d   1      -1.727  -4.760   1.256  0.00  0.00     0.049 A 
ATOM     10  N   UNL d   1      -1.606  -5.522   2.372  0.00  0.00    -0.365 N 
ATOM     11  C   UNL d   1      -2.557  -6.456   2.594  0.00  0.00     0.088 A 
ATOM     12  HN  UNL d   1      -0.828  -5.394   3.019  1.00  0.00     0.165 HD
ATOM     13  C   UNL d   1      -3.628  -6.682   1.747  0.00  0.00     0.017 A 
ATOM     14  C   UNL d   1      -3.725  -5.914   0.595  0.00  0.00     0.004 A 
ATOM     15  C   UNL d   1      -2.761  -4.941   0.340  0.00  0.00     0.031 A 
ENDBRANCH   6   9
ENDBRANCH   1   4
BRANCH   1  16
ATOM     16  N   UNL d   1       0.563   1.160   1.167  0.00  0.00    -0.166 NA
ATOM     17  H   UNL d   1       0.987   2.036   0.874  0.00  0.00     0.147 HD
BRANCH  16  18
ATOM     18  C   UNL d   1      -0.801   1.286   1.498  0.00  0.00     0.093 A 
ATOM     19  N   UNL d   1      -1.167   0.575   2.578  0.00  0.00    -0.355 N 
ATOM     20  C   UNL d   1      -2.458   0.680   2.972  0.00  0.00     0.105 A 
ATOM     21  HN  UNL d   1      -0.503  -0.016   3.077  1.00  0.00     0.166 HD
ATOM     22  C   UNL d   1      -3.407   1.457   2.325  0.00  0.00     0.063 A 
ATOM     23  C   UNL d   1      -2.999   2.155   1.183  0.00  0.00     0.021 A 
ATOM     24  C   UNL d   1      -1.673   2.069   0.758  0.00  0.00     0.044 A 
BRANCH  22  25
ATOM     25  C   UNL d   1      -4.811   1.547   2.844  0.00  0.00     0.418 C 
ATOM     26  F   UNL d   1      -5.026   0.813   3.971  0.00  0.00    -0.166 F 
ATOM     27  F   UNL d   1      -5.164   2.824   3.160  0.00  0.00    -0.166 F 
ATOM     28  F   UNL d   1      -5.732   1.120   1.938  0.00  0.00    -0.166 F 
ENDBRANCH  22  25
ENDBRANCH  16  18
ENDBRANCH   1  16
TORSDOF 5
