REMARK  6 active torsions:
REMARK  status: ('A' for Active; 'I' for Inactive)
REMARK    1  A    between atoms: C_2  and  C_1 
REMARK       I    between atoms: N_3  and  C_2 
REMARK    2  A    between atoms: C_8  and  N_3 
REMARK       I    between atoms: N_11  and  C_5 
REMARK    3  A    between atoms: C_8  and  C_5 
REMARK    4  A    between atoms: C_18  and  N_11 
REMARK    5  A    between atoms: O_16  and  C_19 
REMARK    6  A    between atoms: C_19  and  C_18 
ROOT
ATOM      1  C   UNL d   1       0.340  -3.448   1.901  0.00  0.00     0.254 C 
ATOM      2  N   UNL d   1      -0.690  -4.268   1.444  0.00  0.00    -0.344 N 
ATOM      3  O   UNL d   1       0.718  -2.492   1.245  0.00  0.00    -0.268 OA
ATOM      4  H   UNL d   1      -1.056  -4.959   2.080  0.00  0.00     0.163 HD
ENDROOT
BRANCH   2   5
ATOM      5  C   UNL d   1      -1.447  -4.137   0.145  0.00  0.00     0.172 C 
ATOM      6  C   UNL d   1      -1.834  -5.519  -0.406  0.00  0.00     0.042 C 
BRANCH   5   7
ATOM      7  C   UNL d   1      -2.767  -3.286   0.239  0.00  0.00     0.240 C 
ATOM      8  O   UNL d   1      -3.706  -3.419  -0.549  0.00  0.00    -0.271 OA
ATOM      9  N   UNL d   1      -2.725  -2.321   1.197  0.00  0.00    -0.357 N 
ATOM     10  H   UNL d   1      -1.813  -2.025   1.520  0.00  0.00     0.162 HD
BRANCH   9  11
ATOM     11  C   UNL d   1      -3.817  -1.381   1.374  0.00  0.00     0.148 C 
BRANCH  11  12
ATOM     12  C   UNL d   1      -3.907  -0.922   2.830  0.00  0.00     0.186 C 
BRANCH  12  13
ATOM     13  O   UNL d   1      -2.684  -0.271   3.190  0.00  0.00    -0.394 OA
ATOM     14  C   UNL d   1      -2.707   0.182   4.537  0.00  0.00     0.201 C 
ENDBRANCH  12  13
ENDBRANCH  11  12
ENDBRANCH   9  11
ENDBRANCH   5   7
ENDBRANCH   2   5
BRANCH   1  15
ATOM     15  C   UNL d   1       1.020  -3.755   3.249  0.00  0.00     0.053 A 
ATOM     16  C   UNL d   1       0.718  -4.815   4.123  0.00  0.00     0.051 A 
ATOM     17  C   UNL d   1       1.494  -5.056   5.284  0.00  0.00     0.048 A 
ATOM     18 CL   UNL d   1      -0.629  -5.877   3.910  0.00  0.00    -0.083 Cl
ATOM     19  C   UNL d   1       2.601  -4.270   5.574  0.00  0.00     0.035 A 
ATOM     20  C   UNL d   1       2.903  -3.187   4.769  0.00  0.00     0.025 A 
ATOM     21 CL   UNL d   1       3.571  -4.625   6.955  0.00  0.00    -0.084 Cl
ATOM     22  C   UNL d   1       2.094  -2.916   3.647  0.00  0.00     0.020 A 
ENDBRANCH   1  15
TORSDOF 6
