REMARK  4 active torsions:
REMARK  status: ('A' for Active; 'I' for Inactive)
REMARK    1  A    between atoms: C_8  and  N_1 
REMARK    2  A    between atoms: S_10  and  C_2 
REMARK    3  A    between atoms: C_14  and  C_7 
REMARK    4  A    between atoms: C_13  and  C_8 
ROOT
ATOM      1  N   UNL d   1       0.135  -1.447  -0.025  0.00  0.00    -0.288 N 
ATOM      2  C   UNL d   1       1.395  -0.946  -0.085  0.00  0.00     0.149 A 
ATOM      3  C   UNL d   1      -0.718  -0.386   0.076  0.00  0.00     0.276 A 
ATOM      4  C   UNL d   1       0.200   0.794   0.011  0.00  0.00     0.104 A 
ATOM      5  N   UNL d   1       1.502   0.349  -0.074  0.00  0.00    -0.332 N 
ATOM      6  HN  UNL d   1       2.354   0.908  -0.117  1.00  0.00     0.168 HD
ATOM      7  C   UNL d   1      -0.163   2.083   0.037  0.00  0.00     0.048 C 
ATOM      8  O   UNL d   1      -1.920  -0.397   0.236  0.00  0.00    -0.265 OA
ENDROOT
BRANCH   1   9
ATOM      9  C   UNL d   1      -0.335  -2.814   0.107  0.00  0.00     0.173 C 
BRANCH   9  10
ATOM     10  C   UNL d   1      -0.676  -3.497  -1.201  0.00  0.00    -0.040 A 
ATOM     11  C   UNL d   1      -0.019  -4.684  -1.565  0.00  0.00     0.010 A 
ATOM     12  C   UNL d   1      -0.414  -5.401  -2.698  0.00  0.00     0.024 A 
ATOM     13  C   UNL d   1      -1.466  -4.936  -3.482  0.00  0.00     0.034 A 
ATOM     14  C   UNL d   1      -2.116  -3.750  -3.152  0.00  0.00     0.024 A 
ATOM     15 CL   UNL d   1      -1.981  -5.846  -4.849  0.00  0.00    -0.084 Cl
ATOM     16  C   UNL d   1      -1.724  -3.033  -2.015  0.00  0.00     0.010 A 
ENDBRANCH   9  10
ENDBRANCH   1   9
BRANCH   2  17
ATOM     17  S   UNL d   1       2.748  -2.026  -0.147  0.00  0.00    -0.098 SA
ATOM     18  C   UNL d   1       4.134  -0.868  -0.171  0.00  0.00     0.099 C 
ENDBRANCH   2  17
BRANCH   7  19
ATOM     19  C   UNL d   1      -1.551   2.542   0.098  0.00  0.00    -0.018 A 
ATOM     20  C   UNL d   1      -2.283   2.768  -1.065  0.00  0.00     0.099 A 
ATOM     21  N   UNL d   1      -3.590   3.123  -1.088  0.00  0.00    -0.374 N 
ATOM     22  C   UNL d   1      -4.201   3.240   0.110  0.00  0.00     0.087 A 
ATOM     23  HN  UNL d   1      -4.085   3.293  -1.963  1.00  0.00     0.164 HD
ATOM     24  C   UNL d   1      -3.561   3.051   1.325  0.00  0.00     0.018 A 
ATOM     25  C   UNL d   1      -2.211   2.704   1.317  0.00  0.00     0.014 A 
ENDBRANCH   7  19
TORSDOF 4
