REMARK  4 active torsions:
REMARK  status: ('A' for Active; 'I' for Inactive)
REMARK    1  A    between atoms: C_3  and  C_1 
REMARK    2  A    between atoms: C_2  and  C_5 
REMARK       I    between atoms: N_4  and  C_2 
REMARK    3  A    between atoms: C_5  and  C_3 
REMARK    4  A    between atoms: C_10  and  N_4 
ROOT
ATOM      1  C   UNL d   1      -1.451  -1.050   1.190  0.00  0.00     0.222 C 
ATOM      2  N   UNL d   1      -0.404  -1.379   2.037  0.00  0.00    -0.327 N 
ATOM      3  O   UNL d   1      -2.572  -0.689   1.513  0.00  0.00    -0.273 OA
ATOM      4  H   UNL d   1       0.501  -1.530   1.610  0.00  0.00     0.169 HD
ENDROOT
BRANCH   1   5
ATOM      5  C   UNL d   1      -1.069  -1.279  -0.262  0.00  0.00     0.111 C 
BRANCH   5   6
ATOM      6  C   UNL d   1      -1.825  -0.456  -1.323  0.00  0.00     0.044 C 
ATOM      7  C   UNL d   1      -3.257  -0.979  -1.523  0.00  0.00     0.015 C 
BRANCH   6   8
ATOM      8  C   UNL d   1      -1.721   1.099  -1.204  0.00  0.00     0.192 C 
ATOM      9 CL   UNL d   1      -0.208   1.642  -0.387  0.00  0.00    -0.083 Cl
ATOM     10 CL   UNL d   1      -3.100   1.890  -0.380  0.00  0.00    -0.083 Cl
ATOM     11 CL   UNL d   1      -1.654   1.798  -2.880  0.00  0.00    -0.083 Cl
ENDBRANCH   6   8
ENDBRANCH   5   6
ENDBRANCH   1   5
BRANCH   2  12
ATOM     12  C   UNL d   1      -0.440  -1.523   3.437  0.00  0.00     0.034 A 
ATOM     13  C   UNL d   1      -1.608  -1.461   4.194  0.00  0.00     0.031 A 
ATOM     14  C   UNL d   1      -1.572  -1.695   5.573  0.00  0.00     0.026 A 
ATOM     15  C   UNL d   1      -0.359  -1.985   6.197  0.00  0.00     0.034 A 
ATOM     16  C   UNL d   1       0.817  -2.029   5.457  0.00  0.00     0.026 A 
ATOM     17 CL   UNL d   1      -0.321  -2.306   7.886  0.00  0.00    -0.084 Cl
ATOM     18  C   UNL d   1       0.776  -1.800   4.078  0.00  0.00     0.031 A 
ENDBRANCH   2  12
TORSDOF 4
