REMARK  5 active torsions:
REMARK  status: ('A' for Active; 'I' for Inactive)
REMARK    1  A    between atoms: N_11  and  N_1 
REMARK    2  A    between atoms: C_15  and  C_2 
REMARK    3  A    between atoms: C_5  and  C_17 
REMARK    4  A    between atoms: C_16  and  C_6 
REMARK    5  A    between atoms: C_21  and  N_10 
ROOT
ATOM      1  N   UNL d   1       4.615  -5.211  -0.515  0.00  0.00    -0.292 N 
ATOM      2  HN  UNL d   1       5.014  -6.066  -0.902  1.00  0.00     0.187 HD
ATOM      3  C   UNL d   1       3.185  -3.503  -0.034  0.00  0.00     0.028 A 
ATOM      4  C   UNL d   1       3.450  -4.641  -0.843  0.00  0.00     0.078 A 
ATOM      5  N   UNL d   1       5.156  -4.416   0.438  0.00  0.00    -0.266 N 
ATOM      6  C   UNL d   1       4.324  -3.359   0.733  0.00  0.00     0.132 A 
ENDROOT
BRANCH   3   7
ATOM      7  C   UNL d   1       2.005  -2.680   0.104  0.00  0.00     0.123 C 
ATOM      8  N   UNL d   1       0.872  -3.216  -0.196  0.00  0.00    -0.300 N 
ATOM      9  HN  UNL d   1       0.837  -4.184  -0.513  1.00  0.00     0.186 HD
BRANCH   8  10
ATOM     10  N   UNL d   1      -0.278  -2.499  -0.092  0.00  0.00    -0.210 N 
ATOM     11  C   UNL d   1      -1.505  -3.064   0.181  0.00  0.00     0.161 A 
ATOM     12  N   UNL d   1      -2.494  -2.208   0.118  0.00  0.00    -0.281 N 
ATOM     13  N   UNL d   1      -1.915  -1.024  -0.249  0.00  0.00    -0.273 N 
ATOM     14  HN  UNL d   1      -3.482  -2.386   0.303  1.00  0.00     0.188 HD
ATOM     15  C   UNL d   1      -0.545  -1.188  -0.448  0.00  0.00     0.214 A 
ATOM     16  H   UNL d   1      -2.468  -0.205  -0.472  0.00  0.00     0.189 HD
ATOM     17  S   UNL d   1       0.422   0.013  -1.059  0.00  0.00    -0.037 SA
BRANCH  11  18
ATOM     18  C   UNL d   1      -1.677  -4.463   0.517  0.00  0.00     0.052 A 
ATOM     19  S   UNL d   1      -2.999  -4.931   1.513  0.00  0.00    -0.098 SA
ATOM     20  C   UNL d   1      -2.533  -6.574   1.493  0.00  0.00     0.050 A 
ATOM     21  C   UNL d   1      -1.414  -6.783   0.721  0.00  0.00     0.009 A 
ATOM     22  C   UNL d   1      -0.928  -5.568   0.156  0.00  0.00     0.023 A 
ENDBRANCH  11  18
ENDBRANCH   8  10
ENDBRANCH   3   7
BRANCH   4  23
ATOM     23  C   UNL d   1       2.601  -5.218  -1.947  0.00  0.00     0.034 A 
ATOM     24  S   UNL d   1       2.639  -6.869  -2.404  0.00  0.00    -0.100 SA
ATOM     25  C   UNL d   1       1.381  -6.651  -3.544  0.00  0.00     0.050 A 
ATOM     26  C   UNL d   1       1.000  -5.333  -3.643  0.00  0.00     0.008 A 
ATOM     27  C   UNL d   1       1.720  -4.503  -2.735  0.00  0.00     0.021 A 
ENDBRANCH   4  23
BRANCH   5  28
ATOM     28  C   UNL d   1       6.424  -4.723   1.008  0.00  0.00     0.056 A 
ATOM     29  C   UNL d   1       6.962  -3.952   2.049  0.00  0.00     0.031 A 
ATOM     30  C   UNL d   1       8.209  -4.282   2.591  0.00  0.00     0.002 A 
ATOM     31  C   UNL d   1       8.925  -5.372   2.099  0.00  0.00     0.000 A 
ATOM     32  C   UNL d   1       8.397  -6.141   1.065  0.00  0.00     0.002 A 
ATOM     33  C   UNL d   1       7.150  -5.822   0.522  0.00  0.00     0.031 A 
ENDBRANCH   5  28
TORSDOF 5
