REMARK  1 active torsions:
REMARK  status: ('A' for Active; 'I' for Inactive)
REMARK    1  A    between atoms: C_9  and  C_5 
ROOT
ATOM      1  C   UNL d   1      -2.482   0.531  -0.361  0.00  0.00     0.003 C 
ATOM      2  C   UNL d   1      -1.263   1.370  -0.183  0.00  0.00     0.190 C 
ATOM      3  C   UNL d   1       0.042   0.655  -0.069  0.00  0.00     0.031 A 
ATOM      4  S   UNL d   1      -1.250  -1.855  -0.169  0.00  0.00    -0.124 SA
ATOM      5  C   UNL d   1      -3.416   0.966  -1.228  0.00  0.00     0.023 C 
ATOM      6  C   UNL d   1       0.148  -0.746  -0.100  0.00  0.00     0.015 A 
ATOM      7  C   UNL d   1      -2.514  -0.722   0.451  0.00  0.00     0.122 C 
ATOM      8  O   UNL d   1      -1.326   2.596  -0.168  0.00  0.00    -0.287 OA
ATOM      9  C   UNL d   1       1.206   1.435   0.020  0.00  0.00     0.017 A 
ATOM     10  C   UNL d   1       1.418  -1.341  -0.077  0.00  0.00     0.019 A 
ATOM     11  C   UNL d   1       2.463   0.830   0.056  0.00  0.00     0.001 A 
ATOM     12  C   UNL d   1       2.569  -0.555  -0.001  0.00  0.00     0.001 A 
ENDROOT
BRANCH   5  13
ATOM     13  C   UNL d   1      -4.564   0.126  -1.573  0.00  0.00    -0.036 A 
ATOM     14  C   UNL d   1      -5.746   0.192  -0.834  0.00  0.00     0.012 A 
ATOM     15  C   UNL d   1      -6.747  -0.760  -1.039  0.00  0.00     0.007 A 
ATOM     16  C   UNL d   1      -6.579  -1.779  -1.986  0.00  0.00    -0.062 A 
ATOM     17  C   UNL d   1      -5.414  -1.808  -2.758  0.00  0.00     0.007 A 
ATOM     18  C   UNL d   1      -7.609  -2.862  -2.115  0.00  0.00     0.048 C 
ATOM     19  C   UNL d   1      -4.414  -0.858  -2.557  0.00  0.00     0.012 A 
ENDBRANCH   5  13
TORSDOF 1
