REMARK  2 active torsions:
REMARK  status: ('A' for Active; 'I' for Inactive)
REMARK    1  A    between atoms: C_5  and  C_2 
REMARK       I    between atoms: N_13  and  C_5 
REMARK    2  A    between atoms: C_18  and  N_13 
ROOT
ATOM      1  C   UNL d   1      -3.383  -1.293  -0.026  0.00  0.00     0.256 C 
ATOM      2  N   UNL d   1      -3.476  -2.675  -0.088  0.00  0.00    -0.323 N 
ATOM      3  O   UNL d   1      -2.381  -0.661   0.291  0.00  0.00    -0.267 OA
ATOM      4  H   UNL d   1      -4.307  -3.089  -0.479  0.00  0.00     0.169 HD
ENDROOT
BRANCH   1   5
ATOM      5  C   UNL d   1      -4.604  -0.492  -0.381  0.00  0.00     0.034 A 
ATOM      6  C   UNL d   1      -5.882  -1.077  -0.508  0.00  0.00     0.051 A 
ATOM      7  C   UNL d   1      -6.920  -0.165  -0.797  0.00  0.00     0.086 A 
ATOM      8  C   UNL d   1      -6.698   1.267  -0.944  0.00  0.00     0.085 A 
ATOM      9  N   UNL d   1      -8.224  -0.406  -0.973  0.00  0.00    -0.240 N 
ATOM     10  N   UNL d   1      -7.873   1.850  -1.205  0.00  0.00    -0.240 N 
ATOM     11  C   UNL d   1      -5.429   1.847  -0.811  0.00  0.00     0.035 A 
ATOM     12  O   UNL d   1      -8.806   0.827  -1.224  0.00  0.00    -0.156 OA
ATOM     13  HN  UNL d   1      -8.046   2.843  -1.359  1.00  0.00     0.197 HD
ATOM     14  C   UNL d   1      -4.404   0.922  -0.529  0.00  0.00     0.019 A 
ATOM     15  HN  UNL d   1      -8.694  -1.311  -0.932  1.00  0.00     0.197 HD
ENDBRANCH   1   5
BRANCH   2  16
ATOM     16  C   UNL d   1      -2.486  -3.602   0.333  0.00  0.00     0.035 A 
ATOM     17  C   UNL d   1      -1.276  -3.221   0.925  0.00  0.00     0.043 A 
ATOM     18  C   UNL d   1      -0.359  -4.198   1.362  0.00  0.00    -0.006 A 
ATOM     19  C   UNL d   1       0.913  -4.138   1.995  0.00  0.00     0.030 A 
ATOM     20  C   UNL d   1      -0.674  -5.543   1.189  0.00  0.00     0.042 A 
ATOM     21  C   UNL d   1       1.336  -5.430   2.202  0.00  0.00     0.089 A 
ATOM     22  N   UNL d   1       0.373  -6.271   1.708  0.00  0.00    -0.365 N 
ATOM     23  H   UNL d   1       0.417  -7.280   1.728  0.00  0.00     0.165 HD
ATOM     24  C   UNL d   1      -1.867  -5.960   0.589  0.00  0.00     0.033 A 
ATOM     25  C   UNL d   1      -2.764  -4.965   0.168  0.00  0.00     0.032 A 
ENDBRANCH   2  16
TORSDOF 2
