REMARK  4 active torsions:
REMARK  status: ('A' for Active; 'I' for Inactive)
REMARK    1  A    between atoms: C_8  and  C_2 
REMARK    2  A    between atoms: C_9  and  N_5 
REMARK    3  A    between atoms: N_12  and  C_7 
REMARK    4  A    between atoms: O_13  and  C_8 
ROOT
ATOM      1  C   UNL d   1      -0.463  -1.055  -0.001  0.00  0.00     0.083 C 
ATOM      2  C   UNL d   1       0.939  -0.590  -0.036  0.00  0.00     0.141 C 
ATOM      3  N   UNL d   1       1.034   0.717   0.021  0.00  0.00    -0.284 N 
ATOM      4  HN  UNL d   1       1.889   1.272   0.050  1.00  0.00     0.188 HD
ATOM      5  N   UNL d   1      -0.276   1.188   0.034  0.00  0.00    -0.219 N 
ATOM      6  C   UNL d   1      -1.243   0.191  -0.155  0.00  0.00     0.281 C 
ATOM      7  C   UNL d   1      -0.874  -2.292   0.312  0.00  0.00     0.104 C 
ATOM      8  O   UNL d   1      -2.429   0.293  -0.408  0.00  0.00    -0.265 OA
ENDROOT
BRANCH   5   9
ATOM      9  C   UNL d   1      -0.529   2.536   0.391  0.00  0.00     0.060 A 
ATOM     10  C   UNL d   1      -1.829   2.970   0.700  0.00  0.00     0.031 A 
ATOM     11  C   UNL d   1      -2.068   4.267   1.159  0.00  0.00     0.002 A 
ATOM     12  C   UNL d   1      -1.012   5.158   1.301  0.00  0.00     0.000 A 
ATOM     13  C   UNL d   1       0.282   4.753   0.981  0.00  0.00     0.002 A 
ATOM     14  C   UNL d   1       0.523   3.450   0.533  0.00  0.00     0.031 A 
ENDBRANCH   5   9
BRANCH   2  15
ATOM     15  C   UNL d   1       2.127  -1.504  -0.127  0.00  0.00     0.312 C 
ATOM     16  O   UNL d   1       2.088  -2.570  -0.709  0.00  0.00    -0.258 OA
BRANCH  15  17
ATOM     17  O   UNL d   1       3.192  -0.956   0.503  0.00  0.00    -0.321 OA
ATOM     18  C   UNL d   1       4.392  -1.722   0.390  0.00  0.00     0.213 C 
ENDBRANCH  15  17
ENDBRANCH   2  15
BRANCH   7  19
ATOM     19  N   UNL d   1      -2.119  -2.841   0.618  0.00  0.00    -0.398 N 
ATOM     20  C   UNL d   1      -3.370  -2.079   0.676  0.00  0.00     0.148 C 
ATOM     21  C   UNL d   1      -2.292  -4.268   0.897  0.00  0.00     0.148 C 
ENDBRANCH   7  19
TORSDOF 4
