REMARK  7 active torsions:
REMARK  status: ('A' for Active; 'I' for Inactive)
REMARK    1  A    between atoms: C_13  and  N_1 
REMARK    2  A    between atoms: S_11  and  C_2 
REMARK    3  A    between atoms: C_15  and  C_3 
REMARK    4  A    between atoms: C_8  and  C_12 
REMARK    5  A    between atoms: C_12  and  S_11 
REMARK    6  A    between atoms: C_14  and  O_18 
REMARK    7  A    between atoms: O_18  and  C_15 
ROOT
ATOM      1  N   UNL d   1      -0.310  -1.290  -0.072  0.00  0.00    -0.277 N 
ATOM      2  C   UNL d   1       0.928  -0.654  -0.050  0.00  0.00     0.168 A 
ATOM      3  C   UNL d   1      -1.223  -0.233  -0.042  0.00  0.00     0.129 A 
ATOM      4  N   UNL d   1       0.775   0.645   0.034  0.00  0.00    -0.278 N 
ATOM      5  HN  UNL d   1       1.524   1.336   0.086  1.00  0.00     0.189 HD
ATOM      6  N   UNL d   1      -0.563   0.910   0.041  0.00  0.00    -0.285 N 
ATOM      7  HN  UNL d   1      -0.985   1.837   0.100  1.00  0.00     0.188 HD
ENDROOT
BRANCH   3   8
ATOM      8  C   UNL d   1      -2.710  -0.330   0.080  0.00  0.00     0.254 C 
BRANCH   8   9
ATOM      9  O   UNL d   1      -3.269   0.049  -1.182  0.00  0.00    -0.343 OA
BRANCH   9  10
ATOM     10  C   UNL d   1      -4.628   0.204  -1.235  0.00  0.00     0.076 A 
ATOM     11  C   UNL d   1      -5.145   0.831  -2.368  0.00  0.00    -0.018 A 
ATOM     12  C   UNL d   1      -6.524   1.000  -2.546  0.00  0.00    -0.043 A 
ATOM     13  C   UNL d   1      -4.372   1.416  -3.507  0.00  0.00     0.042 A 
ATOM     14  C   UNL d   1      -6.835   1.687  -3.839  0.00  0.00     0.040 A 
ATOM     15  C   UNL d   1      -7.437   0.551  -1.597  0.00  0.00    -0.055 A 
ATOM     16  C   UNL d   1      -5.456   1.960  -4.450  0.00  0.00     0.009 A 
ATOM     17  C   UNL d   1      -6.923  -0.062  -0.449  0.00  0.00     0.010 A 
ATOM     18  C   UNL d   1      -8.914   0.714  -1.792  0.00  0.00     0.049 C 
ATOM     19  C   UNL d   1      -5.538  -0.235  -0.270  0.00  0.00     0.038 A 
ENDBRANCH   9  10
ENDBRANCH   8   9
ENDBRANCH   3   8
BRANCH   1  20
ATOM     20  C   UNL d   1      -0.577  -2.693  -0.097  0.00  0.00     0.043 A 
ATOM     21  C   UNL d   1       0.236  -3.578   0.629  0.00  0.00     0.030 A 
ATOM     22  C   UNL d   1       0.024  -4.956   0.557  0.00  0.00     0.002 A 
ATOM     23  C   UNL d   1      -1.015  -5.460  -0.219  0.00  0.00     0.000 A 
ATOM     24  C   UNL d   1      -1.845  -4.586  -0.919  0.00  0.00     0.002 A 
ATOM     25  C   UNL d   1      -1.629  -3.205  -0.864  0.00  0.00     0.030 A 
ENDBRANCH   1  20
BRANCH   2  26
ATOM     26  S   UNL d   1       2.461  -1.436  -0.303  0.00  0.00    -0.087 SA
BRANCH  26  27
ATOM     27  C   UNL d   1       3.612  -0.035  -0.175  0.00  0.00     0.126 C 
BRANCH  27  28
ATOM     28  C   UNL d   1       5.028  -0.471  -0.457  0.00  0.00     0.012 A 
ATOM     29  C   UNL d   1       5.927  -0.888   0.536  0.00  0.00     0.044 A 
ATOM     30 CL   UNL d   1       5.493  -0.922   2.208  0.00  0.00    -0.084 Cl
ATOM     31  C   UNL d   1       7.224  -1.301   0.201  0.00  0.00     0.024 A 
ATOM     32  C   UNL d   1       7.640  -1.319  -1.131  0.00  0.00     0.005 A 
ATOM     33  C   UNL d   1       6.756  -0.921  -2.128  0.00  0.00     0.043 A 
ATOM     34  C   UNL d   1       5.471  -0.505  -1.786  0.00  0.00     0.125 A 
ATOM     35  F   UNL d   1       4.643  -0.133  -2.773  0.00  0.00    -0.205 F 
ENDBRANCH  27  28
ENDBRANCH  26  27
ENDBRANCH   2  26
TORSDOF 7
