REMARK  4 active torsions:
REMARK  status: ('A' for Active; 'I' for Inactive)
REMARK    1  A    between atoms: C_6  and  N_1 
REMARK    2  A    between atoms: C_8  and  C_4 
REMARK    3  A    between atoms: N_7  and  C_10 
REMARK    4  A    between atoms: C_17  and  C_8 
ROOT
ATOM      1  N   UNL d   1       0.141  -1.240  -0.065  0.00  0.00    -0.262 N 
ATOM      2  C   UNL d   1       0.995  -0.160   0.060  0.00  0.00     0.153 A 
ATOM      3  C   UNL d   1      -1.220  -0.960  -0.177  0.00  0.00     0.271 A 
ATOM      4  C   UNL d   1      -1.450   0.506  -0.028  0.00  0.00     0.077 A 
ATOM      5  S   UNL d   1       0.057   1.333   0.081  0.00  0.00    -0.054 SA
ATOM      6  S   UNL d   1       2.666  -0.130   0.098  0.00  0.00    -0.052 SA
ATOM      7  O   UNL d   1      -2.123  -1.769  -0.343  0.00  0.00    -0.266 OA
ENDROOT
BRANCH   4   8
ATOM      8  C   UNL d   1      -2.629   1.134   0.072  0.00  0.00     0.036 C 
BRANCH   8   9
ATOM      9  C   UNL d   1      -3.944   0.488   0.090  0.00  0.00    -0.032 A 
ATOM     10  C   UNL d   1      -4.615   0.208  -1.103  0.00  0.00     0.047 A 
ATOM     11  C   UNL d   1      -5.909  -0.331  -1.055  0.00  0.00     0.103 A 
ATOM     12  C   UNL d   1      -6.522  -0.619   0.172  0.00  0.00     0.036 A 
ATOM     13  C   UNL d   1      -5.832  -0.368   1.358  0.00  0.00     0.003 A 
ATOM     14  C   UNL d   1      -4.551   0.187   1.317  0.00  0.00     0.011 A 
BRANCH  11  15
ATOM     15  N   UNL d   1      -6.646  -0.553  -2.304  0.00  0.00    -0.116 N 
ATOM     16  O   UNL d   1      -6.077  -0.267  -3.368  0.00  0.00    -0.532 OA
ATOM     17  O   UNL d   1      -7.801  -0.994  -2.223  0.00  0.00    -0.532 OA
ENDBRANCH  11  15
ENDBRANCH   8   9
ENDBRANCH   4   8
BRANCH   1  18
ATOM     18  C   UNL d   1       0.560  -2.599  -0.099  0.00  0.00     0.047 A 
ATOM     19  C   UNL d   1       1.270  -3.155   0.972  0.00  0.00     0.075 A 
ATOM     20  C   UNL d   1       1.600  -4.508   0.949  0.00  0.00     0.157 A 
ATOM     21  F   UNL d   1       2.239  -5.042   1.998  0.00  0.00    -0.203 F 
ATOM     22  C   UNL d   1       1.252  -5.304  -0.136  0.00  0.00     0.154 A 
ATOM     23  C   UNL d   1       0.554  -4.764  -1.208  0.00  0.00     0.048 A 
ATOM     24  F   UNL d   1       1.575  -6.604  -0.150  0.00  0.00    -0.203 F 
ATOM     25  C   UNL d   1       0.194  -3.415  -1.183  0.00  0.00     0.033 A 
ENDBRANCH   1  18
TORSDOF 4
