REMARK  3 active torsions:
REMARK  status: ('A' for Active; 'I' for Inactive)
REMARK    1  A    between atoms: N_6  and  N_1 
REMARK    2  A    between atoms: C_11  and  N_6 
REMARK    3  A    between atoms: N_7  and  C_10 
ROOT
ATOM      1  N   UNL d   1       3.247   0.033  -0.384  0.00  0.00    -0.193 NA
ATOM      2  H   UNL d   1       3.626  -0.623  -1.066  0.00  0.00     0.153 HD
ENDROOT
BRANCH   1   3
ATOM      3  N   UNL d   1       2.874  -0.633   0.794  0.00  0.00    -0.200 N 
ATOM      4  C   UNL d   1       1.642  -1.248   0.841  0.00  0.00     0.276 C 
ATOM      5  C   UNL d   1       1.737  -2.248   1.906  0.00  0.00     0.049 A 
ATOM      6  O   UNL d   1       0.669  -1.141   0.115  0.00  0.00    -0.266 OA
ATOM      7  C   UNL d   1       0.795  -3.143   2.376  0.00  0.00     0.018 A 
ATOM      8  C   UNL d   1       3.048  -2.269   2.351  0.00  0.00     0.049 A 
ATOM      9  C   UNL d   1       1.212  -4.062   3.345  0.00  0.00     0.001 A 
ATOM     10  C   UNL d   1       2.545  -4.072   3.808  0.00  0.00     0.001 A 
ATOM     11  C   UNL d   1       3.485  -3.169   3.303  0.00  0.00     0.018 A 
ATOM     12  C   UNL d   1       3.806  -1.304   1.556  0.00  0.00     0.276 C 
ATOM     13  O   UNL d   1       5.024  -1.268   1.545  0.00  0.00    -0.266 OA
ENDBRANCH   1   3
BRANCH   1  14
ATOM     14  C   UNL d   1       4.080   1.166  -0.244  0.00  0.00     0.028 A 
ATOM     15  C   UNL d   1       4.925   1.491  -1.308  0.00  0.00     0.027 A 
ATOM     16  C   UNL d   1       5.715   2.643  -1.278  0.00  0.00     0.031 A 
ATOM     17  C   UNL d   1       5.674   3.545  -0.207  0.00  0.00     0.030 A 
ATOM     18  C   UNL d   1       4.817   3.218   0.852  0.00  0.00     0.031 A 
ATOM     19  C   UNL d   1       4.017   2.058   0.828  0.00  0.00     0.027 A 
BRANCH  17  20
ATOM     20  N   UNL d   1       6.499   4.658  -0.221  0.00  0.00    -0.377 N 
ATOM     21  C   UNL d   1       6.809   5.416   1.001  0.00  0.00     0.149 C 
ATOM     22  C   UNL d   1       8.172   6.107   0.805  0.00  0.00     0.187 C 
ATOM     23  O   UNL d   1       8.171   6.969  -0.348  0.00  0.00    -0.388 OA
ATOM     24  C   UNL d   1       7.865   6.216  -1.535  0.00  0.00     0.187 C 
ATOM     25  C   UNL d   1       6.501   5.516  -1.425  0.00  0.00     0.149 C 
ENDBRANCH  17  20
ENDBRANCH   1  14
TORSDOF 3
