REMARK  5 active torsions:
REMARK  status: ('A' for Active; 'I' for Inactive)
REMARK    1  A    between atoms: C_3  and  C_1 
REMARK       I    between atoms: N_4  and  C_1 
REMARK    2  A    between atoms: C_2  and  N_4 
REMARK    3  A    between atoms: S_14  and  C_9 
REMARK    4  A    between atoms: C_18  and  S_14 
REMARK    5  A    between atoms: C_20  and  C_18 
ROOT
ATOM      1  C   UNL d   1       0.127   0.600   0.828  0.00  0.00     0.065 A 
ATOM      2  C   UNL d   1      -0.845  -0.132   1.528  0.00  0.00     0.085 A 
ATOM      3  N   UNL d   1      -1.519   0.409   2.582  0.00  0.00    -0.360 N 
ATOM      4  HN  UNL d   1      -2.210  -0.140   3.094  1.00  0.00     0.166 HD
ATOM      5  C   UNL d   1       0.396   1.913   1.245  0.00  0.00     0.021 A 
ATOM      6  C   UNL d   1      -1.255   1.682   2.936  0.00  0.00     0.089 A 
ATOM      7  C   UNL d   1      -0.303   2.464   2.316  0.00  0.00     0.018 A 
ENDROOT
BRANCH   1   8
ATOM      8  C   UNL d   1       0.747   0.128  -0.434  0.00  0.00     0.260 C 
ATOM      9  N   UNL d   1       2.093   0.429  -0.598  0.00  0.00    -0.301 N 
ATOM     10  H   UNL d   1       2.640   0.782   0.174  0.00  0.00     0.171 HD
ATOM     11  O   UNL d   1       0.030  -0.416  -1.266  0.00  0.00    -0.267 OA
BRANCH   9  12
ATOM     12  C   UNL d   1       2.720   0.291  -1.819  0.00  0.00     0.174 A 
ATOM     13  C   UNL d   1       4.024   0.517  -2.194  0.00  0.00     0.085 A 
ATOM     14  C   UNL d   1       4.046   0.240  -3.584  0.00  0.00     0.033 A 
ATOM     15  C   UNL d   1       5.179   0.304  -4.534  0.00  0.00     0.070 C 
ATOM     16  N   UNL d   1       2.835  -0.113  -4.026  0.00  0.00    -0.264 N 
ATOM     17  O   UNL d   1       2.010  -0.088  -2.916  0.00  0.00    -0.220 OA
ATOM     18  HN  UNL d   1       2.574  -0.352  -4.983  1.00  0.00     0.194 HD
ENDBRANCH   9  12
ENDBRANCH   1   8
BRANCH   2  19
ATOM     19  S   UNL d   1      -1.214  -1.859   1.227  0.00  0.00    -0.111 SA
BRANCH  19  20
ATOM     20  C   UNL d   1      -2.939  -1.936   1.834  0.00  0.00     0.080 C 
BRANCH  20  21
ATOM     21  C   UNL d   1      -3.515  -3.344   1.682  0.00  0.00     0.006 C 
ATOM     22  C   UNL d   1      -4.972  -3.389   2.125  0.00  0.00     0.006 C 
ENDBRANCH  20  21
ENDBRANCH  19  20
ENDBRANCH   2  19
TORSDOF 5
