REMARK  6 active torsions:
REMARK  status: ('A' for Active; 'I' for Inactive)
REMARK    1  A    between atoms: C_3  and  C_1 
REMARK    2  A    between atoms: C_6  and  C_3 
REMARK    3  A    between atoms: C_7  and  C_3 
REMARK    4  A    between atoms: O_22  and  C_8 
REMARK    5  A    between atoms: N_11  and  C_9 
REMARK    6  A    between atoms: N_12  and  C_10 
ROOT
ATOM      1  C   UNL d   1       1.814   1.515  -0.112  0.00  0.00     0.085 C 
ENDROOT
BRANCH   1   2
ATOM      2  C   UNL d   1       0.547   0.640  -0.011  0.00  0.00    -0.039 A 
ATOM      3  C   UNL d   1       0.246  -0.205   1.091  0.00  0.00    -0.046 A 
ATOM      4  C   UNL d   1      -0.913  -1.036   1.038  0.00  0.00    -0.022 A 
ATOM      5  C   UNL d   1       1.143  -0.286   2.305  0.00  0.00     0.049 C 
ATOM      6  C   UNL d   1      -1.250  -2.029   2.130  0.00  0.00     0.052 C 
ATOM      7  C   UNL d   1      -1.808  -0.946  -0.053  0.00  0.00     0.074 A 
ATOM      8  C   UNL d   1      -1.525  -0.085  -1.106  0.00  0.00     0.038 A 
ATOM      9  C   UNL d   1      -0.364   0.678  -1.091  0.00  0.00     0.011 A 
BRANCH   7  10
ATOM     10  O   UNL d   1      -2.921  -1.746   0.011  0.00  0.00    -0.355 OA
ATOM     11  C   UNL d   1      -3.873  -1.630  -1.040  0.00  0.00     0.210 C 
ENDBRANCH   7  10
ENDBRANCH   1   2
BRANCH   1  12
ATOM     12  C   UNL d   1       2.658   1.144  -1.348  0.00  0.00    -0.045 A 
ATOM     13  C   UNL d   1       2.493   1.779  -2.585  0.00  0.00     0.010 A 
ATOM     14  C   UNL d   1       3.322   1.472  -3.673  0.00  0.00     0.030 A 
ATOM     15  C   UNL d   1       4.354   0.523  -3.586  0.00  0.00     0.029 A 
ATOM     16  C   UNL d   1       4.488  -0.124  -2.346  0.00  0.00     0.030 A 
ATOM     17  C   UNL d   1       3.650   0.163  -1.250  0.00  0.00     0.010 A 
BRANCH  15  18
ATOM     18  N   UNL d   1       5.256   0.297  -4.626  0.00  0.00    -0.390 N 
ATOM     19  C   UNL d   1       5.766  -1.054  -4.859  0.00  0.00     0.149 C 
ATOM     20  C   UNL d   1       5.218   1.137  -5.821  0.00  0.00     0.149 C 
ENDBRANCH  15  18
ENDBRANCH   1  12
BRANCH   1  21
ATOM     21  C   UNL d   1       1.603   3.037   0.027  0.00  0.00    -0.045 A 
ATOM     22  C   UNL d   1       0.354   3.647   0.172  0.00  0.00     0.010 A 
ATOM     23  C   UNL d   1       0.226   5.049   0.190  0.00  0.00     0.030 A 
ATOM     24  C   UNL d   1       1.331   5.905   0.085  0.00  0.00     0.029 A 
ATOM     25  C   UNL d   1       2.583   5.278   0.018  0.00  0.00     0.030 A 
ATOM     26  C   UNL d   1       2.722   3.884  -0.008  0.00  0.00     0.010 A 
BRANCH  24  27
ATOM     27  N   UNL d   1       1.226   7.292   0.104  0.00  0.00    -0.390 N 
ATOM     28  C   UNL d   1       2.099   8.088  -0.761  0.00  0.00     0.149 C 
ATOM     29  C   UNL d   1      -0.017   7.953   0.485  0.00  0.00     0.149 C 
ENDBRANCH  24  27
ENDBRANCH   1  21
TORSDOF 6
