REMARK  8 active torsions:
REMARK  status: ('A' for Active; 'I' for Inactive)
REMARK    1  A    between atoms: C_4  and  C_1 
REMARK    2  A    between atoms: C_5  and  C_1 
REMARK    3  A    between atoms: C_6  and  C_1 
REMARK    4  A    between atoms: C_2  and  C_5 
REMARK    5  A    between atoms: C_9  and  C_2 
REMARK    6  A    between atoms: C_3  and  C_6 
REMARK    7  A    between atoms: C_10  and  C_3 
REMARK    8  A    between atoms: O_29  and  C_11 
ROOT
ATOM      1  C   UNL d   1       1.167  -0.264   0.328  0.00  0.00     0.033 C 
ENDROOT
BRANCH   1   2
ATOM      2  C   UNL d   1       0.988  -1.170   1.556  0.00  0.00    -0.052 A 
ATOM      3  C   UNL d   1      -0.274  -1.256   2.174  0.00  0.00     0.029 A 
ATOM      4  C   UNL d   1      -0.470  -1.958   3.373  0.00  0.00     0.044 A 
ATOM      5 BR   UNL d   1      -2.242  -1.989   4.051  0.00  0.00    -0.048 Br
ATOM      6  C   UNL d   1       0.603  -2.615   3.975  0.00  0.00     0.085 A 
ATOM      7  C   UNL d   1       1.831  -2.639   3.313  0.00  0.00     0.039 A 
ATOM      8  C   UNL d   1       2.023  -1.924   2.123  0.00  0.00     0.010 A 
BRANCH   6   9
ATOM      9  O   UNL d   1       0.548  -3.332   5.140  0.00  0.00    -0.355 OA
ATOM     10  C   UNL d   1       0.151  -2.559   6.274  0.00  0.00     0.210 C 
ENDBRANCH   6   9
ENDBRANCH   1   2
BRANCH   1  11
ATOM     11  C   UNL d   1       0.503   1.131   0.570  0.00  0.00     0.093 C 
BRANCH  11  12
ATOM     12  C   UNL d   1       1.015   1.843   1.821  0.00  0.00     0.160 C 
ATOM     13  O   UNL d   1       2.194   1.796   2.171  0.00  0.00    -0.292 OA
BRANCH  12  14
ATOM     14  C   UNL d   1       0.078   2.659   2.644  0.00  0.00     0.010 A 
ATOM     15  C   UNL d   1       0.364   2.822   4.007  0.00  0.00     0.018 A 
ATOM     16  C   UNL d   1      -0.447   3.627   4.809  0.00  0.00     0.043 A 
ATOM     17  C   UNL d   1      -1.536   4.278   4.242  0.00  0.00     0.116 A 
ATOM     18  C   UNL d   1      -1.835   4.123   2.893  0.00  0.00     0.043 A 
ATOM     19  F   UNL d   1      -2.300   5.071   5.003  0.00  0.00    -0.206 F 
ATOM     20  C   UNL d   1      -1.029   3.312   2.085  0.00  0.00     0.018 A 
ENDBRANCH  12  14
ENDBRANCH  11  12
ENDBRANCH   1  11
BRANCH   1  21
ATOM     21  C   UNL d   1       2.621  -0.030  -0.149  0.00  0.00     0.093 C 
BRANCH  21  22
ATOM     22  C   UNL d   1       3.288  -1.201  -0.855  0.00  0.00     0.160 C 
ATOM     23  O   UNL d   1       2.673  -1.931  -1.631  0.00  0.00    -0.292 OA
BRANCH  22  24
ATOM     24  C   UNL d   1       4.744  -1.451  -0.596  0.00  0.00     0.010 A 
ATOM     25  C   UNL d   1       5.562  -0.501   0.039  0.00  0.00     0.018 A 
ATOM     26  C   UNL d   1       6.878  -0.820   0.390  0.00  0.00     0.043 A 
ATOM     27  C   UNL d   1       7.385  -2.073   0.078  0.00  0.00     0.116 A 
ATOM     28  C   UNL d   1       6.609  -3.005  -0.601  0.00  0.00     0.043 A 
ATOM     29  F   UNL d   1       8.634  -2.385   0.443  0.00  0.00    -0.206 F 
ATOM     30  C   UNL d   1       5.293  -2.699  -0.938  0.00  0.00     0.018 A 
ENDBRANCH  22  24
ENDBRANCH  21  22
ENDBRANCH   1  21
TORSDOF 8
