REMARK  4 active torsions:
REMARK  status: ('A' for Active; 'I' for Inactive)
REMARK    1  A    between atoms: C_5  and  C_1 
REMARK    2  A    between atoms: C_2  and  C_4 
REMARK       I    between atoms: C_3  and  N_6 
REMARK    3  A    between atoms: C_7  and  C_3 
REMARK    4  A    between atoms: N_6  and  C_8 
ROOT
ATOM      1  C   UNL d   1       0.843   3.896  -0.094  0.00  0.00     0.050 A 
ATOM      2  C   UNL d   1       0.747   1.485  -0.428  0.00  0.00     0.050 A 
ATOM      3  C   UNL d   1      -1.165   2.871  -1.048  0.00  0.00     0.036 A 
ATOM      4  C   UNL d   1       1.433   2.628   0.003  0.00  0.00     0.032 A 
ATOM      5  C   UNL d   1      -0.460   4.003  -0.616  0.00  0.00     0.045 A 
ATOM      6  C   UNL d   1      -0.538   1.626  -0.981  0.00  0.00     0.045 A 
ENDROOT
BRANCH   3   7
ATOM      7  N   UNL d   1      -2.505   3.053  -1.465  0.00  0.00    -0.323 N 
ATOM      8  C   UNL d   1      -3.393   2.059  -1.844  0.00  0.00     0.256 C 
ATOM      9  O   UNL d   1      -3.132   0.873  -2.014  0.00  0.00    -0.267 OA
ATOM     10  H   UNL d   1      -2.868   3.990  -1.349  0.00  0.00     0.169 HD
BRANCH   8  11
ATOM     11  C   UNL d   1      -4.816   2.476  -1.993  0.00  0.00     0.034 A 
ATOM     12  C   UNL d   1      -5.189   3.748  -2.443  0.00  0.00     0.042 A 
ATOM     13  C   UNL d   1      -6.545   4.090  -2.521  0.00  0.00     0.056 A 
ATOM     14 CL   UNL d   1      -6.935   5.683  -3.069  0.00  0.00    -0.083 Cl
ATOM     15  C   UNL d   1      -7.533   3.162  -2.161  0.00  0.00     0.055 A 
ATOM     16  C   UNL d   1      -7.160   1.884  -1.740  0.00  0.00     0.026 A 
ATOM     17 CL   UNL d   1      -9.219   3.532  -2.211  0.00  0.00    -0.083 Cl
ATOM     18  C   UNL d   1      -5.808   1.542  -1.661  0.00  0.00     0.019 A 
ENDBRANCH   8  11
ENDBRANCH   3   7
BRANCH   2  19
ATOM     19  C   UNL d   1       1.344   0.105  -0.283  0.00  0.00     0.417 C 
ATOM     20  F   UNL d   1       2.494   0.094   0.449  0.00  0.00    -0.166 F 
ATOM     21  F   UNL d   1       1.655  -0.462  -1.479  0.00  0.00    -0.166 F 
ATOM     22  F   UNL d   1       0.502  -0.763   0.343  0.00  0.00    -0.166 F 
ENDBRANCH   2  19
BRANCH   1  23
ATOM     23  C   UNL d   1       1.575   5.133   0.370  0.00  0.00     0.417 C 
ATOM     24  F   UNL d   1       2.795   4.872   0.915  0.00  0.00    -0.166 F 
ATOM     25  F   UNL d   1       1.797   6.015  -0.643  0.00  0.00    -0.166 F 
ATOM     26  F   UNL d   1       0.881   5.819   1.319  0.00  0.00    -0.166 F 
ENDBRANCH   1  23
TORSDOF 4
