REMARK  4 active torsions:
REMARK  status: ('A' for Active; 'I' for Inactive)
REMARK    1  A    between atoms: C_2  and  N_1 
REMARK       I    between atoms: C_3  and  N_1 
REMARK    2  A    between atoms: C_5  and  C_3 
REMARK    3  A    between atoms: C_6  and  C_7 
REMARK    4  A    between atoms: O_14  and  C_6 
ROOT
ATOM      1  N   UNL d   1       1.115  -0.132  -0.070  0.00  0.00    -0.322 N 
ATOM      2  C   UNL d   1       2.490  -0.040  -0.165  0.00  0.00     0.245 C 
ATOM      3  O   UNL d   1       3.298  -0.330   0.703  0.00  0.00    -0.268 OA
ATOM      4  H   UNL d   1       0.590  -0.239  -0.930  0.00  0.00     0.169 HD
ENDROOT
BRANCH   1   5
ATOM      5  C   UNL d   1       0.446  -0.506   1.117  0.00  0.00     0.051 A 
ATOM      6  C   UNL d   1      -0.640  -1.395   1.077  0.00  0.00     0.034 A 
ATOM      7  C   UNL d   1      -1.305  -1.757   2.253  0.00  0.00     0.038 A 
ATOM      8  I   UNL d   1      -1.229  -2.339  -0.705  0.00  0.00    -0.042 I 
ATOM      9  C   UNL d   1      -0.906  -1.201   3.469  0.00  0.00     0.007 A 
ATOM     10  C   UNL d   1       0.151  -0.294   3.518  0.00  0.00     0.020 A 
ATOM     11  I   UNL d   1      -1.883  -1.742   5.222  0.00  0.00    -0.045 I 
ATOM     12  C   UNL d   1       0.832   0.043   2.345  0.00  0.00     0.032 A 
ENDBRANCH   1   5
BRANCH   2  13
ATOM     13  C   UNL d   1       2.926   0.395  -1.514  0.00  0.00     0.081 C 
ATOM     14  C   UNL d   1       4.218   0.309  -1.865  0.00  0.00     0.086 C 
BRANCH  14  15
ATOM     15  C   UNL d   1       4.604   0.810  -3.193  0.00  0.00     0.165 C 
ATOM     16  O   UNL d   1       3.827   1.302  -3.986  0.00  0.00    -0.647 OA
BRANCH  15  17
ATOM     17  O   UNL d   1       5.921   0.667  -3.437  0.00  0.00    -0.773 OA
ATOM     18  H   UNL d   1       6.446   0.259  -2.721  0.00  0.00     0.167 HD
ENDBRANCH  15  17
ENDBRANCH  14  15
ENDBRANCH   2  13
TORSDOF 4
