REMARK  4 active torsions:
REMARK  status: ('A' for Active; 'I' for Inactive)
REMARK    1  A    between atoms: C_2  and  S_1 
REMARK    2  A    between atoms: N_11  and  S_1 
REMARK    3  A    between atoms: C_9  and  C_18 
REMARK    4  A    between atoms: C_18  and  N_11 
ROOT
ATOM      1  N   UNL d   1       0.530  -1.289  -0.891  0.00  0.00    -0.309 N 
ATOM      2  H   UNL d   1      -0.467  -1.505  -0.841  0.00  0.00     0.172 HD
ENDROOT
BRANCH   1   3
ATOM      3  S   UNL d   1       0.985   0.082  -0.055  0.00  0.00     0.265 S 
ATOM      4  O   UNL d   1       0.330   0.050   1.234  0.00  0.00    -0.200 OA
ATOM      5  O   UNL d   1       2.416   0.231  -0.185  0.00  0.00    -0.200 OA
BRANCH   3   6
ATOM      6  C   UNL d   1       0.318   1.504  -0.885  0.00  0.00     0.121 A 
ATOM      7  S   UNL d   1      -1.377   1.577  -1.038  0.00  0.00    -0.076 SA
ATOM      8  C   UNL d   1      -1.323   3.141  -1.762  0.00  0.00     0.016 A 
ATOM      9  C   UNL d   1      -2.418   3.936  -2.154  0.00  0.00     0.019 A 
ATOM     10  C   UNL d   1      -0.006   3.579  -1.930  0.00  0.00    -0.017 A 
ATOM     11  C   UNL d   1      -2.175   5.198  -2.703  0.00  0.00     0.001 A 
ATOM     12  C   UNL d   1      -0.876   5.657  -2.873  0.00  0.00     0.001 A 
ATOM     13  C   UNL d   1       0.208   4.857  -2.500  0.00  0.00     0.013 A 
ATOM     14  C   UNL d   1       0.927   2.606  -1.450  0.00  0.00     0.045 A 
ENDBRANCH   3   6
ENDBRANCH   1   3
BRANCH   1  15
ATOM     15  C   UNL d   1       1.095  -1.450  -2.231  0.00  0.00     0.189 C 
BRANCH  15  16
ATOM     16  C   UNL d   1       0.577  -2.733  -2.810  0.00  0.00     0.035 A 
ATOM     17  N   UNL d   1      -0.712  -3.167  -2.494  0.00  0.00    -0.351 N 
ATOM     18  C   UNL d   1      -0.952  -4.341  -3.051  0.00  0.00     0.091 A 
ATOM     19  HN  UNL d   1      -1.375  -2.650  -1.916  1.00  0.00     0.166 HD
ATOM     20  C   UNL d   1      -2.189  -5.055  -2.816  0.00  0.00     0.038 A 
ATOM     21  S   UNL d   1       0.321  -4.936  -4.049  0.00  0.00    -0.081 SA
ATOM     22  S   UNL d   1      -2.525  -6.615  -3.459  0.00  0.00    -0.099 SA
ATOM     23  C   UNL d   1      -3.251  -4.613  -2.043  0.00  0.00     0.022 A 
ATOM     24  C   UNL d   1      -4.051  -6.690  -2.699  0.00  0.00     0.050 A 
ATOM     25  C   UNL d   1      -4.321  -5.552  -1.974  0.00  0.00     0.008 A 
ATOM     26  C   UNL d   1       1.270  -3.570  -3.662  0.00  0.00     0.078 A 
ENDBRANCH  15  16
ENDBRANCH   1  15
TORSDOF 4
