REMARK  1 active torsions:
REMARK  status: ('A' for Active; 'I' for Inactive)
REMARK    1  A    between atoms: C_7  and  C_4 
ROOT
ATOM      1  N   UNL d   1       0.001  -0.910  -0.185  0.00  0.00    -0.298 N 
ATOM      2  C   UNL d   1       1.233  -0.315  -0.131  0.00  0.00     0.224 C 
ATOM      3  C   UNL d   1      -1.225  -0.333   0.021  0.00  0.00     0.224 C 
ATOM      4  C   UNL d   1      -0.038   1.852  -0.254  0.00  0.00     0.036 C 
ATOM      5  C   UNL d   1       1.269   1.166   0.148  0.00  0.00     0.113 C 
ATOM      6  C   UNL d   1      -1.228   1.130   0.378  0.00  0.00     0.113 C 
ATOM      7  O   UNL d   1      -2.252  -1.003  -0.013  0.00  0.00    -0.273 OA
ATOM      8  O   UNL d   1       2.259  -0.983  -0.239  0.00  0.00    -0.273 OA
ATOM      9  H   UNL d   1      -0.002  -1.906  -0.357  0.00  0.00     0.171 HD
ENDROOT
BRANCH   4  10
ATOM     10  C   UNL d   1      -0.021   3.325   0.118  0.00  0.00    -0.053 A 
ATOM     11  C   UNL d   1       0.069   3.740   1.457  0.00  0.00     0.009 A 
ATOM     12  C   UNL d   1       0.087   5.097   1.788  0.00  0.00     0.024 A 
ATOM     13  C   UNL d   1       0.015   6.054   0.780  0.00  0.00     0.034 A 
ATOM     14  C   UNL d   1      -0.075   5.664  -0.554  0.00  0.00     0.024 A 
ATOM     15 CL   UNL d   1       0.038   7.725   1.187  0.00  0.00    -0.084 Cl
ATOM     16  C   UNL d   1      -0.093   4.305  -0.884  0.00  0.00     0.009 A 
ENDBRANCH   4  10
TORSDOF 1
