REMARK  5 active torsions:
REMARK  status: ('A' for Active; 'I' for Inactive)
REMARK    1  A    between atoms: N_2  and  S_1 
REMARK    2  A    between atoms: C_8  and  S_1 
REMARK    3  A    between atoms: C_5  and  C_3 
REMARK    4  A    between atoms: C_6  and  C_5 
REMARK       I    between atoms: N_9  and  C_6 
REMARK    5  A    between atoms: C_7  and  N_9 
ROOT
ATOM      1  C   UNL d   1       2.631   1.184   0.412  0.00  0.00     0.074 A 
ATOM      2  N   UNL d   1       7.036   3.757   2.077  0.00  0.00    -0.191 NA
ATOM      3  C   UNL d   1       6.096   3.191   1.715  0.00  0.00     0.099 C 
ATOM      4  C   UNL d   1       3.856   0.907  -0.203  0.00  0.00     0.026 A 
ATOM      5  C   UNL d   1       2.534   2.142   1.424  0.00  0.00     0.026 A 
ATOM      6  C   UNL d   1       4.917   2.510   1.267  0.00  0.00     0.044 A 
ATOM      7  C   UNL d   1       5.004   1.568   0.235  0.00  0.00     0.024 A 
ATOM      8  C   UNL d   1       3.683   2.801   1.857  0.00  0.00     0.024 A 
ENDROOT
BRANCH   1   9
ATOM      9  S   UNL d   1       1.151   0.367  -0.108  0.00  0.00     0.244 S 
ATOM     10  O   UNL d   1       0.184   1.405  -0.360  0.00  0.00    -0.206 OA
ATOM     11  O   UNL d   1       1.497  -0.603  -1.126  0.00  0.00    -0.206 OA
BRANCH   9  12
ATOM     12  N   UNL d   1       0.655  -0.481   1.329  0.00  0.00    -0.191 NA
ATOM     13  C   UNL d   1       1.245  -1.868   1.544  0.00  0.00     0.175 C 
ATOM     14  C   UNL d   1       0.782  -2.826   0.421  0.00  0.00     0.237 C 
ATOM     15  O   UNL d   1       1.490  -3.703  -0.066  0.00  0.00    -0.272 OA
ATOM     16  N   UNL d   1      -0.539  -2.728   0.039  0.00  0.00    -0.358 N 
ATOM     17  C   UNL d   1      -1.356  -1.544   0.254  0.00  0.00     0.138 C 
ATOM     18  H   UNL d   1      -0.756  -3.318  -0.759  0.00  0.00     0.162 HD
ATOM     19  C   UNL d   1      -0.852  -0.631   1.381  0.00  0.00     0.128 C 
BRANCH  13  20
ATOM     20  C   UNL d   1       2.748  -1.924   1.750  0.00  0.00     0.133 C 
BRANCH  20  21
ATOM     21  C   UNL d   1       3.340  -1.429   3.061  0.00  0.00     0.224 C 
ATOM     22  N   UNL d   1       2.731  -0.355   3.672  0.00  0.00    -0.326 N 
ATOM     23  H   UNL d   1       1.788  -0.107   3.385  0.00  0.00     0.169 HD
ATOM     24  O   UNL d   1       4.377  -1.956   3.467  0.00  0.00    -0.273 OA
BRANCH  22  25
ATOM     25  C   UNL d   1       3.298   0.469   4.694  0.00  0.00     0.058 A 
ATOM     26  C   UNL d   1       4.653   0.416   5.051  0.00  0.00     0.055 A 
ATOM     27  C   UNL d   1       5.189   1.329   5.966  0.00  0.00     0.036 A 
ATOM     28 CL   UNL d   1       6.857   1.240   6.386  0.00  0.00    -0.084 Cl
ATOM     29  C   UNL d   1       4.393   2.316   6.537  0.00  0.00     0.026 A 
ATOM     30  C   UNL d   1       3.035   2.361   6.226  0.00  0.00     0.028 A 
ATOM     31  C   UNL d   1       2.490   1.438   5.322  0.00  0.00     0.060 A 
ATOM     32 CL   UNL d   1       0.790   1.513   5.011  0.00  0.00    -0.082 Cl
ENDBRANCH  22  25
ENDBRANCH  20  21
ENDBRANCH  13  20
ENDBRANCH   9  12
ENDBRANCH   1   9
TORSDOF 5
