REMARK  1 active torsions:
REMARK  status: ('A' for Active; 'I' for Inactive)
REMARK    1  A    between atoms: C_13  and  C_4 
ROOT
ATOM      1  C   UNL d   1       1.344   0.826  -0.020  0.00  0.00     0.006 A 
ATOM      2  C   UNL d   1       0.740  -0.373  -0.025  0.00  0.00     0.057 A 
ATOM      3  C   UNL d   1       3.573  -0.218  -0.005  0.00  0.00     0.124 A 
ATOM      4  C   UNL d   1       2.822   0.911  -0.016  0.00  0.00     0.013 A 
ATOM      5  N   UNL d   1       1.504  -1.512  -0.020  0.00  0.00    -0.321 N 
ATOM      6  C   UNL d   1       2.875  -1.536  -0.002  0.00  0.00     0.267 A 
ATOM      7  C   UNL d   1      -0.733  -0.427  -0.019  0.00  0.00     0.025 A 
ATOM      8  C   UNL d   1       0.547   2.109  -0.008  0.00  0.00     0.217 A 
ATOM      9  C   UNL d   1       5.002  -0.227   0.010  0.00  0.00     0.106 C 
ATOM     10  O   UNL d   1      -0.876   2.010  -0.089  0.00  0.00    -0.346 OA
ATOM     11  N   UNL d   1       6.161  -0.180   0.024  0.00  0.00    -0.191 NA
ATOM     12  C   UNL d   1      -1.450   0.775  -0.042  0.00  0.00     0.081 A 
ATOM     13  O   UNL d   1       3.480  -2.603   0.017  0.00  0.00    -0.266 OA
ATOM     14  C   UNL d   1      -1.470  -1.625   0.008  0.00  0.00     0.016 A 
ATOM     15  C   UNL d   1      -2.851   0.784  -0.034  0.00  0.00     0.038 A 
ATOM     16  C   UNL d   1      -2.871  -1.615   0.015  0.00  0.00     0.001 A 
ATOM     17  C   UNL d   1      -3.563  -0.410  -0.003  0.00  0.00     0.003 A 
ATOM     18  H   UNL d   1       1.072  -2.425  -0.018  0.00  0.00     0.169 HD
ENDROOT
BRANCH   4  19
ATOM     19  C   UNL d   1       3.509   2.222  -0.019  0.00  0.00    -0.008 A 
ATOM     20  C   UNL d   1       3.848   2.858  -1.211  0.00  0.00     0.100 A 
ATOM     21  N   UNL d   1       4.404   4.088  -1.278  0.00  0.00    -0.374 N 
ATOM     22  C   UNL d   1       4.652   4.708  -0.104  0.00  0.00     0.087 A 
ATOM     23  HN  UNL d   1       4.627   4.527  -2.171  1.00  0.00     0.164 HD
ATOM     24  C   UNL d   1       4.365   4.155   1.135  0.00  0.00     0.018 A 
ATOM     25  C   UNL d   1       3.783   2.891   1.176  0.00  0.00     0.015 A 
ENDBRANCH   4  19
TORSDOF 1
