REMARK  3 active torsions:
REMARK  status: ('A' for Active; 'I' for Inactive)
REMARK    1  A    between atoms: S_14  and  C_9 
REMARK    2  A    between atoms: C_13  and  C_16 
REMARK       I    between atoms: N_17  and  C_13 
REMARK    3  A    between atoms: C_16  and  S_14 
ROOT
ATOM      1  C   UNL d   1       1.244  -0.863   0.017  0.00  0.00     0.137 A 
ATOM      2  C   UNL d   1       0.852   0.464   0.021  0.00  0.00     0.104 A 
ATOM      3  N   UNL d   1       2.504  -1.320   0.015  0.00  0.00    -0.320 N 
ATOM      4  HN  UNL d   1       2.761  -2.307   0.013  1.00  0.00     0.169 HD
ATOM      5  N   UNL d   1       0.120  -1.635   0.014  0.00  0.00    -0.340 N 
ATOM      6  N   UNL d   1       1.796   1.439   0.029  0.00  0.00    -0.294 N 
ATOM      7  HN  UNL d   1       1.550   2.429   0.044  1.00  0.00     0.187 HD
ATOM      8  C   UNL d   1      -0.571   0.495   0.015  0.00  0.00     0.022 A 
ATOM      9  C   UNL d   1       3.387  -0.302   0.017  0.00  0.00     0.161 A 
ATOM     10  C   UNL d   1      -1.005  -0.837   0.012  0.00  0.00     0.046 A 
ATOM     11  N   UNL d   1       3.073   1.026   0.015  0.00  0.00    -0.279 N 
ATOM     12  HN  UNL d   1       3.823   1.717   0.001  1.00  0.00     0.189 HD
ATOM     13  C   UNL d   1      -1.543   1.517   0.008  0.00  0.00     0.016 A 
ATOM     14  C   UNL d   1      -2.357  -1.195   0.005  0.00  0.00     0.030 A 
ATOM     15  C   UNL d   1      -2.903   1.173   0.001  0.00  0.00     0.001 A 
ATOM     16  C   UNL d   1      -3.299  -0.163   0.001  0.00  0.00     0.002 A 
ATOM     17  H   UNL d   1       0.126  -2.644   0.011  0.00  0.00     0.167 HD
ENDROOT
BRANCH   9  18
ATOM     18  S   UNL d   1       5.101  -0.780  -0.021  0.00  0.00    -0.083 SA
BRANCH  18  19
ATOM     19  C   UNL d   1       5.870   0.603   0.867  0.00  0.00     0.184 C 
BRANCH  19  20
ATOM     20  C   UNL d   1       5.370   0.692   2.294  0.00  0.00     0.225 C 
ATOM     21  O   UNL d   1       5.747  -0.043   3.200  0.00  0.00    -0.273 OA
ATOM     22  N   UNL d   1       4.450   1.675   2.536  0.00  0.00    -0.369 N 
ATOM     23  H   UNL d   1       3.881   2.047   1.780  0.00  0.00     0.159 HD
ATOM     24  H   UNL d   1       4.034   1.678   3.459  0.00  0.00     0.159 HD
ENDBRANCH  19  20
ENDBRANCH  18  19
ENDBRANCH   9  18
TORSDOF 3
