REMARK  6 active torsions:
REMARK  status: ('A' for Active; 'I' for Inactive)
REMARK    1  A    between atoms: N_2  and  S_1 
REMARK    2  A    between atoms: C_5  and  S_1 
REMARK    3  A    between atoms: C_3  and  N_2 
REMARK    4  A    between atoms: O_8  and  C_4 
REMARK    5  A    between atoms: C_13  and  O_8 
REMARK    6  A    between atoms: O_24  and  C_15 
ROOT
ATOM      1  C   UNL d   1       0.961  -2.596  -1.007  0.00  0.00     0.094 A 
ATOM      2  C   UNL d   1      -0.090  -3.349  -1.542  0.00  0.00     0.175 A 
ATOM      3  N   UNL d   1       0.059  -4.183  -2.605  0.00  0.00    -0.345 N 
ATOM      4  HN  UNL d   1      -0.717  -4.746  -2.952  1.00  0.00     0.167 HD
ATOM      5  C   UNL d   1       2.200  -2.665  -1.643  0.00  0.00     0.036 A 
ATOM      6  C   UNL d   1       1.277  -4.237  -3.181  0.00  0.00     0.090 A 
ATOM      7  C   UNL d   1       2.363  -3.496  -2.748  0.00  0.00     0.019 A 
ENDROOT
BRANCH   1   8
ATOM      8  N   UNL d   1       0.851  -1.838   0.201  0.00  0.00    -0.276 N 
ATOM      9  H   UNL d   1       1.272  -0.911   0.226  0.00  0.00     0.179 HD
BRANCH   8  10
ATOM     10  S   UNL d   1       1.024  -2.661   1.670  0.00  0.00     0.263 S 
ATOM     11  O   UNL d   1       0.069  -3.743   1.740  0.00  0.00    -0.200 OA
ATOM     12  O   UNL d   1       1.094  -1.642   2.696  0.00  0.00    -0.200 OA
BRANCH  10  13
ATOM     13  C   UNL d   1       2.653  -3.386   1.549  0.00  0.00     0.080 A 
ATOM     14  C   UNL d   1       3.774  -2.648   1.951  0.00  0.00     0.027 A 
ATOM     15  C   UNL d   1       5.046  -3.218   1.850  0.00  0.00     0.025 A 
ATOM     16  C   UNL d   1       5.190  -4.517   1.359  0.00  0.00     0.034 A 
ATOM     17  C   UNL d   1       4.071  -5.260   0.982  0.00  0.00     0.025 A 
ATOM     18 CL   UNL d   1       6.759  -5.208   1.221  0.00  0.00    -0.084 Cl
ATOM     19  C   UNL d   1       2.795  -4.700   1.086  0.00  0.00     0.027 A 
ENDBRANCH  10  13
ENDBRANCH   8  10
ENDBRANCH   1   8
BRANCH   2  20
ATOM     20  O   UNL d   1      -1.362  -3.195  -0.999  0.00  0.00    -0.292 OA
BRANCH  20  21
ATOM     21  C   UNL d   1      -2.419  -3.316  -1.877  0.00  0.00     0.078 A 
ATOM     22  C   UNL d   1      -3.491  -4.122  -1.496  0.00  0.00     0.040 A 
ATOM     23  C   UNL d   1      -4.573  -4.308  -2.367  0.00  0.00     0.039 A 
ATOM     24  C   UNL d   1      -4.584  -3.679  -3.613  0.00  0.00     0.068 A 
ATOM     25  C   UNL d   1      -3.546  -2.815  -3.958  0.00  0.00     0.039 A 
ATOM     26  C   UNL d   1      -2.467  -2.626  -3.092  0.00  0.00     0.040 A 
BRANCH  24  27
ATOM     27  O   UNL d   1      -5.568  -3.812  -4.557  0.00  0.00    -0.356 OA
ATOM     28  C   UNL d   1      -6.271  -5.049  -4.537  0.00  0.00     0.210 C 
ENDBRANCH  24  27
ENDBRANCH  20  21
ENDBRANCH   2  20
TORSDOF 6
