REMARK  9 active torsions:
REMARK  status: ('A' for Active; 'I' for Inactive)
REMARK    1  A    between atoms: N_3  and  C_1 
REMARK       I    between atoms: C_9  and  N_3 
REMARK    2  A    between atoms: S_16  and  C_4 
REMARK    3  A    between atoms: C_10  and  C_9 
REMARK       I    between atoms: N_11  and  C_14 
REMARK    4  A    between atoms: C_12  and  N_11 
REMARK    5  A    between atoms: C_14  and  C_24 
REMARK    6  A    between atoms: C_24  and  S_16 
REMARK    7  A    between atoms: C_28  and  C_25 
REMARK    8  A    between atoms: C_29  and  C_28 
REMARK    9  A    between atoms: C_30  and  C_29 
ROOT
ATOM      1  S   UNL d   1       4.104  -5.769   0.982  0.00  0.00    -0.094 SA
ENDROOT
BRANCH   1   2
ATOM      2  C   UNL d   1       5.763  -6.328   1.010  0.00  0.00     0.130 A 
ATOM      3  S   UNL d   1       6.888  -5.781   2.174  0.00  0.00    -0.026 SA
ATOM      4  C   UNL d   1       8.053  -6.788   1.436  0.00  0.00     0.168 A 
ATOM      5  N   UNL d   1       7.604  -7.435   0.379  0.00  0.00    -0.278 N 
ATOM      6  N   UNL d   1       6.260  -7.179   0.140  0.00  0.00    -0.286 N 
ATOM      7  HN  UNL d   1       8.177  -8.052  -0.197  1.00  0.00     0.189 HD
ATOM      8  HN  UNL d   1       5.724  -7.600  -0.619  1.00  0.00     0.188 HD
BRANCH   4   9
ATOM      9  N   UNL d   1       9.358  -6.866   1.862  0.00  0.00    -0.301 N 
ATOM     10  C   UNL d   1       9.867  -6.328   3.027  0.00  0.00     0.264 C 
ATOM     11  O   UNL d   1       9.186  -5.805   3.901  0.00  0.00    -0.267 OA
ATOM     12  H   UNL d   1       9.973  -7.403   1.268  0.00  0.00     0.171 HD
BRANCH  10  13
ATOM     13  C   UNL d   1      11.318  -6.426   3.191  0.00  0.00     0.072 A 
ATOM     14  S   UNL d   1      12.356  -7.105   2.011  0.00  0.00    -0.097 SA
ATOM     15  C   UNL d   1      13.754  -6.746   2.930  0.00  0.00     0.050 A 
ATOM     16  C   UNL d   1      13.444  -6.143   4.128  0.00  0.00     0.009 A 
ATOM     17  C   UNL d   1      12.041  -5.971   4.283  0.00  0.00     0.025 A 
ENDBRANCH  10  13
ENDBRANCH   4   9
ENDBRANCH   1   2
BRANCH   1  18
ATOM     18  C   UNL d   1       3.339  -6.996  -0.113  0.00  0.00     0.184 C 
BRANCH  18  19
ATOM     19  C   UNL d   1       1.818  -6.894  -0.092  0.00  0.00     0.231 C 
ATOM     20  N   UNL d   1       1.311  -5.623  -0.316  0.00  0.00    -0.326 N 
ATOM     21  H   UNL d   1       1.966  -4.914  -0.616  0.00  0.00     0.169 HD
ATOM     22  O   UNL d   1       1.129  -7.910  -0.006  0.00  0.00    -0.272 OA
BRANCH  20  23
ATOM     23  C   UNL d   1      -0.058  -5.274  -0.304  0.00  0.00     0.040 A 
ATOM     24  C   UNL d   1      -0.526  -4.243  -1.138  0.00  0.00    -0.035 A 
ATOM     25  C   UNL d   1      -1.868  -3.829  -1.034  0.00  0.00     0.016 A 
ATOM     26  C   UNL d   1       0.308  -3.604  -2.214  0.00  0.00     0.050 C 
ATOM     27  C   UNL d   1      -2.754  -4.428  -0.130  0.00  0.00    -0.058 A 
ATOM     28  C   UNL d   1      -2.284  -5.474   0.669  0.00  0.00     0.009 A 
ATOM     29  C   UNL d   1      -0.949  -5.896   0.576  0.00  0.00     0.030 A 
BRANCH  27  30
ATOM     30  C   UNL d   1      -4.176  -3.935   0.009  0.00  0.00     0.038 C 
BRANCH  30  31
ATOM     31  C   UNL d   1      -5.027  -4.031  -1.264  0.00  0.00     0.004 C 
BRANCH  31  32
ATOM     32  C   UNL d   1      -5.290  -5.473  -1.700  0.00  0.00    -0.004 C 
ATOM     33  C   UNL d   1      -6.162  -5.523  -2.945  0.00  0.00     0.005 C 
ENDBRANCH  31  32
ENDBRANCH  30  31
ENDBRANCH  27  30
ENDBRANCH  20  23
ENDBRANCH  18  19
ENDBRANCH   1  18
TORSDOF 9
