REMARK  5 active torsions:
REMARK  status: ('A' for Active; 'I' for Inactive)
REMARK    1  A    between atoms: S_12  and  C_6 
REMARK    2  A    between atoms: C_11  and  C_20 
REMARK       I    between atoms: N_16  and  C_11 
REMARK    3  A    between atoms: C_20  and  S_12 
REMARK    4  A    between atoms: N_13  and  N_16 
REMARK    5  A    between atoms: C_22  and  C_21 
ROOT
ATOM      1  S   UNL d   1       1.200  -3.419  -0.057  0.00  0.00    -0.102 SA
ENDROOT
BRANCH   1   2
ATOM      2  C   UNL d   1       1.549  -1.652  -0.026  0.00  0.00     0.084 A 
ATOM      3  C   UNL d   1       0.573  -0.624  -0.015  0.00  0.00     0.039 A 
ATOM      4  C   UNL d   1       1.116   0.663   0.005  0.00  0.00     0.089 A 
ATOM      5  C   UNL d   1      -0.885  -0.520  -0.011  0.00  0.00    -0.029 A 
ATOM      6  S   UNL d   1      -0.034   1.912   0.017  0.00  0.00    -0.075 SA
ATOM      7  N   UNL d   1       2.413   1.010   0.019  0.00  0.00    -0.346 N 
ATOM      8  C   UNL d   1      -1.309   0.803   0.022  0.00  0.00    -0.008 A 
ATOM      9  C   UNL d   1      -2.727   1.287   0.039  0.00  0.00     0.047 C 
ATOM     10  C   UNL d   1      -3.663   0.160   0.479  0.00  0.00     0.005 C 
ATOM     11  C   UNL d   1      -3.334  -1.140  -0.265  0.00  0.00     0.005 C 
ATOM     12  C   UNL d   1      -1.897  -1.635   0.010  0.00  0.00     0.040 C 
ATOM     13  C   UNL d   1       3.224  -0.034   0.016  0.00  0.00     0.182 A 
ATOM     14  HN  UNL d   1       2.738   1.976   0.032  1.00  0.00     0.167 HD
ATOM     15  N   UNL d   1       2.865  -1.318  -0.007  0.00  0.00    -0.346 N 
ATOM     16  HN  UNL d   1       3.577  -2.048  -0.010  1.00  0.00     0.167 HD
ENDBRANCH   1   2
BRANCH   1  17
ATOM     17  C   UNL d   1       2.929  -4.009  -0.098  0.00  0.00     0.185 C 
BRANCH  17  18
ATOM     18  C   UNL d   1       3.247  -5.486  -0.147  0.00  0.00     0.245 C 
ATOM     19  N   UNL d   1       2.232  -6.420  -0.156  0.00  0.00    -0.270 N 
ATOM     20  H   UNL d   1       1.255  -6.147  -0.138  0.00  0.00     0.190 HD
ATOM     21  O   UNL d   1       4.444  -5.814  -0.186  0.00  0.00    -0.271 OA
BRANCH  19  22
ATOM     22  N   UNL d   1       2.597  -7.727  -0.339  0.00  0.00    -0.308 N 
ATOM     23  C   UNL d   1       1.691  -8.647  -0.331  0.00  0.00     0.120 C 
ATOM     24  HN  UNL d   1       3.577  -7.972  -0.481  1.00  0.00     0.186 HD
BRANCH  23  25
ATOM     25  C   UNL d   1       2.063 -10.055  -0.601  0.00  0.00    -0.004 A 
ATOM     26  C   UNL d   1       1.100 -11.053  -0.571  0.00  0.00     0.100 A 
ATOM     27  N   UNL d   1       1.353 -12.358  -0.855  0.00  0.00    -0.374 N 
ATOM     28  C   UNL d   1       2.626 -12.674  -1.185  0.00  0.00     0.087 A 
ATOM     29  HN  UNL d   1       0.618 -13.064  -0.822  1.00  0.00     0.164 HD
ATOM     30  C   UNL d   1       3.659 -11.751  -1.232  0.00  0.00     0.018 A 
ATOM     31  C   UNL d   1       3.371 -10.421  -0.931  0.00  0.00     0.015 A 
ENDBRANCH  23  25
ENDBRANCH  19  22
ENDBRANCH  17  18
ENDBRANCH   1  17
TORSDOF 5
