REMARK  2 active torsions:
REMARK  status: ('A' for Active; 'I' for Inactive)
REMARK    1  A    between atoms: N_2  and  C_1 
REMARK    2  A    between atoms: C_4  and  N_2 
ROOT
ATOM      1  C   UNL d   1       3.069   1.225   0.168  0.00  0.00     0.056 A 
ATOM      2  C   UNL d   1       2.823   2.130   1.215  0.00  0.00     0.062 A 
ATOM      3  C   UNL d   1       3.590   3.292   1.363  0.00  0.00     0.050 A 
ATOM      4  C   UNL d   1       4.151   1.486  -0.685  0.00  0.00     0.033 A 
ATOM      5  C   UNL d   1       4.614   3.558   0.459  0.00  0.00     0.035 A 
ATOM      6 CL   UNL d   1       1.577   1.837   2.381  0.00  0.00    -0.082 Cl
ATOM      7  C   UNL d   1       4.901   2.659  -0.563  0.00  0.00     0.026 A 
ATOM      8 CL   UNL d   1       5.541   4.998   0.611  0.00  0.00    -0.084 Cl
ENDROOT
BRANCH   1   9
ATOM      9  N   UNL d   1       2.314   0.041   0.047  0.00  0.00    -0.336 N 
ATOM     10  HN  UNL d   1       2.218  -0.557   0.868  1.00  0.00     0.168 HD
BRANCH   9  11
ATOM     11  C   UNL d   1       1.737  -0.329  -1.052  0.00  0.00     0.140 C 
ATOM     12  N   UNL d   1       1.014  -1.485  -1.148  0.00  0.00    -0.370 N 
ATOM     13  C   UNL d   1       0.247  -1.648  -2.364  0.00  0.00     0.132 C 
ATOM     14  H   UNL d   1       0.644  -1.831  -0.272  0.00  0.00     0.161 HD
ATOM     15  C   UNL d   1       1.057  -0.955  -3.453  0.00  0.00     0.102 C 
ATOM     16  S   UNL d   1       1.716   0.512  -2.603  0.00  0.00    -0.093 SA
ENDBRANCH   9  11
ENDBRANCH   1   9
TORSDOF 2
