REMARK  7 active torsions:
REMARK  status: ('A' for Active; 'I' for Inactive)
REMARK    1  A    between atoms: C_10  and  C_1 
REMARK    2  A    between atoms: N_21  and  C_3 
REMARK    3  A    between atoms: C_20  and  C_6 
REMARK    4  A    between atoms: N_7  and  C_14 
REMARK       I    between atoms: N_19  and  C_10 
REMARK    5  A    between atoms: C_23  and  C_13 
REMARK    6  A    between atoms: N_15  and  N_19 
REMARK    7  A    between atoms: C_27  and  C_26 
ROOT
ATOM      1  C   UNL d   1      -2.563  -0.701  -0.030  0.00  0.00     0.103 A 
ATOM      2  C   UNL d   1      -0.195  -0.969  -0.029  0.00  0.00     0.040 A 
ATOM      3  C   UNL d   1      -1.501  -1.586  -0.102  0.00  0.00     0.062 A 
ATOM      4  C   UNL d   1      -0.372   0.408   0.019  0.00  0.00     0.103 A 
ATOM      5  S   UNL d   1      -2.003   0.908   0.027  0.00  0.00    -0.062 SA
ATOM      6  C   UNL d   1       1.160  -1.439   0.008  0.00  0.00     0.018 A 
ATOM      7  N   UNL d   1       1.861   0.888   0.096  0.00  0.00    -0.298 N 
ATOM      8  HN  UNL d   1       2.620   1.569   0.126  1.00  0.00     0.187 HD
ATOM      9  N   UNL d   1       0.613   1.321   0.064  0.00  0.00    -0.292 N 
ATOM     10  HN  UNL d   1       0.403   2.319   0.073  1.00  0.00     0.187 HD
ATOM     11  C   UNL d   1       2.162  -0.439   0.090  0.00  0.00     0.070 A 
ENDROOT
BRANCH   1  12
ATOM     12  C   UNL d   1      -3.979  -1.070  -0.014  0.00  0.00     0.279 C 
ATOM     13  N   UNL d   1      -4.924  -0.049  -0.102  0.00  0.00    -0.266 N 
ATOM     14  H   UNL d   1      -4.656   0.924  -0.174  0.00  0.00     0.190 HD
ATOM     15  O   UNL d   1      -4.328  -2.252   0.047  0.00  0.00    -0.265 OA
BRANCH  13  16
ATOM     16  N   UNL d   1      -6.235  -0.426  -0.141  0.00  0.00    -0.308 N 
ATOM     17  C   UNL d   1      -7.144   0.482  -0.250  0.00  0.00     0.118 C 
ATOM     18  HN  UNL d   1      -6.492  -1.411  -0.084  1.00  0.00     0.186 HD
BRANCH  17  19
ATOM     19  C   UNL d   1      -8.570   0.079  -0.292  0.00  0.00    -0.019 A 
ATOM     20  C   UNL d   1      -8.923  -1.281  -0.300  0.00  0.00     0.015 A 
ATOM     21  C   UNL d   1     -10.266  -1.662  -0.323  0.00  0.00     0.037 A 
ATOM     22  C   UNL d   1     -11.258  -0.674  -0.337  0.00  0.00     0.102 A 
ATOM     23  C   UNL d   1     -10.911   0.686  -0.332  0.00  0.00     0.037 A 
ATOM     24  C   UNL d   1      -9.562   1.061  -0.312  0.00  0.00     0.015 A 
BRANCH  22  25
ATOM     25  N   UNL d   1     -12.677  -1.065  -0.352  0.00  0.00    -0.116 N 
ATOM     26  O   UNL d   1     -12.940  -2.274  -0.352  0.00  0.00    -0.532 OA
ATOM     27  O   UNL d   1     -13.518  -0.158  -0.362  0.00  0.00    -0.532 OA
ENDBRANCH  22  25
ENDBRANCH  17  19
ENDBRANCH  13  16
ENDBRANCH   1  12
BRANCH   3  28
ATOM     28  N   UNL d   1      -1.728  -2.916  -0.213  0.00  0.00    -0.397 N 
ATOM     29  H   UNL d   1      -1.056  -3.567  -0.604  0.00  0.00     0.156 HD
ATOM     30  H   UNL d   1      -2.690  -3.273  -0.233  0.00  0.00     0.156 HD
ENDBRANCH   3  28
BRANCH   6  31
ATOM     31  C   UNL d   1       1.444  -2.892  -0.046  0.00  0.00    -0.023 A 
ATOM     32  C   UNL d   1       2.329  -3.436  -0.995  0.00  0.00     0.012 A 
ATOM     33  C   UNL d   1       2.617  -4.805  -1.021  0.00  0.00     0.001 A 
ATOM     34  C   UNL d   1       1.973  -5.670  -0.143  0.00  0.00     0.000 A 
ATOM     35  C   UNL d   1       1.085  -5.161   0.799  0.00  0.00     0.001 A 
ATOM     36  C   UNL d   1       0.864  -3.784   0.875  0.00  0.00     0.012 A 
ENDBRANCH   6  31
BRANCH  11  37
ATOM     37  C   UNL d   1       3.628  -0.703   0.158  0.00  0.00    -0.007 A 
ATOM     38  C   UNL d   1       4.534   0.074  -0.592  0.00  0.00     0.014 A 
ATOM     39  C   UNL d   1       5.904  -0.215  -0.613  0.00  0.00     0.001 A 
ATOM     40  C   UNL d   1       6.402  -1.293   0.112  0.00  0.00     0.000 A 
ATOM     41  C   UNL d   1       5.539  -2.050   0.896  0.00  0.00     0.001 A 
ATOM     42  C   UNL d   1       4.176  -1.736   0.942  0.00  0.00     0.014 A 
ENDBRANCH  11  37
TORSDOF 7
