REMARK  3 active torsions:
REMARK  status: ('A' for Active; 'I' for Inactive)
REMARK    1  A    between atoms: N_9  and  C_2 
REMARK    2  A    between atoms: C_3  and  C_14 
REMARK    3  A    between atoms: N_11  and  N_9 
ROOT
ATOM      1  N   UNL d   1       3.277   0.835  -0.099  0.00  0.00    -0.308 N 
ATOM      2  HN  UNL d   1       3.428  -0.164  -0.243  1.00  0.00     0.186 HD
ATOM      3  C   UNL d   1       4.222   1.707   0.060  0.00  0.00     0.138 C 
ENDROOT
BRANCH   1   4
ATOM      4  N   UNL d   1       2.019   1.452  -0.047  0.00  0.00    -0.280 N 
ATOM      5  HN  UNL d   1       1.887   2.454   0.093  1.00  0.00     0.189 HD
BRANCH   4   6
ATOM      6  C   UNL d   1       1.047   0.617  -0.194  0.00  0.00     0.162 A 
ATOM      7  N   UNL d   1       1.189  -0.715  -0.374  0.00  0.00    -0.306 N 
ATOM      8  C   UNL d   1       0.066  -1.472  -0.511  0.00  0.00     0.233 A 
ATOM      9  H   UNL d   1       2.115  -1.109  -0.402  0.00  0.00     0.171 HD
ATOM     10  O   UNL d   1       0.083  -2.684  -0.681  0.00  0.00    -0.272 OA
ATOM     11  C   UNL d   1      -1.187  -0.636  -0.423  0.00  0.00     0.185 A 
ATOM     12  S   UNL d   1      -0.625   1.076  -0.184  0.00  0.00    -0.083 SA
ENDBRANCH   4   6
ENDBRANCH   1   4
BRANCH   3  13
ATOM     13  C   UNL d   1       5.590   1.287   0.028  0.00  0.00     0.066 A 
ATOM     14  N   UNL d   1       5.994  -0.006  -0.164  0.00  0.00    -0.300 N 
ATOM     15  N   UNL d   1       7.328  -0.166  -0.164  0.00  0.00    -0.311 N 
ATOM     16  H   UNL d   1       5.405  -0.820  -0.304  0.00  0.00     0.187 HD
ATOM     17  C   UNL d   1       7.791   1.069   0.037  0.00  0.00     0.109 A 
ATOM     18  HN  UNL d   1       7.861  -1.026  -0.287  1.00  0.00     0.186 HD
ATOM     19  C   UNL d   1       6.755   2.014   0.167  0.00  0.00     0.051 A 
ENDBRANCH   3  13
TORSDOF 3
