REMARK  1 active torsions:
REMARK  status: ('A' for Active; 'I' for Inactive)
REMARK       I    between atoms: C_6  and  N_1 
REMARK    1  A    between atoms: C_9  and  C_6 
ROOT
ATOM      1  N   UNL d   1      -3.026  -1.039   0.005  0.00  0.00    -0.230 N 
ATOM      2  N   UNL d   1      -1.732  -1.474   0.001  0.00  0.00    -0.290 N 
ATOM      3  HN  UNL d   1      -1.404  -2.440  -0.007  1.00  0.00     0.187 HD
ATOM      4  C   UNL d   1      -0.982  -0.358   0.010  0.00  0.00     0.069 A 
ATOM      5  C   UNL d   1      -1.782   0.805   0.025  0.00  0.00    -0.002 A 
ATOM      6  C   UNL d   1      -4.155  -1.908  -0.010  0.00  0.00     0.283 C 
ATOM      7  C   UNL d   1      -3.075   0.341   0.024  0.00  0.00     0.130 A 
ATOM      8  C   UNL d   1       0.478  -0.354   0.009  0.00  0.00     0.011 A 
ATOM      9  S   UNL d   1       0.442   2.498  -0.104  0.00  0.00    -0.124 SA
ATOM     10  C   UNL d   1       1.179   0.867  -0.021  0.00  0.00     0.013 A 
ATOM     11  C   UNL d   1      -1.341   2.212   0.054  0.00  0.00     0.121 C 
ATOM     12  C   UNL d   1       1.199  -1.561   0.032  0.00  0.00     0.039 A 
ATOM     13  O   UNL d   1      -5.240  -1.317  -0.016  0.00  0.00    -0.265 OA
ATOM     14  C   UNL d   1       2.585   0.854  -0.017  0.00  0.00     0.021 A 
ATOM     15  C   UNL d   1       2.595  -1.551   0.028  0.00  0.00     0.035 A 
ATOM     16  C   UNL d   1       3.291  -0.348   0.007  0.00  0.00     0.025 A 
ATOM     17 CL   UNL d   1       3.466  -3.034   0.043  0.00  0.00    -0.084 Cl
ENDROOT
BRANCH   6  18
ATOM     18  C   UNL d   1      -4.074  -3.370  -0.019  0.00  0.00     0.074 A 
ATOM     19  S   UNL d   1      -5.554  -4.255  -0.114  0.00  0.00    -0.097 SA
ATOM     20  C   UNL d   1      -4.754  -5.759  -0.074  0.00  0.00     0.050 A 
ATOM     21  C   UNL d   1      -3.390  -5.611   0.010  0.00  0.00     0.009 A 
ATOM     22  C   UNL d   1      -2.997  -4.239   0.042  0.00  0.00     0.025 A 
ENDBRANCH   6  18
TORSDOF 1
