REMARK  7 active torsions:
REMARK  status: ('A' for Active; 'I' for Inactive)
REMARK    1  A    between atoms: C_2  and  C_1 
REMARK    2  A    between atoms: C_10  and  N_3 
REMARK    3  A    between atoms: C_9  and  N_4 
REMARK    4  A    between atoms: C_13  and  C_9 
REMARK    5  A    between atoms: C_14  and  C_10 
REMARK    6  A    between atoms: O_27  and  C_16 
REMARK    7  A    between atoms: O_28  and  C_17 
ROOT
ATOM      1  C   UNL d   1       1.055  -3.177   0.024  0.00  0.00     0.491 C 
ATOM      2  N   UNL d   1       0.412  -3.711  -1.200  0.00  0.00     0.131 N 
ATOM      3  N   UNL d   1       0.646  -3.910   1.243  0.00  0.00     0.131 N 
ATOM      4  C   UNL d   1       1.029  -5.337   1.090  0.00  0.00     0.278 C 
ATOM      5  C   UNL d   1       0.872  -5.088  -1.399  0.00  0.00     0.278 C 
ATOM      6  C   UNL d   1       0.539  -5.972  -0.208  0.00  0.00     0.061 C 
ENDROOT
BRANCH   1   7
ATOM      7  C   UNL d   1       0.898  -1.659   0.061  0.00  0.00     0.023 A 
ATOM      8  C   UNL d   1       1.881  -0.835  -0.471  0.00  0.00     0.062 A 
ATOM      9  S   UNL d   1       1.488   0.814  -0.438  0.00  0.00    -0.101 SA
ATOM     10  C   UNL d   1      -0.036   0.504   0.287  0.00  0.00     0.015 A 
ATOM     11  C   UNL d   1      -0.211  -0.857   0.569  0.00  0.00    -0.008 A 
ATOM     12  C   UNL d   1      -1.026   1.464   0.583  0.00  0.00     0.019 A 
ATOM     13  C   UNL d   1      -1.414  -1.226   1.232  0.00  0.00     0.013 A 
ATOM     14  C   UNL d   1      -2.398  -0.277   1.528  0.00  0.00     0.001 A 
ATOM     15  C   UNL d   1      -2.211   1.053   1.191  0.00  0.00     0.001 A 
ENDBRANCH   1   7
BRANCH   2  16
ATOM     16  C   UNL d   1      -1.059  -3.585  -1.191  0.00  0.00     0.314 C 
BRANCH  16  17
ATOM     17  C   UNL d   1      -1.778  -4.141  -2.408  0.00  0.00    -0.030 A 
ATOM     18  C   UNL d   1      -2.646  -5.234  -2.283  0.00  0.00     0.011 A 
ATOM     19  C   UNL d   1      -3.354  -5.724  -3.387  0.00  0.00     0.037 A 
ATOM     20  C   UNL d   1      -3.200  -5.125  -4.638  0.00  0.00     0.068 A 
ATOM     21  C   UNL d   1      -2.345  -4.030  -4.766  0.00  0.00     0.037 A 
ATOM     22  C   UNL d   1      -1.634  -3.540  -3.666  0.00  0.00     0.011 A 
BRANCH  20  23
ATOM     23  O   UNL d   1      -3.825  -5.511  -5.793  0.00  0.00    -0.356 OA
ATOM     24  C   UNL d   1      -4.643  -6.672  -5.726  0.00  0.00     0.210 C 
ENDBRANCH  20  23
ENDBRANCH  16  17
ENDBRANCH   2  16
BRANCH   3  25
ATOM     25  C   UNL d   1       1.331  -3.357   2.441  0.00  0.00     0.314 C 
BRANCH  25  26
ATOM     26  C   UNL d   1       1.005  -4.070   3.743  0.00  0.00    -0.030 A 
ATOM     27  C   UNL d   1       2.011  -4.736   4.459  0.00  0.00     0.011 A 
ATOM     28  C   UNL d   1       1.724  -5.390   5.663  0.00  0.00     0.037 A 
ATOM     29  C   UNL d   1       0.423  -5.385   6.169  0.00  0.00     0.068 A 
ATOM     30  C   UNL d   1      -0.577  -4.702   5.477  0.00  0.00     0.037 A 
ATOM     31  C   UNL d   1      -0.293  -4.056   4.268  0.00  0.00     0.011 A 
BRANCH  29  32
ATOM     32  O   UNL d   1       0.039  -5.967   7.345  0.00  0.00    -0.356 OA
ATOM     33  C   UNL d   1       0.755  -7.141   7.710  0.00  0.00     0.210 C 
ENDBRANCH  29  32
ENDBRANCH  25  26
ENDBRANCH   3  25
TORSDOF 7
