REMARK  3 active torsions:
REMARK  status: ('A' for Active; 'I' for Inactive)
REMARK       I    between atoms: N_2  and  C_1 
REMARK       I    between atoms: N_3  and  C_1 
REMARK    1  A    between atoms: C_5  and  N_2 
REMARK    2  A    between atoms: C_6  and  N_3 
REMARK    3  A    between atoms: C_15  and  C_7 
ROOT
ATOM      1  C   UNL d   1       1.063   0.098  -0.014  0.00  0.00     0.321 C 
ATOM      2  N   UNL d   1       2.411  -0.201  -0.085  0.00  0.00    -0.335 N 
ATOM      3  N   UNL d   1       0.295  -0.861  -0.641  0.00  0.00    -0.309 N 
ATOM      4  O   UNL d   1       0.641   1.102   0.545  0.00  0.00    -0.247 OA
ATOM      5  H   UNL d   1       2.670  -0.797  -0.859  0.00  0.00     0.165 HD
ATOM      6  H   UNL d   1       0.769  -1.710  -0.903  0.00  0.00     0.170 HD
ENDROOT
BRANCH   3   7
ATOM      7  C   UNL d   1      -1.110  -0.844  -0.804  0.00  0.00     0.036 A 
ATOM      8  C   UNL d   1      -1.921   0.230  -0.427  0.00  0.00     0.030 A 
ATOM      9  C   UNL d   1      -3.309   0.168  -0.579  0.00  0.00     0.009 A 
ATOM     10  C   UNL d   1      -3.917  -0.963  -1.128  0.00  0.00    -0.058 A 
ATOM     11  C   UNL d   1      -3.107  -2.031  -1.531  0.00  0.00     0.009 A 
ATOM     12  C   UNL d   1      -1.716  -1.970  -1.373  0.00  0.00     0.030 A 
BRANCH  10  13
ATOM     13  C   UNL d   1      -5.417  -1.037  -1.248  0.00  0.00     0.034 C 
ATOM     14  C   UNL d   1      -6.057  -1.633  -0.002  0.00  0.00     0.010 C 
ENDBRANCH  10  13
ENDBRANCH   3   7
BRANCH   2  15
ATOM     15  C   UNL d   1       3.456   0.727   0.387  0.00  0.00     0.023 C 
ATOM     16  C   UNL d   1       3.315   1.028   1.891  0.00  0.00     0.037 C 
ATOM     17  C   UNL d   1       4.831   0.064   0.172  0.00  0.00     0.037 C 
ATOM     18  C   UNL d   1       3.422   2.035  -0.422  0.00  0.00     0.037 C 
ENDBRANCH   2  15
TORSDOF 3
