REMARK  7 active torsions:
REMARK  status: ('A' for Active; 'I' for Inactive)
REMARK    1  A    between atoms: N_7  and  C_2 
REMARK    2  A    between atoms: C_10  and  C_5 
REMARK       I    between atoms: C_8  and  N_7 
REMARK    3  A    between atoms: C_14  and  C_8 
REMARK    4  A    between atoms: C_9  and  C_15 
REMARK    5  A    between atoms: O_13  and  C_9 
REMARK    6  A    between atoms: C_16  and  C_14 
REMARK    7  A    between atoms: C_15  and  C_16 
ROOT
ATOM      1  C   UNL d   1       1.053   0.823  -0.043  0.00  0.00     0.081 A 
ATOM      2  C   UNL d   1       1.190  -0.539   0.067  0.00  0.00     0.124 A 
ATOM      3  N   UNL d   1      -1.032  -0.053   0.131  0.00  0.00    -0.298 N 
ATOM      4  HN  UNL d   1      -2.044  -0.168   0.199  1.00  0.00     0.187 HD
ATOM      5  C   UNL d   1      -0.342   1.091  -0.005  0.00  0.00     0.062 A 
ATOM      6  N   UNL d   1      -0.092  -1.013   0.158  0.00  0.00    -0.285 N 
ATOM      7  H   UNL d   1      -0.403  -1.975   0.231  0.00  0.00     0.188 HD
ENDROOT
BRANCH   2   8
ATOM      8  N   UNL d   1       2.354  -1.303   0.097  0.00  0.00    -0.312 N 
ATOM      9  C   UNL d   1       3.663  -0.749  -0.117  0.00  0.00     0.223 C 
ATOM     10  O   UNL d   1       3.833   0.448  -0.303  0.00  0.00    -0.273 OA
ATOM     11  H   UNL d   1       2.280  -2.296   0.317  0.00  0.00     0.170 HD
BRANCH   9  12
ATOM     12  C   UNL d   1       4.805  -1.727  -0.057  0.00  0.00     0.103 C 
BRANCH  12  13
ATOM     13  C   UNL d   1       5.698  -1.476   1.164  0.00  0.00     0.019 C 
BRANCH  13  14
ATOM     14  C   UNL d   1       4.995  -1.641   2.511  0.00  0.00     0.110 C 
BRANCH  14  15
ATOM     15  C   UNL d   1       4.382  -3.007   2.627  0.00  0.00     0.139 C 
ATOM     16  O   UNL d   1       3.314  -3.285   2.087  0.00  0.00    -0.650 OA
BRANCH  15  17
ATOM     17  O   UNL d   1       5.148  -3.908   3.261  0.00  0.00    -0.776 OA
ATOM     18  H   UNL d   1       5.991  -3.565   3.623  0.00  0.00     0.167 HD
ENDBRANCH  15  17
ENDBRANCH  14  15
ENDBRANCH  13  14
ENDBRANCH  12  13
ENDBRANCH   9  12
ENDBRANCH   2   8
BRANCH   5  19
ATOM     19  C   UNL d   1      -0.986   2.405  -0.074  0.00  0.00    -0.008 A 
ATOM     20  C   UNL d   1      -2.223   2.634   0.544  0.00  0.00     0.014 A 
ATOM     21  C   UNL d   1      -2.811   3.903   0.509  0.00  0.00     0.001 A 
ATOM     22  C   UNL d   1      -2.174   4.952  -0.151  0.00  0.00     0.000 A 
ATOM     23  C   UNL d   1      -0.950   4.736  -0.779  0.00  0.00     0.001 A 
ATOM     24  C   UNL d   1      -0.359   3.471  -0.741  0.00  0.00     0.014 A 
ENDBRANCH   5  19
TORSDOF 7
