REMARK  7 active torsions:
REMARK  status: ('A' for Active; 'I' for Inactive)
REMARK    1  A    between atoms: C_5  and  C_1 
REMARK    2  A    between atoms: C_8  and  C_2 
REMARK       I    between atoms: N_15  and  C_8 
REMARK    3  A    between atoms: O_21  and  C_9 
REMARK    4  A    between atoms: O_22  and  C_12 
REMARK    5  A    between atoms: C_23  and  N_15 
REMARK    6  A    between atoms: C_17  and  C_28 
REMARK    7  A    between atoms: C_28  and  C_23 
ROOT
ATOM      1  C   UNL d   1       0.394  -2.633  -0.447  0.00  0.00     0.256 C 
ATOM      2  O   UNL d   1      -0.460  -3.463  -0.748  0.00  0.00    -0.267 OA
ATOM      3  N   UNL d   1       1.725  -2.954  -0.236  0.00  0.00    -0.356 N 
ATOM      4  H   UNL d   1       2.278  -2.285   0.281  0.00  0.00     0.162 HD
ENDROOT
BRANCH   1   5
ATOM      5  C   UNL d   1       0.053  -1.248  -0.193  0.00  0.00     0.092 A 
ATOM      6  C   UNL d   1      -1.071  -0.710   0.528  0.00  0.00     0.086 A 
ATOM      7  N   UNL d   1      -0.994   0.632   0.537  0.00  0.00    -0.259 N 
ATOM      8  O   UNL d   1       0.101   0.980  -0.208  0.00  0.00    -0.241 OA
ATOM      9  HN  UNL d   1      -1.632   1.272   1.010  1.00  0.00     0.195 HD
ATOM     10  C   UNL d   1       0.746  -0.134  -0.630  0.00  0.00     0.090 A 
ATOM     11  C   UNL d   1       1.952   0.116  -1.441  0.00  0.00     0.080 C 
BRANCH   6  12
ATOM     12  C   UNL d   1      -2.170  -1.381   1.253  0.00  0.00     0.037 A 
ATOM     13  C   UNL d   1      -1.935  -2.451   2.143  0.00  0.00     0.048 A 
ATOM     14 CL   UNL d   1      -0.351  -2.991   2.600  0.00  0.00    -0.083 Cl
ATOM     15  C   UNL d   1      -2.992  -3.087   2.817  0.00  0.00     0.025 A 
ATOM     16  C   UNL d   1      -4.294  -2.621   2.695  0.00  0.00     0.003 A 
ATOM     17  C   UNL d   1      -4.547  -1.528   1.876  0.00  0.00     0.025 A 
ATOM     18  C   UNL d   1      -3.508  -0.930   1.141  0.00  0.00     0.048 A 
ATOM     19 CL   UNL d   1      -4.005   0.370   0.102  0.00  0.00    -0.083 Cl
ENDBRANCH   6  12
ENDBRANCH   1   5
BRANCH   3  20
ATOM     20  C   UNL d   1       2.114  -4.359  -0.150  0.00  0.00     0.127 C 
BRANCH  20  21
ATOM     21  C   UNL d   1       3.631  -4.558  -0.117  0.00  0.00     0.058 C 
BRANCH  21  22
ATOM     22  C   UNL d   1       4.003  -6.022  -0.062  0.00  0.00    -0.054 A 
ATOM     23  C   UNL d   1       4.161  -6.677   1.174  0.00  0.00     0.046 A 
ATOM     24  C   UNL d   1       4.506  -8.039   1.245  0.00  0.00     0.102 A 
ATOM     25  C   UNL d   1       4.669  -8.760   0.051  0.00  0.00     0.101 A 
ATOM     26  C   UNL d   1       4.518  -8.104  -1.179  0.00  0.00     0.040 A 
ATOM     27  C   UNL d   1       4.181  -6.752  -1.239  0.00  0.00     0.010 A 
BRANCH  24  28
ATOM     28  O   UNL d   1       4.729  -8.699   2.424  0.00  0.00    -0.353 OA
ATOM     29  C   UNL d   1       4.617  -7.968   3.638  0.00  0.00     0.210 C 
ENDBRANCH  24  28
BRANCH  25  30
ATOM     30  O   UNL d   1       5.030 -10.076  -0.084  0.00  0.00    -0.353 OA
ATOM     31  C   UNL d   1       4.572 -10.973   0.920  0.00  0.00     0.210 C 
ENDBRANCH  25  30
ENDBRANCH  21  22
ENDBRANCH  20  21
ENDBRANCH   3  20
TORSDOF 7
