REMARK  3 active torsions:
REMARK  status: ('A' for Active; 'I' for Inactive)
REMARK    1  A    between atoms: C_21  and  C_5 
REMARK       I    between atoms: C_12  and  N_20 
REMARK       I    between atoms: N_18  and  C_12 
REMARK    2  A    between atoms: C_13  and  N_18 
REMARK    3  A    between atoms: N_20  and  C_25 
ROOT
ATOM      1  C   UNL d   1       6.041  -5.599  -0.180  0.00  0.00     0.325 C 
ATOM      2  N   UNL d   1       6.624  -6.711  -0.767  0.00  0.00    -0.309 N 
ATOM      3  N   UNL d   1       4.657  -5.662  -0.229  0.00  0.00    -0.309 N 
ATOM      4  O   UNL d   1       6.682  -4.673   0.302  0.00  0.00    -0.247 OA
ATOM      5  H   UNL d   1       6.059  -7.206  -1.440  0.00  0.00     0.170 HD
ATOM      6  H   UNL d   1       4.248  -6.480  -0.646  0.00  0.00     0.170 HD
ENDROOT
BRANCH   3   7
ATOM      7  C   UNL d   1       3.767  -4.630   0.149  0.00  0.00     0.036 A 
ATOM      8  C   UNL d   1       4.170  -3.461   0.791  0.00  0.00     0.030 A 
ATOM      9  C   UNL d   1       3.282  -2.395   0.970  0.00  0.00     0.016 A 
ATOM     10  C   UNL d   1       1.966  -2.478   0.510  0.00  0.00    -0.009 A 
ATOM     11  C   UNL d   1       1.530  -3.700  -0.023  0.00  0.00     0.016 A 
ATOM     12  C   UNL d   1       2.420  -4.772  -0.198  0.00  0.00     0.030 A 
BRANCH  10  13
ATOM     13  C   UNL d   1       1.080  -1.315   0.482  0.00  0.00     0.049 A 
ATOM     14  N   UNL d   1      -0.187  -1.397  -0.083  0.00  0.00    -0.353 N 
ATOM     15  C   UNL d   1      -0.746  -0.207  -0.124  0.00  0.00     0.047 A 
ATOM     16  HN  UNL d   1      -0.621  -2.257  -0.417  1.00  0.00     0.166 HD
ATOM     17  S   UNL d   1       0.176   1.070   0.556  0.00  0.00    -0.087 SA
ATOM     18  C   UNL d   1      -2.073   0.077  -0.731  0.00  0.00     0.076 C 
ATOM     19  C   UNL d   1       1.434  -0.043   0.897  0.00  0.00     0.081 A 
ENDBRANCH  10  13
ENDBRANCH   3   7
BRANCH   2  20
ATOM     20  C   UNL d   1       8.006  -7.021  -0.738  0.00  0.00     0.038 A 
ATOM     21  C   UNL d   1       8.876  -6.438   0.210  0.00  0.00     0.062 A 
ATOM     22  C   UNL d   1      10.231  -6.837   0.169  0.00  0.00     0.069 A 
ATOM     23  N   UNL d   1      11.205  -6.403   0.986  0.00  0.00    -0.310 N 
ATOM     24  C   UNL d   1      10.709  -7.836  -0.844  0.00  0.00     0.067 A 
ATOM     25  S   UNL d   1      12.593  -7.183   0.514  0.00  0.00     0.068 SA
ATOM     26  HN  UNL d   1      11.110  -5.729   1.746  1.00  0.00     0.176 HD
ATOM     27  N   UNL d   1      12.018  -8.109  -0.743  0.00  0.00    -0.310 N 
ATOM     28  HN  UNL d   1      12.555  -8.755  -1.321  1.00  0.00     0.176 HD
ATOM     29  C   UNL d   1       9.810  -8.404  -1.775  0.00  0.00     0.035 A 
ATOM     30  C   UNL d   1       8.469  -7.975  -1.685  0.00  0.00     0.032 A 
ENDBRANCH   2  20
TORSDOF 3
