REMARK  7 active torsions:
REMARK  status: ('A' for Active; 'I' for Inactive)
REMARK    1  A    between atoms: C_2  and  S_1 
REMARK    2  A    between atoms: N_6  and  S_1 
REMARK       I    between atoms: C_5  and  N_7 
REMARK    3  A    between atoms: C_16  and  N_6 
REMARK    4  A    between atoms: N_7  and  C_11 
REMARK    5  A    between atoms: C_14  and  C_16 
REMARK    6  A    between atoms: C_18  and  C_14 
REMARK    7  A    between atoms: O_15  and  C_18 
ROOT
ATOM      1  C   UNL d   1       0.443  -1.402  -1.079  0.00  0.00     0.079 A 
ATOM      2  C   UNL d   1      -0.274  -2.453  -0.506  0.00  0.00     0.027 A 
ATOM      3  C   UNL d   1       0.754  -1.417  -2.438  0.00  0.00     0.027 A 
ATOM      4  C   UNL d   1      -0.321  -3.585  -2.663  0.00  0.00     0.034 A 
ATOM      5  C   UNL d   1       0.374  -2.510  -3.225  0.00  0.00     0.031 A 
ATOM      6  C   UNL d   1      -0.654  -3.540  -1.301  0.00  0.00     0.031 A 
ENDROOT
BRANCH   1   7
ATOM      7  S   UNL d   1       0.939  -0.013  -0.094  0.00  0.00     0.258 S 
ATOM      8  O   UNL d   1       0.470  -0.213   1.260  0.00  0.00    -0.201 OA
ATOM      9  O   UNL d   1       0.630   1.184  -0.840  0.00  0.00    -0.201 OA
BRANCH   7  10
ATOM     10  N   UNL d   1       2.621  -0.152  -0.090  0.00  0.00    -0.315 N 
ATOM     11  H   UNL d   1       3.069   0.744  -0.287  0.00  0.00     0.172 HD
BRANCH  10  12
ATOM     12  C   UNL d   1       3.220  -1.027   0.920  0.00  0.00     0.134 C 
BRANCH  12  13
ATOM     13  C   UNL d   1       4.739  -1.047   0.781  0.00  0.00     0.046 C 
BRANCH  13  14
ATOM     14  C   UNL d   1       5.341  -1.934   1.867  0.00  0.00     0.168 C 
BRANCH  14  15
ATOM     15  O   UNL d   1       6.760  -1.943   1.746  0.00  0.00    -0.396 OA
ATOM     16  C   UNL d   1       7.355  -2.753   2.755  0.00  0.00     0.201 C 
ENDBRANCH  14  15
ENDBRANCH  13  14
ENDBRANCH  12  13
ENDBRANCH  10  12
ENDBRANCH   7  10
ENDBRANCH   1   7
BRANCH   4  17
ATOM     17  N   UNL d   1      -0.701  -4.738  -3.383  0.00  0.00    -0.328 N 
ATOM     18  C   UNL d   1      -0.431  -5.025  -4.709  0.00  0.00     0.218 C 
ATOM     19  O   UNL d   1       0.154  -4.305  -5.512  0.00  0.00    -0.274 OA
ATOM     20  C   UNL d   1      -0.921  -6.387  -5.136  0.00  0.00     0.117 C 
ATOM     21  H   UNL d   1      -1.200  -5.442  -2.855  0.00  0.00     0.169 HD
ENDBRANCH   4  17
TORSDOF 7
