REMARK  1 active torsions:
REMARK  status: ('A' for Active; 'I' for Inactive)
REMARK    1  A    between atoms: C_6  and  N_2 
ROOT
ATOM      1  C   UNL d   1       2.051  -2.329   0.252  0.00  0.00     0.033 A 
ATOM      2  C   UNL d   1       4.699  -3.223   0.006  0.00  0.00     0.034 A 
ATOM      3 CL   UNL d   1       6.321  -3.776  -0.139  0.00  0.00    -0.084 Cl
ATOM      4  C   UNL d   1       2.401  -3.271  -0.722  0.00  0.00     0.031 A 
ATOM      5  C   UNL d   1       3.059  -1.809   1.074  0.00  0.00     0.031 A 
ATOM      6  C   UNL d   1       4.376  -2.267   0.967  0.00  0.00     0.026 A 
ATOM      7  C   UNL d   1       3.719  -3.719  -0.848  0.00  0.00     0.026 A 
ENDROOT
BRANCH   1   8
ATOM      8  N   UNL d   1       0.730  -1.871   0.287  0.00  0.00    -0.345 N 
ATOM      9  C   UNL d   1      -0.023  -1.973   1.331  0.00  0.00     0.108 C 
ATOM     10  S   UNL d   1       0.383  -2.635   2.899  0.00  0.00    -0.104 SA
ATOM     11  S   UNL d   1      -1.675  -1.393   1.211  0.00  0.00    -0.104 SA
ATOM     12  C   UNL d   1      -1.278  -2.526   3.611  0.00  0.00     0.092 C 
ATOM     13  C   UNL d   1      -1.982  -1.339   2.990  0.00  0.00     0.092 C 
ATOM     14  HN  UNL d   1       0.343  -1.438  -0.551  1.00  0.00     0.167 HD
ENDBRANCH   1   8
TORSDOF 1
