REMARK  5 active torsions:
REMARK  status: ('A' for Active; 'I' for Inactive)
REMARK    1  A    between atoms: C_2  and  S_1 
REMARK    2  A    between atoms: N_7  and  S_1 
REMARK    3  A    between atoms: S_3  and  C_4 
REMARK    4  A    between atoms: C_21  and  S_3 
REMARK    5  A    between atoms: C_6  and  N_12 
ROOT
ATOM      1  N   UNL d   1       0.795   0.957  -0.058  0.00  0.00    -0.203 NA
ATOM      2  N   UNL d   1      -0.884   1.727   2.275  0.00  0.00    -0.398 N 
ATOM      3  C   UNL d   1       0.877   2.348   0.478  0.00  0.00     0.127 C 
ATOM      4  C   UNL d   1      -0.598   0.467   0.082  0.00  0.00     0.127 C 
ATOM      5  C   UNL d   1       0.347   2.464   1.925  0.00  0.00     0.133 C 
ATOM      6  C   UNL d   1      -1.029   0.450   1.565  0.00  0.00     0.133 C 
ENDROOT
BRANCH   1   7
ATOM      7  S   UNL d   1       1.976  -0.157   0.438  0.00  0.00     0.250 S 
ATOM      8  O   UNL d   1       2.163  -0.059   1.865  0.00  0.00    -0.205 OA
ATOM      9  O   UNL d   1       1.695  -1.435  -0.191  0.00  0.00    -0.205 OA
BRANCH   7  10
ATOM     10  C   UNL d   1       3.535   0.345  -0.238  0.00  0.00     0.116 A 
ATOM     11  S   UNL d   1       3.567   0.691  -1.909  0.00  0.00    -0.065 SA
ATOM     12  C   UNL d   1       5.161   1.304  -1.815  0.00  0.00     0.106 A 
ATOM     13  C   UNL d   1       5.708   1.093  -0.562  0.00  0.00     0.033 A 
ATOM     14  C   UNL d   1       4.769   0.538   0.351  0.00  0.00     0.034 A 
BRANCH  12  15
ATOM     15  S   UNL d   1       5.808   2.103  -3.266  0.00  0.00     0.213 S 
ATOM     16  O   UNL d   1       4.678   2.528  -4.067  0.00  0.00    -0.217 OA
ATOM     17  O   UNL d   1       6.770   3.061  -2.751  0.00  0.00    -0.217 OA
BRANCH  15  18
ATOM     18  C   UNL d   1       6.697   0.855  -4.154  0.00  0.00     0.064 A 
ATOM     19  C   UNL d   1       6.052   0.122  -5.154  0.00  0.00     0.024 A 
ATOM     20  C   UNL d   1       6.771  -0.832  -5.872  0.00  0.00     0.002 A 
ATOM     21  C   UNL d   1       8.124  -1.041  -5.598  0.00  0.00     0.000 A 
ATOM     22  C   UNL d   1       8.768  -0.292  -4.611  0.00  0.00     0.002 A 
ATOM     23  C   UNL d   1       8.057   0.664  -3.888  0.00  0.00     0.024 A 
ENDBRANCH  15  18
ENDBRANCH  12  15
ENDBRANCH   7  10
ENDBRANCH   1   7
BRANCH   2  24
ATOM     24  C   UNL d   1      -2.132   2.484   2.462  0.00  0.00     0.147 C 
ATOM     25  C   UNL d   1      -2.797   2.971   1.180  0.00  0.00    -0.020 C 
ATOM     26  C   UNL d   1      -2.775   4.378   1.125  0.00  0.00    -0.017 C 
ATOM     27  C   UNL d   1      -3.394   2.225   0.172  0.00  0.00     0.010 C 
ATOM     28  C   UNL d   1      -3.195   5.035  -0.019  0.00  0.00     0.013 C 
ATOM     29  C   UNL d   1      -2.291   4.889   2.392  0.00  0.00    -0.017 A 
ATOM     30  C   UNL d   1      -3.674   4.273  -1.089  0.00  0.00     0.001 C 
ATOM     31  C   UNL d   1      -3.800   2.881  -0.986  0.00  0.00     0.001 C 
ATOM     32  C   UNL d   1      -1.934   3.800   3.217  0.00  0.00    -0.020 A 
ATOM     33  C   UNL d   1      -2.175   6.188   2.858  0.00  0.00     0.013 A 
ATOM     34  C   UNL d   1      -1.444   3.992   4.503  0.00  0.00     0.010 A 
ATOM     35  C   UNL d   1      -1.313   5.303   4.964  0.00  0.00     0.001 A 
ATOM     36  C   UNL d   1      -1.680   6.390   4.152  0.00  0.00     0.001 A 
ENDBRANCH   2  24
TORSDOF 5
