REMARK  6 active torsions:
REMARK  status: ('A' for Active; 'I' for Inactive)
REMARK    1  A    between atoms: C_3  and  C_1 
REMARK    2  A    between atoms: O_4  and  C_2 
REMARK    3  A    between atoms: O_11  and  C_3 
REMARK    4  A    between atoms: C_6  and  O_4 
REMARK    5  A    between atoms: O_14  and  C_10 
REMARK    6  A    between atoms: O_15  and  C_12 
ROOT
ATOM      1  C   UNL d   1       1.523  -0.040  -0.003  0.00  0.00     0.075 A 
ATOM      2  C   UNL d   1       0.766  -1.215  -0.031  0.00  0.00     0.092 A 
ATOM      3  C   UNL d   1       0.870   1.205  -0.006  0.00  0.00     0.057 A 
ATOM      4  C   UNL d   1      -0.633  -1.120  -0.035  0.00  0.00     0.041 A 
ATOM      5  C   UNL d   1      -0.523   1.294   0.000  0.00  0.00     0.069 A 
ATOM      6  C   UNL d   1      -1.276   0.124  -0.029  0.00  0.00     0.039 A 
ENDROOT
BRANCH   2   7
ATOM      7  O   UNL d   1       1.233  -2.500   0.080  0.00  0.00    -0.310 OA
BRANCH   7   8
ATOM      8  C   UNL d   1       2.201  -3.005  -0.755  0.00  0.00     0.078 A 
ATOM      9  C   UNL d   1       2.608  -2.461  -1.976  0.00  0.00     0.074 A 
ATOM     10  C   UNL d   1       3.647  -3.064  -2.693  0.00  0.00     0.070 A 
ATOM     11  C   UNL d   1       4.240  -4.232  -2.204  0.00  0.00     0.037 A 
ATOM     12  C   UNL d   1       3.799  -4.808  -1.016  0.00  0.00     0.005 A 
ATOM     13  C   UNL d   1       2.780  -4.194  -0.295  0.00  0.00     0.037 A 
BRANCH  10  14
ATOM     14  O   UNL d   1       4.173  -2.620  -3.876  0.00  0.00    -0.356 OA
ATOM     15  C   UNL d   1       3.635  -1.418  -4.412  0.00  0.00     0.210 C 
ENDBRANCH  10  14
ENDBRANCH   7   8
ENDBRANCH   2   7
BRANCH   1  16
ATOM     16  C   UNL d   1       2.994   0.017  -0.042  0.00  0.00     0.295 C 
ATOM     17  O   UNL d   1       3.593   0.766  -0.803  0.00  0.00    -0.259 OA
BRANCH  16  18
ATOM     18  O   UNL d   1       3.547  -0.807   0.877  0.00  0.00    -0.322 OA
ATOM     19  C   UNL d   1       4.978  -0.836   0.841  0.00  0.00     0.213 C 
ENDBRANCH  16  18
ENDBRANCH   1  16
BRANCH   5  20
ATOM     20  O   UNL d   1      -1.012   2.569   0.041  0.00  0.00    -0.356 OA
ATOM     21  C   UNL d   1      -2.424   2.721   0.143  0.00  0.00     0.210 C 
ENDBRANCH   5  20
TORSDOF 6
