REMARK  5 active torsions:
REMARK  status: ('A' for Active; 'I' for Inactive)
REMARK    1  A    between atoms: N_4  and  C_1 
REMARK    2  A    between atoms: C_10  and  C_2 
REMARK       I    between atoms: C_3  and  N_4 
REMARK    3  A    between atoms: C_5  and  C_3 
REMARK    4  A    between atoms: C_7  and  C_6 
REMARK    5  A    between atoms: O_15  and  C_7 
ROOT
ATOM      1  C   UNL d   1       2.616   2.793   0.130  0.00  0.00     0.257 C 
ATOM      2  N   UNL d   1       2.301   1.457   0.050  0.00  0.00    -0.322 N 
ATOM      3  O   UNL d   1       3.732   3.244  -0.113  0.00  0.00    -0.267 OA
ATOM      4  H   UNL d   1       1.325   1.184   0.167  0.00  0.00     0.169 HD
ENDROOT
BRANCH   1   5
ATOM      5  C   UNL d   1       1.534   3.778   0.511  0.00  0.00     0.049 A 
ATOM      6  C   UNL d   1       0.141   3.682   0.291  0.00  0.00     0.053 A 
ATOM      7  C   UNL d   1      -0.701   4.768   0.612  0.00  0.00     0.019 A 
ATOM      8  C   UNL d   1      -0.186   5.953   1.132  0.00  0.00     0.001 A 
ATOM      9  C   UNL d   1       1.176   6.054   1.375  0.00  0.00     0.001 A 
ATOM     10  C   UNL d   1       2.020   4.982   1.070  0.00  0.00     0.018 A 
BRANCH   6  11
ATOM     11  C   UNL d   1      -0.537   2.461  -0.198  0.00  0.00     0.177 C 
ATOM     12  O   UNL d   1      -0.239   1.347   0.202  0.00  0.00    -0.646 OA
BRANCH  11  13
ATOM     13  O   UNL d   1      -1.519   2.672  -1.094  0.00  0.00    -0.773 OA
ATOM     14  H   UNL d   1      -1.631   3.588  -1.413  0.00  0.00     0.167 HD
ENDBRANCH  11  13
ENDBRANCH   6  11
ENDBRANCH   1   5
BRANCH   2  15
ATOM     15  C   UNL d   1       3.103   0.432  -0.463  0.00  0.00     0.056 A 
ATOM     16  C   UNL d   1       4.482   0.302  -0.537  0.00  0.00     0.077 A 
ATOM     17  S   UNL d   1       4.929  -1.120  -1.417  0.00  0.00    -0.096 SA
ATOM     18  C   UNL d   1       3.315  -1.620  -1.589  0.00  0.00     0.053 A 
ATOM     19  C   UNL d   1       2.447  -0.718  -1.027  0.00  0.00     0.038 A 
BRANCH  16  20
ATOM     20  C   UNL d   1       5.597   1.060   0.024  0.00  0.00     0.164 C 
ATOM     21  O   UNL d   1       6.680   1.200  -0.553  0.00  0.00    -0.292 OA
ATOM     22  C   UNL d   1       5.483   1.527   1.455  0.00  0.00     0.097 C 
ENDBRANCH  16  20
ENDBRANCH   2  15
TORSDOF 5
