REMARK  2 active torsions:
REMARK  status: ('A' for Active; 'I' for Inactive)
REMARK    1  A    between atoms: C_2  and  C_1 
REMARK       I    between atoms: N_4  and  C_1 
REMARK    2  A    between atoms: C_6  and  C_3 
ROOT
ATOM      1  C   UNL d   1       0.158  -0.819  -1.069  0.00  0.00     0.075 C 
ATOM      2  C   UNL d   1       0.811  -1.422  -2.073  0.00  0.00     0.017 C 
ENDROOT
BRANCH   2   3
ATOM      3  C   UNL d   1       0.090  -2.054  -3.178  0.00  0.00    -0.036 A 
ATOM      4  C   UNL d   1      -0.236  -1.312  -4.318  0.00  0.00     0.011 A 
ATOM      5  C   UNL d   1      -0.944  -1.907  -5.365  0.00  0.00     0.001 A 
ATOM      6  C   UNL d   1      -1.329  -3.244  -5.277  0.00  0.00     0.000 A 
ATOM      7  C   UNL d   1      -1.004  -3.989  -4.144  0.00  0.00     0.001 A 
ATOM      8  C   UNL d   1      -0.297  -3.395  -3.096  0.00  0.00     0.011 A 
ENDBRANCH   2   3
BRANCH   1   9
ATOM      9  C   UNL d   1       0.928  -0.149   0.013  0.00  0.00     0.242 C 
ATOM     10  N   UNL d   1       0.322  -0.027   1.256  0.00  0.00    -0.357 N 
ATOM     11  C   UNL d   1       1.055   0.649   2.317  0.00  0.00     0.152 C 
ATOM     12  C   UNL d   1      -0.957  -0.596   1.659  0.00  0.00     0.152 C 
ATOM     13  O   UNL d   1       2.058   0.273  -0.225  0.00  0.00    -0.268 OA
ENDBRANCH   1   9
TORSDOF 2
