REMARK  3 active torsions:
REMARK  status: ('A' for Active; 'I' for Inactive)
REMARK    1  A    between atoms: C_3  and  C_1 
REMARK    2  A    between atoms: C_6  and  C_2 
REMARK       I    between atoms: N_9  and  C_3 
REMARK    3  A    between atoms: C_10  and  N_9 
ROOT
ATOM      1  C   UNL d   1      -0.253  -1.043   0.243  0.00  0.00     0.093 A 
ATOM      2  C   UNL d   1      -1.545  -0.422   0.376  0.00  0.00     0.085 A 
ATOM      3  N   UNL d   1      -1.419   0.908   0.213  0.00  0.00    -0.259 N 
ATOM      4  HN  UNL d   1      -2.177   1.590   0.203  1.00  0.00     0.195 HD
ATOM      5  O   UNL d   1      -0.087   1.177   0.064  0.00  0.00    -0.241 OA
ATOM      6  C   UNL d   1       0.614   0.020   0.080  0.00  0.00     0.090 A 
ATOM      7  C   UNL d   1       2.073   0.162  -0.117  0.00  0.00     0.080 C 
ENDROOT
BRANCH   1   8
ATOM      8  C   UNL d   1       0.137  -2.444   0.212  0.00  0.00     0.261 C 
ATOM      9  N   UNL d   1       1.298  -2.729   0.915  0.00  0.00    -0.322 N 
ATOM     10  H   UNL d   1       1.477  -2.119   1.702  0.00  0.00     0.169 HD
ATOM     11  O   UNL d   1      -0.531  -3.282  -0.380  0.00  0.00    -0.267 OA
BRANCH   9  12
ATOM     12  C   UNL d   1       1.895  -4.011   0.955  0.00  0.00     0.041 A 
ATOM     13  C   UNL d   1       2.100  -4.825  -0.179  0.00  0.00    -0.032 A 
ATOM     14  C   UNL d   1       2.603  -6.127   0.004  0.00  0.00     0.051 A 
ATOM     15  C   UNL d   1       1.857  -4.380  -1.596  0.00  0.00     0.050 C 
ATOM     16  C   UNL d   1       2.953  -6.576   1.271  0.00  0.00     0.117 A 
ATOM     17  C   UNL d   1       2.834  -5.747   2.375  0.00  0.00     0.044 A 
ATOM     18  F   UNL d   1       3.426  -7.820   1.424  0.00  0.00    -0.206 F 
ATOM     19  C   UNL d   1       2.320  -4.460   2.215  0.00  0.00     0.033 A 
ENDBRANCH   9  12
ENDBRANCH   1   8
BRANCH   2  20
ATOM     20  C   UNL d   1      -2.880  -0.987   0.650  0.00  0.00     0.015 A 
ATOM     21  C   UNL d   1      -3.794  -0.379   1.540  0.00  0.00     0.046 A 
ATOM     22 CL   UNL d   1      -3.420   1.018   2.498  0.00  0.00    -0.083 Cl
ATOM     23  C   UNL d   1      -5.078  -0.913   1.731  0.00  0.00     0.025 A 
ATOM     24  C   UNL d   1      -5.465  -2.077   1.074  0.00  0.00     0.002 A 
ATOM     25  C   UNL d   1      -4.574  -2.701   0.210  0.00  0.00     0.001 A 
ATOM     26  C   UNL d   1      -3.306  -2.150  -0.014  0.00  0.00     0.015 A 
ENDBRANCH   2  20
TORSDOF 3
