REMARK  4 active torsions:
REMARK  status: ('A' for Active; 'I' for Inactive)
REMARK    1  A    between atoms: C_10  and  N_1 
REMARK    2  A    between atoms: C_8  and  C_18 
REMARK    3  A    between atoms: C_13  and  C_10 
REMARK       I    between atoms: N_16  and  C_13 
REMARK    4  A    between atoms: C_18  and  N_16 
ROOT
ATOM      1  C   UNL d   1       3.331   0.046   0.334  0.00  0.00     0.238 C 
ENDROOT
BRANCH   1   2
ATOM      2  N   UNL d   1       1.884  -0.032   0.273  0.00  0.00    -0.271 N 
ATOM      3  C   UNL d   1       1.070   0.689   1.095  0.00  0.00     0.262 C 
ATOM      4  C   UNL d   1      -0.302   0.309   0.775  0.00  0.00     0.048 A 
ATOM      5  O   UNL d   1       1.381   1.475   1.966  0.00  0.00    -0.267 OA
ATOM      6  C   UNL d   1      -1.500   0.828   1.224  0.00  0.00     0.018 A 
ATOM      7  C   UNL d   1      -0.235  -0.745  -0.117  0.00  0.00     0.048 A 
ATOM      8  C   UNL d   1      -2.666   0.226   0.750  0.00  0.00     0.001 A 
ATOM      9  C   UNL d   1      -2.606  -0.875  -0.130  0.00  0.00     0.001 A 
ATOM     10  C   UNL d   1      -1.374  -1.375  -0.574  0.00  0.00     0.018 A 
ATOM     11  C   UNL d   1       1.180  -0.987  -0.407  0.00  0.00     0.262 C 
ATOM     12  O   UNL d   1       1.591  -1.910  -1.086  0.00  0.00    -0.267 OA
ENDBRANCH   1   2
BRANCH   1  13
ATOM     13  C   UNL d   1       3.802   1.429  -0.135  0.00  0.00     0.236 C 
ATOM     14  N   UNL d   1       3.727   2.406   0.838  0.00  0.00    -0.354 N 
ATOM     15  H   UNL d   1       3.058   2.248   1.597  0.00  0.00     0.162 HD
ATOM     16  O   UNL d   1       4.172   1.657  -1.282  0.00  0.00    -0.272 OA
BRANCH  14  17
ATOM     17  C   UNL d   1       3.945   3.799   0.508  0.00  0.00     0.181 C 
BRANCH  17  18
ATOM     18  C   UNL d   1       3.718   4.647   1.715  0.00  0.00     0.052 A 
ATOM     19  N   UNL d   1       2.631   4.466   2.481  0.00  0.00    -0.264 N 
ATOM     20  O   UNL d   1       2.718   5.397   3.494  0.00  0.00    -0.243 OA
ATOM     21  HN  UNL d   1       1.890   3.779   2.341  1.00  0.00     0.194 HD
ATOM     22  C   UNL d   1       3.841   6.144   3.329  0.00  0.00     0.074 A 
ATOM     23  C   UNL d   1       4.512   5.707   2.214  0.00  0.00     0.063 A 
ATOM     24  C   UNL d   1       4.068   7.201   4.329  0.00  0.00     0.079 C 
ENDBRANCH  17  18
ENDBRANCH  14  17
ENDBRANCH   1  13
TORSDOF 4
