REMARK  2 active torsions:
REMARK  status: ('A' for Active; 'I' for Inactive)
REMARK    1  A    between atoms: C_4  and  C_2 
REMARK       I    between atoms: N_8  and  C_4 
REMARK    2  A    between atoms: C_13  and  N_8 
ROOT
ATOM      1  S   UNL d   1      -1.716   1.925   0.479  0.00  0.00    -0.083 SA
ATOM      2  C   UNL d   1      -3.210   1.139   0.242  0.00  0.00     0.074 A 
ATOM      3  C   UNL d   1      -0.797   0.476   0.244  0.00  0.00     0.027 A 
ATOM      4  C   UNL d   1      -3.028  -0.218   0.082  0.00  0.00     0.037 A 
ATOM      5  C   UNL d   1      -1.653  -0.620   0.085  0.00  0.00    -0.017 A 
ATOM      6  C   UNL d   1       0.624   0.320   0.192  0.00  0.00    -0.008 A 
ATOM      7  C   UNL d   1      -1.086  -1.905  -0.080  0.00  0.00     0.014 A 
ATOM      8  C   UNL d   1       1.158  -0.976   0.004  0.00  0.00    -0.025 A 
ATOM      9  C   UNL d   1       0.301  -2.073  -0.113  0.00  0.00     0.013 A 
ATOM     10  C   UNL d   1       1.499   1.425   0.295  0.00  0.00     0.013 A 
ATOM     11  C   UNL d   1       2.549  -1.134  -0.080  0.00  0.00     0.012 A 
ATOM     12  C   UNL d   1       2.878   1.245   0.193  0.00  0.00     0.001 A 
ATOM     13  C   UNL d   1       3.401  -0.030   0.007  0.00  0.00     0.001 A 
ENDROOT
BRANCH   2  14
ATOM     14  C   UNL d   1      -4.482   1.852   0.190  0.00  0.00     0.263 C 
ATOM     15  N   UNL d   1      -4.397   3.219   0.407  0.00  0.00    -0.323 N 
ATOM     16  H   UNL d   1      -3.467   3.573   0.593  0.00  0.00     0.169 HD
ATOM     17  O   UNL d   1      -5.524   1.252  -0.067  0.00  0.00    -0.267 OA
BRANCH  15  18
ATOM     18  C   UNL d   1      -5.418   4.180   0.263  0.00  0.00     0.035 A 
ATOM     19  C   UNL d   1      -6.757   3.863   0.031  0.00  0.00     0.029 A 
ATOM     20  C   UNL d   1      -7.700   4.872  -0.183  0.00  0.00     0.002 A 
ATOM     21  C   UNL d   1      -7.313   6.208  -0.161  0.00  0.00     0.000 A 
ATOM     22  C   UNL d   1      -5.987   6.538   0.102  0.00  0.00     0.002 A 
ATOM     23  C   UNL d   1      -5.044   5.528   0.322  0.00  0.00     0.029 A 
ENDBRANCH  15  18
ENDBRANCH   2  14
TORSDOF 2
