REMARK  2 active torsions:
REMARK  status: ('A' for Active; 'I' for Inactive)
REMARK    1  A    between atoms: C_11  and  N_1 
REMARK    2  A    between atoms: C_8  and  C_6 
ROOT
ATOM      1  N   UNL d   1      -3.074   1.090  -0.009  0.00  0.00    -0.282 N 
ATOM      2  N   UNL d   1      -1.785   1.507  -0.246  0.00  0.00    -0.300 N 
ATOM      3  HN  UNL d   1      -1.486   2.422  -0.585  1.00  0.00     0.187 HD
ATOM      4  C   UNL d   1      -1.030   0.492   0.051  0.00  0.00     0.043 C 
ATOM      5  C   UNL d   1      -1.747  -0.699   0.634  0.00  0.00     0.068 C 
ATOM      6  C   UNL d   1      -3.175  -0.370   0.180  0.00  0.00     0.158 C 
ATOM      7  C   UNL d   1       0.429   0.441  -0.042  0.00  0.00    -0.005 A 
ATOM      8  C   UNL d   1      -1.110  -2.056   0.358  0.00  0.00     0.018 C 
ATOM      9  C   UNL d   1       1.012  -0.820  -0.238  0.00  0.00    -0.046 A 
ATOM     10  C   UNL d   1       0.130  -2.004  -0.538  0.00  0.00     0.040 C 
ATOM     11  C   UNL d   1       1.205   1.586   0.128  0.00  0.00     0.014 A 
ATOM     12  C   UNL d   1       2.406  -0.922  -0.242  0.00  0.00     0.008 A 
ATOM     13  C   UNL d   1       2.595   1.467   0.134  0.00  0.00     0.001 A 
ATOM     14  C   UNL d   1       3.193   0.216  -0.041  0.00  0.00     0.001 A 
ENDROOT
BRANCH   1  15
ATOM     15  C   UNL d   1      -4.170   1.927  -0.216  0.00  0.00     0.051 A 
ATOM     16  C   UNL d   1      -4.020   3.199  -0.790  0.00  0.00     0.031 A 
ATOM     17  C   UNL d   1      -5.114   4.048  -0.993  0.00  0.00     0.002 A 
ATOM     18  C   UNL d   1      -6.390   3.648  -0.609  0.00  0.00     0.000 A 
ATOM     19  C   UNL d   1      -6.569   2.399  -0.026  0.00  0.00     0.002 A 
ATOM     20  C   UNL d   1      -5.471   1.554   0.164  0.00  0.00     0.031 A 
ENDBRANCH   1  15
BRANCH   6  21
ATOM     21  C   UNL d   1      -3.652  -1.112  -1.054  0.00  0.00     0.008 A 
ATOM     22  S   UNL d   1      -4.971  -2.207  -0.930  0.00  0.00    -0.104 SA
ATOM     23  C   UNL d   1      -5.017  -2.450  -2.620  0.00  0.00     0.050 A 
ATOM     24  C   UNL d   1      -4.018  -1.761  -3.268  0.00  0.00     0.008 A 
ATOM     25  C   UNL d   1      -3.227  -0.992  -2.365  0.00  0.00     0.017 A 
ENDBRANCH   6  21
TORSDOF 2
