REMARK  5 active torsions:
REMARK  status: ('A' for Active; 'I' for Inactive)
REMARK    1  A    between atoms: C_11  and  C_1 
REMARK    2  A    between atoms: S_15  and  C_3 
REMARK    3  A    between atoms: N_9  and  C_6 
REMARK    4  A    between atoms: N_10  and  C_13 
REMARK    5  A    between atoms: C_12  and  S_15 
ROOT
ATOM      1  C   UNL d   1       3.053  -2.397   1.013  0.00  0.00     0.122 A 
ATOM      2  C   UNL d   1       2.276  -2.774  -0.091  0.00  0.00     0.042 A 
ATOM      3  C   UNL d   1       5.088  -2.950  -0.153  0.00  0.00     0.111 A 
ATOM      4  C   UNL d   1       4.454  -2.470   0.998  0.00  0.00     0.074 A 
ATOM      5  C   UNL d   1       4.355  -3.399  -1.265  0.00  0.00    -0.028 A 
ATOM      6  C   UNL d   1       2.948  -3.293  -1.215  0.00  0.00     0.030 A 
ATOM      7  C   UNL d   1       4.967  -4.023  -2.490  0.00  0.00     0.050 C 
ENDROOT
BRANCH   2   8
ATOM      8  S   UNL d   1       0.486  -2.701  -0.148  0.00  0.00    -0.050 SA
BRANCH   8   9
ATOM      9  C   UNL d   1       0.306  -1.144  -0.898  0.00  0.00     0.167 A 
ATOM     10  N   UNL d   1      -0.826  -0.372  -0.817  0.00  0.00    -0.312 N 
ATOM     11  C   UNL d   1      -0.572   0.743  -1.593  0.00  0.00     0.209 A 
ATOM     12  C   UNL d   1      -2.034  -0.684  -0.093  0.00  0.00     0.160 C 
ATOM     13  N   UNL d   1       0.651   0.631  -2.089  0.00  0.00    -0.279 N 
ATOM     14  N   UNL d   1       1.195  -0.547  -1.654  0.00  0.00    -0.278 N 
ATOM     15  HN  UNL d   1       1.111   1.311  -2.695  1.00  0.00     0.188 HD
ATOM     16  HN  UNL d   1       2.126  -0.898  -1.878  1.00  0.00     0.189 HD
BRANCH  11  17
ATOM     17  C   UNL d   1      -1.505   1.877  -1.844  0.00  0.00     0.450 C 
ATOM     18  F   UNL d   1      -2.737   1.695  -1.299  0.00  0.00    -0.163 F 
ATOM     19  F   UNL d   1      -1.034   3.045  -1.336  0.00  0.00    -0.163 F 
ATOM     20  F   UNL d   1      -1.714   2.079  -3.171  0.00  0.00    -0.163 F 
ENDBRANCH  11  17
ENDBRANCH   8   9
ENDBRANCH   2   8
BRANCH   1  21
ATOM     21  N   UNL d   1       2.432  -1.963   2.249  0.00  0.00    -0.114 N 
ATOM     22  O   UNL d   1       1.738  -0.938   2.217  0.00  0.00    -0.532 OA
ATOM     23  O   UNL d   1       2.668  -2.640   3.258  0.00  0.00    -0.532 OA
ENDBRANCH   1  21
BRANCH   3  24
ATOM     24  N   UNL d   1       6.544  -2.957  -0.153  0.00  0.00    -0.115 N 
ATOM     25  O   UNL d   1       7.099  -3.592   0.752  0.00  0.00    -0.532 OA
ATOM     26  O   UNL d   1       7.114  -2.299  -1.032  0.00  0.00    -0.532 OA
ENDBRANCH   3  24
TORSDOF 5
