REMARK  3 active torsions:
REMARK  status: ('A' for Active; 'I' for Inactive)
REMARK    1  A    between atoms: C_9  and  C_2 
REMARK    2  A    between atoms: C_5  and  C_10 
REMARK       I    between atoms: N_7  and  C_5 
REMARK    3  A    between atoms: C_16  and  N_7 
ROOT
ATOM      1  C   UNL d   1       2.406  -1.609  -0.155  0.00  0.00    -0.008 A 
ATOM      2  C   UNL d   1       4.818  -3.080  -0.165  0.00  0.00     0.032 A 
ATOM      3  C   UNL d   1       2.564  -2.707  -1.011  0.00  0.00     0.015 A 
ATOM      4  C   UNL d   1       3.475  -1.252   0.684  0.00  0.00     0.015 A 
ATOM      5  C   UNL d   1       3.761  -3.433  -1.016  0.00  0.00     0.018 A 
ATOM      6  C   UNL d   1       4.675  -1.974   0.677  0.00  0.00     0.018 A 
ENDROOT
BRANCH   2   7
ATOM      7  C   UNL d   1       6.064  -3.903  -0.224  0.00  0.00     0.256 C 
ATOM      8  N   UNL d   1       6.783  -4.005   0.956  0.00  0.00    -0.323 N 
ATOM      9  H   UNL d   1       6.400  -3.555   1.777  0.00  0.00     0.169 HD
ATOM     10  O   UNL d   1       6.326  -4.453  -1.287  0.00  0.00    -0.267 OA
BRANCH   8  11
ATOM     11  C   UNL d   1       7.928  -4.805   1.181  0.00  0.00     0.035 A 
ATOM     12  C   UNL d   1       8.546  -5.575   0.191  0.00  0.00     0.031 A 
ATOM     13  C   UNL d   1       9.626  -6.409   0.503  0.00  0.00     0.026 A 
ATOM     14  C   UNL d   1      10.104  -6.467   1.807  0.00  0.00     0.034 A 
ATOM     15  C   UNL d   1       9.529  -5.676   2.797  0.00  0.00     0.026 A 
ATOM     16 CL   UNL d   1      11.400  -7.528   2.198  0.00  0.00    -0.084 Cl
ATOM     17  C   UNL d   1       8.445  -4.846   2.483  0.00  0.00     0.031 A 
ENDBRANCH   8  11
ENDBRANCH   2   7
BRANCH   1  18
ATOM     18  C   UNL d   1       1.165  -0.849  -0.102  0.00  0.00     0.063 A 
ATOM     19  N   UNL d   1       0.773  -0.204   1.069  0.00  0.00    -0.292 N 
ATOM     20  N   UNL d   1      -0.379   0.427   0.927  0.00  0.00    -0.061 NA
ATOM     21  HN  UNL d   1       1.313  -0.218   1.934  1.00  0.00     0.183 HD
ATOM     22  S   UNL d   1      -1.014   0.284  -0.612  0.00  0.00    -0.010 SA
ATOM     23  C   UNL d   1       0.294  -0.683  -1.167  0.00  0.00     0.096 A 
ENDBRANCH   1  18
TORSDOF 3
