REMARK  2 active torsions:
REMARK  status: ('A' for Active; 'I' for Inactive)
REMARK    1  A    between atoms: C_2  and  C_1 
REMARK       I    between atoms: N_5  and  C_1 
REMARK    2  A    between atoms: C_7  and  N_5 
ROOT
ATOM      1  C   UNL d   1      -1.253  -1.171   0.273  0.00  0.00     0.034 A 
ATOM      2  C   UNL d   1      -3.953  -1.871   0.074  0.00  0.00     0.116 A 
ATOM      3  F   UNL d   1      -5.244  -2.213  -0.030  0.00  0.00    -0.206 F 
ATOM      4  C   UNL d   1      -2.100  -0.500  -0.617  0.00  0.00     0.032 A 
ATOM      5  C   UNL d   1      -1.781  -2.200   1.065  0.00  0.00     0.032 A 
ATOM      6  C   UNL d   1      -3.449  -0.852  -0.720  0.00  0.00     0.044 A 
ATOM      7  C   UNL d   1      -3.133  -2.546   0.969  0.00  0.00     0.044 A 
ENDROOT
BRANCH   1   8
ATOM      8  N   UNL d   1       0.129  -0.896   0.381  0.00  0.00    -0.327 N 
ATOM      9  C   UNL d   1       0.798   0.156  -0.207  0.00  0.00     0.226 C 
ATOM     10  O   UNL d   1       0.296   1.119  -0.772  0.00  0.00    -0.273 OA
ATOM     11  H   UNL d   1       0.672  -1.532   0.947  0.00  0.00     0.169 HD
BRANCH   9  12
ATOM     12  C   UNL d   1       2.288   0.053  -0.123  0.00  0.00     0.078 A 
ATOM     13  C   UNL d   1       3.142   1.299  -0.063  0.00  0.00     0.015 A 
ATOM     14  C   UNL d   1       3.107   0.483  -1.323  0.00  0.00     0.015 A 
ENDBRANCH   9  12
ENDBRANCH   1   8
TORSDOF 2
