REMARK  5 active torsions:
REMARK  status: ('A' for Active; 'I' for Inactive)
REMARK    1  A    between atoms: N_2  and  S_1 
REMARK    2  A    between atoms: C_4  and  S_1 
REMARK    3  A    between atoms: C_3  and  O_14 
REMARK    4  A    between atoms: C_7  and  C_17 
REMARK       I    between atoms: N_23  and  C_7 
REMARK    5  A    between atoms: O_14  and  C_24 
ROOT
ATOM      1  C   UNL d   1      -0.713  -6.296   1.855  0.00  0.00     0.117 A 
ATOM      2  N   UNL d   1       0.952  -7.875   4.569  0.00  0.00    -0.191 NA
ATOM      3  N   UNL d   1      -2.831  -4.077   0.057  0.00  0.00    -0.191 NA
ATOM      4  C   UNL d   1      -0.249  -7.550   2.291  0.00  0.00     0.080 A 
ATOM      5  C   UNL d   1      -1.514  -6.223   0.698  0.00  0.00     0.080 A 
ATOM      6  C   UNL d   1       0.426  -7.705   3.551  0.00  0.00     0.102 C 
ATOM      7  C   UNL d   1      -2.222  -5.030   0.331  0.00  0.00     0.102 C 
ATOM      8  C   UNL d   1      -1.698  -7.366  -0.095  0.00  0.00     0.026 A 
ATOM      9  C   UNL d   1      -0.479  -8.692   1.508  0.00  0.00     0.026 A 
ATOM     10  C   UNL d   1      -1.171  -8.593   0.302  0.00  0.00     0.003 A 
ENDROOT
BRANCH   1  11
ATOM     11  O   UNL d   1      -0.409  -5.203   2.648  0.00  0.00    -0.308 OA
BRANCH  11  12
ATOM     12  C   UNL d   1       0.007  -4.033   2.046  0.00  0.00     0.076 A 
ATOM     13  C   UNL d   1      -0.379  -2.849   2.681  0.00  0.00     0.039 A 
ATOM     14  C   UNL d   1      -0.089  -1.610   2.099  0.00  0.00     0.028 A 
ATOM     15  C   UNL d   1       0.587  -1.560   0.875  0.00  0.00     0.079 A 
ATOM     16  C   UNL d   1       1.044  -2.739   0.276  0.00  0.00     0.028 A 
ATOM     17  C   UNL d   1       0.766  -3.975   0.870  0.00  0.00     0.039 A 
BRANCH  15  18
ATOM     18  S   UNL d   1       0.992   0.024   0.146  0.00  0.00     0.260 S 
ATOM     19  O   UNL d   1       0.853   1.021   1.188  0.00  0.00    -0.200 OA
ATOM     20  O   UNL d   1       2.245  -0.141  -0.561  0.00  0.00    -0.200 OA
BRANCH  18  21
ATOM     21  N   UNL d   1      -0.247   0.299  -1.010  0.00  0.00    -0.307 N 
ATOM     22  C   UNL d   1      -0.183  -0.551  -2.226  0.00  0.00     0.136 C 
ATOM     23  C   UNL d   1      -1.169  -0.059  -3.288  0.00  0.00     0.034 C 
ATOM     24  C   UNL d   1      -2.596   0.035  -2.738  0.00  0.00     0.081 C 
ATOM     25  C   UNL d   1      -2.586   0.956  -1.516  0.00  0.00     0.034 C 
ATOM     26  C   UNL d   1      -1.608   0.474  -0.446  0.00  0.00     0.136 C 
BRANCH  24  27
ATOM     27  C   UNL d   1      -3.155  -1.355  -2.447  0.00  0.00     0.219 C 
ATOM     28  O   UNL d   1      -2.595  -2.393  -2.783  0.00  0.00    -0.273 OA
ATOM     29  N   UNL d   1      -4.368  -1.398  -1.833  0.00  0.00    -0.370 N 
ATOM     30  H   UNL d   1      -4.937  -0.589  -1.633  0.00  0.00     0.159 HD
ATOM     31  H   UNL d   1      -4.733  -2.316  -1.607  0.00  0.00     0.159 HD
ENDBRANCH  24  27
ENDBRANCH  18  21
ENDBRANCH  15  18
ENDBRANCH  11  12
ENDBRANCH   1  11
TORSDOF 5
