REMARK  4 active torsions:
REMARK  status: ('A' for Active; 'I' for Inactive)
REMARK    1  A    between atoms: C_10  and  C_1 
REMARK    2  A    between atoms: O_7  and  C_3 
REMARK    3  A    between atoms: C_8  and  O_7 
REMARK    4  A    between atoms: C_11  and  C_8 
ROOT
ATOM      1  C   UNL d   1      -1.407   2.482   0.004  0.00  0.00     0.077 A 
ATOM      2  C   UNL d   1       0.093   2.358   0.075  0.00  0.00     0.262 A 
ATOM      3  C   UNL d   1      -2.171   1.370  -0.028  0.00  0.00     0.108 A 
ATOM      4  N   UNL d   1       0.645   1.088   0.049  0.00  0.00    -0.312 N 
ATOM      5  C   UNL d   1      -1.547   0.032  -0.077  0.00  0.00     0.026 A 
ATOM      6  C   UNL d   1      -0.149  -0.084   0.003  0.00  0.00     0.057 A 
ATOM      7  O   UNL d   1       0.795   3.370   0.162  0.00  0.00    -0.267 OA
ATOM      8  C   UNL d   1       0.460  -1.354   0.029  0.00  0.00    -0.030 A 
ATOM      9  C   UNL d   1       2.087   0.984   0.221  0.00  0.00     0.133 C 
ATOM     10  C   UNL d   1      -2.314  -1.143  -0.177  0.00  0.00     0.017 A 
ATOM     11  C   UNL d   1       2.687  -0.292  -0.338  0.00  0.00     0.025 C 
ATOM     12  C   UNL d   1      -1.712  -2.400  -0.157  0.00  0.00     0.002 A 
ATOM     13  C   UNL d   1      -0.331  -2.506  -0.042  0.00  0.00     0.009 A 
ATOM     14  C   UNL d   1       1.949  -1.502   0.199  0.00  0.00     0.042 C 
ENDROOT
BRANCH   3  15
ATOM     15  O   UNL d   1      -3.589   1.393  -0.042  0.00  0.00    -0.273 OA
BRANCH  15  16
ATOM     16  C   UNL d   1      -4.112   1.354   1.218  0.00  0.00     0.298 C 
ATOM     17  O   UNL d   1      -3.517   1.424   2.284  0.00  0.00    -0.259 OA
BRANCH  16  18
ATOM     18  C   UNL d   1      -5.589   1.226   1.171  0.00  0.00     0.040 A 
ATOM     19  C   UNL d   1      -6.347   2.093   1.970  0.00  0.00     0.019 A 
ATOM     20  C   UNL d   1      -7.733   1.934   2.058  0.00  0.00     0.025 A 
ATOM     21  C   UNL d   1      -8.358   0.899   1.366  0.00  0.00     0.034 A 
ATOM     22  C   UNL d   1      -7.609   0.027   0.572  0.00  0.00     0.025 A 
ATOM     23 CL   UNL d   1     -10.058   0.677   1.514  0.00  0.00    -0.084 Cl
ATOM     24  C   UNL d   1      -6.223   0.192   0.468  0.00  0.00     0.019 A 
ENDBRANCH  16  18
ENDBRANCH  15  16
ENDBRANCH   3  15
BRANCH   1  25
ATOM     25  C   UNL d   1      -1.934   3.862   0.023  0.00  0.00    -0.018 A 
ATOM     26  C   UNL d   1      -2.239   4.483   1.241  0.00  0.00     0.012 A 
ATOM     27  C   UNL d   1      -2.443   5.865   1.293  0.00  0.00     0.001 A 
ATOM     28  C   UNL d   1      -2.350   6.630   0.131  0.00  0.00     0.000 A 
ATOM     29  C   UNL d   1      -2.083   6.014  -1.091  0.00  0.00     0.001 A 
ATOM     30  C   UNL d   1      -1.881   4.634  -1.147  0.00  0.00     0.012 A 
ENDBRANCH   1  25
TORSDOF 4
