REMARK  2 active torsions:
REMARK  status: ('A' for Active; 'I' for Inactive)
REMARK    1  A    between atoms: O_11  and  C_6 
REMARK    2  A    between atoms: C_14  and  O_11 
ROOT
ATOM      1  C   UNL d   1      -0.188   1.975   0.293  0.00  0.00    -0.030 C 
ATOM      2  C   UNL d   1      -2.128  -2.114   0.175  0.00  0.00    -0.013 C 
ATOM      3  C   UNL d   1      -0.793   0.626  -0.278  0.00  0.00    -0.001 C 
ATOM      4  C   UNL d   1      -0.655  -1.852   0.617  0.00  0.00     0.001 C 
ATOM      5  C   UNL d   1       0.050  -0.703  -0.159  0.00  0.00    -0.005 C 
ATOM      6  C   UNL d   1      -1.997  -3.323  -0.792  0.00  0.00     0.140 C 
ATOM      7  C   UNL d   1      -2.801  -0.883  -0.463  0.00  0.00     0.012 C 
ATOM      8  C   UNL d   1      -2.266   0.408   0.131  0.00  0.00     0.007 C 
ATOM      9  C   UNL d   1       0.065  -3.220   0.415  0.00  0.00     0.008 C 
ATOM     10  C   UNL d   1       1.516  -0.560   0.295  0.00  0.00     0.006 C 
ATOM     11  C   UNL d   1       1.358   1.867   0.366  0.00  0.00    -0.005 C 
ATOM     12  C   UNL d   1      -0.517   3.145  -0.682  0.00  0.00     0.088 C 
ATOM     13  C   UNL d   1      -0.991  -4.216  -0.070  0.00  0.00     0.034 C 
ATOM     14  C   UNL d   1       0.233   4.411  -0.312  0.00  0.00     0.127 C 
ATOM     15  C   UNL d   1       1.767   0.647   1.174  0.00  0.00     0.006 C 
ATOM     16  O   UNL d   1      -0.331   5.509  -0.275  0.00  0.00    -0.298 OA
ATOM     17  C   UNL d   1       2.046   3.151   0.839  0.00  0.00     0.013 C 
ATOM     18  C   UNL d   1      -0.817   2.342   1.666  0.00  0.00     0.016 C 
ATOM     19  C   UNL d   1       1.727   4.284  -0.127  0.00  0.00     0.079 C 
ATOM     20  C   UNL d   1      -2.957  -2.506   1.428  0.00  0.00     0.018 C 
ENDROOT
BRANCH   6  21
ATOM     21  O   UNL d   1      -1.324  -2.933  -2.013  0.00  0.00    -0.316 OA
BRANCH  21  22
ATOM     22  C   UNL d   1      -2.059  -2.616  -3.106  0.00  0.00     0.255 C 
ATOM     23  O   UNL d   1      -3.270  -2.744  -3.213  0.00  0.00    -0.266 OA
ATOM     24  C   UNL d   1      -1.176  -1.937  -4.107  0.00  0.00     0.126 C 
ENDBRANCH  21  22
ENDBRANCH   6  21
TORSDOF 2
