REMARK  2 active torsions:
REMARK  status: ('A' for Active; 'I' for Inactive)
REMARK    1  A    between atoms: N_10  and  N_4 
REMARK    2  A    between atoms: C_14  and  C_13 
ROOT
ATOM      1  C   UNL d   1      -0.331   0.511  -0.009  0.00  0.00     0.075 A 
ATOM      2  C   UNL d   1       0.017  -0.819  -0.031  0.00  0.00     0.092 A 
ATOM      3  C   UNL d   1       0.755   1.484   0.023  0.00  0.00     0.281 C 
ATOM      4  N   UNL d   1       2.042   0.911   0.190  0.00  0.00    -0.208 N 
ATOM      5  N   UNL d   1       1.268  -1.336  -0.023  0.00  0.00    -0.338 N 
ATOM      6  HN  UNL d   1       1.444  -2.338  -0.101  1.00  0.00     0.168 HD
ATOM      7  C   UNL d   1       2.229  -0.469   0.092  0.00  0.00     0.104 C 
ATOM      8  S   UNL d   1      -1.341  -1.839  -0.067  0.00  0.00    -0.076 SA
ATOM      9  C   UNL d   1      -1.766   0.707  -0.019  0.00  0.00    -0.031 A 
ATOM     10  C   UNL d   1      -2.425  -0.517  -0.037  0.00  0.00    -0.012 A 
ATOM     11  O   UNL d   1       0.546   2.689  -0.106  0.00  0.00    -0.265 OA
ATOM     12  C   UNL d   1       3.635  -1.027   0.134  0.00  0.00     0.091 C 
ATOM     13  C   UNL d   1      -2.477   2.025   0.004  0.00  0.00     0.050 C 
ATOM     14  C   UNL d   1      -3.892  -0.804  -0.030  0.00  0.00     0.057 C 
ENDROOT
BRANCH   4  15
ATOM     15  N   UNL d   1       3.186   1.716   0.270  0.00  0.00    -0.300 N 
ATOM     16  C   UNL d   1       3.085   2.835   0.921  0.00  0.00     0.126 C 
ATOM     17  HN  UNL d   1       4.063   1.434  -0.167  1.00  0.00     0.186 HD
BRANCH  16  18
ATOM     18  C   UNL d   1       4.192   3.758   1.015  0.00  0.00     0.021 A 
ATOM     19  S   UNL d   1       3.983   5.193   1.927  0.00  0.00    -0.101 SA
ATOM     20  C   UNL d   1       5.576   5.718   1.595  0.00  0.00     0.050 A 
ATOM     21  C   UNL d   1       6.258   4.819   0.806  0.00  0.00     0.008 A 
ATOM     22  C   UNL d   1       5.459   3.685   0.469  0.00  0.00     0.021 A 
ENDBRANCH  16  18
ENDBRANCH   4  15
TORSDOF 2
