REMARK  3 active torsions:
REMARK  status: ('A' for Active; 'I' for Inactive)
REMARK    1  A    between atoms: N_5  and  C_3 
REMARK    2  A    between atoms: N_18  and  C_4 
REMARK    3  A    between atoms: C_17  and  N_9 
ROOT
ATOM      1  N   UNL d   1       1.640   0.531   0.962  0.00  0.00    -0.180 N 
ATOM      2  HN  UNL d   1       2.113   1.095   1.668  1.00  0.00     0.185 HD
ATOM      3  C   UNL d   1       2.346  -0.092  -0.003  0.00  0.00     0.681 A 
ATOM      4  C   UNL d   1       0.302   0.399   0.979  0.00  0.00     0.116 A 
ATOM      5  N   UNL d   1       1.753  -0.842  -0.943  0.00  0.00    -0.200 N 
ATOM      6  HN  UNL d   1       2.299  -1.300  -1.672  1.00  0.00     0.183 HD
ATOM      7  C   UNL d   1      -0.372  -0.370   0.057  0.00  0.00     0.099 A 
ATOM      8  C   UNL d   1      -1.786  -0.543   0.055  0.00  0.00     0.104 C 
ATOM      9  N   UNL d   1      -2.938  -0.676   0.022  0.00  0.00    -0.191 NA
ATOM     10  C   UNL d   1       0.413  -0.970  -0.895  0.00  0.00     0.132 A 
ENDROOT
BRANCH   4  11
ATOM     11  N   UNL d   1      -0.346   1.043   2.035  0.00  0.00    -0.287 NA
ATOM     12  H   UNL d   1       0.342   1.599   2.538  0.00  0.00     0.125 HD
ATOM     13  H   UNL d   1      -1.151   1.594   1.756  0.00  0.00     0.125 HD
ENDBRANCH   4  11
BRANCH   3  14
ATOM     14  N   UNL d   1       3.704   0.055  -0.035  0.00  0.00    -0.214 N 
ATOM     15  C   UNL d   1       4.526  -0.570  -1.077  0.00  0.00     0.161 C 
ATOM     16  C   UNL d   1       5.595  -1.513  -0.470  0.00  0.00     0.143 C 
ATOM     17  N   UNL d   1       6.334  -0.845   0.621  0.00  0.00    -0.378 N 
ATOM     18  C   UNL d   1       5.474  -0.253   1.663  0.00  0.00     0.143 C 
ATOM     19  C   UNL d   1       4.437   0.713   1.049  0.00  0.00     0.161 C 
BRANCH  17  20
ATOM     20  C   UNL d   1       7.699  -0.647   0.566  0.00  0.00     0.030 A 
ATOM     21  C   UNL d   1       8.556  -1.606   0.003  0.00  0.00     0.029 A 
ATOM     22  C   UNL d   1       9.944  -1.427  -0.045  0.00  0.00     0.002 A 
ATOM     23  C   UNL d   1      10.515  -0.271   0.472  0.00  0.00     0.000 A 
ATOM     24  C   UNL d   1       9.695   0.698   1.038  0.00  0.00     0.002 A 
ATOM     25  C   UNL d   1       8.308   0.507   1.083  0.00  0.00     0.029 A 
ENDBRANCH  17  20
ENDBRANCH   3  14
TORSDOF 3
