REMARK  4 active torsions:
REMARK  status: ('A' for Active; 'I' for Inactive)
REMARK    1  A    between atoms: C_8  and  C_1 
REMARK    2  A    between atoms: C_10  and  C_5 
REMARK    3  A    between atoms: C_7  and  C_8 
REMARK    4  A    between atoms: N_12  and  C_9 
ROOT
ATOM      1  C   UNL d   1      -0.158  -1.063   0.031  0.00  0.00     0.079 A 
ATOM      2  S   UNL d   1       1.352  -0.251   0.034  0.00  0.00    -0.066 SA
ATOM      3  N   UNL d   1      -0.747   1.209   0.049  0.00  0.00    -0.352 N 
ATOM      4  HN  UNL d   1      -1.368   2.017   0.086  1.00  0.00     0.166 HD
ATOM      5  C   UNL d   1       0.568   1.278   0.005  0.00  0.00     0.085 A 
ATOM      6  C   UNL d   1      -1.173  -0.113   0.037  0.00  0.00     0.027 A 
ATOM      7  C   UNL d   1      -2.641  -0.365   0.022  0.00  0.00     0.070 C 
ENDROOT
BRANCH   1   8
ATOM      8  C   UNL d   1      -0.299  -2.518   0.021  0.00  0.00     0.192 C 
ATOM      9  O   UNL d   1      -1.406  -3.058   0.028  0.00  0.00    -0.287 OA
BRANCH   8  10
ATOM     10  C   UNL d   1       0.923  -3.391  -0.004  0.00  0.00     0.073 C 
ATOM     11  C   UNL d   1       0.818  -4.729  -0.014  0.00  0.00     0.088 C 
BRANCH  11  12
ATOM     12  N   UNL d   1       1.811  -5.701  -0.037  0.00  0.00    -0.398 N 
ATOM     13  C   UNL d   1       3.248  -5.431  -0.050  0.00  0.00     0.148 C 
ATOM     14  C   UNL d   1       1.482  -7.130  -0.046  0.00  0.00     0.148 C 
ENDBRANCH  11  12
ENDBRANCH   8  10
ENDBRANCH   1   8
BRANCH   5  15
ATOM     15  C   UNL d   1       1.334   2.537  -0.037  0.00  0.00    -0.002 A 
ATOM     16  C   UNL d   1       2.591   2.636  -0.658  0.00  0.00     0.014 A 
ATOM     17  C   UNL d   1       3.277   3.853  -0.705  0.00  0.00     0.001 A 
ATOM     18  C   UNL d   1       2.719   4.993  -0.134  0.00  0.00     0.000 A 
ATOM     19  C   UNL d   1       1.472   4.918   0.483  0.00  0.00     0.001 A 
ATOM     20  C   UNL d   1       0.784   3.701   0.526  0.00  0.00     0.014 A 
ENDBRANCH   5  15
TORSDOF 4
