REMARK  4 active torsions:
REMARK  status: ('A' for Active; 'I' for Inactive)
REMARK    1  A    between atoms: C_7  and  C_1 
REMARK       I    between atoms: N_13  and  C_7 
REMARK    2  A    between atoms: C_10  and  C_15 
REMARK    3  A    between atoms: C_23  and  N_13 
REMARK    4  A    between atoms: C_24  and  C_23 
ROOT
ATOM      1  C   UNL d   1      -1.339  -2.776   0.157  0.00  0.00     0.254 C 
ATOM      2  N   UNL d   1      -0.360  -3.752   0.129  0.00  0.00    -0.353 N 
ATOM      3  O   UNL d   1      -1.041  -1.586   0.226  0.00  0.00    -0.268 OA
ATOM      4  H   UNL d   1      -0.599  -4.739   0.066  0.00  0.00     0.163 HD
ENDROOT
BRANCH   2   5
ATOM      5  C   UNL d   1       1.021  -3.313   0.164  0.00  0.00     0.161 C 
BRANCH   5   6
ATOM      6  C   UNL d   1       2.048  -4.409   0.090  0.00  0.00    -0.040 A 
ATOM      7  C   UNL d   1       2.529  -4.840  -1.151  0.00  0.00     0.010 A 
ATOM      8  C   UNL d   1       3.542  -5.802  -1.229  0.00  0.00     0.013 A 
ATOM      9  C   UNL d   1       4.094  -6.376  -0.073  0.00  0.00    -0.019 A 
ATOM     10  C   UNL d   1       3.612  -5.934   1.168  0.00  0.00     0.013 A 
ATOM     11  C   UNL d   1       2.600  -4.965   1.250  0.00  0.00     0.010 A 
BRANCH   9  12
ATOM     12  C   UNL d   1       5.160  -7.396  -0.148  0.00  0.00     0.015 A 
ATOM     13  S   UNL d   1       5.211  -8.515  -1.458  0.00  0.00    -0.101 SA
ATOM     14  C   UNL d   1       6.620  -9.273  -0.866  0.00  0.00     0.050 A 
ATOM     15  C   UNL d   1       7.039  -8.721   0.321  0.00  0.00     0.008 A 
ATOM     16  C   UNL d   1       6.196  -7.647   0.738  0.00  0.00     0.020 A 
ENDBRANCH   9  12
ENDBRANCH   5   6
ENDBRANCH   2   5
BRANCH   1  17
ATOM     17  C   UNL d   1      -2.769  -3.128   0.098  0.00  0.00     0.061 A 
ATOM     18  C   UNL d   1      -3.313  -4.435   0.067  0.00  0.00     0.082 A 
ATOM     19  N   UNL d   1      -2.657  -5.611   0.075  0.00  0.00    -0.310 N 
ATOM     20  C   UNL d   1      -4.826  -4.621   0.018  0.00  0.00     0.068 A 
ATOM     21  S   UNL d   1      -3.813  -6.808   0.033  0.00  0.00     0.068 SA
ATOM     22  HN  UNL d   1      -1.646  -5.743   0.102  1.00  0.00     0.176 HD
ATOM     23  N   UNL d   1      -5.204  -5.907  -0.004  0.00  0.00    -0.310 N 
ATOM     24  HN  UNL d   1      -6.160  -6.262  -0.036  1.00  0.00     0.176 HD
ATOM     25  C   UNL d   1      -5.710  -3.513   0.000  0.00  0.00     0.032 A 
ATOM     26  C   UNL d   1      -5.115  -2.247   0.029  0.00  0.00     0.003 A 
ATOM     27  C   UNL d   1      -3.715  -2.067   0.076  0.00  0.00     0.019 A 
ENDBRANCH   1  17
TORSDOF 4
