REMARK  3 active torsions:
REMARK  status: ('A' for Active; 'I' for Inactive)
REMARK    1  A    between atoms: C_8  and  N_1 
REMARK    2  A    between atoms: C_12  and  C_6 
REMARK    3  A    between atoms: C_7  and  C_9 
ROOT
ATOM      1  N   UNL d   1      -0.130  -1.260  -0.005  0.00  0.00    -0.180 N 
ATOM      2  N   UNL d   1       1.139  -0.784   0.200  0.00  0.00    -0.266 N 
ATOM      3  HN  UNL d   1       1.987  -1.303   0.426  1.00  0.00     0.190 HD
ATOM      4  C   UNL d   1      -1.008  -0.236  -0.290  0.00  0.00     0.394 A 
ATOM      5  O   UNL d   1      -0.259   0.915  -0.252  0.00  0.00    -0.240 OA
ATOM      6  C   UNL d   1       0.989   0.490   0.034  0.00  0.00     0.178 A 
ATOM      7  O   UNL d   1      -2.202  -0.232  -0.534  0.00  0.00    -0.236 OA
ENDROOT
BRANCH   1   8
ATOM      8  C   UNL d   1      -0.384  -2.643  -0.004  0.00  0.00     0.132 A 
ATOM      9  N   UNL d   1      -1.602  -3.103  -0.363  0.00  0.00    -0.350 N 
ATOM     10  C   UNL d   1      -1.795  -4.443  -0.421  0.00  0.00     0.106 A 
ATOM     11  HN  UNL d   1      -2.359  -2.456  -0.586  1.00  0.00     0.166 HD
ATOM     12  C   UNL d   1      -0.820  -5.381  -0.124  0.00  0.00     0.063 A 
ATOM     13  C   UNL d   1       0.425  -4.899   0.277  0.00  0.00     0.021 A 
ATOM     14  C   UNL d   1       0.645  -3.523   0.335  0.00  0.00     0.051 A 
BRANCH  12  15
ATOM     15  C   UNL d   1      -1.090  -6.848  -0.242  0.00  0.00     0.418 C 
ATOM     16  F   UNL d   1      -2.347  -7.142  -0.674  0.00  0.00    -0.166 F 
ATOM     17  F   UNL d   1      -0.243  -7.460  -1.116  0.00  0.00    -0.166 F 
ATOM     18  F   UNL d   1      -0.938  -7.502   0.942  0.00  0.00    -0.166 F 
ENDBRANCH  12  15
ENDBRANCH   1   8
BRANCH   6  19
ATOM     19  C   UNL d   1       2.050   1.504   0.103  0.00  0.00     0.018 A 
ATOM     20  C   UNL d   1       3.371   1.072   0.283  0.00  0.00     0.041 A 
ATOM     21  C   UNL d   1       4.413   2.001   0.351  0.00  0.00     0.056 A 
ATOM     22 CL   UNL d   1       6.014   1.392   0.570  0.00  0.00    -0.083 Cl
ATOM     23  C   UNL d   1       4.136   3.368   0.240  0.00  0.00     0.055 A 
ATOM     24  C   UNL d   1       2.817   3.797   0.057  0.00  0.00     0.026 A 
ATOM     25 CL   UNL d   1       5.372   4.571   0.321  0.00  0.00    -0.083 Cl
ATOM     26  C   UNL d   1       1.773   2.868  -0.013  0.00  0.00     0.017 A 
ENDBRANCH   6  19
TORSDOF 3
