REMARK  4 active torsions:
REMARK  status: ('A' for Active; 'I' for Inactive)
REMARK    1  A    between atoms: C_2  and  C_1 
REMARK    2  A    between atoms: C_5  and  C_1 
REMARK    3  A    between atoms: N_12  and  C_5 
REMARK    4  A    between atoms: O_15  and  N_9 
ROOT
ATOM      1  C   UNL d   1       0.589   2.876  -1.227  0.00  0.00     0.043 A 
ATOM      2  C   UNL d   1      -0.205   4.189  -1.197  0.00  0.00     0.023 A 
ATOM      3  C   UNL d   1       0.569   3.834  -2.421  0.00  0.00     0.023 A 
ENDROOT
BRANCH   1   4
ATOM      4  C   UNL d   1       1.870   2.816  -0.382  0.00  0.00    -0.021 A 
ATOM      5  C   UNL d   1       3.127   2.428  -0.894  0.00  0.00     0.043 A 
ATOM      6  C   UNL d   1       4.290   2.491  -0.117  0.00  0.00     0.048 A 
ATOM      7 CL   UNL d   1       3.298   1.857  -2.519  0.00  0.00    -0.084 Cl
ATOM      8  C   UNL d   1       4.214   2.921   1.203  0.00  0.00     0.035 A 
ATOM      9  C   UNL d   1       2.986   3.257   1.760  0.00  0.00     0.024 A 
ATOM     10 CL   UNL d   1       5.646   3.045   2.147  0.00  0.00    -0.084 Cl
ATOM     11  C   UNL d   1       1.830   3.195   0.976  0.00  0.00     0.012 A 
ENDBRANCH   1   4
BRANCH   1  12
ATOM     12  C   UNL d   1      -0.217   1.609  -1.339  0.00  0.00     0.088 C 
ATOM     13  N   UNL d   1      -1.123   1.389  -0.442  0.00  0.00    -0.261 N 
ATOM     14  HN  UNL d   1      -1.327   2.006   0.345  1.00  0.00     0.195 HD
BRANCH  13  15
ATOM     15  O   UNL d   1      -1.784   0.178  -0.708  0.00  0.00    -0.289 OA
ATOM     16  H   UNL d   1      -2.512   0.196  -0.059  0.00  0.00     0.244 HD
ENDBRANCH  13  15
BRANCH  12  17
ATOM     17  N   UNL d   1       0.086   0.809  -2.404  0.00  0.00    -0.290 NA
ATOM     18  H   UNL d   1       1.050   0.824  -2.714  0.00  0.00     0.125 HD
ATOM     19  H   UNL d   1      -0.303  -0.121  -2.291  0.00  0.00     0.125 HD
ENDBRANCH  12  17
ENDBRANCH   1  12
TORSDOF 4
