REMARK  3 active torsions:
REMARK  status: ('A' for Active; 'I' for Inactive)
REMARK       I    between atoms: C_2  and  N_1 
REMARK    1  A    between atoms: C_12  and  C_2 
REMARK    2  A    between atoms: C_10  and  N_7 
REMARK    3  A    between atoms: N_11  and  C_12 
ROOT
ATOM      1  N   UNL d   1       1.637   0.241   1.559  0.00  0.00    -0.310 N 
ATOM      2  C   UNL d   1       1.136   1.433   2.082  0.00  0.00     0.253 C 
ATOM      3  C   UNL d   1       0.688  -0.796   1.045  0.00  0.00     0.097 C 
ATOM      4  N   UNL d   1       2.823  -0.189  -0.966  0.00  0.00    -0.227 NA
ATOM      5  C   UNL d   1       1.813  -1.114  -1.196  0.00  0.00     0.203 C 
ATOM      6  C   UNL d   1       3.025  -0.078   1.466  0.00  0.00     0.059 A 
ATOM      7  C   UNL d   1       0.520  -0.769  -0.484  0.00  0.00     0.122 C 
ATOM      8  C   UNL d   1       3.562  -0.453   0.218  0.00  0.00     0.042 A 
ATOM      9  O   UNL d   1      -0.084   1.639   2.141  0.00  0.00    -0.271 OA
ATOM     10  O   UNL d   1       1.955  -2.132  -1.866  0.00  0.00    -0.279 OA
ATOM     11  C   UNL d   1       1.006  -2.213   1.560  0.00  0.00     0.033 C 
ATOM     12  C   UNL d   1       3.773  -0.292   2.622  0.00  0.00     0.031 A 
ATOM     13  C   UNL d   1       4.807  -1.071   0.129  0.00  0.00     0.026 A 
ATOM     14  C   UNL d   1       5.032  -0.897   2.534  0.00  0.00     0.002 A 
ATOM     15  C   UNL d   1       5.537  -1.299   1.293  0.00  0.00     0.002 A 
ATOM     16  H   UNL d   1       2.380   0.719  -0.829  0.00  0.00     0.136 HD
ENDROOT
BRANCH   2  17
ATOM     17  C   UNL d   1       2.092   2.571   2.509  0.00  0.00     0.375 C 
BRANCH  17  18
ATOM     18  N   UNL d   1       2.689   3.276   1.353  0.00  0.00     0.100 N 
ATOM     19  C   UNL d   1       1.678   3.755   0.381  0.00  0.00     0.293 C 
ATOM     20  C   UNL d   1       0.819   4.933   0.871  0.00  0.00     0.154 C 
ATOM     21  N   UNL d   1       1.705   6.074   1.130  0.00  0.00    -0.364 N 
ATOM     22  C   UNL d   1       2.767   5.802   2.105  0.00  0.00     0.154 C 
ATOM     23  C   UNL d   1       3.497   4.449   1.796  0.00  0.00     0.293 C 
BRANCH  21  24
ATOM     24  C   UNL d   1       1.261   7.322   0.744  0.00  0.00     0.102 A 
ATOM     25  N   UNL d   1       0.182   7.375  -0.076  0.00  0.00    -0.352 N 
ATOM     26  C   UNL d   1      -0.257   8.562  -0.548  0.00  0.00     0.089 A 
ATOM     27  HN  UNL d   1      -0.299   6.515  -0.337  1.00  0.00     0.166 HD
ATOM     28  C   UNL d   1       0.333   9.766  -0.241  0.00  0.00     0.017 A 
ATOM     29  C   UNL d   1       1.431   9.736   0.606  0.00  0.00     0.005 A 
ATOM     30  C   UNL d   1       1.893   8.513   1.097  0.00  0.00     0.048 A 
ENDBRANCH  21  24
ENDBRANCH  17  18
ENDBRANCH   2  17
TORSDOF 3
