REMARK  7 active torsions:
REMARK  status: ('A' for Active; 'I' for Inactive)
REMARK    1  A    between atoms: N_7  and  C_2 
REMARK    2  A    between atoms: C_19  and  C_5 
REMARK    3  A    between atoms: C_21  and  N_13 
REMARK    4  A    between atoms: O_22  and  C_16 
REMARK    5  A    between atoms: O_23  and  C_18 
REMARK    6  A    between atoms: C_27  and  O_22 
REMARK    7  A    between atoms: C_26  and  O_23 
ROOT
ATOM      1  C   UNL d   1      -1.858   1.609  -0.284  0.00  0.00     0.102 A 
ATOM      2  C   UNL d   1      -3.173   1.096  -0.189  0.00  0.00     0.099 A 
ATOM      3  C   UNL d   1      -0.982   0.545  -0.120  0.00  0.00     0.069 A 
ATOM      4  N   UNL d   1      -1.769  -0.592   0.026  0.00  0.00    -0.342 N 
ATOM      5  C   UNL d   1      -3.121  -0.273   0.055  0.00  0.00     0.075 A 
ATOM      6  C   UNL d   1       0.481   0.431  -0.060  0.00  0.00     0.002 A 
ATOM      7  C   UNL d   1      -1.503   2.977  -0.497  0.00  0.00     0.104 C 
ATOM      8  C   UNL d   1       1.074  -0.825  -0.207  0.00  0.00    -0.041 A 
ATOM      9  C   UNL d   1       1.298   1.527   0.208  0.00  0.00     0.054 A 
ATOM     10  C   UNL d   1      -1.154  -1.905   0.195  0.00  0.00     0.134 C 
ATOM     11  N   UNL d   1      -1.183   4.088  -0.656  0.00  0.00    -0.191 NA
ATOM     12  C   UNL d   1       2.691   1.418   0.382  0.00  0.00     0.102 A 
ATOM     13  C   UNL d   1       2.467  -0.941  -0.126  0.00  0.00     0.047 A 
ATOM     14  C   UNL d   1       3.285   0.163   0.180  0.00  0.00     0.102 A 
ATOM     15  C   UNL d   1       0.206  -2.020  -0.501  0.00  0.00     0.060 C 
ENDROOT
BRANCH   2  16
ATOM     16  N   UNL d   1      -4.353   1.867  -0.255  0.00  0.00    -0.297 N 
ATOM     17  N   UNL d   1      -4.309   2.690  -1.194  0.00  0.00    -0.300 N 
ATOM     18  HN  UNL d   1      -3.544   2.713  -1.868  1.00  0.00     0.187 HD
ATOM     19  HN  UNL d   1      -5.142   1.765   0.383  1.00  0.00     0.187 HD
BRANCH  17  20
ATOM     20  C   UNL d   1      -5.395   3.585  -1.250  0.00  0.00     0.048 A 
ATOM     21  C   UNL d   1      -6.639   3.371  -0.638  0.00  0.00     0.031 A 
ATOM     22  C   UNL d   1      -7.684   4.287  -0.804  0.00  0.00     0.002 A 
ATOM     23  C   UNL d   1      -7.499   5.428  -1.582  0.00  0.00     0.000 A 
ATOM     24  C   UNL d   1      -6.266   5.666  -2.183  0.00  0.00     0.002 A 
ATOM     25  C   UNL d   1      -5.224   4.750  -2.012  0.00  0.00     0.031 A 
ENDBRANCH  17  20
ENDBRANCH   2  16
BRANCH   5  26
ATOM     26  C   UNL d   1      -4.209  -1.250   0.239  0.00  0.00    -0.007 A 
ATOM     27  C   UNL d   1      -5.368  -1.171  -0.545  0.00  0.00     0.014 A 
ATOM     28  C   UNL d   1      -6.380  -2.129  -0.430  0.00  0.00     0.001 A 
ATOM     29  C   UNL d   1      -6.242  -3.189   0.462  0.00  0.00     0.000 A 
ATOM     30  C   UNL d   1      -5.111  -3.268   1.269  0.00  0.00     0.001 A 
ATOM     31  C   UNL d   1      -4.117  -2.290   1.175  0.00  0.00     0.014 A 
ENDBRANCH   5  26
BRANCH  12  32
ATOM     32  O   UNL d   1       3.450   2.508   0.748  0.00  0.00    -0.349 OA
BRANCH  32  33
ATOM     33  C   UNL d   1       2.709   3.661   1.182  0.00  0.00     0.171 C 
ATOM     34  C   UNL d   1       3.615   4.676   1.844  0.00  0.00     0.034 C 
ENDBRANCH  32  33
ENDBRANCH  12  32
BRANCH  14  35
ATOM     35  O   UNL d   1       4.601  -0.201   0.225  0.00  0.00    -0.349 OA
BRANCH  35  36
ATOM     36  C   UNL d   1       5.592   0.643   0.792  0.00  0.00     0.171 C 
ATOM     37  C   UNL d   1       5.553   0.601   2.308  0.00  0.00     0.034 C 
ENDBRANCH  35  36
ENDBRANCH  14  35
TORSDOF 7
