REMARK  6 active torsions:
REMARK  status: ('A' for Active; 'I' for Inactive)
REMARK    1  A    between atoms: C_6  and  C_3 
REMARK    2  A    between atoms: C_4  and  O_8 
REMARK    3  A    between atoms: C_5  and  O_9 
REMARK    4  A    between atoms: C_6  and  O_10 
REMARK    5  A    between atoms: C_12  and  C_6 
REMARK    6  A    between atoms: O_11  and  C_12 
ROOT
ATOM      1  O   UNL d   1      -0.720  -0.956  -0.017  0.00  0.00    -0.308 OA
ATOM      2  C   UNL d   1       0.641  -1.106  -0.134  0.00  0.00     0.291 C 
ATOM      3  C   UNL d   1      -1.045   0.428   0.251  0.00  0.00     0.194 C 
ATOM      4  C   UNL d   1       1.327   0.252  -0.025  0.00  0.00     0.248 C 
ATOM      5  C   UNL d   1       0.152   1.171  -0.321  0.00  0.00     0.188 C 
ATOM      6  O   UNL d   1       1.177  -2.178  -0.360  0.00  0.00    -0.262 OA
ENDROOT
BRANCH   3   7
ATOM      7  C   UNL d   1      -1.345   0.584   1.755  0.00  0.00     0.173 C 
BRANCH   7   8
ATOM      8  O   UNL d   1      -0.171   0.353   2.541  0.00  0.00    -0.391 OA
ATOM      9  H   UNL d   1       0.178   1.235   2.787  0.00  0.00     0.210 HD
ENDBRANCH   7   8
BRANCH   7  10
ATOM     10  C   UNL d   1      -1.922   1.958   2.117  0.00  0.00     0.198 C 
BRANCH  10  11
ATOM     11  O   UNL d   1      -0.893   2.937   2.003  0.00  0.00    -0.398 OA
ATOM     12  H   UNL d   1      -1.294   3.803   2.202  0.00  0.00     0.209 HD
ENDBRANCH  10  11
ENDBRANCH   7  10
ENDBRANCH   3   7
BRANCH   5  13
ATOM     13  O   UNL d   1       0.019   1.302  -1.759  0.00  0.00    -0.390 OA
ATOM     14  H   UNL d   1      -0.397   0.491  -2.111  0.00  0.00     0.210 HD
ENDBRANCH   5  13
BRANCH   4  15
ATOM     15  O   UNL d   1       2.412   0.521  -0.895  0.00  0.00    -0.383 OA
ATOM     16  H   UNL d   1       2.019   0.781  -1.752  0.00  0.00     0.210 HD
ENDBRANCH   4  15
TORSDOF 6
