REMARK  5 active torsions:
REMARK  status: ('A' for Active; 'I' for Inactive)
REMARK    1  A    between atoms: N_12  and  C_3 
REMARK    2  A    between atoms: C_17  and  C_9 
REMARK    3  A    between atoms: C_14  and  N_12 
REMARK    4  A    between atoms: O_21  and  C_15 
REMARK    5  A    between atoms: O_22  and  C_19 
ROOT
ATOM      1  N   UNL d   1       0.215  -0.764   0.127  0.00  0.00    -0.074 N 
ATOM      2  C   UNL d   1       0.214   0.637   0.024  0.00  0.00     0.706 A 
ATOM      3  C   UNL d   1      -0.997  -1.486   0.234  0.00  0.00     0.127 A 
ATOM      4  N   UNL d   1      -0.937   1.361   0.045  0.00  0.00    -0.189 N 
ATOM      5  HN  UNL d   1      -0.927   2.379  -0.019  1.00  0.00     0.184 HD
ATOM      6  C   UNL d   1      -2.151  -0.792   0.225  0.00  0.00     0.076 A 
ATOM      7  N   UNL d   1       1.453   1.065  -0.085  0.00  0.00    -0.185 N 
ATOM      8  HN  UNL d   1       1.783   2.026  -0.171  1.00  0.00     0.185 HD
ATOM      9  C   UNL d   1      -2.053   0.697   0.151  0.00  0.00     0.062 A 
ATOM     10  N   UNL d   1       1.502  -1.210   0.071  0.00  0.00    -0.273 N 
ATOM     11  HN  UNL d   1       1.851  -2.167   0.114  1.00  0.00     0.189 HD
ATOM     12  C   UNL d   1       2.187  -0.077  -0.054  0.00  0.00     0.215 A 
ENDROOT
BRANCH   3  13
ATOM     13  N   UNL d   1      -0.955  -2.880   0.307  0.00  0.00    -0.241 NA
ATOM     14  H   UNL d   1      -1.758  -3.309  -0.155  0.00  0.00     0.135 HD
BRANCH  13  15
ATOM     15  C   UNL d   1      -0.813  -3.583   1.544  0.00  0.00     0.047 A 
ATOM     16  C   UNL d   1      -0.858  -4.993   1.579  0.00  0.00     0.092 A 
ATOM     17  C   UNL d   1      -0.816  -5.680   2.804  0.00  0.00     0.075 A 
ATOM     18  C   UNL d   1      -0.712  -4.984   4.006  0.00  0.00     0.070 A 
ATOM     19  C   UNL d   1      -0.618  -3.595   3.976  0.00  0.00     0.039 A 
ATOM     20  C   UNL d   1      -0.646  -2.903   2.761  0.00  0.00     0.029 A 
BRANCH  16  21
ATOM     21  O   UNL d   1      -1.069  -5.810   0.494  0.00  0.00    -0.354 OA
ATOM     22  C   UNL d   1      -0.293  -5.533  -0.669  0.00  0.00     0.210 C 
ENDBRANCH  16  21
BRANCH  18  23
ATOM     23  O   UNL d   1      -0.709  -5.527   5.260  0.00  0.00    -0.356 OA
ATOM     24  C   UNL d   1      -0.808  -6.943   5.350  0.00  0.00     0.210 C 
ENDBRANCH  18  23
ENDBRANCH  13  15
ENDBRANCH   3  13
BRANCH   9  25
ATOM     25  C   UNL d   1      -3.343   1.445   0.160  0.00  0.00    -0.009 A 
ATOM     26  C   UNL d   1      -4.431   1.037   0.943  0.00  0.00     0.014 A 
ATOM     27  C   UNL d   1      -5.634   1.745   0.890  0.00  0.00     0.001 A 
ATOM     28  C   UNL d   1      -5.751   2.865   0.067  0.00  0.00     0.000 A 
ATOM     29  C   UNL d   1      -4.662   3.292  -0.692  0.00  0.00     0.001 A 
ATOM     30  C   UNL d   1      -3.457   2.588  -0.641  0.00  0.00     0.014 A 
ENDBRANCH   9  25
TORSDOF 5
