REMARK  3 active torsions:
REMARK  status: ('A' for Active; 'I' for Inactive)
REMARK    1  A    between atoms: N_3  and  C_6 
REMARK    2  A    between atoms: C_4  and  N_3 
REMARK    3  A    between atoms: C_5  and  C_4 
ROOT
ATOM      1  N   UNL d   1       1.320   2.187  -0.325  0.00  0.00    -0.385 N 
ATOM      2  H   UNL d   1       0.754   1.705   0.364  0.00  0.00     0.160 HD
ENDROOT
BRANCH   1   3
ATOM      3  C   UNL d   1       0.851   2.193  -1.626  0.00  0.00     0.043 A 
ATOM      4  C   UNL d   1       1.642   2.303  -2.772  0.00  0.00     0.116 A 
ATOM      5  N   UNL d   1       1.177   2.371  -4.046  0.00  0.00    -0.373 N 
ATOM      6  C   UNL d   1      -0.161   2.362  -4.197  0.00  0.00     0.088 A 
ATOM      7  HN  UNL d   1       1.807   2.425  -4.846  1.00  0.00     0.164 HD
ATOM      8  C   UNL d   1      -1.047   2.288  -3.141  0.00  0.00     0.019 A 
ATOM      9  C   UNL d   1      -0.530   2.204  -1.847  0.00  0.00     0.032 A 
ENDBRANCH   1   3
BRANCH   1  10
ATOM     10  C   UNL d   1       2.693   2.455   0.061  0.00  0.00     0.158 C 
BRANCH  10  11
ATOM     11  C   UNL d   1       3.553   1.224   0.247  0.00  0.00    -0.041 A 
ATOM     12  C   UNL d   1       3.373   0.041  -0.481  0.00  0.00     0.009 A 
ATOM     13  C   UNL d   1       4.292  -1.010  -0.382  0.00  0.00     0.007 A 
ATOM     14  C   UNL d   1       5.408  -0.905   0.455  0.00  0.00    -0.062 A 
ATOM     15  C   UNL d   1       5.582   0.261   1.204  0.00  0.00     0.007 A 
ATOM     16  C   UNL d   1       6.453  -1.981   0.470  0.00  0.00     0.048 C 
ATOM     17  C   UNL d   1       4.665   1.311   1.102  0.00  0.00     0.009 A 
ENDBRANCH  10  11
ENDBRANCH   1  10
TORSDOF 3
