REMARK  3 active torsions:
REMARK  status: ('A' for Active; 'I' for Inactive)
REMARK    1  A    between atoms: C_8  and  C_2 
REMARK    2  A    between atoms: C_9  and  N_3 
REMARK    3  A    between atoms: C_10  and  C_9 
ROOT
ATOM      1  N   UNL d   1       0.828   3.509  -0.143  0.00  0.00    -0.393 N 
ATOM      2  HN  UNL d   1       1.673   3.173  -0.606  1.00  0.00     0.159 HD
ATOM      3  C   UNL d   1      -0.011   2.699   0.397  0.00  0.00     0.102 C 
ENDROOT
BRANCH   1   4
ATOM      4  C   UNL d   1       0.514   4.935  -0.063  0.00  0.00     0.157 C 
BRANCH   4   5
ATOM      5  C   UNL d   1       1.776   5.771  -0.009  0.00  0.00    -0.041 A 
ATOM      6  C   UNL d   1       2.969   5.318  -0.596  0.00  0.00     0.009 A 
ATOM      7  C   UNL d   1       4.128   6.094  -0.556  0.00  0.00     0.001 A 
ATOM      8  C   UNL d   1       4.106   7.342   0.057  0.00  0.00     0.000 A 
ATOM      9  C   UNL d   1       2.925   7.816   0.627  0.00  0.00     0.001 A 
ATOM     10  C   UNL d   1       1.764   7.037   0.591  0.00  0.00     0.009 A 
ENDBRANCH   4   5
ENDBRANCH   1   4
BRANCH   3  11
ATOM     11  C   UNL d   1       0.297   1.291   0.398  0.00  0.00     0.019 A 
ATOM     12  S   UNL d   1      -0.803   0.168   1.062  0.00  0.00    -0.101 SA
ATOM     13  C   UNL d   1       0.239  -1.148   0.718  0.00  0.00     0.050 A 
ATOM     14  C   UNL d   1       1.405  -0.740   0.107  0.00  0.00     0.008 A 
ATOM     15  C   UNL d   1       1.435   0.670  -0.078  0.00  0.00     0.021 A 
ENDBRANCH   3  11
TORSDOF 3
