REMARK  8 active torsions:
REMARK  status: ('A' for Active; 'I' for Inactive)
REMARK    1  A    between atoms: N_10  and  C_1 
REMARK    2  A    between atoms: C_12  and  C_2 
REMARK    3  A    between atoms: C_17  and  N_3 
REMARK    4  A    between atoms: C_6  and  S_16 
REMARK       I    between atoms: C_15  and  N_10 
REMARK    5  A    between atoms: O_21  and  C_12 
REMARK    6  A    between atoms: C_20  and  C_15 
REMARK    7  A    between atoms: S_16  and  C_20 
REMARK    8  A    between atoms: C_26  and  O_21 
ROOT
ATOM      1  C   UNL d   1       1.132  -0.923  -0.008  0.00  0.00     0.147 A 
ATOM      2  C   UNL d   1      -0.176  -1.377   0.014  0.00  0.00     0.102 A 
ATOM      3  N   UNL d   1       1.075   0.468   0.093  0.00  0.00    -0.239 N 
ATOM      4  N   UNL d   1      -0.190   0.901   0.306  0.00  0.00    -0.302 N 
ATOM      5  HN  UNL d   1      -0.500   1.850   0.514  1.00  0.00     0.186 HD
ATOM      6  C   UNL d   1      -0.936  -0.195   0.184  0.00  0.00     0.129 A 
ENDROOT
BRANCH   1   7
ATOM      7  N   UNL d   1       2.308  -1.666   0.057  0.00  0.00    -0.310 N 
ATOM      8  C   UNL d   1       2.651  -2.727  -0.852  0.00  0.00     0.233 C 
ATOM      9  O   UNL d   1       1.947  -2.929  -1.828  0.00  0.00    -0.272 OA
ATOM     10  H   UNL d   1       3.039  -1.340   0.686  0.00  0.00     0.170 HD
BRANCH   8  11
ATOM     11  C   UNL d   1       4.001  -3.392  -0.613  0.00  0.00     0.184 C 
BRANCH  11  12
ATOM     12  S   UNL d   1       4.741  -2.841   0.967  0.00  0.00    -0.096 SA
BRANCH  12  13
ATOM     13  C   UNL d   1       5.883  -4.132   1.252  0.00  0.00     0.113 A 
ATOM     14  N   UNL d   1       6.623  -4.617   0.285  0.00  0.00    -0.344 N 
ATOM     15  C   UNL d   1       7.365  -5.686   0.773  0.00  0.00     0.050 A 
ATOM     16  HN  UNL d   1       6.650  -4.265  -0.672  1.00  0.00     0.167 HD
ATOM     17  C   UNL d   1       8.253  -6.490   0.030  0.00  0.00     0.031 A 
ATOM     18  C   UNL d   1       7.161  -5.991   2.123  0.00  0.00     0.034 A 
ATOM     19  C   UNL d   1       8.854  -7.603   0.631  0.00  0.00     0.002 A 
ATOM     20  C   UNL d   1       8.610  -7.902   1.968  0.00  0.00     0.002 A 
ATOM     21  C   UNL d   1       7.780  -7.088   2.743  0.00  0.00     0.021 A 
ATOM     22  S   UNL d   1       6.072  -4.841   2.794  0.00  0.00    -0.063 SA
ENDBRANCH  12  13
ENDBRANCH  11  12
ENDBRANCH   8  11
ENDBRANCH   1   7
BRANCH   2  23
ATOM     23  C   UNL d   1      -0.685  -2.733   0.001  0.00  0.00     0.298 C 
ATOM     24  O   UNL d   1       0.027  -3.726   0.044  0.00  0.00    -0.259 OA
BRANCH  23  25
ATOM     25  O   UNL d   1      -2.050  -2.756  -0.033  0.00  0.00    -0.318 OA
BRANCH  25  26
ATOM     26  C   UNL d   1      -2.678  -4.029  -0.256  0.00  0.00     0.174 C 
ATOM     27  C   UNL d   1      -2.731  -4.878   1.001  0.00  0.00     0.034 C 
ENDBRANCH  25  26
ENDBRANCH  23  25
ENDBRANCH   2  23
BRANCH   3  28
ATOM     28  C   UNL d   1       2.153   1.391  -0.006  0.00  0.00     0.058 A 
ATOM     29  C   UNL d   1       3.333   1.058  -0.690  0.00  0.00     0.031 A 
ATOM     30  C   UNL d   1       4.385   1.973  -0.759  0.00  0.00     0.002 A 
ATOM     31  C   UNL d   1       4.266   3.221  -0.152  0.00  0.00     0.000 A 
ATOM     32  C   UNL d   1       3.087   3.567   0.506  0.00  0.00     0.002 A 
ATOM     33  C   UNL d   1       2.025   2.662   0.569  0.00  0.00     0.031 A 
ENDBRANCH   3  28
TORSDOF 8
