REMARK  6 active torsions:
REMARK  status: ('A' for Active; 'I' for Inactive)
REMARK    1  A    between atoms: C_7  and  C_1 
REMARK    2  A    between atoms: S_8  and  C_4 
REMARK    3  A    between atoms: O_10  and  C_7 
REMARK    4  A    between atoms: C_11  and  S_8 
REMARK    5  A    between atoms: C_19  and  O_10 
REMARK    6  A    between atoms: C_13  and  C_11 
ROOT
ATOM      1  C   UNL d   1      -0.433  -1.065   0.063  0.00  0.00     0.125 A 
ATOM      2  N   UNL d   1      -1.217   0.084   0.135  0.00  0.00    -0.331 N 
ATOM      3  HN  UNL d   1      -2.234   0.141   0.179  1.00  0.00     0.168 HD
ATOM      4  C   UNL d   1      -0.361   1.078   0.135  0.00  0.00     0.145 A 
ATOM      5  C   UNL d   1       0.909  -0.716   0.071  0.00  0.00     0.126 A 
ATOM      6  N   UNL d   1       0.929   0.646   0.100  0.00  0.00    -0.344 N 
ATOM      7  H   UNL d   1       1.741   1.250   0.068  0.00  0.00     0.167 HD
ENDROOT
BRANCH   4   8
ATOM      8  S   UNL d   1      -0.667   2.770   0.094  0.00  0.00    -0.089 SA
BRANCH   8   9
ATOM      9  C   UNL d   1      -2.272   2.873   0.932  0.00  0.00     0.121 C 
BRANCH   9  10
ATOM     10  C   UNL d   1      -2.713   4.316   1.049  0.00  0.00    -0.048 A 
ATOM     11  C   UNL d   1      -3.498   4.904   0.043  0.00  0.00     0.011 A 
ATOM     12  C   UNL d   1      -3.870   6.247   0.130  0.00  0.00     0.043 A 
ATOM     13  C   UNL d   1      -3.454   7.005   1.217  0.00  0.00     0.116 A 
ATOM     14  C   UNL d   1      -2.672   6.447   2.221  0.00  0.00     0.043 A 
ATOM     15  F   UNL d   1      -3.807   8.295   1.296  0.00  0.00    -0.206 F 
ATOM     16  C   UNL d   1      -2.299   5.104   2.137  0.00  0.00     0.011 A 
ENDBRANCH   9  10
ENDBRANCH   8   9
ENDBRANCH   4   8
BRANCH   1  17
ATOM     17  C   UNL d   1      -0.936  -2.432  -0.086  0.00  0.00     0.311 C 
ATOM     18  O   UNL d   1      -0.194  -3.406  -0.181  0.00  0.00    -0.258 OA
BRANCH  17  19
ATOM     19  O   UNL d   1      -2.295  -2.487  -0.193  0.00  0.00    -0.317 OA
BRANCH  19  20
ATOM     20  C   UNL d   1      -2.821  -3.728  -0.682  0.00  0.00     0.175 C 
ATOM     21  C   UNL d   1      -2.864  -3.672  -2.199  0.00  0.00     0.034 C 
ENDBRANCH  19  20
ENDBRANCH  17  19
ENDBRANCH   1  17
TORSDOF 6
