REMARK  5 active torsions:
REMARK  status: ('A' for Active; 'I' for Inactive)
REMARK    1  A    between atoms: C_3  and  C_1 
REMARK    2  A    between atoms: C_2  and  S_4 
REMARK    3  A    between atoms: N_5  and  C_2 
REMARK    4  A    between atoms: S_4  and  C_3 
REMARK    5  A    between atoms: C_11  and  N_5 
ROOT
ATOM      1  C   UNL d   1      -1.648   4.582  -0.108  0.00  0.00     0.139 C 
ATOM      2  S   UNL d   1      -2.965   5.615   0.042  0.00  0.00    -0.053 SA
ENDROOT
BRANCH   1   3
ATOM      3  S   UNL d   1      -1.745   2.838  -0.092  0.00  0.00    -0.096 SA
BRANCH   3   4
ATOM      4  C   UNL d   1      -3.338   2.494  -0.894  0.00  0.00     0.123 C 
BRANCH   4   5
ATOM      5  C   UNL d   1      -3.624   1.008  -0.960  0.00  0.00    -0.005 A 
ATOM      6  C   UNL d   1      -4.052   0.304   0.185  0.00  0.00     0.042 A 
ATOM      7 CL   UNL d   1      -4.305   1.084   1.710  0.00  0.00    -0.084 Cl
ATOM      8  C   UNL d   1      -4.311  -1.072   0.139  0.00  0.00     0.024 A 
ATOM      9  C   UNL d   1      -4.164  -1.774  -1.051  0.00  0.00     0.003 A 
ATOM     10  C   UNL d   1      -3.752  -1.101  -2.197  0.00  0.00     0.024 A 
ATOM     11  C   UNL d   1      -3.476   0.274  -2.153  0.00  0.00     0.042 A 
ATOM     12 CL   UNL d   1      -2.960   1.004  -3.634  0.00  0.00    -0.084 Cl
ENDBRANCH   4   5
ENDBRANCH   3   4
ENDBRANCH   1   3
BRANCH   1  13
ATOM     13  N   UNL d   1      -0.414   5.192  -0.084  0.00  0.00    -0.342 N 
ATOM     14  H   UNL d   1      -0.507   6.175   0.152  0.00  0.00     0.167 HD
BRANCH  13  15
ATOM     15  C   UNL d   1       0.916   4.762  -0.275  0.00  0.00     0.033 A 
ATOM     16  C   UNL d   1       1.303   3.564  -0.871  0.00  0.00     0.029 A 
ATOM     17  C   UNL d   1       2.659   3.246  -1.021  0.00  0.00     0.002 A 
ATOM     18  C   UNL d   1       3.642   4.132  -0.589  0.00  0.00     0.000 A 
ATOM     19  C   UNL d   1       3.271   5.344  -0.017  0.00  0.00     0.002 A 
ATOM     20  C   UNL d   1       1.918   5.658   0.132  0.00  0.00     0.029 A 
ENDBRANCH  13  15
ENDBRANCH   1  13
TORSDOF 5
