REMARK  2 active torsions:
REMARK  status: ('A' for Active; 'I' for Inactive)
REMARK    1  A    between atoms: N_15  and  N_4 
REMARK    2  A    between atoms: C_19  and  C_17 
ROOT
ATOM      1  C   UNL d   1       1.214   0.941  -0.014  0.00  0.00     0.107 A 
ATOM      2  C   UNL d   1       0.774  -0.345  -0.012  0.00  0.00     0.086 A 
ATOM      3  C   UNL d   1       2.605   1.271  -0.018  0.00  0.00     0.302 A 
ATOM      4  N   UNL d   1       3.422   0.120  -0.017  0.00  0.00    -0.141 N 
ATOM      5  C   UNL d   1      -0.654  -0.466  -0.008  0.00  0.00     0.033 A 
ATOM      6  S   UNL d   1      -0.043   2.065  -0.012  0.00  0.00    -0.064 SA
ATOM      7  N   UNL d   1       1.687  -1.405  -0.013  0.00  0.00    -0.282 N 
ATOM      8  HN  UNL d   1       1.351  -2.368  -0.016  1.00  0.00     0.188 HD
ATOM      9  N   UNL d   1       2.925  -1.170  -0.011  0.00  0.00    -0.218 N 
ATOM     10  HN  UNL d   1       3.578  -1.953  -0.006  1.00  0.00     0.210 HD
ATOM     11  C   UNL d   1      -1.212   0.816  -0.008  0.00  0.00     0.088 A 
ATOM     12  N   UNL d   1      -2.520   1.137  -0.006  0.00  0.00    -0.354 N 
ATOM     13  HN  UNL d   1      -2.848   2.102  -0.007  1.00  0.00     0.166 HD
ATOM     14  C   UNL d   1      -1.568  -1.554  -0.004  0.00  0.00    -0.045 A 
ATOM     15  O   UNL d   1       3.031   2.425  -0.021  0.00  0.00    -0.263 OA
ATOM     16  C   UNL d   1      -2.939  -1.238  -0.002  0.00  0.00     0.032 A 
ATOM     17  C   UNL d   1      -3.360   0.087  -0.004  0.00  0.00     0.006 A 
ATOM     18  C   UNL d   1      -1.190  -3.010  -0.004  0.00  0.00     0.049 C 
ATOM     19  C   UNL d   1      -4.831   0.396  -0.006  0.00  0.00     0.068 C 
ENDROOT
BRANCH   4  20
ATOM     20  N   UNL d   1       4.777   0.349   0.011  0.00  0.00    -0.286 N 
ATOM     21  C   UNL d   1       5.615  -0.636   0.001  0.00  0.00     0.122 C 
ATOM     22  HN  UNL d   1       5.126   1.307   0.041  1.00  0.00     0.188 HD
BRANCH  21  23
ATOM     23  C   UNL d   1       7.076  -0.357   0.058  0.00  0.00     0.003 A 
ATOM     24  C   UNL d   1       8.037  -1.374   0.052  0.00  0.00     0.045 A 
ATOM     25 CL   UNL d   1       7.632  -3.049  -0.064  0.00  0.00    -0.083 Cl
ATOM     26  C   UNL d   1       9.399  -1.048   0.139  0.00  0.00     0.024 A 
ATOM     27  C   UNL d   1       9.805   0.284   0.225  0.00  0.00     0.002 A 
ATOM     28  C   UNL d   1       8.854   1.300   0.218  0.00  0.00     0.001 A 
ATOM     29  C   UNL d   1       7.497   0.982   0.137  0.00  0.00     0.014 A 
ENDBRANCH  21  23
ENDBRANCH   4  20
TORSDOF 2
