REMARK  2 active torsions:
REMARK  status: ('A' for Active; 'I' for Inactive)
REMARK    1  A    between atoms: C_10  and  N_2 
REMARK    2  A    between atoms: C_13  and  C_9 
ROOT
ATOM      1  C   UNL d   1      -0.222   0.668   0.075  0.00  0.00     0.068 A 
ATOM      2  N   UNL d   1       2.178   0.725   0.013  0.00  0.00    -0.229 N 
ATOM      3  C   UNL d   1      -0.119  -0.681  -0.006  0.00  0.00     0.094 A 
ATOM      4  C   UNL d   1       0.983   1.470   0.120  0.00  0.00     0.269 A 
ATOM      5  C   UNL d   1       2.242  -0.678  -0.114  0.00  0.00     0.335 A 
ATOM      6  N   UNL d   1       1.049  -1.364  -0.088  0.00  0.00    -0.301 N 
ATOM      7  C   UNL d   1      -1.595   1.060   0.076  0.00  0.00     0.039 A 
ATOM      8  S   UNL d   1      -1.571  -1.509  -0.013  0.00  0.00    -0.071 SA
ATOM      9  C   UNL d   1      -2.466  -0.026   0.020  0.00  0.00     0.018 A 
ATOM     10  O   UNL d   1       3.279  -1.337  -0.210  0.00  0.00    -0.246 OA
ATOM     11  O   UNL d   1       0.906   2.693   0.209  0.00  0.00    -0.266 OA
ATOM     12  H   UNL d   1       1.068  -2.373  -0.147  0.00  0.00     0.171 HD
ENDROOT
BRANCH   2  13
ATOM     13  C   UNL d   1       3.409   1.448   0.034  0.00  0.00     0.047 A 
ATOM     14  C   UNL d   1       4.337   1.303  -1.007  0.00  0.00     0.030 A 
ATOM     15  C   UNL d   1       5.528   2.028  -0.993  0.00  0.00     0.002 A 
ATOM     16  C   UNL d   1       5.818   2.874   0.077  0.00  0.00     0.000 A 
ATOM     17  C   UNL d   1       4.911   3.010   1.125  0.00  0.00     0.002 A 
ATOM     18  C   UNL d   1       3.702   2.313   1.097  0.00  0.00     0.030 A 
ENDBRANCH   2  13
BRANCH   9  19
ATOM     19  C   UNL d   1      -3.942  -0.029   0.008  0.00  0.00    -0.019 A 
ATOM     20  C   UNL d   1      -4.677  -1.051  -0.615  0.00  0.00     0.013 A 
ATOM     21  C   UNL d   1      -6.075  -1.034  -0.615  0.00  0.00     0.001 A 
ATOM     22  C   UNL d   1      -6.759   0.011  -0.004  0.00  0.00     0.000 A 
ATOM     23  C   UNL d   1      -6.049   1.038   0.610  0.00  0.00     0.001 A 
ATOM     24  C   UNL d   1      -4.650   1.018   0.616  0.00  0.00     0.013 A 
ENDBRANCH   9  19
TORSDOF 2
