REMARK  1 active torsions:
REMARK  status: ('A' for Active; 'I' for Inactive)
REMARK    1  A    between atoms: N_5  and  C_1 
ROOT
ATOM      1  C   UNL d   1      -0.606   1.741  -0.068  0.00  0.00     0.025 A 
ATOM      2  C   UNL d   1       0.495   0.838  -0.025  0.00  0.00     0.012 A 
ATOM      3  N   UNL d   1      -1.030  -1.037   0.157  0.00  0.00    -0.359 N 
ATOM      4  HN  UNL d   1      -1.189  -2.040   0.247  1.00  0.00     0.166 HD
ATOM      5  C   UNL d   1       0.216  -0.543   0.096  0.00  0.00     0.044 A 
ATOM      6  C   UNL d   1      -1.895   1.198  -0.003  0.00  0.00     0.049 A 
ATOM      7  C   UNL d   1      -2.065  -0.178   0.094  0.00  0.00     0.007 A 
ATOM      8  C   UNL d   1       1.853   1.233  -0.133  0.00  0.00     0.015 A 
ATOM      9  C   UNL d   1       1.267  -1.448   0.139  0.00  0.00     0.030 A 
ATOM     10  C   UNL d   1      -3.445  -0.763   0.120  0.00  0.00     0.068 C 
ATOM     11  C   UNL d   1       2.893   0.307  -0.080  0.00  0.00     0.001 A 
ATOM     12  C   UNL d   1       2.600  -1.040   0.059  0.00  0.00     0.002 A 
ENDROOT
BRANCH   1  13
ATOM     13  N   UNL d   1      -0.399   3.133  -0.211  0.00  0.00    -0.279 NA
ATOM     14  C   UNL d   1      -1.472   3.916  -0.865  0.00  0.00     0.125 C 
ATOM     15  C   UNL d   1      -0.965   5.339  -1.187  0.00  0.00     0.284 C 
ATOM     16  N   UNL d   1      -0.464   6.059   0.002  0.00  0.00     0.085 N 
ATOM     17  C   UNL d   1       0.558   5.235   0.679  0.00  0.00     0.284 C 
ATOM     18  H   UNL d   1      -0.037   6.935  -0.300  0.00  0.00     0.315 HD
ATOM     19  C   UNL d   1       0.073   3.804   1.025  0.00  0.00     0.125 C 
ENDBRANCH   1  13
TORSDOF 1
