REMARK  7 active torsions:
REMARK  status: ('A' for Active; 'I' for Inactive)
REMARK    1  A    between atoms: C_9  and  C_1 
REMARK    2  A    between atoms: C_2  and  C_11 
REMARK    3  A    between atoms: C_6  and  C_5 
REMARK    4  A    between atoms: O_22  and  C_6 
REMARK    5  A    between atoms: C_11  and  S_13 
REMARK    6  A    between atoms: S_13  and  C_20 
REMARK    7  A    between atoms: C_26  and  O_22 
ROOT
ATOM      1  C   UNL d   1      -5.499   1.952   1.619  0.00  0.00    -0.013 A 
ATOM      2  C   UNL d   1      -7.755   1.043   1.893  0.00  0.00     0.001 A 
ATOM      3  C   UNL d   1      -6.372   0.857   1.734  0.00  0.00     0.087 A 
ATOM      4  C   UNL d   1      -7.435   3.444   1.852  0.00  0.00     0.040 A 
ATOM      5  C   UNL d   1      -8.280   2.340   1.977  0.00  0.00     0.029 A 
ATOM      6  C   UNL d   1      -6.062   3.243   1.646  0.00  0.00     0.028 A 
ATOM      7  O   UNL d   1      -5.833  -0.401   1.649  0.00  0.00    -0.325 OA
ATOM      8  O   UNL d   1      -8.031  -1.307   1.483  0.00  0.00    -0.362 OA
ATOM      9  C   UNL d   1      -6.737  -1.430   2.055  0.00  0.00     0.345 C 
ATOM     10  C   UNL d   1      -8.670  -0.143   1.993  0.00  0.00     0.212 C 
ENDROOT
BRANCH   1  11
ATOM     11  C   UNL d   1      -4.009   1.747   1.391  0.00  0.00     0.121 C 
BRANCH  11  12
ATOM     12  S   UNL d   1      -2.979   3.039   2.192  0.00  0.00    -0.125 SA
BRANCH  12  13
ATOM     13  C   UNL d   1      -1.298   2.666   1.730  0.00  0.00     0.001 A 
ATOM     14  C   UNL d   1      -0.875   1.543   1.015  0.00  0.00     0.034 A 
ATOM     15  C   UNL d   1       0.492   1.337   0.738  0.00  0.00     0.049 A 
ATOM     16  C   UNL d   1       1.435   2.270   1.196  0.00  0.00     0.016 A 
ATOM     17  C   UNL d   1       1.023   3.396   1.902  0.00  0.00     0.002 A 
ATOM     18  C   UNL d   1      -0.333   3.590   2.160  0.00  0.00     0.018 A 
BRANCH  15  19
ATOM     19  C   UNL d   1       0.960   0.132  -0.040  0.00  0.00     0.417 C 
ATOM     20  F   UNL d   1      -0.056  -0.672  -0.462  0.00  0.00    -0.166 F 
ATOM     21  F   UNL d   1       1.791  -0.667   0.685  0.00  0.00    -0.166 F 
ATOM     22  F   UNL d   1       1.654   0.474  -1.161  0.00  0.00    -0.166 F 
ENDBRANCH  15  19
ENDBRANCH  12  13
ENDBRANCH  11  12
ENDBRANCH   1  11
BRANCH   4  23
ATOM     23  C   UNL d   1      -8.041   4.801   1.865  0.00  0.00     0.293 C 
ATOM     24  O   UNL d   1      -9.241   5.003   1.947  0.00  0.00    -0.259 OA
BRANCH  23  25
ATOM     25  O   UNL d   1      -7.080   5.737   1.675  0.00  0.00    -0.318 OA
BRANCH  25  26
ATOM     26  C   UNL d   1      -7.541   7.005   1.198  0.00  0.00     0.174 C 
ATOM     27  C   UNL d   1      -7.610   6.931  -0.317  0.00  0.00     0.034 C 
ENDBRANCH  25  26
ENDBRANCH  23  25
ENDBRANCH   4  23
TORSDOF 7
