REMARK  5 active torsions:
REMARK  status: ('A' for Active; 'I' for Inactive)
REMARK    1  A    between atoms: C_2  and  C_1 
REMARK    2  A    between atoms: N_5  and  C_3 
REMARK       I    between atoms: C_4  and  N_6 
REMARK    3  A    between atoms: O_13  and  C_4 
REMARK    4  A    between atoms: N_6  and  N_5 
REMARK    5  A    between atoms: C_16  and  O_13 
ROOT
ATOM      1  C   UNL d   1      -1.105  -2.812  -0.817  0.00  0.00     0.087 A 
ATOM      2  C   UNL d   1      -0.853  -1.442  -0.725  0.00  0.00     0.113 A 
ATOM      3  N   UNL d   1       0.224  -0.965  -0.044  0.00  0.00    -0.355 N 
ATOM      4  HN  UNL d   1       0.406   0.038   0.005  1.00  0.00     0.166 HD
ATOM      5  C   UNL d   1      -0.223  -3.700  -0.173  0.00  0.00     0.021 A 
ATOM      6  C   UNL d   1       1.047  -1.845   0.565  0.00  0.00     0.089 A 
ATOM      7  C   UNL d   1       0.869  -3.213   0.529  0.00  0.00     0.018 A 
ENDROOT
BRANCH   2   8
ATOM      8  N   UNL d   1      -1.643  -0.519  -1.450  0.00  0.00    -0.185 NA
ATOM      9  H   UNL d   1      -2.643  -0.754  -1.427  0.00  0.00     0.154 HD
BRANCH   8  10
ATOM     10  N   UNL d   1      -1.450   0.812  -1.041  0.00  0.00    -0.261 N 
ATOM     11  C   UNL d   1      -2.551   1.625  -0.934  0.00  0.00     0.375 C 
ATOM     12  O   UNL d   1      -3.700   1.233  -1.102  0.00  0.00    -0.237 OA
ATOM     13  H   UNL d   1      -0.508   1.104  -0.804  0.00  0.00     0.186 HD
BRANCH  11  14
ATOM     14  O   UNL d   1      -2.184   2.898  -0.648  0.00  0.00    -0.303 OA
BRANCH  14  15
ATOM     15  C   UNL d   1      -3.260   3.848  -0.627  0.00  0.00     0.176 C 
ATOM     16  C   UNL d   1      -3.649   4.250  -2.040  0.00  0.00     0.034 C 
ENDBRANCH  14  15
ENDBRANCH  11  14
ENDBRANCH   8  10
ENDBRANCH   2   8
BRANCH   1  17
ATOM     17  C   UNL d   1      -2.271  -3.378  -1.569  0.00  0.00     0.420 C 
ATOM     18  F   UNL d   1      -3.159  -2.458  -2.036  0.00  0.00    -0.166 F 
ATOM     19  F   UNL d   1      -3.011  -4.225  -0.796  0.00  0.00    -0.166 F 
ATOM     20  F   UNL d   1      -1.888  -4.114  -2.650  0.00  0.00    -0.166 F 
ENDBRANCH   1  17
TORSDOF 5
