REMARK  5 active torsions:
REMARK  status: ('A' for Active; 'I' for Inactive)
REMARK    1  A    between atoms: C_9  and  C_3 
REMARK    2  A    between atoms: C_11  and  C_5 
REMARK    3  A    between atoms: C_10  and  C_16 
REMARK       I    between atoms: N_17  and  C_10 
REMARK    4  A    between atoms: O_15  and  C_18 
REMARK    5  A    between atoms: C_16  and  O_15 
ROOT
ATOM      1  N   UNL d   1      -0.848   1.450  -0.594  0.00  0.00    -0.357 N 
ATOM      2  HN  UNL d   1      -0.717   2.211  -1.261  1.00  0.00     0.166 HD
ATOM      3  C   UNL d   1      -2.023   1.243  -0.082  0.00  0.00     0.021 C 
ATOM      4  N   UNL d   1      -0.891  -1.562  -0.493  0.00  0.00    -0.282 NA
ATOM      5  C   UNL d   1      -2.178  -1.277   0.151  0.00  0.00     0.099 C 
ATOM      6  C   UNL d   1      -2.322   0.085   0.849  0.00  0.00     0.082 C 
ATOM      7  C   UNL d   1       0.250   0.640  -0.241  0.00  0.00     0.053 A 
ATOM      8  C   UNL d   1       0.228  -0.772  -0.178  0.00  0.00     0.035 A 
ATOM      9  C   UNL d   1       1.459   1.313  -0.011  0.00  0.00     0.031 A 
ATOM     10  C   UNL d   1       1.438  -1.456   0.031  0.00  0.00     0.026 A 
ATOM     11  C   UNL d   1       2.641   0.618   0.244  0.00  0.00     0.002 A 
ATOM     12  C   UNL d   1       2.633  -0.771   0.252  0.00  0.00     0.002 A 
ATOM     13  H   UNL d   1      -0.987  -1.564  -1.508  0.00  0.00     0.128 HD
ENDROOT
BRANCH   3  14
ATOM     14  C   UNL d   1      -3.130   2.186  -0.450  0.00  0.00    -0.013 A 
ATOM     15  C   UNL d   1      -3.143   2.775  -1.725  0.00  0.00     0.016 A 
ATOM     16  C   UNL d   1      -4.164   3.662  -2.095  0.00  0.00     0.037 A 
ATOM     17  C   UNL d   1      -5.160   3.987  -1.178  0.00  0.00     0.069 A 
ATOM     18  C   UNL d   1      -5.139   3.412   0.094  0.00  0.00     0.037 A 
ATOM     19  C   UNL d   1      -4.138   2.509   0.458  0.00  0.00     0.016 A 
BRANCH  17  20
ATOM     20  O   UNL d   1      -6.155   4.902  -1.363  0.00  0.00    -0.342 OA
BRANCH  20  21
ATOM     21  C   UNL d   1      -6.625   5.088  -2.695  0.00  0.00     0.278 C 
BRANCH  21  22
ATOM     22  C   UNL d   1      -7.761   6.117  -2.696  0.00  0.00     0.239 C 
ATOM     23  O   UNL d   1      -8.366   6.437  -3.716  0.00  0.00    -0.271 OA
ATOM     24  N   UNL d   1      -8.058   6.680  -1.493  0.00  0.00    -0.368 N 
ATOM     25  H   UNL d   1      -7.532   6.432  -0.660  0.00  0.00     0.159 HD
ATOM     26  H   UNL d   1      -8.787   7.378  -1.440  0.00  0.00     0.159 HD
ENDBRANCH  21  22
ENDBRANCH  20  21
ENDBRANCH  17  20
ENDBRANCH   3  14
BRANCH   5  27
ATOM     27  C   UNL d   1      -3.311  -1.572  -0.830  0.00  0.00    -0.040 A 
ATOM     28  C   UNL d   1      -3.520  -0.778  -1.968  0.00  0.00     0.009 A 
ATOM     29  C   UNL d   1      -4.624  -0.974  -2.797  0.00  0.00     0.001 A 
ATOM     30  C   UNL d   1      -5.496  -2.027  -2.547  0.00  0.00     0.000 A 
ATOM     31  C   UNL d   1      -5.255  -2.886  -1.476  0.00  0.00     0.001 A 
ATOM     32  C   UNL d   1      -4.176  -2.656  -0.617  0.00  0.00     0.009 A 
ENDBRANCH   5  27
TORSDOF 5
