REMARK  4 active torsions:
REMARK  status: ('A' for Active; 'I' for Inactive)
REMARK    1  A    between atoms: C_6  and  C_1 
REMARK    2  A    between atoms: C_8  and  N_3 
REMARK    3  A    between atoms: O_11  and  C_6 
REMARK    4  A    between atoms: C_14  and  O_11 
ROOT
ATOM      1  C   UNL d   1      -0.922  -1.232   0.029  0.00  0.00     0.049 A 
ATOM      2  C   UNL d   1      -1.297   0.054   0.075  0.00  0.00     0.029 A 
ATOM      3  N   UNL d   1      -0.184   0.864  -0.048  0.00  0.00    -0.286 N 
ATOM      4  C   UNL d   1       0.974   0.086  -0.231  0.00  0.00     0.233 A 
ATOM      5  C   UNL d   1       0.560  -1.370  -0.143  0.00  0.00     0.150 A 
ATOM      6  O   UNL d   1       2.129   0.457  -0.391  0.00  0.00    -0.272 OA
ATOM      7  C   UNL d   1      -2.686   0.619   0.100  0.00  0.00     0.069 C 
ENDROOT
BRANCH   3   8
ATOM      8  C   UNL d   1      -0.139   2.273   0.024  0.00  0.00     0.042 A 
ATOM      9  C   UNL d   1       0.532   3.011  -0.956  0.00  0.00     0.030 A 
ATOM     10  C   UNL d   1       0.496   4.407  -0.931  0.00  0.00     0.002 A 
ATOM     11  C   UNL d   1      -0.168   5.072   0.098  0.00  0.00     0.000 A 
ATOM     12  C   UNL d   1      -0.794   4.346   1.108  0.00  0.00     0.002 A 
ATOM     13  C   UNL d   1      -0.787   2.951   1.065  0.00  0.00     0.030 A 
ENDBRANCH   3   8
BRANCH   1  14
ATOM     14  C   UNL d   1      -1.800  -2.397   0.172  0.00  0.00     0.291 C 
ATOM     15  O   UNL d   1      -2.932  -2.362   0.627  0.00  0.00    -0.260 OA
BRANCH  14  16
ATOM     16  O   UNL d   1      -1.120  -3.510  -0.197  0.00  0.00    -0.318 OA
BRANCH  16  17
ATOM     17  C   UNL d   1      -1.751  -4.754   0.138  0.00  0.00     0.174 C 
ATOM     18  C   UNL d   1      -1.324  -5.150   1.538  0.00  0.00     0.034 C 
ENDBRANCH  16  17
ENDBRANCH  14  16
ENDBRANCH   1  14
TORSDOF 4
