REMARK  2 active torsions:
REMARK  status: ('A' for Active; 'I' for Inactive)
REMARK    1  A    between atoms: C_3  and  N_1 
REMARK    2  A    between atoms: C_4  and  C_2 
ROOT
ATOM      1  C   UNL d   1       2.124  -1.564  -0.010  0.00  0.00     0.064 C 
ATOM      2  C   UNL d   1       2.679  -2.060  -1.135  0.00  0.00     0.126 C 
ATOM      3  N   UNL d   1       1.812  -1.539  -3.513  0.00  0.00    -0.191 NA
ATOM      4  N   UNL d   1       4.727  -3.615  -0.883  0.00  0.00    -0.191 NA
ATOM      5  C   UNL d   1       2.193  -1.766  -2.441  0.00  0.00     0.111 C 
ATOM      6  C   UNL d   1       3.812  -2.917  -1.015  0.00  0.00     0.111 C 
ENDROOT
BRANCH   1   7
ATOM      7  C   UNL d   1       1.006  -0.688  -0.001  0.00  0.00     0.041 A 
ATOM      8  N   UNL d   1      -0.323  -1.135  -0.002  0.00  0.00    -0.322 N 
ATOM      9  C   UNL d   1      -1.123  -0.008  -0.129  0.00  0.00     0.097 A 
ATOM     10  C   UNL d   1      -0.342   1.122  -0.095  0.00  0.00     0.020 A 
ATOM     11  C   UNL d   1       0.996   0.696  -0.015  0.00  0.00     0.031 A 
BRANCH   8  12
ATOM     12  C   UNL d   1      -0.842  -2.462   0.145  0.00  0.00     0.042 A 
ATOM     13  C   UNL d   1      -0.147  -3.438   0.870  0.00  0.00     0.054 A 
ATOM     14  C   UNL d   1      -0.705  -4.706   1.056  0.00  0.00     0.037 A 
ATOM     15 CL   UNL d   1       0.156  -5.879   1.976  0.00  0.00    -0.084 Cl
ATOM     16  C   UNL d   1      -1.952  -5.023   0.531  0.00  0.00     0.048 A 
ATOM     17  C   UNL d   1      -2.646  -4.055  -0.187  0.00  0.00     0.037 A 
ATOM     18  C   UNL d   1      -2.104  -2.782  -0.382  0.00  0.00     0.054 A 
ATOM     19 CL   UNL d   1      -4.197  -4.430  -0.835  0.00  0.00    -0.084 Cl
ENDBRANCH   8  12
ENDBRANCH   1   7
TORSDOF 2
