REMARK  4 active torsions:
REMARK  status: ('A' for Active; 'I' for Inactive)
REMARK    1  A    between atoms: N_12  and  C_3 
REMARK    2  A    between atoms: C_8  and  C_6 
REMARK    3  A    between atoms: O_14  and  C_8 
REMARK    4  A    between atoms: C_15  and  O_14 
ROOT
ATOM      1  C   UNL d   1       1.401  -1.141   0.067  0.00  0.00     0.086 A 
ATOM      2  C   UNL d   1       0.059  -0.684   0.076  0.00  0.00    -0.008 A 
ATOM      3  C   UNL d   1       2.292  -0.073   0.025  0.00  0.00     0.089 A 
ATOM      4  C   UNL d   1      -0.015   0.681   0.086  0.00  0.00    -0.007 A 
ATOM      5  S   UNL d   1       1.464   1.449   0.037  0.00  0.00    -0.075 SA
ATOM      6  C   UNL d   1      -1.305  -1.301   0.092  0.00  0.00     0.121 C 
ATOM      7  C   UNL d   1       1.813  -2.512   0.100  0.00  0.00     0.103 C 
ATOM      8  N   UNL d   1       2.152  -3.623   0.154  0.00  0.00    -0.191 NA
ATOM      9  C   UNL d   1      -2.226  -0.052  -0.179  0.00  0.00     0.024 C 
ATOM     10  C   UNL d   1      -1.391   1.222   0.134  0.00  0.00     0.048 C 
ENDROOT
BRANCH   3  11
ATOM     11  N   UNL d   1       3.643  -0.097  -0.014  0.00  0.00    -0.392 N 
ATOM     12  H   UNL d   1       4.153  -0.944  -0.251  0.00  0.00     0.156 HD
ATOM     13  H   UNL d   1       4.144   0.759  -0.237  0.00  0.00     0.156 HD
ENDBRANCH   3  11
BRANCH   6  14
ATOM     14  C   UNL d   1      -1.527  -2.321  -1.004  0.00  0.00     0.267 C 
ATOM     15  O   UNL d   1      -0.716  -2.631  -1.866  0.00  0.00    -0.265 OA
BRANCH  14  16
ATOM     16  O   UNL d   1      -2.815  -2.774  -0.944  0.00  0.00    -0.321 OA
BRANCH  16  17
ATOM     17  C   UNL d   1      -3.292  -3.398  -2.143  0.00  0.00     0.174 C 
ATOM     18  C   UNL d   1      -3.827  -2.311  -3.060  0.00  0.00     0.034 C 
ENDBRANCH  16  17
ENDBRANCH  14  16
ENDBRANCH   6  14
TORSDOF 4
