REMARK  5 active torsions:
REMARK  status: ('A' for Active; 'I' for Inactive)
REMARK    1  A    between atoms: C_9  and  N_1 
REMARK    2  A    between atoms: N_7  and  C_5 
REMARK       I    between atoms: C_8  and  N_7 
REMARK       I    between atoms: N_12  and  C_8 
REMARK    3  A    between atoms: C_11  and  C_19 
REMARK    4  A    between atoms: C_19  and  N_12 
REMARK    5  A    between atoms: O_24  and  C_21 
ROOT
ATOM      1  N   UNL d   1       1.264  -0.533  -0.095  0.00  0.00    -0.259 N 
ATOM      2  C   UNL d   1       1.128   0.855  -0.013  0.00  0.00     0.059 C 
ATOM      3  N   UNL d   1       0.060  -1.141  -0.256  0.00  0.00    -0.302 N 
ATOM      4  HN  UNL d   1      -0.123  -2.124  -0.454  1.00  0.00     0.186 HD
ATOM      5  C   UNL d   1      -0.237   1.116   0.026  0.00  0.00     0.077 C 
ATOM      6  C   UNL d   1      -0.825  -0.163  -0.097  0.00  0.00     0.139 C 
ATOM      7  C   UNL d   1       2.297   1.777  -0.093  0.00  0.00     0.073 C 
ENDROOT
BRANCH   5   8
ATOM      8  N   UNL d   1      -0.955   2.316   0.099  0.00  0.00    -0.306 N 
ATOM      9  C   UNL d   1      -0.436   3.576   0.209  0.00  0.00     0.321 C 
ATOM     10  N   UNL d   1      -1.378   4.586   0.109  0.00  0.00    -0.338 N 
ATOM     11  O   UNL d   1       0.746   3.870   0.353  0.00  0.00    -0.247 OA
ATOM     12  H   UNL d   1      -2.321   4.416   0.416  0.00  0.00     0.164 HD
ATOM     13  H   UNL d   1      -1.961   2.233   0.038  0.00  0.00     0.171 HD
BRANCH  10  14
ATOM     14  C   UNL d   1      -0.847   5.927   0.241  0.00  0.00     0.170 C 
BRANCH  14  15
ATOM     15  C   UNL d   1      -1.867   7.018   0.273  0.00  0.00     0.000 A 
ATOM     16  S   UNL d   1      -3.381   6.852   1.050  0.00  0.00    -0.105 SA
ATOM     17  C   UNL d   1      -3.772   8.497   0.782  0.00  0.00     0.050 A 
ATOM     18  C   UNL d   1      -2.773   9.166   0.111  0.00  0.00     0.008 A 
ATOM     19  C   UNL d   1      -1.679   8.309  -0.189  0.00  0.00     0.017 A 
ENDBRANCH  14  15
ENDBRANCH  10  14
ENDBRANCH   5   8
BRANCH   1  20
ATOM     20  C   UNL d   1       2.452  -1.322  -0.067  0.00  0.00     0.056 A 
ATOM     21  C   UNL d   1       3.550  -0.944   0.712  0.00  0.00     0.034 A 
ATOM     22  C   UNL d   1       4.742  -1.673   0.662  0.00  0.00     0.039 A 
ATOM     23  C   UNL d   1       4.843  -2.803  -0.148  0.00  0.00     0.068 A 
ATOM     24  C   UNL d   1       3.729  -3.210  -0.889  0.00  0.00     0.039 A 
ATOM     25  C   UNL d   1       2.530  -2.488  -0.840  0.00  0.00     0.034 A 
BRANCH  23  26
ATOM     26  O   UNL d   1       5.958  -3.583  -0.291  0.00  0.00    -0.356 OA
ATOM     27  C   UNL d   1       7.096  -3.212   0.480  0.00  0.00     0.210 C 
ENDBRANCH  23  26
ENDBRANCH   1  20
TORSDOF 5
