REMARK  3 active torsions:
REMARK  status: ('A' for Active; 'I' for Inactive)
REMARK    1  A    between atoms: C_8  and  C_2 
REMARK    2  A    between atoms: N_20  and  C_3 
REMARK    3  A    between atoms: C_9  and  C_6 
ROOT
ATOM      1  C   UNL d   1      -0.464  -0.308   0.036  0.00  0.00     0.095 A 
ATOM      2  C   UNL d   1       0.225  -1.530   0.047  0.00  0.00     0.024 A 
ATOM      3  C   UNL d   1       0.272   0.878  -0.024  0.00  0.00     0.100 A 
ATOM      4  N   UNL d   1       1.617   0.899  -0.097  0.00  0.00    -0.345 N 
ATOM      5  HN  UNL d   1       2.122   1.782  -0.172  1.00  0.00     0.167 HD
ATOM      6  C   UNL d   1       2.282  -0.280  -0.070  0.00  0.00     0.051 A 
ATOM      7  C   UNL d   1       1.626  -1.501   0.015  0.00  0.00     0.046 A 
ATOM      8  C   UNL d   1      -1.892  -0.239   0.104  0.00  0.00     0.103 C 
ATOM      9  N   UNL d   1      -3.049  -0.179   0.171  0.00  0.00    -0.191 NA
ENDROOT
BRANCH   2  10
ATOM     10  C   UNL d   1      -0.454  -2.826   0.043  0.00  0.00     0.086 A 
ATOM     11  O   UNL d   1       0.185  -3.835   0.711  0.00  0.00    -0.322 OA
ATOM     12  C   UNL d   1      -0.586  -4.947   0.601  0.00  0.00     0.142 A 
ATOM     13  C   UNL d   1      -1.713  -4.678  -0.136  0.00  0.00     0.027 A 
ATOM     14  C   UNL d   1      -1.625  -3.314  -0.506  0.00  0.00     0.040 A 
ENDBRANCH   2  10
BRANCH   3  15
ATOM     15  N   UNL d   1      -0.330   2.133  -0.107  0.00  0.00    -0.287 NA
ATOM     16  H   UNL d   1      -1.044   2.298   0.595  0.00  0.00     0.125 HD
ATOM     17  H   UNL d   1       0.401   2.839  -0.085  0.00  0.00     0.125 HD
ENDBRANCH   3  15
BRANCH   6  18
ATOM     18  C   UNL d   1       3.733  -0.158  -0.258  0.00  0.00     0.031 A 
ATOM     19  S   UNL d   1       4.831  -1.272   0.454  0.00  0.00    -0.100 SA
ATOM     20  C   UNL d   1       6.183  -0.526  -0.278  0.00  0.00     0.050 A 
ATOM     21  C   UNL d   1       5.824   0.574  -1.022  0.00  0.00     0.008 A 
ATOM     22  C   UNL d   1       4.417   0.799  -0.989  0.00  0.00     0.021 A 
ENDBRANCH   6  18
TORSDOF 3
