REMARK  4 active torsions:
REMARK  status: ('A' for Active; 'I' for Inactive)
REMARK    1  A    between atoms: C_2  and  C_1 
REMARK       I    between atoms: N_8  and  C_2 
REMARK    2  A    between atoms: C_6  and  O_10 
REMARK    3  A    between atoms: C_11  and  N_8 
REMARK    4  A    between atoms: O_10  and  C_15 
ROOT
ATOM      1  C   UNL d   1      -0.388   3.957   0.080  0.00  0.00     0.035 A 
ATOM      2  C   UNL d   1      -3.069   4.775   0.460  0.00  0.00     0.078 A 
ATOM      3  C   UNL d   1      -1.314   3.117   0.701  0.00  0.00     0.032 A 
ATOM      4  C   UNL d   1      -0.820   5.212  -0.358  0.00  0.00     0.032 A 
ATOM      5  C   UNL d   1      -2.648   3.517   0.881  0.00  0.00     0.039 A 
ATOM      6  C   UNL d   1      -2.148   5.612  -0.174  0.00  0.00     0.039 A 
ENDROOT
BRANCH   1   7
ATOM      7  N   UNL d   1       0.965   3.621  -0.149  0.00  0.00    -0.323 N 
ATOM      8  C   UNL d   1       1.587   2.411   0.118  0.00  0.00     0.258 C 
ATOM      9  O   UNL d   1       1.040   1.446   0.640  0.00  0.00    -0.267 OA
ATOM     10  H   UNL d   1       1.520   4.322  -0.618  0.00  0.00     0.169 HD
BRANCH   8  11
ATOM     11  C   UNL d   1       2.986   2.344  -0.303  0.00  0.00     0.064 A 
ATOM     12  C   UNL d   1       3.717   1.169  -0.434  0.00  0.00     0.065 A 
ATOM     13  O   UNL d   1       4.990   1.438  -0.839  0.00  0.00    -0.319 OA
ATOM     14  C   UNL d   1       3.423  -0.271  -0.243  0.00  0.00     0.077 C 
ATOM     15  C   UNL d   1       5.100   2.784  -0.969  0.00  0.00     0.050 A 
ATOM     16  C   UNL d   1       3.903   3.388  -0.652  0.00  0.00     0.051 A 
ATOM     17  C   UNL d   1       6.422   3.284  -1.392  0.00  0.00     0.076 C 
ENDBRANCH   8  11
ENDBRANCH   1   7
BRANCH   2  18
ATOM     18  O   UNL d   1      -4.314   5.310   0.605  0.00  0.00    -0.255 OA
BRANCH  18  19
ATOM     19  C   UNL d   1      -5.265   4.595   1.376  0.00  0.00     0.530 C 
ATOM     20  F   UNL d   1      -4.766   4.226   2.575  0.00  0.00    -0.144 F 
ATOM     21  F   UNL d   1      -6.328   5.399   1.601  0.00  0.00    -0.144 F 
ATOM     22  F   UNL d   1      -5.696   3.502   0.710  0.00  0.00    -0.144 F 
ENDBRANCH  18  19
ENDBRANCH   2  18
TORSDOF 4
