REMARK  8 active torsions:
REMARK  status: ('A' for Active; 'I' for Inactive)
REMARK    1  A    between atoms: C_2  and  C_1 
REMARK    2  A    between atoms: O_20  and  C_2 
REMARK    3  A    between atoms: C_3  and  C_9 
REMARK    4  A    between atoms: C_4  and  C_10 
REMARK    5  A    between atoms: O_7  and  C_5 
REMARK    6  A    between atoms: C_9  and  O_7 
REMARK    7  A    between atoms: C_10  and  O_19 
REMARK    8  A    between atoms: O_19  and  C_18 
ROOT
ATOM      1  C   UNL d   1       1.473  -0.151   0.117  0.00  0.00     0.075 A 
ATOM      2  C   UNL d   1       0.685  -1.308   0.074  0.00  0.00     0.085 A 
ATOM      3  C   UNL d   1       0.853   1.110   0.058  0.00  0.00     0.057 A 
ATOM      4  C   UNL d   1      -0.708  -1.176  -0.012  0.00  0.00     0.040 A 
ATOM      5  C   UNL d   1      -0.529   1.236  -0.057  0.00  0.00     0.070 A 
ATOM      6  C   UNL d   1      -1.315   0.087  -0.089  0.00  0.00     0.039 A 
ENDROOT
BRANCH   2   7
ATOM      7  O   UNL d   1       1.136  -2.599   0.176  0.00  0.00    -0.341 OA
BRANCH   7   8
ATOM      8  C   UNL d   1       2.121  -2.971  -0.804  0.00  0.00     0.293 C 
BRANCH   8   9
ATOM      9  C   UNL d   1       1.869  -4.374  -1.341  0.00  0.00     0.408 C 
ATOM     10  F   UNL d   1       0.555  -4.608  -1.558  0.00  0.00    -0.169 F 
ATOM     11  F   UNL d   1       2.504  -4.542  -2.527  0.00  0.00    -0.169 F 
ATOM     12  F   UNL d   1       2.329  -5.327  -0.501  0.00  0.00    -0.169 F 
ENDBRANCH   8   9
ENDBRANCH   7   8
ENDBRANCH   2   7
BRANCH   1  13
ATOM     13  C   UNL d   1       2.938  -0.176   0.281  0.00  0.00     0.295 C 
ATOM     14  O   UNL d   1       3.555  -0.950   1.001  0.00  0.00    -0.259 OA
BRANCH  13  15
ATOM     15  O   UNL d   1       3.478   0.775  -0.523  0.00  0.00    -0.322 OA
ATOM     16  C   UNL d   1       4.896   0.910  -0.415  0.00  0.00     0.213 C 
ENDBRANCH  13  15
ENDBRANCH   1  13
BRANCH   5  17
ATOM     17  O   UNL d   1      -0.956   2.529  -0.111  0.00  0.00    -0.342 OA
BRANCH  17  18
ATOM     18  C   UNL d   1      -2.341   2.775  -0.367  0.00  0.00     0.293 C 
BRANCH  18  19
ATOM     19  C   UNL d   1      -2.632   4.272  -0.321  0.00  0.00     0.408 C 
ATOM     20  F   UNL d   1      -1.810   4.934   0.523  0.00  0.00    -0.169 F 
ATOM     21  F   UNL d   1      -2.511   4.837  -1.544  0.00  0.00    -0.169 F 
ATOM     22  F   UNL d   1      -3.900   4.493   0.101  0.00  0.00    -0.169 F 
ENDBRANCH  18  19
ENDBRANCH  17  18
ENDBRANCH   5  17
TORSDOF 8
