REMARK  6 active torsions:
REMARK  status: ('A' for Active; 'I' for Inactive)
REMARK    1  A    between atoms: C_6  and  C_2 
REMARK    2  A    between atoms: C_8  and  C_3 
REMARK    3  A    between atoms: C_7  and  C_4 
REMARK    4  A    between atoms: O_12  and  C_6 
REMARK    5  A    between atoms: S_9  and  C_8 
REMARK    6  A    between atoms: C_11  and  S_9 
ROOT
ATOM      1  S   UNL d   1      -1.033   0.024  -0.016  0.00  0.00    -0.087 SA
ATOM      2  C   UNL d   1       0.068   1.346  -0.009  0.00  0.00     0.087 A 
ATOM      3  C   UNL d   1       1.390   0.903   0.003  0.00  0.00    -0.024 A 
ATOM      4  C   UNL d   1       0.200  -1.162  -0.008  0.00  0.00    -0.008 A 
ATOM      5  C   UNL d   1       1.437  -0.545   0.006  0.00  0.00     0.024 A 
ENDROOT
BRANCH   3   6
ATOM      6  C   UNL d   1       2.656   1.734  -0.006  0.00  0.00     0.119 C 
BRANCH   6   7
ATOM      7  S   UNL d   1       3.163   2.140   1.703  0.00  0.00    -0.125 SA
BRANCH   7   8
ATOM      8  C   UNL d   1       4.819   2.807   1.544  0.00  0.00     0.001 A 
ATOM      9  C   UNL d   1       5.229   3.715   2.535  0.00  0.00     0.020 A 
ATOM     10  C   UNL d   1       6.541   4.197   2.580  0.00  0.00     0.025 A 
ATOM     11  C   UNL d   1       7.465   3.772   1.631  0.00  0.00     0.034 A 
ATOM     12  C   UNL d   1       7.075   2.888   0.628  0.00  0.00     0.025 A 
ATOM     13 CL   UNL d   1       9.095   4.315   1.715  0.00  0.00    -0.084 Cl
ATOM     14  C   UNL d   1       5.758   2.405   0.586  0.00  0.00     0.020 A 
ENDBRANCH   7   8
ENDBRANCH   6   7
ENDBRANCH   3   6
BRANCH   2  15
ATOM     15  C   UNL d   1      -0.541   2.671  -0.023  0.00  0.00     0.300 C 
ATOM     16  O   UNL d   1      -1.744   2.905  -0.121  0.00  0.00    -0.259 OA
BRANCH  15  17
ATOM     17  O   UNL d   1       0.401   3.652   0.075  0.00  0.00    -0.322 OA
ATOM     18  C   UNL d   1      -0.126   4.982   0.071  0.00  0.00     0.213 C 
ENDBRANCH  15  17
ENDBRANCH   2  15
BRANCH   4  19
ATOM     19  C   UNL d   1      -0.159  -2.656  -0.012  0.00  0.00    -0.018 C 
ATOM     20  C   UNL d   1      -0.960  -3.020  -1.281  0.00  0.00     0.020 C 
ATOM     21  C   UNL d   1       1.110  -3.534   0.004  0.00  0.00     0.020 C 
ATOM     22  C   UNL d   1      -0.994  -3.020   1.234  0.00  0.00     0.020 C 
ENDBRANCH   4  19
TORSDOF 6
