REMARK  4 active torsions:
REMARK  status: ('A' for Active; 'I' for Inactive)
REMARK    1  A    between atoms: N_7  and  N_1 
REMARK    2  A    between atoms: C_10  and  N_2 
REMARK       I    between atoms: C_8  and  N_7 
REMARK    3  A    between atoms: C_14  and  C_8 
REMARK    4  A    between atoms: N_9  and  C_14 
ROOT
ATOM      1  N   UNL d   1       0.676   1.046   0.215  0.00  0.00    -0.248 N 
ATOM      2  N   UNL d   1      -0.406  -1.408   0.126  0.00  0.00    -0.308 N 
ATOM      3  C   UNL d   1      -0.336  -0.818   1.399  0.00  0.00     0.244 C 
ATOM      4  C   UNL d   1       0.239   0.683  -1.055  0.00  0.00     0.257 C 
ATOM      5  C   UNL d   1      -0.121   0.690   1.373  0.00  0.00     0.255 C 
ATOM      6  C   UNL d   1      -0.673  -0.552  -1.035  0.00  0.00     0.236 C 
ATOM      7  O   UNL d   1       0.447   1.338  -2.072  0.00  0.00    -0.270 OA
ATOM      8  O   UNL d   1      -0.576  -1.403   2.454  0.00  0.00    -0.271 OA
ENDROOT
BRANCH   1   9
ATOM      9  N   UNL d   1       1.411   2.235   0.360  0.00  0.00    -0.263 N 
ATOM     10  C   UNL d   1       2.583   2.226   1.099  0.00  0.00     0.264 C 
ATOM     11  O   UNL d   1       3.077   1.214   1.595  0.00  0.00    -0.270 OA
ATOM     12  H   UNL d   1       1.019   3.109   0.017  0.00  0.00     0.190 HD
BRANCH  10  13
ATOM     13  C   UNL d   1       3.209   3.611   1.271  0.00  0.00     0.376 C 
BRANCH  13  14
ATOM     14  N   UNL d   1       2.196   4.603   1.702  0.00  0.00     0.100 N 
ATOM     15  C   UNL d   1       1.671   4.289   3.051  0.00  0.00     0.303 C 
ATOM     16  C   UNL d   1       0.644   5.346   3.522  0.00  0.00     0.302 C 
ATOM     17  N   UNL d   1       1.144   6.733   3.524  0.00  0.00     0.087 N 
ATOM     18  C   UNL d   1       1.782   7.026   2.225  0.00  0.00     0.302 C 
ATOM     19  C   UNL d   1       2.054   6.975   4.642  0.00  0.00     0.310 C 
ATOM     20  C   UNL d   1       2.792   5.958   1.734  0.00  0.00     0.303 C 
ENDBRANCH  13  14
ENDBRANCH  10  13
ENDBRANCH   1   9
BRANCH   2  21
ATOM     21  C   UNL d   1      -0.547  -2.817   0.004  0.00  0.00     0.037 A 
ATOM     22  C   UNL d   1      -1.503  -3.383  -0.850  0.00  0.00     0.031 A 
ATOM     23  C   UNL d   1      -1.599  -4.772  -0.983  0.00  0.00     0.026 A 
ATOM     24  C   UNL d   1      -0.715  -5.599  -0.294  0.00  0.00     0.034 A 
ATOM     25  C   UNL d   1       0.244  -5.051   0.553  0.00  0.00     0.026 A 
ATOM     26 CL   UNL d   1      -0.804  -7.304  -0.500  0.00  0.00    -0.084 Cl
ATOM     27  C   UNL d   1       0.313  -3.665   0.716  0.00  0.00     0.031 A 
ENDBRANCH   2  21
TORSDOF 4
