REMARK  7 active torsions:
REMARK  status: ('A' for Active; 'I' for Inactive)
REMARK       I    between atoms: N_2  and  C_1 
REMARK       I    between atoms: N_4  and  C_1 
REMARK    1  A    between atoms: C_10  and  N_2 
REMARK    2  A    between atoms: O_8  and  C_6 
REMARK    3  A    between atoms: C_7  and  C_14 
REMARK    4  A    between atoms: C_16  and  C_10 
REMARK    5  A    between atoms: C_14  and  C_17 
REMARK    6  A    between atoms: C_18  and  C_16 
REMARK    7  A    between atoms: C_17  and  C_18 
ROOT
ATOM      1  C   UNL d   1      -3.824  -0.665  -1.386  0.00  0.00     0.005 C 
ENDROOT
BRANCH   1   2
ATOM      2  C   UNL d   1      -5.351  -0.715  -1.412  0.00  0.00     0.038 C 
BRANCH   2   3
ATOM      3  C   UNL d   1      -5.811  -1.379  -2.689  0.00  0.00    -0.056 A 
ATOM      4  C   UNL d   1      -6.024  -0.606  -3.843  0.00  0.00     0.044 A 
ATOM      5  C   UNL d   1      -6.314  -1.220  -5.064  0.00  0.00     0.068 A 
ATOM      6  C   UNL d   1      -6.417  -2.610  -5.122  0.00  0.00     0.037 A 
ATOM      7  C   UNL d   1      -6.228  -3.386  -3.978  0.00  0.00     0.003 A 
ATOM      8  C   UNL d   1      -5.920  -2.772  -2.765  0.00  0.00     0.007 A 
BRANCH   5   9
ATOM      9  O   UNL d   1      -6.497  -0.578  -6.260  0.00  0.00    -0.356 OA
ATOM     10  C   UNL d   1      -6.302   0.830  -6.268  0.00  0.00     0.210 C 
ENDBRANCH   5   9
ENDBRANCH   2   3
ENDBRANCH   1   2
BRANCH   1  11
ATOM     11  C   UNL d   1      -3.272   0.014  -0.136  0.00  0.00     0.002 C 
BRANCH  11  12
ATOM     12  C   UNL d   1      -1.742   0.019  -0.171  0.00  0.00     0.020 C 
BRANCH  12  13
ATOM     13  C   UNL d   1      -1.145   0.685   1.069  0.00  0.00     0.127 C 
BRANCH  13  14
ATOM     14  N   UNL d   1       0.319   0.641   1.068  0.00  0.00    -0.339 N 
ATOM     15  C   UNL d   1       0.989   1.681   0.462  0.00  0.00     0.315 C 
ATOM     16  O   UNL d   1       0.432   2.618  -0.105  0.00  0.00    -0.247 OA
ATOM     17  N   UNL d   1       2.337   1.679   0.535  0.00  0.00    -0.352 N 
ATOM     18  H   UNL d   1       2.875   0.842   0.665  0.00  0.00     0.160 HD
ATOM     19  H   UNL d   1       2.781   2.414  -0.002  0.00  0.00     0.160 HD
ATOM     20  C   UNL d   1       0.918  -0.558   1.638  0.00  0.00     0.154 C 
ENDBRANCH  13  14
ENDBRANCH  12  13
ENDBRANCH  11  12
ENDBRANCH   1  11
TORSDOF 7
