REMARK  1 active torsions:
REMARK  status: ('A' for Active; 'I' for Inactive)
REMARK    1  A    between atoms: C_15  and  C_10 
ROOT
ATOM      1  N   UNL d   1      -0.533  -0.819   0.077  0.00  0.00    -0.213 N 
ATOM      2  C   UNL d   1      -1.897  -1.039  -0.030  0.00  0.00     0.161 A 
ATOM      3  N   UNL d   1       0.446  -1.762   0.293  0.00  0.00    -0.293 N 
ATOM      4  HN  UNL d   1       0.218  -2.700   0.623  1.00  0.00     0.187 HD
ATOM      5  C   UNL d   1      -0.406   0.544  -0.039  0.00  0.00     0.182 A 
ATOM      6  N   UNL d   1      -2.511   0.117  -0.227  0.00  0.00    -0.281 N 
ATOM      7  HN  UNL d   1      -3.514   0.244  -0.364  1.00  0.00     0.188 HD
ATOM      8  N   UNL d   1      -1.567   1.119  -0.214  0.00  0.00    -0.277 N 
ATOM      9  HN  UNL d   1      -1.740   2.119  -0.320  1.00  0.00     0.189 HD
ATOM     10  C   UNL d   1       1.679  -1.403   0.058  0.00  0.00     0.046 C 
ATOM     11  S   UNL d   1       1.135   1.299   0.067  0.00  0.00    -0.085 SA
ATOM     12  C   UNL d   1      -2.545  -2.318   0.010  0.00  0.00     0.052 A 
ATOM     13  S   UNL d   1      -4.022  -2.583  -0.825  0.00  0.00    -0.098 SA
ATOM     14  C   UNL d   1       2.103  -0.082  -0.576  0.00  0.00     0.142 C 
ATOM     15  C   UNL d   1      -2.135  -3.468   0.662  0.00  0.00     0.023 A 
ATOM     16  C   UNL d   1      -4.083  -4.223  -0.349  0.00  0.00     0.050 A 
ATOM     17  C   UNL d   1      -3.020  -4.566   0.453  0.00  0.00     0.009 A 
ENDROOT
BRANCH  10  18
ATOM     18  C   UNL d   1       2.760  -2.399   0.361  0.00  0.00    -0.011 A 
ATOM     19  C   UNL d   1       3.970  -2.410  -0.344  0.00  0.00     0.015 A 
ATOM     20  C   UNL d   1       4.967  -3.334  -0.012  0.00  0.00     0.024 A 
ATOM     21  C   UNL d   1       4.752  -4.255   1.012  0.00  0.00     0.034 A 
ATOM     22  C   UNL d   1       3.543  -4.267   1.703  0.00  0.00     0.024 A 
ATOM     23 CL   UNL d   1       5.986  -5.381   1.421  0.00  0.00    -0.084 Cl
ATOM     24  C   UNL d   1       2.547  -3.343   1.377  0.00  0.00     0.015 A 
ENDBRANCH  10  18
TORSDOF 1
