REMARK  11 active torsions:
REMARK  status: ('A' for Active; 'I' for Inactive)
REMARK    1  A    between atoms: N_3  and  C_1 
REMARK    2  A    between atoms: N_9  and  C_1 
REMARK    3  A    between atoms: N_4  and  C_2 
REMARK    4  A    between atoms: C_5  and  N_3 
REMARK    5  A    between atoms: C_6  and  N_4 
REMARK    6  A    between atoms: C_13  and  N_9 
REMARK    7  A    between atoms: N_10  and  C_14 
REMARK    8  A    between atoms: O_17  and  C_11 
REMARK    9  A    between atoms: O_18  and  C_12 
REMARK   10  A    between atoms: C_16  and  C_13 
REMARK   11  A    between atoms: C_14  and  C_15 
ROOT
ATOM      1  C   UNL d   1       5.760   2.558   2.801  0.00  0.00     0.003 C 
ATOM      2  C   UNL d   1       4.553   0.544   0.921  0.00  0.00     0.003 C 
ATOM      3  C   UNL d   1       5.158   1.862   0.416  0.00  0.00     0.007 C 
ATOM      4  C   UNL d   1       5.199   1.218   3.302  0.00  0.00     0.007 C 
ATOM      5  C   UNL d   1       5.089   2.961   1.475  0.00  0.00     0.007 C 
ATOM      6  C   UNL d   1       5.242   0.122   2.234  0.00  0.00     0.007 C 
ENDROOT
BRANCH   1   7
ATOM      7  C   UNL d   1       7.301   2.510   2.720  0.00  0.00     0.126 C 
BRANCH   7   8
ATOM      8  N   UNL d   1       7.881   3.728   2.171  0.00  0.00    -0.367 N 
ATOM      9  C   UNL d   1       7.939   4.953   2.746  0.00  0.00     0.172 C 
ATOM     10  S   UNL d   1       7.676   5.285   4.364  0.00  0.00    -0.041 SA
ATOM     11  H   UNL d   1       8.493   3.604   1.374  0.00  0.00     0.161 HD
BRANCH   9  12
ATOM     12  N   UNL d   1       8.275   6.004   1.942  0.00  0.00    -0.331 N 
ATOM     13  H   UNL d   1       8.411   6.864   2.467  0.00  0.00     0.168 HD
BRANCH  12  14
ATOM     14  C   UNL d   1       8.304   6.182   0.541  0.00  0.00     0.068 A 
ATOM     15  C   UNL d   1       8.876   7.362   0.032  0.00  0.00     0.095 A 
ATOM     16  C   UNL d   1       8.799   7.659  -1.333  0.00  0.00     0.039 A 
ATOM     17  C   UNL d   1       8.178   6.773  -2.213  0.00  0.00     0.003 A 
ATOM     18  C   UNL d   1       7.631   5.593  -1.728  0.00  0.00     0.002 A 
ATOM     19  C   UNL d   1       7.699   5.301  -0.362  0.00  0.00     0.032 A 
BRANCH  15  20
ATOM     20  O   UNL d   1       9.448   8.334   0.818  0.00  0.00    -0.354 OA
ATOM     21  C   UNL d   1      10.570   7.882   1.578  0.00  0.00     0.210 C 
ENDBRANCH  15  20
ENDBRANCH  12  14
ENDBRANCH   9  12
ENDBRANCH   7   8
ENDBRANCH   1   7
BRANCH   2  22
ATOM     22  C   UNL d   1       3.032   0.651   1.133  0.00  0.00     0.126 C 
BRANCH  22  23
ATOM     23  N   UNL d   1       2.259   0.716  -0.102  0.00  0.00    -0.367 N 
ATOM     24  H   UNL d   1       2.149   1.651  -0.479  0.00  0.00     0.161 HD
BRANCH  23  25
ATOM     25  C   UNL d   1       1.965  -0.231  -1.018  0.00  0.00     0.172 C 
ATOM     26  S   UNL d   1       1.544   0.278  -2.554  0.00  0.00    -0.041 SA
BRANCH  25  27
ATOM     27  N   UNL d   1       2.088  -1.554  -0.787  0.00  0.00    -0.331 N 
ATOM     28  H   UNL d   1       2.113  -2.118  -1.629  0.00  0.00     0.168 HD
BRANCH  27  29
ATOM     29  C   UNL d   1       1.967  -2.303   0.397  0.00  0.00     0.068 A 
ATOM     30  C   UNL d   1       2.603  -3.549   0.520  0.00  0.00     0.095 A 
ATOM     31  C   UNL d   1       2.470  -4.276   1.710  0.00  0.00     0.039 A 
ATOM     32  C   UNL d   1       1.706  -3.781   2.768  0.00  0.00     0.003 A 
ATOM     33  C   UNL d   1       1.019  -2.582   2.622  0.00  0.00     0.002 A 
ATOM     34  C   UNL d   1       1.130  -1.862   1.433  0.00  0.00     0.032 A 
BRANCH  30  35
ATOM     35  O   UNL d   1       3.321  -4.187  -0.458  0.00  0.00    -0.354 OA
ATOM     36  C   UNL d   1       4.330  -3.417  -1.104  0.00  0.00     0.210 C 
ENDBRANCH  30  35
ENDBRANCH  27  29
ENDBRANCH  25  27
ENDBRANCH  23  25
ENDBRANCH  22  23
ENDBRANCH   2  22
TORSDOF 11
