REMARK  3 active torsions:
REMARK  status: ('A' for Active; 'I' for Inactive)
REMARK    1  A    between atoms: C_6  and  C_1 
REMARK       I    between atoms: C_2  and  N_3 
REMARK    2  A    between atoms: C_5  and  C_2 
REMARK    3  A    between atoms: N_3  and  C_4 
REMARK       I    between atoms: N_13  and  C_6 
ROOT
ATOM      1  C   UNL d   1       1.118  -0.124   0.388  0.00  0.00     0.058 A 
ATOM      2  C   UNL d   1       0.673  -1.323  -0.198  0.00  0.00     0.050 A 
ATOM      3  C   UNL d   1       0.325   1.035   0.306  0.00  0.00     0.019 A 
ATOM      4  C   UNL d   1      -0.632  -1.376  -0.712  0.00  0.00     0.030 A 
ATOM      5  C   UNL d   1      -0.937   0.983  -0.283  0.00  0.00     0.001 A 
ATOM      6  C   UNL d   1      -1.430  -0.229  -0.756  0.00  0.00     0.002 A 
ENDROOT
BRANCH   2   7
ATOM      7  N   UNL d   1       1.448  -2.495  -0.355  0.00  0.00    -0.322 N 
ATOM      8  C   UNL d   1       2.820  -2.526  -0.571  0.00  0.00     0.263 C 
ATOM      9  O   UNL d   1       3.510  -1.516  -0.697  0.00  0.00    -0.267 OA
ATOM     10  H   UNL d   1       0.960  -3.358  -0.559  0.00  0.00     0.169 HD
BRANCH   8  11
ATOM     11  C   UNL d   1       3.390  -3.861  -0.752  0.00  0.00     0.072 A 
ATOM     12  S   UNL d   1       2.422  -5.264  -0.939  0.00  0.00    -0.097 SA
ATOM     13  C   UNL d   1       3.791  -6.269  -1.139  0.00  0.00     0.050 A 
ATOM     14  C   UNL d   1       4.968  -5.561  -1.052  0.00  0.00     0.009 A 
ATOM     15  C   UNL d   1       4.736  -4.173  -0.834  0.00  0.00     0.025 A 
ENDBRANCH   8  11
ENDBRANCH   2   7
BRANCH   1  16
ATOM     16  C   UNL d   1       2.267  -0.095   1.332  0.00  0.00     0.251 C 
ATOM     17  O   UNL d   1       2.462  -0.999   2.135  0.00  0.00    -0.268 OA
ATOM     18  N   UNL d   1       3.066   1.016   1.307  0.00  0.00    -0.366 N 
ATOM     19  H   UNL d   1       3.125   1.559   0.455  0.00  0.00     0.159 HD
ATOM     20  H   UNL d   1       3.910   0.936   1.859  0.00  0.00     0.159 HD
ENDBRANCH   1  16
TORSDOF 3
