REMARK  7 active torsions:
REMARK  status: ('A' for Active; 'I' for Inactive)
REMARK    1  A    between atoms: O_5  and  C_1 
REMARK       I    between atoms: C_3  and  N_18 
REMARK       I    between atoms: N_13  and  C_3 
REMARK    2  A    between atoms: C_12  and  O_5 
REMARK    3  A    between atoms: O_19  and  C_8 
REMARK    4  A    between atoms: C_21  and  N_13 
REMARK    5  A    between atoms: N_18  and  C_26 
REMARK    6  A    between atoms: C_32  and  O_19 
REMARK    7  A    between atoms: O_34  and  C_22 
ROOT
ATOM      1  N   UNL d   1      10.854   5.568   1.966  0.00  0.00    -0.344 N 
ATOM      2  HN  UNL d   1      11.817   5.283   2.145  1.00  0.00     0.167 HD
ATOM      3  C   UNL d   1      10.114   6.199   2.906  0.00  0.00     0.149 A 
ATOM      4  C   UNL d   1       8.917   5.622   0.492  0.00  0.00     0.051 A 
ATOM      5  C   UNL d   1      10.251   5.333   0.776  0.00  0.00     0.119 A 
ATOM      6  C   UNL d   1       8.798   6.577   2.712  0.00  0.00     0.059 A 
ATOM      7  C   UNL d   1       8.200   6.290   1.484  0.00  0.00     0.035 A 
ENDROOT
BRANCH   4   8
ATOM      8  N   UNL d   1       8.355   5.160  -0.727  0.00  0.00    -0.307 N 
ATOM      9  C   UNL d   1       7.006   5.157  -1.036  0.00  0.00     0.325 C 
ATOM     10  N   UNL d   1       6.730   4.408  -2.166  0.00  0.00    -0.309 N 
ATOM     11  O   UNL d   1       6.148   5.716  -0.360  0.00  0.00    -0.247 OA
ATOM     12  H   UNL d   1       7.493   4.219  -2.798  0.00  0.00     0.170 HD
ATOM     13  H   UNL d   1       8.966   4.633  -1.333  0.00  0.00     0.170 HD
BRANCH  10  14
ATOM     14  C   UNL d   1       5.443   3.985  -2.586  0.00  0.00     0.039 A 
ATOM     15  C   UNL d   1       4.295   4.102  -1.790  0.00  0.00     0.069 A 
ATOM     16  C   UNL d   1       3.043   3.624  -2.206  0.00  0.00     0.104 A 
ATOM     17  C   UNL d   1       2.933   3.027  -3.470  0.00  0.00     0.101 A 
ATOM     18  C   UNL d   1       4.078   2.924  -4.276  0.00  0.00     0.042 A 
ATOM     19  C   UNL d   1       5.322   3.387  -3.839  0.00  0.00     0.032 A 
BRANCH  16  20
ATOM     20  O   UNL d   1       1.919   3.768  -1.437  0.00  0.00    -0.343 OA
BRANCH  20  21
ATOM     21  C   UNL d   1       2.047   3.832  -0.015  0.00  0.00     0.129 C 
ATOM     22  C   UNL d   1       2.587   2.537   0.596  0.00  0.00     0.032 C 
ATOM     23  C   UNL d   1       1.851   2.333   1.917  0.00  0.00     0.002 C 
ATOM     24  C   UNL d   1       0.781   3.413   1.994  0.00  0.00     0.002 C 
ATOM     25  C   UNL d   1       0.644   3.947   0.580  0.00  0.00     0.032 C 
ENDBRANCH  20  21
ENDBRANCH  16  20
BRANCH  17  26
ATOM     26  O   UNL d   1       1.823   2.493  -4.070  0.00  0.00    -0.353 OA
ATOM     27  C   UNL d   1       0.642   2.336  -3.297  0.00  0.00     0.210 C 
ENDBRANCH  17  26
ENDBRANCH  10  14
ENDBRANCH   4   8
BRANCH   3  28
ATOM     28  O   UNL d   1      10.613   6.361   4.190  0.00  0.00    -0.276 OA
BRANCH  28  29
ATOM     29  C   UNL d   1      11.969   6.620   4.306  0.00  0.00     0.163 A 
ATOM     30  C   UNL d   1      12.624   6.151   5.452  0.00  0.00     0.042 A 
ATOM     31  C   UNL d   1      13.966   6.534   5.544  0.00  0.00     0.049 A 
ATOM     32  C   UNL d   1      12.043   5.364   6.476  0.00  0.00     0.020 A 
ATOM     33  C   UNL d   1      14.694   6.156   6.664  0.00  0.00     0.054 A 
ATOM     34  N   UNL d   1      14.580   7.261   4.603  0.00  0.00    -0.351 N 
ATOM     35  C   UNL d   1      14.117   5.401   7.683  0.00  0.00     0.036 A 
ATOM     36  C   UNL d   1      12.793   4.991   7.593  0.00  0.00     0.025 A 
ATOM     37 CL   UNL d   1      15.050   4.984   9.068  0.00  0.00    -0.084 Cl
ATOM     38  C   UNL d   1      13.839   7.653   3.558  0.00  0.00     0.182 A 
ATOM     39  HN  UNL d   1      15.568   7.505   4.678  1.00  0.00     0.166 HD
ATOM     40  N   UNL d   1      12.543   7.413   3.378  0.00  0.00    -0.332 N 
ATOM     41  HN  UNL d   1      12.020   7.801   2.594  1.00  0.00     0.168 HD
ENDBRANCH  28  29
ENDBRANCH   3  28
TORSDOF 7
