REMARK  2 active torsions:
REMARK  status: ('A' for Active; 'I' for Inactive)
REMARK    1  A    between atoms: N_9  and  C_3 
REMARK    2  A    between atoms: C_10  and  C_5 
ROOT
ATOM      1  N   UNL d   1      -1.650   1.317   0.002  0.00  0.00    -0.330 N 
ATOM      2  HN  UNL d   1      -2.205   2.173  -0.006  1.00  0.00     0.168 HD
ATOM      3  C   UNL d   1      -0.306   1.368  -0.143  0.00  0.00     0.107 A 
ATOM      4  C   UNL d   1       0.456   0.191  -0.137  0.00  0.00     0.094 A 
ATOM      5  C   UNL d   1      -2.246   0.116   0.157  0.00  0.00     0.134 A 
ATOM      6  N   UNL d   1      -1.574  -1.053   0.203  0.00  0.00    -0.343 N 
ATOM      7  HN  UNL d   1      -2.058  -1.938   0.350  1.00  0.00     0.167 HD
ATOM      8  C   UNL d   1      -0.232  -1.003   0.048  0.00  0.00     0.032 A 
ATOM      9 CL   UNL d   1       2.162   0.174  -0.446  0.00  0.00    -0.079 Cl
ATOM     10  C   UNL d   1       0.463  -2.334   0.057  0.00  0.00     0.070 C 
ENDROOT
BRANCH   5  11
ATOM     11  C   UNL d   1      -3.732   0.051   0.226  0.00  0.00     0.076 A 
ATOM     12  N   UNL d   1      -4.424   1.224   0.166  0.00  0.00    -0.363 N 
ATOM     13  C   UNL d   1      -5.775   1.167   0.193  0.00  0.00     0.088 A 
ATOM     14  HN  UNL d   1      -3.937   2.118   0.103  1.00  0.00     0.165 HD
ATOM     15  C   UNL d   1      -6.498  -0.006   0.286  0.00  0.00     0.017 A 
ATOM     16  C   UNL d   1      -5.798  -1.201   0.355  0.00  0.00     0.004 A 
ATOM     17  C   UNL d   1      -4.407  -1.174   0.324  0.00  0.00     0.033 A 
ENDBRANCH   5  11
BRANCH   3  18
ATOM     18  N   UNL d   1       0.283   2.627  -0.396  0.00  0.00    -0.276 NA
ATOM     19  C   UNL d   1      -0.674   3.647  -0.836  0.00  0.00     0.118 C 
ATOM     20  C   UNL d   1       1.204   3.100   0.639  0.00  0.00     0.118 C 
ENDBRANCH   3  18
TORSDOF 2
