REMARK  3 active torsions:
REMARK  status: ('A' for Active; 'I' for Inactive)
REMARK    1  A    between atoms: C_4  and  C_3 
REMARK    2  A    between atoms: C_15  and  C_5 
REMARK    3  A    between atoms: C_12  and  C_16 
ROOT
ATOM      1  N   UNL d   1       0.584   0.229  -0.948  0.00  0.00    -0.317 N 
ATOM      2  HN  UNL d   1       1.189   0.414  -1.748  1.00  0.00     0.169 HD
ATOM      3  C   UNL d   1      -0.005  -0.901  -0.609  0.00  0.00     0.200 A 
ATOM      4  C   UNL d   1       0.181   1.099   0.043  0.00  0.00     0.138 A 
ATOM      5  N   UNL d   1      -0.592   0.530   0.981  0.00  0.00    -0.242 N 
ATOM      6  HN  UNL d   1      -0.991   0.962   1.814  1.00  0.00     0.196 HD
ATOM      7  O   UNL d   1      -0.722  -0.786   0.550  0.00  0.00    -0.215 OA
ENDROOT
BRANCH   4   8
ATOM      8  C   UNL d   1       0.527   2.517   0.029  0.00  0.00     0.010 A 
ATOM      9  C   UNL d   1       1.308   3.048  -1.008  0.00  0.00     0.016 A 
ATOM     10  C   UNL d   1       1.599   4.417  -1.056  0.00  0.00     0.017 A 
ATOM     11  C   UNL d   1       1.117   5.283  -0.064  0.00  0.00     0.048 A 
ATOM     12  C   UNL d   1       0.351   4.750   0.982  0.00  0.00     0.017 A 
ATOM     13  C   UNL d   1       0.061   3.382   1.029  0.00  0.00     0.016 A 
BRANCH  11  14
ATOM     14  C   UNL d   1       1.393   6.767  -0.114  0.00  0.00     0.417 C 
ATOM     15  F   UNL d   1       2.155   7.144  -1.178  0.00  0.00    -0.166 F 
ATOM     16  F   UNL d   1       0.252   7.505  -0.193  0.00  0.00    -0.166 F 
ATOM     17  F   UNL d   1       2.050   7.211   0.993  0.00  0.00    -0.166 F 
ENDBRANCH  11  14
ENDBRANCH   4   8
BRANCH   3  18
ATOM     18  C   UNL d   1       0.068  -2.160  -1.400  0.00  0.00     0.106 A 
ATOM     19  N   UNL d   1      -0.640  -3.293  -1.029  0.00  0.00    -0.288 N 
ATOM     20  N   UNL d   1      -0.454  -4.286  -1.884  0.00  0.00    -0.061 NA
ATOM     21  HN  UNL d   1      -1.231  -3.354  -0.200  1.00  0.00     0.183 HD
ATOM     22  S   UNL d   1       0.582  -3.882  -3.135  0.00  0.00    -0.010 SA
ATOM     23  C   UNL d   1       0.823  -2.287  -2.551  0.00  0.00     0.100 A 
ENDBRANCH   3  18
TORSDOF 3
