REMARK  4 active torsions:
REMARK  status: ('A' for Active; 'I' for Inactive)
REMARK    1  A    between atoms: S_17  and  C_10 
REMARK    2  A    between atoms: N_13  and  C_18 
REMARK    3  A    between atoms: C_27  and  S_17 
REMARK    4  A    between atoms: C_28  and  C_27 
ROOT
ATOM      1  C   UNL d   1       2.546   0.094  -0.251  0.00  0.00     0.079 A 
ATOM      2  C   UNL d   1       3.963   0.097   0.019  0.00  0.00     0.143 A 
ATOM      3  N   UNL d   1       4.625   0.641   1.099  0.00  0.00    -0.315 N 
ATOM      4  C   UNL d   1       1.784  -0.914  -0.831  0.00  0.00     0.060 A 
ATOM      5  S   UNL d   1       1.601   1.484   0.047  0.00  0.00    -0.065 SA
ATOM      6  C   UNL d   1       0.396  -0.536  -1.051  0.00  0.00     0.031 A 
ATOM      7  C   UNL d   1       0.193   0.744  -0.536  0.00  0.00     0.088 A 
ATOM      8  N   UNL d   1       4.862  -0.422  -0.800  0.00  0.00    -0.282 N 
ATOM      9  HN  UNL d   1       4.660  -0.956  -1.646  1.00  0.00     0.188 HD
ATOM     10  C   UNL d   1       5.960   0.539   0.802  0.00  0.00     0.162 A 
ATOM     11  N   UNL d   1       6.116  -0.121  -0.320  0.00  0.00    -0.278 N 
ATOM     12  HN  UNL d   1       7.004  -0.366  -0.757  1.00  0.00     0.189 HD
ATOM     13  N   UNL d   1      -0.956   1.445  -0.484  0.00  0.00    -0.354 N 
ATOM     14  HN  UNL d   1      -1.014   2.371  -0.059  1.00  0.00     0.166 HD
ATOM     15  C   UNL d   1      -0.748  -1.147  -1.647  0.00  0.00    -0.045 A 
ATOM     16  C   UNL d   1      -1.958  -0.417  -1.618  0.00  0.00     0.032 A 
ATOM     17  C   UNL d   1      -2.016   0.838  -1.032  0.00  0.00     0.006 A 
ATOM     18  N   UNL d   1       2.321  -2.121  -1.131  0.00  0.00    -0.397 N 
ATOM     19  C   UNL d   1       4.056   1.178   2.309  0.00  0.00     0.160 C 
ATOM     20  C   UNL d   1      -0.810  -2.484  -2.338  0.00  0.00     0.049 C 
ATOM     21  C   UNL d   1      -3.311   1.596  -1.015  0.00  0.00     0.068 C 
ATOM     22  H   UNL d   1       3.325  -2.285  -1.047  0.00  0.00     0.156 HD
ATOM     23  H   UNL d   1       1.833  -2.880  -1.584  0.00  0.00     0.156 HD
ENDROOT
BRANCH  10  24
ATOM     24  S   UNL d   1       7.225   1.193   1.789  0.00  0.00    -0.088 SA
BRANCH  24  25
ATOM     25  C   UNL d   1       8.531   1.455   0.544  0.00  0.00     0.121 C 
BRANCH  25  26
ATOM     26  C   UNL d   1       9.804   1.990   1.169  0.00  0.00    -0.048 A 
ATOM     27  C   UNL d   1      10.843   1.117   1.533  0.00  0.00     0.010 A 
ATOM     28  C   UNL d   1      12.013   1.601   2.128  0.00  0.00     0.036 A 
ATOM     29  C   UNL d   1      12.148   2.976   2.363  0.00  0.00     0.102 A 
ATOM     30  C   UNL d   1      11.127   3.861   2.005  0.00  0.00     0.036 A 
ATOM     31  C   UNL d   1       9.961   3.365   1.411  0.00  0.00     0.010 A 
BRANCH  29  32
ATOM     32  N   UNL d   1      13.371   3.488   3.004  0.00  0.00    -0.116 N 
ATOM     33  O   UNL d   1      14.246   2.671   3.310  0.00  0.00    -0.532 OA
ATOM     34  O   UNL d   1      13.450   4.711   3.196  0.00  0.00    -0.532 OA
ENDBRANCH  29  32
ENDBRANCH  25  26
ENDBRANCH  24  25
ENDBRANCH  10  24
TORSDOF 4
