REMARK  6 active torsions:
REMARK  status: ('A' for Active; 'I' for Inactive)
REMARK    1  A    between atoms: C_2  and  C_1 
REMARK    2  A    between atoms: C_3  and  C_1 
REMARK    3  A    between atoms: C_4  and  C_1 
REMARK    4  A    between atoms: O_10  and  C_1 
REMARK    5  A    between atoms: O_5  and  C_2 
REMARK    6  A    between atoms: C_11  and  O_5 
ROOT
ATOM      1  C   UNL d   1       0.899  -0.019   0.047  0.00  0.00     0.134 C 
ENDROOT
BRANCH   1   2
ATOM      2  C   UNL d   1       0.523  -1.414   0.669  0.00  0.00     0.223 C 
BRANCH   2   3
ATOM      3  O   UNL d   1      -0.850  -1.505   1.053  0.00  0.00    -0.347 OA
BRANCH   3   4
ATOM      4  C   UNL d   1      -1.282  -2.674   1.604  0.00  0.00     0.069 A 
ATOM      5  C   UNL d   1      -2.458  -2.561   2.355  0.00  0.00     0.040 A 
ATOM      6  C   UNL d   1      -3.031  -3.687   2.945  0.00  0.00     0.045 A 
ATOM      7  C   UNL d   1      -2.430  -4.925   2.769  0.00  0.00     0.116 A 
ATOM      8  C   UNL d   1      -1.267  -5.054   2.017  0.00  0.00     0.045 A 
ATOM      9  F   UNL d   1      -2.981  -6.011   3.325  0.00  0.00    -0.206 F 
ATOM     10  C   UNL d   1      -0.688  -3.925   1.432  0.00  0.00     0.040 A 
ENDBRANCH   3   4
ENDBRANCH   2   3
ENDBRANCH   1   2
BRANCH   1  11
ATOM     11  C   UNL d   1       0.544   1.157   0.981  0.00  0.00    -0.017 A 
ATOM     12  C   UNL d   1       1.526   2.023   1.502  0.00  0.00     0.012 A 
ATOM     13  C   UNL d   1       1.192   3.043   2.402  0.00  0.00     0.024 A 
ATOM     14  C   UNL d   1      -0.132   3.230   2.783  0.00  0.00     0.034 A 
ATOM     15  C   UNL d   1      -1.129   2.422   2.249  0.00  0.00     0.024 A 
ATOM     16 CL   UNL d   1      -0.537   4.460   3.913  0.00  0.00    -0.084 Cl
ATOM     17  C   UNL d   1      -0.793   1.407   1.347  0.00  0.00     0.012 A 
ENDBRANCH   1  11
BRANCH   1  18
ATOM     18  C   UNL d   1       0.357   0.185  -1.381  0.00  0.00    -0.017 A 
ATOM     19  C   UNL d   1      -0.855  -0.382  -1.821  0.00  0.00     0.012 A 
ATOM     20  C   UNL d   1      -1.298  -0.219  -3.138  0.00  0.00     0.024 A 
ATOM     21  C   UNL d   1      -0.543   0.522  -4.039  0.00  0.00     0.034 A 
ATOM     22  C   UNL d   1       0.643   1.119  -3.628  0.00  0.00     0.024 A 
ATOM     23 CL   UNL d   1      -1.078   0.697  -5.664  0.00  0.00    -0.084 Cl
ATOM     24  C   UNL d   1       1.083   0.959  -2.310  0.00  0.00     0.012 A 
ENDBRANCH   1  18
BRANCH   1  25
ATOM     25  O   UNL d   1       2.342  -0.088  -0.096  0.00  0.00    -0.378 OA
ATOM     26  H   UNL d   1       2.712  -0.231   0.791  0.00  0.00     0.211 HD
ENDBRANCH   1  25
TORSDOF 6
