REMARK  4 active torsions:
REMARK  status: ('A' for Active; 'I' for Inactive)
REMARK    1  A    between atoms: C_6  and  C_1 
REMARK    2  A    between atoms: N_11  and  C_3 
REMARK    3  A    between atoms: N_5  and  C_4 
REMARK    4  A    between atoms: C_12  and  N_11 
ROOT
ATOM      1  C   UNL d   1       3.708   5.672   0.894  0.00  0.00     0.139 C 
ATOM      2  C   UNL d   1       3.175   6.973   1.104  0.00  0.00     0.112 C 
ATOM      3  C   UNL d   1       5.078   5.441   1.153  0.00  0.00     0.112 C 
ATOM      4  N   UNL d   1       2.712   8.030   1.251  0.00  0.00    -0.191 NA
ATOM      5  N   UNL d   1       6.202   5.234   1.359  0.00  0.00    -0.191 NA
ATOM      6  C   UNL d   1       2.936   4.661   0.455  0.00  0.00     0.122 C 
ENDROOT
BRANCH   6   7
ATOM      7  N   UNL d   1       1.595   4.671   0.159  0.00  0.00    -0.362 N 
ATOM      8  H   UNL d   1       1.090   5.530   0.300  0.00  0.00     0.165 HD
BRANCH   7   9
ATOM      9  C   UNL d   1       0.815   3.641  -0.410  0.00  0.00     0.059 A 
ATOM     10  C   UNL d   1       1.080   2.312  -0.024  0.00  0.00     0.048 A 
ATOM     11  C   UNL d   1       0.427   1.222  -0.603  0.00  0.00     0.050 A 
ATOM     12  C   UNL d   1      -0.525   1.475  -1.590  0.00  0.00     0.018 A 
ATOM     13  C   UNL d   1      -0.782   2.789  -2.007  0.00  0.00     0.032 A 
ATOM     14  C   UNL d   1      -0.123   3.908  -1.452  0.00  0.00     0.057 A 
BRANCH  11  15
ATOM     15  C   UNL d   1       0.764  -0.183  -0.174  0.00  0.00     0.417 C 
ATOM     16  F   UNL d   1       1.745  -0.240   0.773  0.00  0.00    -0.166 F 
ATOM     17  F   UNL d   1       1.207  -0.951  -1.208  0.00  0.00    -0.166 F 
ATOM     18  F   UNL d   1      -0.301  -0.842   0.356  0.00  0.00    -0.166 F 
ENDBRANCH  11  15
BRANCH  14  19
ATOM     19  N   UNL d   1      -0.310   5.171  -1.997  0.00  0.00    -0.379 N 
ATOM     20  C   UNL d   1      -0.696   5.367  -3.393  0.00  0.00     0.123 C 
ATOM     21  C   UNL d   1      -0.364   6.838  -3.598  0.00  0.00     0.021 C 
ATOM     22  C   UNL d   1      -0.815   7.473  -2.291  0.00  0.00     0.021 C 
ATOM     23  C   UNL d   1      -0.654   6.373  -1.236  0.00  0.00     0.123 C 
ENDBRANCH  14  19
ENDBRANCH   7   9
ENDBRANCH   6   7
TORSDOF 4
