REMARK  10 active torsions:
REMARK  status: ('A' for Active; 'I' for Inactive)
REMARK    1  A    between atoms: C_2  and  S_1 
REMARK    2  A    between atoms: C_5  and  S_1 
REMARK    3  A    between atoms: C_6  and  C_2 
REMARK    4  A    between atoms: C_7  and  C_5 
REMARK    5  A    between atoms: O_20  and  C_6 
REMARK    6  A    between atoms: C_22  and  C_6 
REMARK    7  A    between atoms: O_21  and  C_8 
REMARK    8  A    between atoms: O_9  and  C_22 
REMARK    9  A    between atoms: C_23  and  O_9 
REMARK   10  A    between atoms: C_10  and  C_23 
ROOT
ATOM      1  C   UNL d   1       1.098  -0.237  -2.733  0.00  0.00     0.155 C 
ENDROOT
BRANCH   1   2
ATOM      2  C   UNL d   1       0.535  -0.783  -1.413  0.00  0.00     0.174 C 
BRANCH   2   3
ATOM      3  S   UNL d   1       0.909  -2.521  -1.180  0.00  0.00     0.150 S 
ATOM      4  O   UNL d   1       2.347  -2.634  -1.151  0.00  0.00    -0.228 OA
ATOM      5  O   UNL d   1       0.131  -3.269  -2.150  0.00  0.00    -0.228 OA
BRANCH   3   6
ATOM      6  C   UNL d   1       0.249  -2.901   0.440  0.00  0.00     0.178 C 
BRANCH   6   7
ATOM      7  C   UNL d   1       0.468  -4.363   0.762  0.00  0.00    -0.044 A 
ATOM      8  C   UNL d   1       1.594  -4.793   1.478  0.00  0.00     0.008 A 
ATOM      9  C   UNL d   1       1.745  -6.141   1.833  0.00  0.00     0.007 A 
ATOM     10  C   UNL d   1       0.792  -7.093   1.452  0.00  0.00    -0.062 A 
ATOM     11  C   UNL d   1      -0.313  -6.675   0.708  0.00  0.00     0.007 A 
ATOM     12  C   UNL d   1       0.964  -8.531   1.850  0.00  0.00     0.048 C 
ATOM     13  C   UNL d   1      -0.474  -5.326   0.369  0.00  0.00     0.008 A 
ENDBRANCH   6   7
ENDBRANCH   3   6
ENDBRANCH   2   3
ENDBRANCH   1   2
BRANCH   1  14
ATOM     14  O   UNL d   1       2.519  -0.270  -2.795  0.00  0.00    -0.393 OA
ATOM     15  H   UNL d   1       2.807  -1.197  -2.909  0.00  0.00     0.210 HD
ENDBRANCH   1  14
BRANCH   1  16
ATOM     16  C   UNL d   1       0.469  -0.875  -3.982  0.00  0.00     0.200 C 
BRANCH  16  17
ATOM     17  O   UNL d   1      -0.953  -0.782  -3.965  0.00  0.00    -0.384 OA
BRANCH  17  18
ATOM     18  C   UNL d   1      -1.425   0.558  -4.086  0.00  0.00     0.206 C 
BRANCH  18  19
ATOM     19  C   UNL d   1      -2.927   0.624  -4.070  0.00  0.00    -0.034 A 
ATOM     20  C   UNL d   1      -3.726  -0.515  -3.933  0.00  0.00     0.012 A 
ATOM     21  C   UNL d   1      -5.117  -0.406  -3.912  0.00  0.00     0.037 A 
ATOM     22  C   UNL d   1      -5.727   0.844  -4.022  0.00  0.00     0.068 A 
ATOM     23  C   UNL d   1      -4.932   1.984  -4.151  0.00  0.00     0.037 A 
ATOM     24  C   UNL d   1      -3.543   1.879  -4.174  0.00  0.00     0.012 A 
BRANCH  22  25
ATOM     25  O   UNL d   1      -7.073   1.083  -4.011  0.00  0.00    -0.356 OA
ATOM     26  C   UNL d   1      -7.913  -0.059  -3.900  0.00  0.00     0.210 C 
ENDBRANCH  22  25
ENDBRANCH  18  19
ENDBRANCH  17  18
ENDBRANCH  16  17
ENDBRANCH   1  16
TORSDOF 10
