REMARK  3 active torsions:
REMARK  status: ('A' for Active; 'I' for Inactive)
REMARK    1  A    between atoms: N_2  and  C_1 
REMARK    2  A    between atoms: C_9  and  C_5 
REMARK    3  A    between atoms: N_12  and  N_10 
ROOT
ATOM      1  C   UNL d   1       0.127   1.171  -0.039  0.00  0.00     0.144 A 
ATOM      2  S   UNL d   1      -0.991  -0.111  -0.030  0.00  0.00    -0.065 SA
ATOM      3  C   UNL d   1       1.435   0.739  -0.046  0.00  0.00     0.045 A 
ATOM      4  C   UNL d   1       0.262  -1.277  -0.010  0.00  0.00     0.023 A 
ATOM      5  C   UNL d   1       1.511  -0.685  -0.039  0.00  0.00     0.023 A 
ENDROOT
BRANCH   4   6
ATOM      6  C   UNL d   1      -0.065  -2.682   0.064  0.00  0.00     0.120 C 
ATOM      7  N   UNL d   1       0.884  -3.563   0.048  0.00  0.00    -0.332 N 
ATOM      8  HN  UNL d   1       1.863  -3.308  -0.083  1.00  0.00     0.179 HD
BRANCH   7   9
ATOM      9  N   UNL d   1       0.486  -4.846   0.215  0.00  0.00    -0.245 NA
ATOM     10  C   UNL d   1       1.501  -5.870   0.006  0.00  0.00     0.132 C 
ATOM     11  H   UNL d   1      -0.374  -5.095  -0.277  0.00  0.00     0.145 HD
ENDBRANCH   7   9
ENDBRANCH   4   6
BRANCH   1  12
ATOM     12  N   UNL d   1      -0.323   2.539  -0.030  0.00  0.00    -0.108 N 
ATOM     13  O   UNL d   1       0.561   3.407  -0.021  0.00  0.00    -0.531 OA
ATOM     14  O   UNL d   1      -1.541   2.757  -0.031  0.00  0.00    -0.531 OA
ENDBRANCH   1  12
TORSDOF 3
