REMARK  6 active torsions:
REMARK  status: ('A' for Active; 'I' for Inactive)
REMARK    1  A    between atoms: C_6  and  C_1 
REMARK    2  A    between atoms: N_17  and  C_2 
REMARK       I    between atoms: N_11  and  C_6 
REMARK    3  A    between atoms: C_10  and  N_12 
REMARK    4  A    between atoms: N_13  and  C_10 
REMARK    5  A    between atoms: N_12  and  N_11 
REMARK    6  A    between atoms: C_19  and  N_13 
ROOT
ATOM      1  C   UNL d   1       3.863  -0.047  -0.160  0.00  0.00     0.279 C 
ATOM      2  N   UNL d   1       4.380  -1.266  -0.556  0.00  0.00    -0.263 N 
ATOM      3  O   UNL d   1       4.606   0.919   0.045  0.00  0.00    -0.265 OA
ATOM      4  H   UNL d   1       3.770  -2.048  -0.777  0.00  0.00     0.190 HD
ENDROOT
BRANCH   1   5
ATOM      5  C   UNL d   1       2.415   0.011  -0.019  0.00  0.00     0.103 A 
ATOM      6  C   UNL d   1       1.672   0.896   0.744  0.00  0.00     0.062 A 
ATOM      7  C   UNL d   1       0.239   0.753   0.569  0.00  0.00     0.032 A 
ATOM      8  C   UNL d   1      -0.915   1.410   1.088  0.00  0.00    -0.045 A 
ATOM      9  C   UNL d   1      -0.005  -0.286  -0.331  0.00  0.00     0.088 A 
ATOM     10  C   UNL d   1      -2.169   0.963   0.627  0.00  0.00     0.032 A 
ATOM     11  C   UNL d   1      -0.946   2.551   2.071  0.00  0.00     0.049 C 
ATOM     12  C   UNL d   1      -2.265  -0.079  -0.282  0.00  0.00     0.006 A 
ATOM     13  N   UNL d   1      -1.199  -0.729  -0.775  0.00  0.00    -0.354 N 
ATOM     14  C   UNL d   1      -3.616  -0.519  -0.768  0.00  0.00     0.068 C 
ATOM     15  HN  UNL d   1      -1.286  -1.501  -1.435  1.00  0.00     0.166 HD
ATOM     16  S   UNL d   1       1.405  -1.043  -0.905  0.00  0.00    -0.064 SA
BRANCH   6  17
ATOM     17  N   UNL d   1       2.286   1.787   1.558  0.00  0.00    -0.397 N 
ATOM     18  H   UNL d   1       3.299   1.924   1.489  0.00  0.00     0.156 HD
ATOM     19  H   UNL d   1       1.825   2.581   1.977  0.00  0.00     0.156 HD
ENDBRANCH   6  17
ENDBRANCH   1   5
BRANCH   2  20
ATOM     20  N   UNL d   1       5.710  -1.356  -0.980  0.00  0.00    -0.273 N 
ATOM     21  H   UNL d   1       6.175  -0.466  -1.168  0.00  0.00     0.189 HD
BRANCH  20  22
ATOM     22  C   UNL d   1       6.505  -2.410  -0.627  0.00  0.00     0.191 C 
ATOM     23  S   UNL d   1       6.204  -3.458   0.644  0.00  0.00    -0.039 SA
BRANCH  22  24
ATOM     24  N   UNL d   1       7.621  -2.629  -1.392  0.00  0.00    -0.332 N 
ATOM     25  H   UNL d   1       8.258  -3.297  -0.970  0.00  0.00     0.168 HD
BRANCH  24  26
ATOM     26  C   UNL d   1       7.775  -2.475  -2.795  0.00  0.00     0.034 A 
ATOM     27  C   UNL d   1       6.822  -1.902  -3.642  0.00  0.00     0.029 A 
ATOM     28  C   UNL d   1       6.986  -1.932  -5.030  0.00  0.00     0.002 A 
ATOM     29  C   UNL d   1       8.105  -2.538  -5.590  0.00  0.00     0.000 A 
ATOM     30  C   UNL d   1       9.076  -3.090  -4.760  0.00  0.00     0.002 A 
ATOM     31  C   UNL d   1       8.916  -3.051  -3.371  0.00  0.00     0.029 A 
ENDBRANCH  24  26
ENDBRANCH  22  24
ENDBRANCH  20  22
ENDBRANCH   2  20
TORSDOF 6
