REMARK  3 active torsions:
REMARK  status: ('A' for Active; 'I' for Inactive)
REMARK    1  A    between atoms: N_2  and  S_1 
REMARK    2  A    between atoms: C_3  and  S_1 
REMARK    3  A    between atoms: C_10  and  C_5 
ROOT
ATOM      1  S   UNL d   1       2.216   0.637  -0.783  0.00  0.00     0.263 S 
ATOM      2  O   UNL d   1       1.677  -0.338  -1.698  0.00  0.00    -0.200 OA
ATOM      3  O   UNL d   1       3.222   0.202   0.175  0.00  0.00    -0.200 OA
ENDROOT
BRANCH   1   4
ATOM      4  N   UNL d   1       0.998   1.325   0.182  0.00  0.00    -0.297 N 
ATOM      5  C   UNL d   1      -0.421   1.392  -0.226  0.00  0.00     0.129 C 
ATOM      6  C   UNL d   1      -0.513   2.758  -0.890  0.00  0.00     0.032 C 
ATOM      7  C   UNL d   1       0.427   3.622  -0.034  0.00  0.00     0.023 C 
ATOM      8  C   UNL d   1       1.265   2.641   0.801  0.00  0.00     0.136 C 
BRANCH   5   9
ATOM      9  C   UNL d   1      -1.049   0.151  -0.801  0.00  0.00    -0.035 A 
ATOM     10  C   UNL d   1      -1.187  -0.976   0.040  0.00  0.00     0.012 A 
ATOM     11  C   UNL d   1      -1.769  -2.156  -0.422  0.00  0.00     0.043 A 
ATOM     12  C   UNL d   1      -2.213  -2.219  -1.734  0.00  0.00     0.116 A 
ATOM     13  C   UNL d   1      -2.087  -1.126  -2.584  0.00  0.00     0.043 A 
ATOM     14  F   UNL d   1      -2.771  -3.349  -2.188  0.00  0.00    -0.206 F 
ATOM     15  C   UNL d   1      -1.508   0.060  -2.121  0.00  0.00     0.012 A 
ENDBRANCH   5   9
ENDBRANCH   1   4
BRANCH   1  16
ATOM     16  C   UNL d   1       3.013   1.948  -1.713  0.00  0.00     0.107 A 
ATOM     17  C   UNL d   1       2.596   2.321  -2.997  0.00  0.00     0.066 A 
ATOM     18  N   UNL d   1       1.449   1.897  -3.584  0.00  0.00    -0.364 N 
ATOM     19  C   UNL d   1       3.439   3.227  -3.701  0.00  0.00    -0.008 A 
ATOM     20  C   UNL d   1       1.139   2.320  -4.834  0.00  0.00     0.088 A 
ATOM     21  HN  UNL d   1       0.823   1.264  -3.087  1.00  0.00     0.165 HD
ATOM     22  C   UNL d   1       1.920   3.183  -5.574  0.00  0.00     0.018 A 
ATOM     23  C   UNL d   1       3.088   3.639  -4.993  0.00  0.00     0.015 A 
ATOM     24  C   UNL d   1       4.628   3.714  -3.139  0.00  0.00     0.014 A 
ATOM     25  C   UNL d   1       5.010   3.339  -1.862  0.00  0.00     0.003 A 
ATOM     26  C   UNL d   1       4.208   2.457  -1.154  0.00  0.00     0.028 A 
ENDBRANCH   1  16
TORSDOF 3
