REMARK  3 active torsions:
REMARK  status: ('A' for Active; 'I' for Inactive)
REMARK    1  A    between atoms: C_11  and  C_3 
REMARK    2  A    between atoms: O_14  and  C_11 
REMARK    3  A    between atoms: C_16  and  O_14 
ROOT
ATOM      1  C   UNL d   1       0.287  -0.754  -0.044  0.00  0.00     0.148 A 
ATOM      2  N   UNL d   1       0.301   0.626  -0.041  0.00  0.00    -0.203 N 
ATOM      3  C   UNL d   1       1.596  -1.176  -0.040  0.00  0.00     0.102 A 
ATOM      4  N   UNL d   1       1.568   1.124  -0.048  0.00  0.00    -0.300 N 
ATOM      5  HN  UNL d   1       1.862   2.100  -0.055  1.00  0.00     0.186 HD
ATOM      6  C   UNL d   1      -0.852   1.430  -0.018  0.00  0.00     0.270 A 
ATOM      7  N   UNL d   1      -0.909  -1.391  -0.026  0.00  0.00    -0.344 N 
ATOM      8  C   UNL d   1      -2.126   0.659  -0.004  0.00  0.00     0.101 A 
ATOM      9  C   UNL d   1       2.336   0.029  -0.043  0.00  0.00     0.129 A 
ATOM     10  C   UNL d   1      -2.103  -0.688  -0.007  0.00  0.00     0.012 A 
ATOM     11  O   UNL d   1      -0.801   2.649  -0.008  0.00  0.00    -0.266 OA
ATOM     12  C   UNL d   1      -3.373  -1.492   0.008  0.00  0.00     0.068 C 
ATOM     13  H   UNL d   1      -0.962  -2.412  -0.011  0.00  0.00     0.167 HD
ENDROOT
BRANCH   3  14
ATOM     14  C   UNL d   1       2.063  -2.539   0.027  0.00  0.00     0.298 C 
ATOM     15  O   UNL d   1       1.311  -3.504   0.087  0.00  0.00    -0.259 OA
BRANCH  14  16
ATOM     16  O   UNL d   1       3.422  -2.604   0.117  0.00  0.00    -0.318 OA
BRANCH  16  17
ATOM     17  C   UNL d   1       3.942  -3.822   0.664  0.00  0.00     0.174 C 
ATOM     18  C   UNL d   1       3.981  -3.673   2.175  0.00  0.00     0.034 C 
ENDBRANCH  16  17
ENDBRANCH  14  16
ENDBRANCH   3  14
TORSDOF 3
