REMARK  4 active torsions:
REMARK  status: ('A' for Active; 'I' for Inactive)
REMARK    1  A    between atoms: N_2  and  C_1 
REMARK    2  A    between atoms: N_5  and  C_1 
REMARK    3  A    between atoms: C_3  and  N_2 
REMARK    4  A    between atoms: N_8  and  N_5 
ROOT
ATOM      1  N   UNL d   1       0.541   0.100  -1.035  0.00  0.00    -0.332 N 
ATOM      2  H   UNL d   1      -0.465  -0.025  -1.007  0.00  0.00     0.168 HD
ENDROOT
BRANCH   1   3
ATOM      3  C   UNL d   1       1.078   0.277   0.221  0.00  0.00     0.187 C 
ATOM      4  S   UNL d   1       2.492   1.065   0.637  0.00  0.00    -0.040 SA
BRANCH   3   5
ATOM      5  N   UNL d   1       0.296  -0.236   1.240  0.00  0.00    -0.296 N 
ATOM      6  H   UNL d   1       0.692  -0.160   2.175  0.00  0.00     0.183 HD
BRANCH   5   7
ATOM      7  N   UNL d   1      -0.688  -1.223   0.984  0.00  0.00    -0.238 NA
ATOM      8  C   UNL d   1      -0.077  -2.559   1.050  0.00  0.00     0.135 C 
ATOM      9  C   UNL d   1      -1.776  -1.123   1.960  0.00  0.00     0.135 C 
ENDBRANCH   5   7
ENDBRANCH   3   5
ENDBRANCH   1   3
BRANCH   1  10
ATOM     10  C   UNL d   1       1.175   0.125  -2.294  0.00  0.00     0.042 A 
ATOM     11  C   UNL d   1       0.483   0.581  -3.436  0.00  0.00    -0.013 A 
ATOM     12  C   UNL d   1       1.113   0.455  -4.693  0.00  0.00     0.042 A 
ATOM     13  C   UNL d   1      -0.872   1.235  -3.343  0.00  0.00     0.052 C 
ATOM     14 CL   UNL d   1       0.342   0.972  -6.155  0.00  0.00    -0.084 Cl
ATOM     15  C   UNL d   1       2.392  -0.097  -4.812  0.00  0.00     0.024 A 
ATOM     16  C   UNL d   1       3.066  -0.535  -3.680  0.00  0.00     0.004 A 
ATOM     17  C   UNL d   1       2.459  -0.425  -2.431  0.00  0.00     0.030 A 
ENDBRANCH   1  10
TORSDOF 4
