REMARK  6 active torsions:
REMARK  status: ('A' for Active; 'I' for Inactive)
REMARK    1  A    between atoms: C_4  and  C_1 
REMARK    2  A    between atoms: C_2  and  C_5 
REMARK    3  A    between atoms: C_3  and  C_7 
REMARK       I    between atoms: N_8  and  C_3 
REMARK    4  A    between atoms: S_13  and  C_6 
REMARK    5  A    between atoms: C_9  and  N_8 
REMARK    6  A    between atoms: C_23  and  S_13 
ROOT
ATOM      1  C   UNL d   1       1.995   5.099   0.474  0.00  0.00     0.256 C 
ATOM      2  N   UNL d   1       1.420   5.070  -0.784  0.00  0.00    -0.320 N 
ATOM      3  O   UNL d   1       1.663   5.987   1.255  0.00  0.00    -0.267 OA
ATOM      4  H   UNL d   1       0.559   5.606  -0.802  0.00  0.00     0.169 HD
ENDROOT
BRANCH   2   5
ATOM      5  C   UNL d   1       1.632   4.151  -1.827  0.00  0.00     0.069 A 
ATOM      6  C   UNL d   1       2.874   3.855  -2.421  0.00  0.00     0.101 A 
ATOM      7  N   UNL d   1       3.021   2.824  -3.292  0.00  0.00    -0.358 N 
ATOM      8  C   UNL d   1       1.928   2.087  -3.593  0.00  0.00     0.089 A 
ATOM      9  HN  UNL d   1       3.928   2.611  -3.706  1.00  0.00     0.166 HD
ATOM     10  C   UNL d   1       0.662   2.353  -3.107  0.00  0.00     0.019 A 
ATOM     11  C   UNL d   1       0.509   3.422  -2.234  0.00  0.00     0.034 A 
BRANCH   6  12
ATOM     12  S   UNL d   1       4.378   4.746  -2.063  0.00  0.00    -0.070 SA
BRANCH  12  13
ATOM     13  C   UNL d   1       4.399   6.023  -3.305  0.00  0.00     0.007 A 
ATOM     14  C   UNL d   1       4.508   7.359  -2.900  0.00  0.00     0.019 A 
ATOM     15  C   UNL d   1       4.601   8.386  -3.844  0.00  0.00     0.008 A 
ATOM     16  C   UNL d   1       4.594   8.093  -5.213  0.00  0.00    -0.062 A 
ATOM     17  C   UNL d   1       4.495   6.758  -5.619  0.00  0.00     0.008 A 
ATOM     18  C   UNL d   1       4.671   9.207  -6.217  0.00  0.00     0.048 C 
ATOM     19  C   UNL d   1       4.404   5.731  -4.672  0.00  0.00     0.019 A 
ENDBRANCH  12  13
ENDBRANCH   6  12
ENDBRANCH   2   5
BRANCH   1  20
ATOM     20  C   UNL d   1       2.952   4.059   0.947  0.00  0.00     0.034 A 
ATOM     21  C   UNL d   1       3.975   4.476   1.808  0.00  0.00     0.033 A 
ATOM     22  C   UNL d   1       4.971   3.580   2.230  0.00  0.00     0.049 A 
ATOM     23  C   UNL d   1       4.915   2.247   1.794  0.00  0.00     0.032 A 
ATOM     24  C   UNL d   1       3.857   1.793   0.990  0.00  0.00     0.049 A 
ATOM     25  C   UNL d   1       2.862   2.705   0.601  0.00  0.00     0.033 A 
BRANCH  22  26
ATOM     26  C   UNL d   1       6.078   4.068   3.133  0.00  0.00     0.417 C 
ATOM     27  F   UNL d   1       7.046   3.135   3.353  0.00  0.00    -0.166 F 
ATOM     28  F   UNL d   1       5.622   4.430   4.363  0.00  0.00    -0.166 F 
ATOM     29  F   UNL d   1       6.718   5.159   2.631  0.00  0.00    -0.166 F 
ENDBRANCH  22  26
BRANCH  24  30
ATOM     30  C   UNL d   1       3.778   0.357   0.528  0.00  0.00     0.417 C 
ATOM     31  F   UNL d   1       4.784  -0.424   1.008  0.00  0.00    -0.166 F 
ATOM     32  F   UNL d   1       2.619  -0.244   0.918  0.00  0.00    -0.166 F 
ATOM     33  F   UNL d   1       3.821   0.236  -0.825  0.00  0.00    -0.166 F 
ENDBRANCH  24  30
ENDBRANCH   1  20
TORSDOF 6
