REMARK  4 active torsions:
REMARK  status: ('A' for Active; 'I' for Inactive)
REMARK    1  A    between atoms: C_3  and  C_1 
REMARK    2  A    between atoms: C_15  and  N_2 
REMARK    3  A    between atoms: C_16  and  C_8 
REMARK    4  A    between atoms: N_19  and  C_11 
ROOT
ATOM      1  C   UNL d   1      -0.489  -2.738   0.051  0.00  0.00     0.054 A 
ATOM      2  C   UNL d   1      -1.058  -3.352  -1.060  0.00  0.00     0.060 A 
ATOM      3  N   UNL d   1      -1.183  -4.710  -1.132  0.00  0.00    -0.331 N 
ATOM      4  HN  UNL d   1      -1.592  -5.153  -1.955  1.00  0.00     0.168 HD
ATOM      5  C   UNL d   1      -0.759  -5.442  -0.102  0.00  0.00     0.155 A 
ATOM      6  C   UNL d   1      -0.183  -3.603   1.093  0.00  0.00     0.108 A 
ATOM      7  N   UNL d   1      -0.292  -4.942   1.034  0.00  0.00    -0.342 N 
ATOM      8  HN  UNL d   1      -0.029  -5.539   1.819  1.00  0.00     0.167 HD
ENDROOT
BRANCH   1   9
ATOM      9  C   UNL d   1      -0.246  -1.307   0.198  0.00  0.00     0.152 A 
ATOM     10  N   UNL d   1       0.898  -0.690   0.711  0.00  0.00    -0.224 N 
ATOM     11  N   UNL d   1       0.636   0.633   0.845  0.00  0.00     0.001 NA
ATOM     12  N   UNL d   1      -0.564   0.826   0.328  0.00  0.00    -0.007 NA
ATOM     13  N   UNL d   1      -1.129  -0.353  -0.052  0.00  0.00    -0.269 N 
ATOM     14  HN  UNL d   1      -2.058  -0.478  -0.453  1.00  0.00     0.185 HD
BRANCH  10  15
ATOM     15  C   UNL d   1       2.151  -1.223   1.112  0.00  0.00     0.056 A 
ATOM     16  C   UNL d   1       2.664  -2.403   0.559  0.00  0.00     0.032 A 
ATOM     17  C   UNL d   1       3.849  -2.951   1.059  0.00  0.00     0.009 A 
ATOM     18  C   UNL d   1       4.542  -2.323   2.099  0.00  0.00    -0.062 A 
ATOM     19  C   UNL d   1       4.056  -1.118   2.614  0.00  0.00     0.009 A 
ATOM     20  C   UNL d   1       5.806  -2.935   2.631  0.00  0.00     0.048 C 
ATOM     21  C   UNL d   1       2.873  -0.562   2.115  0.00  0.00     0.032 A 
ENDBRANCH  10  15
ENDBRANCH   1   9
BRANCH   2  22
ATOM     22  C   UNL d   1      -1.634  -2.650  -2.236  0.00  0.00    -0.008 A 
ATOM     23  C   UNL d   1      -1.028  -1.539  -2.846  0.00  0.00     0.014 A 
ATOM     24  C   UNL d   1      -1.658  -0.839  -3.883  0.00  0.00     0.001 A 
ATOM     25  C   UNL d   1      -2.888  -1.269  -4.370  0.00  0.00     0.000 A 
ATOM     26  C   UNL d   1      -3.483  -2.404  -3.831  0.00  0.00     0.001 A 
ATOM     27  C   UNL d   1      -2.862  -3.083  -2.778  0.00  0.00     0.014 A 
ENDBRANCH   2  22
BRANCH   5  28
ATOM     28  N   UNL d   1      -0.839  -6.813  -0.205  0.00  0.00    -0.274 NA
ATOM     29  H   UNL d   1      -0.864  -7.228   0.716  0.00  0.00     0.127 HD
ATOM     30  H   UNL d   1      -1.565  -7.077  -0.854  0.00  0.00     0.127 HD
ENDBRANCH   5  28
TORSDOF 4
