REMARK  1 active torsions:
REMARK  status: ('A' for Active; 'I' for Inactive)
REMARK    1  A    between atoms: C_8  and  C_3 
ROOT
ATOM      1  C   UNL d   1       1.336   0.820  -0.043  0.00  0.00     0.006 A 
ATOM      2  C   UNL d   1       0.735  -0.381  -0.044  0.00  0.00     0.057 A 
ATOM      3  C   UNL d   1       2.812   0.907  -0.005  0.00  0.00     0.013 A 
ATOM      4  C   UNL d   1       3.566  -0.221  -0.009  0.00  0.00     0.124 A 
ATOM      5  N   UNL d   1       1.500  -1.519  -0.031  0.00  0.00    -0.321 N 
ATOM      6  C   UNL d   1       2.873  -1.541  -0.023  0.00  0.00     0.267 A 
ATOM      7  C   UNL d   1      -0.738  -0.437  -0.047  0.00  0.00     0.025 A 
ATOM      8  C   UNL d   1       0.538   2.100  -0.083  0.00  0.00     0.217 A 
ATOM      9  C   UNL d   1       4.995  -0.223   0.015  0.00  0.00     0.106 C 
ATOM     10  O   UNL d   1      -0.885   1.998  -0.174  0.00  0.00    -0.346 OA
ATOM     11  N   UNL d   1       6.154  -0.168   0.039  0.00  0.00    -0.191 NA
ATOM     12  C   UNL d   1      -1.458   0.763  -0.097  0.00  0.00     0.081 A 
ATOM     13  O   UNL d   1       3.480  -2.607  -0.015  0.00  0.00    -0.266 OA
ATOM     14  C   UNL d   1      -1.472  -1.635   0.011  0.00  0.00     0.016 A 
ATOM     15  C   UNL d   1      -2.858   0.769  -0.080  0.00  0.00     0.038 A 
ATOM     16  C   UNL d   1      -2.873  -1.629   0.028  0.00  0.00     0.001 A 
ATOM     17  C   UNL d   1      -3.567  -0.425  -0.013  0.00  0.00     0.003 A 
ATOM     18  H   UNL d   1       1.069  -2.433  -0.040  0.00  0.00     0.169 HD
ENDROOT
BRANCH   3  19
ATOM     19  C   UNL d   1       3.508   2.221   0.051  0.00  0.00    -0.002 A 
ATOM     20  C   UNL d   1       3.929   2.908  -1.102  0.00  0.00     0.045 A 
ATOM     21 CL   UNL d   1       3.639   2.281  -2.687  0.00  0.00    -0.083 Cl
ATOM     22  C   UNL d   1       4.584   4.136  -0.991  0.00  0.00     0.024 A 
ATOM     23  C   UNL d   1       4.808   4.700   0.265  0.00  0.00     0.002 A 
ATOM     24  C   UNL d   1       4.377   4.038   1.413  0.00  0.00     0.001 A 
ATOM     25  C   UNL d   1       3.734   2.803   1.310  0.00  0.00     0.014 A 
ENDBRANCH   3  19
TORSDOF 1
