REMARK  0 active torsions:
REMARK  status: ('A' for Active; 'I' for Inactive)
ROOT
ATOM      1  C   UNL d   1       1.230  -1.385  -0.023  0.00  0.00     0.061 A 
ATOM      2  C   UNL d   1       2.422  -0.737   0.001  0.00  0.00     0.045 A 
ATOM      3  C   UNL d   1      -0.078  -0.669  -0.006  0.00  0.00    -0.007 A 
ATOM      4  C   UNL d   1       3.708  -1.463   0.002  0.00  0.00     0.097 C 
ATOM      5  N   UNL d   1       4.719  -2.031   0.003  0.00  0.00    -0.192 NA
ATOM      6  C   UNL d   1      -0.103   0.736  -0.005  0.00  0.00    -0.046 A 
ATOM      7  C   UNL d   1       2.479   0.783   0.045  0.00  0.00     0.056 A 
ATOM      8 CL   UNL d   1       1.206  -3.128  -0.061  0.00  0.00    -0.082 Cl
ATOM      9  C   UNL d   1       1.157   1.558  -0.049  0.00  0.00     0.045 A 
ATOM     10  C   UNL d   1      -1.313  -1.352   0.009  0.00  0.00     0.014 A 
ATOM     11  C   UNL d   1      -1.333   1.421   0.005  0.00  0.00     0.008 A 
ATOM     12  C   UNL d   1      -2.528  -0.662   0.019  0.00  0.00     0.001 A 
ATOM     13  C   UNL d   1      -2.538   0.726   0.017  0.00  0.00     0.001 A 
ENDROOT
TORSDOF 0
