REMARK  6 active torsions:
REMARK  status: ('A' for Active; 'I' for Inactive)
REMARK    1  A    between atoms: C_2  and  C_1 
REMARK    2  A    between atoms: C_3  and  C_2 
REMARK    3  A    between atoms: C_17  and  C_3 
REMARK    4  A    between atoms: O_13  and  N_8 
REMARK    5  A    between atoms: C_11  and  O_13 
REMARK    6  A    between atoms: C_12  and  C_11 
ROOT
ATOM      1  C   UNL d   1      -3.952   0.988  -0.037  0.00  0.00     0.116 C 
ATOM      2  N   UNL d   1      -4.355   0.079  -0.877  0.00  0.00    -0.253 N 
ATOM      3  HN  UNL d   1      -5.319  -0.255  -0.886  1.00  0.00     0.195 HD
ENDROOT
BRANCH   1   4
ATOM      4  C   UNL d   1      -2.534   1.523   0.071  0.00  0.00     0.212 C 
ATOM      5  O   UNL d   1      -2.436   2.713   0.381  0.00  0.00    -0.285 OA
BRANCH   4   6
ATOM      6  C   UNL d   1      -1.251   0.775  -0.142  0.00  0.00     0.029 A 
ATOM      7  C   UNL d   1      -0.204   1.478  -0.822  0.00  0.00    -0.041 A 
ATOM      8  C   UNL d   1       1.128   0.981  -0.796  0.00  0.00    -0.049 A 
ATOM      9  C   UNL d   1      -0.464   2.783  -1.552  0.00  0.00     0.050 C 
ATOM     10  C   UNL d   1       2.266   1.724  -1.468  0.00  0.00     0.049 C 
ATOM     11  C   UNL d   1       1.421  -0.215  -0.096  0.00  0.00    -0.049 A 
ATOM     12  C   UNL d   1       0.378  -0.935   0.542  0.00  0.00    -0.049 A 
ATOM     13  C   UNL d   1       2.861  -0.691  -0.044  0.00  0.00     0.049 C 
ATOM     14  C   UNL d   1      -0.974  -0.475   0.470  0.00  0.00    -0.041 A 
ATOM     15  C   UNL d   1       0.737  -2.182   1.330  0.00  0.00     0.049 C 
ATOM     16  C   UNL d   1      -2.041  -1.358   1.073  0.00  0.00     0.050 C 
ENDBRANCH   4   6
ENDBRANCH   1   4
BRANCH   1  17
ATOM     17  C   UNL d   1      -5.022   1.600   0.840  0.00  0.00    -0.004 A 
ATOM     18  C   UNL d   1      -6.366   1.468   0.447  0.00  0.00     0.014 A 
ATOM     19  C   UNL d   1      -7.388   2.097   1.162  0.00  0.00     0.001 A 
ATOM     20  C   UNL d   1      -7.081   2.860   2.284  0.00  0.00     0.000 A 
ATOM     21  C   UNL d   1      -5.758   2.971   2.706  0.00  0.00     0.001 A 
ATOM     22  C   UNL d   1      -4.734   2.334   1.997  0.00  0.00     0.014 A 
ENDBRANCH   1  17
BRANCH   2  23
ATOM     23  O   UNL d   1      -3.397  -0.413  -1.766  0.00  0.00    -0.194 OA
BRANCH  23  24
ATOM     24  C   UNL d   1      -3.811  -1.659  -2.174  0.00  0.00     0.315 C 
ATOM     25  O   UNL d   1      -4.545  -2.426  -1.572  0.00  0.00    -0.257 OA
BRANCH  24  26
ATOM     26  C   UNL d   1      -3.284  -1.972  -3.526  0.00  0.00     0.043 A 
ATOM     27  C   UNL d   1      -2.385  -1.132  -4.197  0.00  0.00     0.043 A 
ATOM     28  C   UNL d   1      -1.981  -1.441  -5.501  0.00  0.00     0.056 A 
ATOM     29 CL   UNL d   1      -0.886  -0.347  -6.270  0.00  0.00    -0.083 Cl
ATOM     30  C   UNL d   1      -2.467  -2.589  -6.140  0.00  0.00     0.055 A 
ATOM     31  C   UNL d   1      -3.355  -3.432  -5.469  0.00  0.00     0.026 A 
ATOM     32 CL   UNL d   1      -2.020  -3.010  -7.753  0.00  0.00    -0.083 Cl
ATOM     33  C   UNL d   1      -3.763  -3.124  -4.168  0.00  0.00     0.019 A 
ENDBRANCH  24  26
ENDBRANCH  23  24
ENDBRANCH   2  23
TORSDOF 6
