REMARK  5 active torsions:
REMARK  status: ('A' for Active; 'I' for Inactive)
REMARK    1  A    between atoms: C_6  and  N_2 
REMARK    2  A    between atoms: C_7  and  C_3 
REMARK    3  A    between atoms: C_9  and  C_3 
REMARK    4  A    between atoms: C_11  and  C_6 
REMARK    5  A    between atoms: C_12  and  C_7 
ROOT
ATOM      1  C   UNL d   1       1.986  -0.087   0.055  0.00  0.00     0.243 A 
ATOM      2  N   UNL d   1       1.131   1.018  -0.020  0.00  0.00    -0.312 N 
ATOM      3  C   UNL d   1       1.109  -1.390   0.012  0.00  0.00     0.101 A 
ATOM      4  C   UNL d   1      -0.293  -0.770  -0.034  0.00  0.00    -0.008 A 
ATOM      5  C   UNL d   1      -0.208   0.625  -0.038  0.00  0.00     0.045 A 
ATOM      6  O   UNL d   1       3.204  -0.018   0.157  0.00  0.00    -0.271 OA
ATOM      7  C   UNL d   1      -1.531  -1.402  -0.044  0.00  0.00     0.011 A 
ATOM      8  C   UNL d   1      -1.341   1.420  -0.047  0.00  0.00     0.030 A 
ATOM      9  C   UNL d   1      -2.682  -0.612  -0.048  0.00  0.00     0.001 A 
ATOM     10  C   UNL d   1      -2.589   0.788  -0.047  0.00  0.00     0.002 A 
ENDROOT
BRANCH   3  11
ATOM     11  C   UNL d   1       1.387  -2.113  -1.350  0.00  0.00     0.068 C 
BRANCH  11  12
ATOM     12  C   UNL d   1       2.786  -2.664  -1.580  0.00  0.00    -0.056 A 
ATOM     13  C   UNL d   1       3.142  -3.958  -1.180  0.00  0.00     0.007 A 
ATOM     14  C   UNL d   1       4.451  -4.424  -1.336  0.00  0.00     0.001 A 
ATOM     15  C   UNL d   1       5.415  -3.614  -1.923  0.00  0.00     0.000 A 
ATOM     16  C   UNL d   1       5.067  -2.342  -2.371  0.00  0.00     0.001 A 
ATOM     17  C   UNL d   1       3.762  -1.873  -2.204  0.00  0.00     0.007 A 
ENDBRANCH  11  12
ENDBRANCH   3  11
BRANCH   3  18
ATOM     18  C   UNL d   1       1.245  -2.249   1.284  0.00  0.00    -0.035 A 
ATOM     19  C   UNL d   1       1.606  -1.676   2.516  0.00  0.00     0.009 A 
ATOM     20  C   UNL d   1       1.701  -2.450   3.678  0.00  0.00     0.001 A 
ATOM     21  C   UNL d   1       1.437  -3.814   3.634  0.00  0.00     0.000 A 
ATOM     22  C   UNL d   1       1.043  -4.399   2.438  0.00  0.00     0.001 A 
ATOM     23  C   UNL d   1       0.920  -3.618   1.285  0.00  0.00     0.009 A 
ENDBRANCH   3  18
BRANCH   2  24
ATOM     24  C   UNL d   1       1.597   2.391  -0.007  0.00  0.00     0.170 C 
BRANCH  24  25
ATOM     25  C   UNL d   1       1.612   3.016   1.370  0.00  0.00    -0.040 A 
ATOM     26  C   UNL d   1       2.455   2.515   2.373  0.00  0.00     0.009 A 
ATOM     27  C   UNL d   1       2.471   3.088   3.646  0.00  0.00     0.001 A 
ATOM     28  C   UNL d   1       1.655   4.181   3.928  0.00  0.00     0.000 A 
ATOM     29  C   UNL d   1       0.830   4.706   2.935  0.00  0.00     0.001 A 
ATOM     30  C   UNL d   1       0.808   4.128   1.663  0.00  0.00     0.009 A 
ENDBRANCH  24  25
ENDBRANCH   2  24
TORSDOF 5
