REMARK  2 active torsions:
REMARK  status: ('A' for Active; 'I' for Inactive)
REMARK    1  A    between atoms: C_4  and  N_1 
REMARK    2  A    between atoms: C_2  and  C_6 
ROOT
ATOM      1  C   UNL d   1      -1.386  -2.239   0.506  0.00  0.00     0.038 A 
ATOM      2  C   UNL d   1      -3.030  -4.415   1.338  0.00  0.00     0.048 A 
ATOM      3  C   UNL d   1      -1.021  -3.063   1.579  0.00  0.00     0.030 A 
ATOM      4  C   UNL d   1      -2.596  -2.529  -0.139  0.00  0.00     0.030 A 
ATOM      5  C   UNL d   1      -1.829  -4.131   1.994  0.00  0.00     0.018 A 
ATOM      6  C   UNL d   1      -3.401  -3.607   0.259  0.00  0.00     0.018 A 
ENDROOT
BRANCH   1   7
ATOM      7  N   UNL d   1      -0.560  -1.147   0.078  0.00  0.00    -0.308 N 
ATOM      8  C   UNL d   1       0.793  -0.997   0.416  0.00  0.00     0.234 C 
ATOM      9  O   UNL d   1       1.478  -1.757   1.092  0.00  0.00    -0.272 OA
ATOM     10  C   UNL d   1       1.407   0.249  -0.185  0.00  0.00     0.178 C 
ATOM     11  S   UNL d   1       0.187   0.993  -1.270  0.00  0.00    -0.140 SA
ATOM     12  C   UNL d   1      -1.140  -0.036  -0.642  0.00  0.00     0.206 C 
ENDBRANCH   1   7
BRANCH   2  13
ATOM     13  C   UNL d   1      -3.912  -5.558   1.776  0.00  0.00     0.417 C 
ATOM     14  F   UNL d   1      -3.428  -6.242   2.850  0.00  0.00    -0.166 F 
ATOM     15  F   UNL d   1      -5.159  -5.141   2.131  0.00  0.00    -0.166 F 
ATOM     16  F   UNL d   1      -4.093  -6.484   0.793  0.00  0.00    -0.166 F 
ENDBRANCH   2  13
TORSDOF 2
