REMARK  3 active torsions:
REMARK  status: ('A' for Active; 'I' for Inactive)
REMARK       I    between atoms: N_2  and  C_1 
REMARK       I    between atoms: N_6  and  C_1 
REMARK    1  A    between atoms: C_4  and  N_2 
REMARK    2  A    between atoms: N_3  and  C_5 
REMARK    3  A    between atoms: C_9  and  N_6 
ROOT
ATOM      1  C   UNL d   1       0.277  -1.296   0.888  0.00  0.00     0.325 C 
ATOM      2  N   UNL d   1       0.485   0.056   1.160  0.00  0.00    -0.307 N 
ATOM      3  N   UNL d   1      -0.469  -1.476  -0.266  0.00  0.00    -0.309 N 
ATOM      4  O   UNL d   1       0.767  -2.202   1.553  0.00  0.00    -0.247 OA
ATOM      5  H   UNL d   1      -0.221   0.699   0.834  0.00  0.00     0.170 HD
ATOM      6  H   UNL d   1      -0.536  -0.670  -0.868  0.00  0.00     0.170 HD
ENDROOT
BRANCH   2   7
ATOM      7  C   UNL d   1       1.141   0.467   2.346  0.00  0.00     0.063 A 
ATOM      8  C   UNL d   1       2.209   1.396   2.322  0.00  0.00     0.057 A 
ATOM      9  C   UNL d   1       2.789   1.718   3.570  0.00  0.00     0.031 A 
ATOM     10  C   UNL d   1       2.279   1.242   4.772  0.00  0.00     0.002 A 
ATOM     11  C   UNL d   1       1.173   0.411   4.779  0.00  0.00     0.002 A 
ATOM     12  C   UNL d   1       0.616   0.007   3.569  0.00  0.00     0.032 A 
BRANCH   8  13
ATOM     13  N   UNL d   1       2.656   2.043   1.171  0.00  0.00    -0.379 N 
ATOM     14  C   UNL d   1       3.339   3.336   1.283  0.00  0.00     0.123 C 
ATOM     15  C   UNL d   1       2.842   4.233   0.157  0.00  0.00     0.020 C 
ATOM     16  C   UNL d   1       3.044   3.572  -1.204  0.00  0.00     0.003 C 
ATOM     17  C   UNL d   1       2.471   2.151  -1.239  0.00  0.00     0.020 C 
ATOM     18  C   UNL d   1       2.971   1.309  -0.059  0.00  0.00     0.123 C 
ENDBRANCH   8  13
ENDBRANCH   2   7
BRANCH   3  19
ATOM     19  C   UNL d   1      -0.832  -2.724  -0.831  0.00  0.00     0.038 A 
ATOM     20  C   UNL d   1      -0.812  -3.930  -0.126  0.00  0.00     0.054 A 
ATOM     21  C   UNL d   1      -1.129  -5.136  -0.765  0.00  0.00     0.042 A 
ATOM     22 CL   UNL d   1      -1.062  -6.591   0.168  0.00  0.00    -0.084 Cl
ATOM     23  C   UNL d   1      -1.484  -5.160  -2.122  0.00  0.00    -0.040 A 
ATOM     24  C   UNL d   1      -1.534  -3.943  -2.815  0.00  0.00     0.011 A 
ATOM     25  C   UNL d   1      -1.816  -6.439  -2.838  0.00  0.00     0.050 C 
ATOM     26  C   UNL d   1      -1.223  -2.739  -2.173  0.00  0.00     0.030 A 
ENDBRANCH   3  19
TORSDOF 3
