REMARK  10 active torsions:
REMARK  status: ('A' for Active; 'I' for Inactive)
REMARK    1  A    between atoms: C_6  and  C_1 
REMARK    2  A    between atoms: CA_3  and  C_8 
REMARK    3  A    between atoms: C_6  and  O_11 
REMARK    4  A    between atoms: C_6  and  C_7 
REMARK    5  A    between atoms: C_7  and  O_12 
REMARK    6  A    between atoms: C_9  and  C_7 
REMARK    7  A    between atoms: OXT_13  and  C_8 
REMARK    8  A    between atoms: C_18  and  C_9 
REMARK    9  A    between atoms: C_9  and  O_14 
REMARK   10  A    between atoms: O_17  and  C_18 
ROOT
ATOM      1  C   UNL d   1      -0.968   1.610   3.400  0.00  0.00     0.314 C 
ATOM      2  N   UNL d   1       0.280   2.364   3.688  0.00  0.00     0.116 N 
ATOM      3  CA  UNL d   1       1.225   1.392   4.341  0.00  0.00     0.336 C 
ATOM      4  S   UNL d   1      -1.143   0.338   4.704  0.00  0.00    -0.119 SA
ATOM      5  C   UNL d   1       0.484   0.671   5.478  0.00  0.00     0.044 C 
ATOM      6  C   UNL d   1       0.227   1.519   6.731  0.00  0.00     0.029 C 
ATOM      7  C   UNL d   1       1.136  -0.663   5.845  0.00  0.00     0.029 C 
ATOM      8  H   UNL d   1       0.018   3.049   4.405  0.00  0.00     0.318 HD
ENDROOT
BRANCH   1   9
ATOM      9  C   UNL d   1      -0.998   0.999   1.961  0.00  0.00     0.192 C 
BRANCH   9  10
ATOM     10  O   UNL d   1       0.040   0.023   1.790  0.00  0.00    -0.390 OA
ATOM     11  H   UNL d   1      -0.127  -0.680   2.449  0.00  0.00     0.210 HD
ENDBRANCH   9  10
BRANCH   9  12
ATOM     12  C   UNL d   1      -2.380   0.388   1.603  0.00  0.00     0.180 C 
BRANCH  12  13
ATOM     13  O   UNL d   1      -3.411   1.378   1.754  0.00  0.00    -0.390 OA
ATOM     14  H   UNL d   1      -3.171   2.121   1.171  0.00  0.00     0.210 HD
ENDBRANCH  12  13
BRANCH  12  15
ATOM     15  C   UNL d   1      -2.420  -0.161   0.159  0.00  0.00     0.173 C 
BRANCH  15  16
ATOM     16  C   UNL d   1      -3.694  -0.979  -0.120  0.00  0.00     0.198 C 
BRANCH  16  17
ATOM     17  O   UNL d   1      -3.828  -2.062   0.787  0.00  0.00    -0.398 OA
ATOM     18  H   UNL d   1      -4.736  -2.401   0.698  0.00  0.00     0.209 HD
ENDBRANCH  16  17
ENDBRANCH  15  16
BRANCH  15  19
ATOM     19  O   UNL d   1      -2.337   0.936  -0.763  0.00  0.00    -0.391 OA
ATOM     20  H   UNL d   1      -3.236   1.290  -0.887  0.00  0.00     0.210 HD
ENDBRANCH  15  19
ENDBRANCH  12  15
ENDBRANCH   9  12
ENDBRANCH   1   9
BRANCH   3  21
ATOM     21  C   UNL d   1       2.481   2.152   4.787  0.00  0.00     0.175 C 
ATOM     22  O   UNL d   1       3.248   1.810   5.671  0.00  0.00    -0.648 OA
BRANCH  21  23
ATOM     23  OXT UNL d   1       2.675   3.268   4.033  0.00  0.00    -0.775 OA
ATOM     24  HXT UNL d   1       1.944   3.309   3.370  0.00  0.00     0.167 HD
ENDBRANCH  21  23
ENDBRANCH   3  21
TORSDOF 10
