REMARK  7 active torsions:
REMARK  status: ('A' for Active; 'I' for Inactive)
REMARK    1  A    between atoms: C_9  and  C_1 
REMARK    2  A    between atoms: C_7  and  C_2 
REMARK    3  A    between atoms: C_13  and  C_8 
REMARK    4  A    between atoms: O_16  and  C_9 
REMARK    5  A    between atoms: O_15  and  C_13 
REMARK    6  A    between atoms: C_18  and  O_15 
REMARK    7  A    between atoms: C_19  and  O_16 
ROOT
ATOM      1  C   UNL d   1       1.439   2.353   0.001  0.00  0.00     0.047 A 
ATOM      2  C   UNL d   1       2.290   2.799  -1.012  0.00  0.00    -0.014 A 
ATOM      3  S   UNL d   1       1.342   3.509   1.283  0.00  0.00    -0.099 SA
ATOM      4  C   UNL d   1       2.407   4.584   0.509  0.00  0.00     0.051 A 
ATOM      5  C   UNL d   1       2.843   4.091  -0.694  0.00  0.00     0.018 A 
ENDROOT
BRANCH   1   6
ATOM      6  C   UNL d   1       0.660   1.137   0.121  0.00  0.00     0.093 A 
ATOM      7  S   UNL d   1      -0.073   0.363  -1.218  0.00  0.00    -0.063 SA
ATOM      8  C   UNL d   1      -0.831  -0.770  -0.181  0.00  0.00     0.104 A 
ATOM      9  C   UNL d   1      -0.476  -0.499   1.131  0.00  0.00     0.029 A 
ATOM     10  N   UNL d   1       0.378   0.587   1.285  0.00  0.00    -0.352 N 
ATOM     11  C   UNL d   1      -0.933  -1.195   2.366  0.00  0.00     0.070 C 
ATOM     12  HN  UNL d   1       0.739   0.914   2.181  1.00  0.00     0.166 HD
BRANCH   8  13
ATOM     13  C   UNL d   1      -1.735  -1.732  -0.762  0.00  0.00     0.302 C 
ATOM     14  O   UNL d   1      -1.996  -1.849  -1.956  0.00  0.00    -0.259 OA
BRANCH  13  15
ATOM     15  O   UNL d   1      -2.365  -2.433   0.221  0.00  0.00    -0.317 OA
BRANCH  15  16
ATOM     16  C   UNL d   1      -3.627  -3.003  -0.149  0.00  0.00     0.174 C 
ATOM     17  C   UNL d   1      -4.693  -1.940   0.051  0.00  0.00     0.034 C 
ENDBRANCH  15  16
ENDBRANCH  13  15
ENDBRANCH   8  13
ENDBRANCH   1   6
BRANCH   2  18
ATOM     18  C   UNL d   1       2.679   2.074  -2.274  0.00  0.00     0.215 C 
BRANCH  18  19
ATOM     19  O   UNL d   1       3.777   1.202  -2.012  0.00  0.00    -0.347 OA
BRANCH  19  20
ATOM     20  C   UNL d   1       4.248   0.451  -3.051  0.00  0.00     0.069 A 
ATOM     21  C   UNL d   1       3.707   0.387  -4.338  0.00  0.00     0.037 A 
ATOM     22  C   UNL d   1       4.290  -0.446  -5.299  0.00  0.00     0.003 A 
ATOM     23  C   UNL d   1       5.411  -1.210  -4.983  0.00  0.00     0.000 A 
ATOM     24  C   UNL d   1       5.958  -1.144  -3.703  0.00  0.00     0.003 A 
ATOM     25  C   UNL d   1       5.373  -0.316  -2.744  0.00  0.00     0.037 A 
ENDBRANCH  19  20
ENDBRANCH  18  19
ENDBRANCH   2  18
TORSDOF 7
