REMARK  3 active torsions:
REMARK  status: ('A' for Active; 'I' for Inactive)
REMARK    1  A    between atoms: S_14  and  C_9 
REMARK    2  A    between atoms: C_18  and  S_14 
REMARK    3  A    between atoms: C_20  and  C_18 
ROOT
ATOM      1  C   UNL d   1       1.152   1.032   0.005  0.00  0.00     0.068 A 
ATOM      2  C   UNL d   1      -1.303   0.820  -0.002  0.00  0.00     0.088 A 
ATOM      3  C   UNL d   1      -0.710  -0.436  -0.027  0.00  0.00     0.032 A 
ATOM      4  S   UNL d   1      -0.193   2.098   0.035  0.00  0.00    -0.066 SA
ATOM      5  C   UNL d   1       0.732  -0.297  -0.043  0.00  0.00     0.067 A 
ATOM      6  N   UNL d   1      -2.619   1.103   0.004  0.00  0.00    -0.354 N 
ATOM      7  HN  UNL d   1      -2.974   2.059   0.017  1.00  0.00     0.166 HD
ATOM      8  C   UNL d   1      -1.592  -1.553  -0.030  0.00  0.00    -0.045 A 
ATOM      9  C   UNL d   1       2.521   1.307   0.024  0.00  0.00     0.090 A 
ATOM     10  N   UNL d   1       3.398   0.287  -0.030  0.00  0.00    -0.346 N 
ATOM     11  HN  UNL d   1       4.404   0.456  -0.032  1.00  0.00     0.167 HD
ATOM     12  N   UNL d   1       1.624  -1.323  -0.089  0.00  0.00    -0.350 N 
ATOM     13  HN  UNL d   1       1.334  -2.300  -0.126  1.00  0.00     0.166 HD
ATOM     14  C   UNL d   1       2.907  -0.957  -0.081  0.00  0.00     0.181 A 
ATOM     15  C   UNL d   1      -2.973  -1.279  -0.021  0.00  0.00     0.032 A 
ATOM     16  C   UNL d   1      -3.430   0.033  -0.009  0.00  0.00     0.006 A 
ATOM     17  C   UNL d   1      -1.168  -2.997  -0.028  0.00  0.00     0.049 C 
ATOM     18  C   UNL d   1      -4.906   0.308  -0.003  0.00  0.00     0.068 C 
ENDROOT
BRANCH   9  19
ATOM     19  S   UNL d   1       3.113   2.963   0.212  0.00  0.00    -0.106 SA
BRANCH  19  20
ATOM     20  C   UNL d   1       4.633   2.901  -0.787  0.00  0.00     0.119 C 
BRANCH  20  21
ATOM     21  C   UNL d   1       5.245   4.282  -0.868  0.00  0.00    -0.048 A 
ATOM     22  C   UNL d   1       6.083   4.748   0.159  0.00  0.00     0.011 A 
ATOM     23  C   UNL d   1       6.585   6.050   0.127  0.00  0.00     0.043 A 
ATOM     24  C   UNL d   1       6.251   6.887  -0.929  0.00  0.00     0.116 A 
ATOM     25  C   UNL d   1       5.426   6.447  -1.958  0.00  0.00     0.043 A 
ATOM     26  F   UNL d   1       6.722   8.141  -0.952  0.00  0.00    -0.206 F 
ATOM     27  C   UNL d   1       4.921   5.146  -1.928  0.00  0.00     0.011 A 
ENDBRANCH  20  21
ENDBRANCH  19  20
ENDBRANCH   9  19
TORSDOF 3
