REMARK  7 active torsions:
REMARK  status: ('A' for Active; 'I' for Inactive)
REMARK    1  A    between atoms: C_3  and  C_1 
REMARK    2  A    between atoms: C_8  and  C_2 
REMARK    3  A    between atoms: C_7  and  C_29 
REMARK    4  A    between atoms: O_26  and  C_8 
REMARK    5  A    between atoms: C_18  and  C_11 
REMARK    6  A    between atoms: O_28  and  N_19 
REMARK    7  A    between atoms: C_29  and  O_28 
ROOT
ATOM      1  C   UNL d   1       5.807   2.759  -1.228  0.00  0.00     0.151 C 
ATOM      2  N   UNL d   1       6.455   3.856  -1.009  0.00  0.00    -0.275 N 
ATOM      3  HN  UNL d   1       6.204   4.553  -0.308  1.00  0.00     0.193 HD
ENDROOT
BRANCH   1   4
ATOM      4  C   UNL d   1       4.620   2.498  -0.472  0.00  0.00     0.093 A 
ATOM      5  O   UNL d   1       4.025   1.276  -0.572  0.00  0.00    -0.308 OA
ATOM      6  C   UNL d   1       2.939   1.272   0.261  0.00  0.00     0.088 A 
ATOM      7  C   UNL d   1       2.825   2.515   0.856  0.00  0.00     0.041 A 
ATOM      8  C   UNL d   1       3.906   3.296   0.396  0.00  0.00     0.041 A 
BRANCH   6   9
ATOM      9  C   UNL d   1       2.003   0.119   0.462  0.00  0.00     0.021 A 
ATOM     10  C   UNL d   1       2.185  -1.157  -0.049  0.00  0.00     0.093 A 
ATOM     11  S   UNL d   1       0.813  -2.152   0.272  0.00  0.00    -0.095 SA
ATOM     12  C   UNL d   1       0.033  -0.924   1.159  0.00  0.00     0.051 A 
ATOM     13  C   UNL d   1       0.775   0.232   1.194  0.00  0.00     0.023 A 
BRANCH  10  14
ATOM     14  C   UNL d   1       3.281  -1.773  -0.773  0.00  0.00     0.300 C 
ATOM     15  O   UNL d   1       3.174  -2.624  -1.650  0.00  0.00    -0.259 OA
BRANCH  14  16
ATOM     16  O   UNL d   1       4.478  -1.338  -0.285  0.00  0.00    -0.322 OA
ATOM     17  C   UNL d   1       5.620  -1.875  -0.952  0.00  0.00     0.213 C 
ENDBRANCH  14  16
ENDBRANCH  10  14
ENDBRANCH   6   9
ENDBRANCH   1   4
BRANCH   2  18
ATOM     18  O   UNL d   1       7.553   3.948  -1.875  0.00  0.00    -0.276 OA
BRANCH  18  19
ATOM     19  C   UNL d   1       8.031   5.298  -1.812  0.00  0.00     0.242 C 
BRANCH  19  20
ATOM     20  C   UNL d   1       9.127   5.540  -2.814  0.00  0.00     0.005 A 
ATOM     21  C   UNL d   1       9.297   6.816  -3.382  0.00  0.00     0.088 A 
ATOM     22  C   UNL d   1      10.325   7.064  -4.302  0.00  0.00     0.003 A 
ATOM     23  O   UNL d   1       8.412   7.795  -3.014  0.00  0.00    -0.325 OA
ATOM     24  C   UNL d   1      10.470   8.430  -4.898  0.00  0.00     0.212 C 
ATOM     25  C   UNL d   1      11.220   6.041  -4.624  0.00  0.00     0.054 A 
ATOM     26  O   UNL d   1       9.257   9.164  -4.775  0.00  0.00    -0.362 OA
ATOM     27  C   UNL d   1       8.796   9.104  -3.433  0.00  0.00     0.345 C 
ATOM     28  C   UNL d   1      11.073   4.788  -4.040  0.00  0.00     0.117 A 
ATOM     29  C   UNL d   1      10.045   4.530  -3.142  0.00  0.00     0.054 A 
ATOM     30  F   UNL d   1      11.941   3.815  -4.346  0.00  0.00    -0.206 F 
ENDBRANCH  19  20
ENDBRANCH  18  19
ENDBRANCH   2  18
TORSDOF 7
