REMARK  5 active torsions:
REMARK  status: ('A' for Active; 'I' for Inactive)
REMARK    1  A    between atoms: N_2  and  C_1 
REMARK    2  A    between atoms: N_4  and  C_1 
REMARK    3  A    between atoms: C_5  and  N_2 
REMARK    4  A    between atoms: N_6  and  N_4 
REMARK    5  A    between atoms: O_12  and  C_7 
ROOT
ATOM      1  N   UNL d   1       0.637   0.667   0.887  0.00  0.00    -0.332 N 
ATOM      2  H   UNL d   1      -0.318   0.336   0.991  0.00  0.00     0.168 HD
ENDROOT
BRANCH   1   3
ATOM      3  C   UNL d   1       1.286   0.021  -0.143  0.00  0.00     0.186 C 
ATOM      4  S   UNL d   1       2.905  -0.365  -0.288  0.00  0.00    -0.040 SA
BRANCH   3   5
ATOM      5  N   UNL d   1       0.437  -0.382  -1.160  0.00  0.00    -0.298 N 
ATOM      6  H   UNL d   1       0.875  -0.873  -1.938  0.00  0.00     0.183 HD
BRANCH   5   7
ATOM      7  N   UNL d   1      -0.874   0.131  -1.281  0.00  0.00    -0.242 NA
ATOM      8  C   UNL d   1      -1.375  -0.069  -2.641  0.00  0.00     0.133 C 
ATOM      9  H   UNL d   1      -0.824   1.142  -1.110  0.00  0.00     0.146 HD
ENDBRANCH   5   7
ENDBRANCH   3   5
ENDBRANCH   1   3
BRANCH   1  10
ATOM     10  C   UNL d   1       1.180   1.423   1.944  0.00  0.00     0.034 A 
ATOM     11  C   UNL d   1       2.311   2.223   1.781  0.00  0.00     0.032 A 
ATOM     12  C   UNL d   1       2.827   2.958   2.854  0.00  0.00     0.039 A 
ATOM     13  C   UNL d   1       2.216   2.894   4.104  0.00  0.00     0.068 A 
ATOM     14  C   UNL d   1       1.048   2.143   4.254  0.00  0.00     0.039 A 
ATOM     15  C   UNL d   1       0.522   1.421   3.175  0.00  0.00     0.032 A 
BRANCH  13  16
ATOM     16  O   UNL d   1       2.652   3.534   5.232  0.00  0.00    -0.356 OA
ATOM     17  C   UNL d   1       4.013   3.955   5.216  0.00  0.00     0.210 C 
ENDBRANCH  13  16
ENDBRANCH   1  10
TORSDOF 5
