REMARK  4 active torsions:
REMARK  status: ('A' for Active; 'I' for Inactive)
REMARK    1  A    between atoms: C_2  and  C_1 
REMARK    2  A    between atoms: C_15  and  C_6 
REMARK    3  A    between atoms: S_14  and  C_15 
REMARK    4  A    between atoms: C_16  and  S_14 
ROOT
ATOM      1  C   UNL d   1      -0.039  -0.846   0.695  0.00  0.00     0.192 A 
ATOM      2  N   UNL d   1       0.232   0.371   1.123  0.00  0.00    -0.322 N 
ATOM      3  HN  UNL d   1       0.326   0.698   2.084  1.00  0.00     0.169 HD
ATOM      4  C   UNL d   1       0.356   1.091  -0.038  0.00  0.00     0.113 A 
ATOM      5  N   UNL d   1       0.127   0.389  -1.154  0.00  0.00    -0.246 N 
ATOM      6  HN  UNL d   1       0.133   0.716  -2.120  1.00  0.00     0.196 HD
ATOM      7  O   UNL d   1      -0.122  -0.898  -0.676  0.00  0.00    -0.217 OA
ENDROOT
BRANCH   4   8
ATOM      8  C   UNL d   1       0.710   2.536  -0.040  0.00  0.00     0.158 C 
BRANCH   8   9
ATOM      9  S   UNL d   1       2.527   2.741  -0.035  0.00  0.00    -0.122 SA
BRANCH   9  10
ATOM     10  C   UNL d   1       2.766   4.511  -0.058  0.00  0.00     0.001 A 
ATOM     11  C   UNL d   1       1.747   5.469  -0.023  0.00  0.00     0.020 A 
ATOM     12  C   UNL d   1       2.053   6.836  -0.046  0.00  0.00     0.025 A 
ATOM     13  C   UNL d   1       3.380   7.254  -0.103  0.00  0.00     0.034 A 
ATOM     14  C   UNL d   1       4.406   6.317  -0.136  0.00  0.00     0.025 A 
ATOM     15 CL   UNL d   1       3.751   8.933  -0.133  0.00  0.00    -0.084 Cl
ATOM     16  C   UNL d   1       4.098   4.954  -0.113  0.00  0.00     0.020 A 
ENDBRANCH   9  10
ENDBRANCH   8   9
ENDBRANCH   4   8
BRANCH   1  17
ATOM     17  C   UNL d   1      -0.217  -1.968   1.556  0.00  0.00     0.096 A 
ATOM     18  C   UNL d   1      -0.236  -2.054   2.942  0.00  0.00     0.041 A 
ATOM     19  N   UNL d   1      -0.423  -3.343   3.438  0.00  0.00    -0.296 N 
ATOM     20  C   UNL d   1      -0.087  -0.968   3.946  0.00  0.00     0.071 C 
ATOM     21  N   UNL d   1      -0.550  -4.234   2.472  0.00  0.00    -0.061 NA
ATOM     22  HN  UNL d   1      -0.457  -3.571   4.431  1.00  0.00     0.183 HD
ATOM     23  S   UNL d   1      -0.452  -3.558   0.950  0.00  0.00     0.006 SA
ENDBRANCH   1  17
TORSDOF 4
