REMARK  3 active torsions:
REMARK  status: ('A' for Active; 'I' for Inactive)
REMARK    1  A    between atoms: C_8  and  C_3 
REMARK    2  A    between atoms: C_9  and  C_4 
REMARK    3  A    between atoms: C_10  and  C_6 
ROOT
ATOM      1  N   UNL d   1      -1.037  -1.103   0.141  0.00  0.00    -0.354 N 
ATOM      2  HN  UNL d   1      -1.577  -1.967   0.195  1.00  0.00     0.166 HD
ATOM      3  C   UNL d   1       0.324  -1.146   0.099  0.00  0.00     0.049 C 
ATOM      4  C   UNL d   1       0.458   1.282   0.049  0.00  0.00    -0.016 C 
ATOM      5  C   UNL d   1       1.107   0.024  -0.030  0.00  0.00    -0.023 C 
ATOM      6  C   UNL d   1      -1.666   0.092   0.110  0.00  0.00     0.043 C 
ATOM      7  C   UNL d   1      -0.945   1.280   0.124  0.00  0.00     0.043 C 
ATOM      8  C   UNL d   1       2.591  -0.060  -0.289  0.00  0.00     0.051 C 
ENDROOT
BRANCH   3   9
ATOM      9  C   UNL d   1       0.868  -2.533   0.138  0.00  0.00    -0.009 A 
ATOM     10  C   UNL d   1       0.213  -3.577  -0.547  0.00  0.00     0.015 A 
ATOM     11  C   UNL d   1       0.745  -4.872  -0.596  0.00  0.00     0.020 A 
ATOM     12  C   UNL d   1       1.948  -5.147   0.042  0.00  0.00     0.011 A 
ATOM     13  C   UNL d   1       2.593  -4.157   0.774  0.00  0.00     0.020 A 
ATOM     14 BR   UNL d   1       2.716  -6.869  -0.089  0.00  0.00    -0.051 Br
ATOM     15  C   UNL d   1       2.038  -2.873   0.844  0.00  0.00     0.015 A 
ENDBRANCH   3   9
BRANCH   6  16
ATOM     16  C   UNL d   1      -3.145   0.062   0.016  0.00  0.00    -0.009 A 
ATOM     17  C   UNL d   1      -3.886  -0.996   0.573  0.00  0.00     0.013 A 
ATOM     18  C   UNL d   1      -5.284  -1.029   0.491  0.00  0.00     0.001 A 
ATOM     19  C   UNL d   1      -5.973  -0.010  -0.156  0.00  0.00     0.000 A 
ATOM     20  C   UNL d   1      -5.267   1.041  -0.734  0.00  0.00     0.001 A 
ATOM     21  C   UNL d   1      -3.869   1.071  -0.652  0.00  0.00     0.013 A 
ENDBRANCH   6  16
BRANCH   4  22
ATOM     22  C   UNL d   1       1.164   2.595   0.009  0.00  0.00    -0.025 A 
ATOM     23  C   UNL d   1       2.329   2.843   0.756  0.00  0.00     0.012 A 
ATOM     24  C   UNL d   1       3.008   4.064   0.673  0.00  0.00     0.001 A 
ATOM     25  C   UNL d   1       2.504   5.091  -0.118  0.00  0.00     0.000 A 
ATOM     26  C   UNL d   1       1.325   4.895  -0.828  0.00  0.00     0.001 A 
ATOM     27  C   UNL d   1       0.673   3.659  -0.775  0.00  0.00     0.012 A 
ENDBRANCH   4  22
TORSDOF 3
