REMARK  4 active torsions:
REMARK  status: ('A' for Active; 'I' for Inactive)
REMARK    1  A    between atoms: N_2  and  C_1 
REMARK       I    between atoms: C_3  and  N_2 
REMARK    2  A    between atoms: C_7  and  C_3 
REMARK    3  A    between atoms: C_8  and  C_4 
REMARK    4  A    between atoms: C_9  and  C_5 
ROOT
ATOM      1  C   UNL d   1       1.424  -0.418  -0.079  0.00  0.00     0.048 A 
ATOM      2  C   UNL d   1       0.458  -1.454  -0.061  0.00  0.00    -0.027 A 
ATOM      3  C   UNL d   1       1.023   0.944  -0.136  0.00  0.00    -0.027 A 
ATOM      4  C   UNL d   1      -0.356   1.234  -0.127  0.00  0.00     0.010 A 
ATOM      5  C   UNL d   1      -0.906  -1.102  -0.024  0.00  0.00     0.010 A 
ATOM      6  C   UNL d   1      -1.308   0.226  -0.046  0.00  0.00     0.001 A 
ENDROOT
BRANCH   1   7
ATOM      7  N   UNL d   1       2.796  -0.735   0.089  0.00  0.00    -0.322 N 
ATOM      8  C   UNL d   1       3.660  -0.761  -0.995  0.00  0.00     0.256 C 
ATOM      9  O   UNL d   1       3.339  -0.589  -2.167  0.00  0.00    -0.267 OA
ATOM     10  H   UNL d   1       2.989  -1.479   0.751  0.00  0.00     0.169 HD
BRANCH   8  11
ATOM     11  C   UNL d   1       5.080  -1.078  -0.675  0.00  0.00     0.032 A 
ATOM     12  C   UNL d   1       5.836  -1.811  -1.599  0.00  0.00     0.017 A 
ATOM     13  C   UNL d   1       7.194  -2.041  -1.371  0.00  0.00     0.001 A 
ATOM     14  C   UNL d   1       7.806  -1.529  -0.228  0.00  0.00     0.000 A 
ATOM     15  C   UNL d   1       7.058  -0.799   0.698  0.00  0.00     0.001 A 
ATOM     16  C   UNL d   1       5.694  -0.576   0.480  0.00  0.00     0.017 A 
ENDBRANCH   8  11
ENDBRANCH   1   7
BRANCH   2  17
ATOM     17  C   UNL d   1       0.815  -2.930  -0.229  0.00  0.00     0.013 C 
ATOM     18  C   UNL d   1       0.298  -3.789   0.928  0.00  0.00     0.015 C 
ATOM     19  C   UNL d   1       0.285  -3.461  -1.572  0.00  0.00     0.015 C 
ENDBRANCH   2  17
BRANCH   3  20
ATOM     20  C   UNL d   1       2.016   2.103  -0.229  0.00  0.00     0.013 C 
ATOM     21  C   UNL d   1       2.175   2.547  -1.687  0.00  0.00     0.015 C 
ATOM     22  C   UNL d   1       1.634   3.323   0.627  0.00  0.00     0.015 C 
ENDBRANCH   3  20
TORSDOF 4
