REMARK  4 active torsions:
REMARK  status: ('A' for Active; 'I' for Inactive)
REMARK    1  A    between atoms: C_7  and  C_1 
REMARK    2  A    between atoms: C_9  and  C_3 
REMARK    3  A    between atoms: O_11  and  C_7 
REMARK    4  A    between atoms: C_15  and  O_11 
ROOT
ATOM      1  C   UNL d   1       2.006   0.655   0.012  0.00  0.00     0.066 A 
ATOM      2  C   UNL d   1       1.541  -0.611   0.092  0.00  0.00     0.022 A 
ATOM      3  C   UNL d   1       1.077   1.838  -0.132  0.00  0.00     0.158 A 
ATOM      4  C   UNL d   1      -0.764   0.166  -0.005  0.00  0.00     0.172 A 
ATOM      5  N   UNL d   1       0.174  -0.811   0.095  0.00  0.00    -0.337 N 
ATOM      6  N   UNL d   1      -0.322   1.437  -0.089  0.00  0.00    -0.354 N 
ATOM      7  S   UNL d   1      -2.385  -0.192  -0.024  0.00  0.00    -0.041 SA
ATOM      8  C   UNL d   1       2.320  -1.900   0.099  0.00  0.00     0.069 C 
ATOM      9  H   UNL d   1      -0.188  -1.759   0.136  0.00  0.00     0.168 HD
ATOM     10  H   UNL d   1      -1.025   2.163  -0.156  0.00  0.00     0.163 HD
ENDROOT
BRANCH   3  11
ATOM     11  C   UNL d   1       1.267   2.970   0.870  0.00  0.00    -0.031 A 
ATOM     12  C   UNL d   1       1.540   4.269   0.408  0.00  0.00     0.009 A 
ATOM     13  C   UNL d   1       1.613   5.343   1.296  0.00  0.00     0.001 A 
ATOM     14  C   UNL d   1       1.423   5.134   2.659  0.00  0.00     0.000 A 
ATOM     15  C   UNL d   1       1.166   3.849   3.135  0.00  0.00     0.001 A 
ATOM     16  C   UNL d   1       1.089   2.772   2.249  0.00  0.00     0.009 A 
ENDBRANCH   3  11
BRANCH   1  17
ATOM     17  C   UNL d   1       3.436   1.016  -0.146  0.00  0.00     0.293 C 
ATOM     18  O   UNL d   1       3.810   1.931  -0.861  0.00  0.00    -0.259 OA
BRANCH  17  19
ATOM     19  O   UNL d   1       4.247   0.203   0.574  0.00  0.00    -0.318 OA
BRANCH  19  20
ATOM     20  C   UNL d   1       5.651   0.314   0.296  0.00  0.00     0.174 C 
ATOM     21  C   UNL d   1       5.987  -0.364  -1.025  0.00  0.00     0.034 C 
ENDBRANCH  19  20
ENDBRANCH  17  19
ENDBRANCH   1  17
TORSDOF 4
