REMARK  8 active torsions:
REMARK  status: ('A' for Active; 'I' for Inactive)
REMARK    1  A    between atoms: N_2  and  C_1 
REMARK    2  A    between atoms: S_6  and  C_1 
REMARK    3  A    between atoms: C_3  and  N_2 
REMARK    4  A    between atoms: C_5  and  C_9 
REMARK    5  A    between atoms: O_10  and  C_5 
REMARK    6  A    between atoms: C_9  and  S_6 
REMARK    7  A    between atoms: O_11  and  C_7 
REMARK    8  A    between atoms: C_14  and  O_10 
ROOT
ATOM      1  N   UNL d   1       0.626   0.683  -0.815  0.00  0.00    -0.340 N 
ATOM      2  H   UNL d   1      -0.355   0.441  -0.773  0.00  0.00     0.167 HD
ENDROOT
BRANCH   1   3
ATOM      3  C   UNL d   1       1.204   0.692   0.430  0.00  0.00     0.139 C 
ATOM      4  S   UNL d   1       0.198   0.833   1.763  0.00  0.00    -0.053 SA
BRANCH   3   5
ATOM      5  S   UNL d   1       2.928   0.475   0.596  0.00  0.00    -0.091 SA
BRANCH   5   6
ATOM      6  C   UNL d   1       3.179  -1.078  -0.313  0.00  0.00     0.192 C 
BRANCH   6   7
ATOM      7  C   UNL d   1       2.623  -2.276   0.421  0.00  0.00     0.268 C 
ATOM      8  O   UNL d   1       1.581  -2.310   1.059  0.00  0.00    -0.264 OA
BRANCH   7   9
ATOM      9  O   UNL d   1       3.455  -3.346   0.238  0.00  0.00    -0.321 OA
BRANCH   9  10
ATOM     10  C   UNL d   1       3.150  -4.514   1.013  0.00  0.00     0.174 C 
ATOM     11  C   UNL d   1       3.888  -4.427   2.336  0.00  0.00     0.034 C 
ENDBRANCH   9  10
ENDBRANCH   7   9
ENDBRANCH   6   7
ENDBRANCH   5   6
ENDBRANCH   3   5
ENDBRANCH   1   3
BRANCH   1  12
ATOM     12  C   UNL d   1       1.132   0.993  -2.094  0.00  0.00     0.067 A 
ATOM     13  C   UNL d   1       0.516   0.464  -3.244  0.00  0.00     0.094 A 
ATOM     14  C   UNL d   1       1.079   0.690  -4.504  0.00  0.00     0.039 A 
ATOM     15  C   UNL d   1       2.216   1.486  -4.644  0.00  0.00     0.003 A 
ATOM     16  C   UNL d   1       2.791   2.069  -3.518  0.00  0.00     0.002 A 
ATOM     17  C   UNL d   1       2.245   1.834  -2.255  0.00  0.00     0.032 A 
BRANCH  13  18
ATOM     18  O   UNL d   1      -0.509  -0.446  -3.212  0.00  0.00    -0.354 OA
ATOM     19  C   UNL d   1      -1.746   0.060  -2.709  0.00  0.00     0.210 C 
ENDBRANCH  13  18
ENDBRANCH   1  12
TORSDOF 8
