REMARK  8 active torsions:
REMARK  status: ('A' for Active; 'I' for Inactive)
REMARK    1  A    between atoms: C_2  and  S_1 
REMARK    2  A    between atoms: N_4  and  S_1 
REMARK    3  A    between atoms: N_6  and  N_4 
REMARK    4  A    between atoms: C_16  and  C_5 
REMARK       I    between atoms: C_8  and  N_6 
REMARK    5  A    between atoms: C_11  and  C_8 
REMARK    6  A    between atoms: O_15  and  C_10 
REMARK    7  A    between atoms: C_23  and  O_15 
REMARK    8  A    between atoms: O_24  and  C_17 
ROOT
ATOM      1  N   UNL d   1       2.076   3.471  -2.530  0.00  0.00    -0.256 N 
ATOM      2  C   UNL d   1       0.735   3.328  -2.230  0.00  0.00     0.270 C 
ATOM      3  O   UNL d   1       0.282   3.486  -1.099  0.00  0.00    -0.266 OA
ATOM      4  H   UNL d   1       2.482   3.285  -3.445  0.00  0.00     0.191 HD
ENDROOT
BRANCH   1   5
ATOM      5  N   UNL d   1       2.976   3.901  -1.474  0.00  0.00    -0.220 N 
ATOM      6  H   UNL d   1       2.559   4.170  -0.575  0.00  0.00     0.200 HD
BRANCH   5   7
ATOM      7  S   UNL d   1       4.433   4.650  -1.889  0.00  0.00     0.282 S 
ATOM      8  O   UNL d   1       5.129   5.012  -0.679  0.00  0.00    -0.198 OA
ATOM      9  O   UNL d   1       5.044   3.867  -2.944  0.00  0.00    -0.198 OA
BRANCH   7  10
ATOM     10  C   UNL d   1       3.999   6.184  -2.683  0.00  0.00     0.122 A 
ATOM     11  S   UNL d   1       3.014   7.238  -1.774  0.00  0.00    -0.074 SA
ATOM     12  C   UNL d   1       2.892   8.373  -3.058  0.00  0.00     0.033 A 
ATOM     13  C   UNL d   1       3.614   7.942  -4.159  0.00  0.00     0.023 A 
ATOM     14  C   UNL d   1       4.264   6.691  -3.939  0.00  0.00     0.034 A 
BRANCH  12  15
ATOM     15  C   UNL d   1       2.062   9.579  -2.921  0.00  0.00     0.049 A 
ATOM     16  N   UNL d   1       1.522  10.018  -4.086  0.00  0.00    -0.365 N 
ATOM     17  C   UNL d   1       0.702  11.091  -4.022  0.00  0.00     0.088 A 
ATOM     18  HN  UNL d   1       1.725   9.557  -4.973  1.00  0.00     0.165 HD
ATOM     19  C   UNL d   1       0.397  11.762  -2.849  0.00  0.00     0.017 A 
ATOM     20  C   UNL d   1       0.977  11.316  -1.670  0.00  0.00     0.004 A 
ATOM     21  C   UNL d   1       1.825  10.211  -1.703  0.00  0.00     0.031 A 
ENDBRANCH  12  15
ENDBRANCH   7  10
ENDBRANCH   5   7
ENDBRANCH   1   5
BRANCH   2  22
ATOM     22  C   UNL d   1      -0.159   2.963  -3.363  0.00  0.00     0.036 A 
ATOM     23  C   UNL d   1      -1.311   2.207  -3.095  0.00  0.00     0.056 A 
ATOM     24  C   UNL d   1      -2.173   1.815  -4.130  0.00  0.00     0.103 A 
ATOM     25  C   UNL d   1      -1.910   2.259  -5.439  0.00  0.00     0.101 A 
ATOM     26  C   UNL d   1      -0.763   3.023  -5.696  0.00  0.00     0.040 A 
ATOM     27  C   UNL d   1       0.110   3.380  -4.668  0.00  0.00     0.020 A 
BRANCH  24  28
ATOM     28  O   UNL d   1      -3.270   1.025  -3.916  0.00  0.00    -0.343 OA
BRANCH  28  29
ATOM     29  C   UNL d   1      -3.220   0.055  -2.866  0.00  0.00     0.129 C 
ATOM     30  C   UNL d   1      -2.165  -1.027  -3.097  0.00  0.00     0.032 C 
ATOM     31  C   UNL d   1      -2.714  -2.301  -2.465  0.00  0.00     0.002 C 
ATOM     32  C   UNL d   1      -4.201  -2.069  -2.228  0.00  0.00     0.002 C 
ATOM     33  C   UNL d   1      -4.530  -0.732  -2.874  0.00  0.00     0.032 C 
ENDBRANCH  28  29
ENDBRANCH  24  28
BRANCH  25  34
ATOM     34  O   UNL d   1      -2.625   1.973  -6.574  0.00  0.00    -0.353 OA
ATOM     35  C   UNL d   1      -4.035   1.865  -6.433  0.00  0.00     0.210 C 
ENDBRANCH  25  34
ENDBRANCH   2  22
TORSDOF 8
