REMARK  6 active torsions:
REMARK  status: ('A' for Active; 'I' for Inactive)
REMARK    1  A    between atoms: N_7  and  C_1 
REMARK    2  A    between atoms: C_6  and  C_5 
REMARK    3  A    between atoms: C_9  and  C_6 
REMARK    4  A    between atoms: C_15  and  N_7 
REMARK       I    between atoms: N_12  and  C_9 
REMARK    5  A    between atoms: C_13  and  N_12 
REMARK    6  A    between atoms: S_24  and  C_21 
ROOT
ATOM      1  C   UNL d   1       1.042   0.794   0.355  0.00  0.00     0.148 C 
ATOM      2  N   UNL d   1       1.224  -0.441   0.886  0.00  0.00    -0.306 N 
ATOM      3  C   UNL d   1       0.131  -1.228   1.075  0.00  0.00     0.238 C 
ATOM      4  S   UNL d   1      -0.657   1.196   0.364  0.00  0.00    -0.079 SA
ATOM      5  C   UNL d   1      -1.142  -0.558   0.601  0.00  0.00     0.156 C 
ATOM      6  O   UNL d   1       0.207  -2.365   1.524  0.00  0.00    -0.272 OA
ATOM      7  H   UNL d   1       2.140  -0.808   1.092  0.00  0.00     0.171 HD
ENDROOT
BRANCH   5   8
ATOM      8  C   UNL d   1      -2.262  -0.788   1.597  0.00  0.00     0.128 C 
BRANCH   8   9
ATOM      9  C   UNL d   1      -3.628  -0.543   1.000  0.00  0.00     0.223 C 
ATOM     10  N   UNL d   1      -4.000   0.787   1.013  0.00  0.00    -0.327 N 
ATOM     11  H   UNL d   1      -3.262   1.468   1.159  0.00  0.00     0.169 HD
ATOM     12  O   UNL d   1      -4.291  -1.475   0.555  0.00  0.00    -0.273 OA
BRANCH  10  13
ATOM     13  C   UNL d   1      -5.283   1.300   0.734  0.00  0.00     0.037 A 
ATOM     14  C   UNL d   1      -6.433   0.507   0.672  0.00  0.00     0.075 A 
ATOM     15  C   UNL d   1      -7.670   1.096   0.416  0.00  0.00     0.157 A 
ATOM     16  F   UNL d   1      -8.768   0.328   0.374  0.00  0.00    -0.203 F 
ATOM     17  C   UNL d   1      -7.772   2.466   0.217  0.00  0.00     0.154 A 
ATOM     18  C   UNL d   1      -6.641   3.269   0.286  0.00  0.00     0.048 A 
ATOM     19  F   UNL d   1      -8.962   3.027  -0.036  0.00  0.00    -0.203 F 
ATOM     20  C   UNL d   1      -5.398   2.686   0.554  0.00  0.00     0.032 A 
ENDBRANCH  10  13
ENDBRANCH   8   9
ENDBRANCH   5   8
BRANCH   1  21
ATOM     21  N   UNL d   1       1.942   1.589  -0.110  0.00  0.00    -0.337 N 
ATOM     22  HN  UNL d   1       1.680   2.529  -0.406  1.00  0.00     0.168 HD
BRANCH  21  23
ATOM     23  C   UNL d   1       3.286   1.175  -0.213  0.00  0.00     0.035 A 
ATOM     24  C   UNL d   1       4.306   2.013   0.259  0.00  0.00     0.048 A 
ATOM     25  C   UNL d   1       5.653   1.630   0.174  0.00  0.00     0.002 A 
ATOM     26  C   UNL d   1       5.965   0.378  -0.376  0.00  0.00     0.018 A 
ATOM     27  C   UNL d   1       4.966  -0.448  -0.884  0.00  0.00     0.004 A 
ATOM     28  C   UNL d   1       3.639  -0.032  -0.833  0.00  0.00     0.029 A 
BRANCH  25  29
ATOM     29  S   UNL d   1       7.042   2.603   0.745  0.00  0.00    -0.134 SA
ATOM     30  C   UNL d   1       6.361   4.275   0.872  0.00  0.00     0.095 C 
ENDBRANCH  25  29
ENDBRANCH  21  23
ENDBRANCH   1  21
TORSDOF 6
