REMARK  4 active torsions:
REMARK  status: ('A' for Active; 'I' for Inactive)
REMARK    1  A    between atoms: C_6  and  C_1 
REMARK    2  A    between atoms: C_5  and  C_2 
REMARK       I    between atoms: N_10  and  C_6 
REMARK       I    between atoms: C_9  and  N_11 
REMARK    3  A    between atoms: C_12  and  C_9 
REMARK    4  A    between atoms: N_11  and  N_10 
ROOT
ATOM      1  C   UNL d   1      -2.578   1.344  -0.044  0.00  0.00     0.289 C 
ATOM      2  N   UNL d   1      -3.900   1.072   0.250  0.00  0.00    -0.262 N 
ATOM      3  O   UNL d   1      -1.672   0.569   0.243  0.00  0.00    -0.264 OA
ATOM      4  H   UNL d   1      -4.659   1.673  -0.073  0.00  0.00     0.190 HD
ENDROOT
BRANCH   1   5
ATOM      5  C   UNL d   1      -2.374   2.607  -0.739  0.00  0.00     0.143 A 
ATOM      6  C   UNL d   1      -1.172   3.227  -1.025  0.00  0.00     0.193 A 
ATOM      7  O   UNL d   1      -1.460   4.375  -1.727  0.00  0.00    -0.291 OA
ATOM      8  C   UNL d   1      -2.819   4.392  -1.829  0.00  0.00     0.121 A 
ATOM      9  N   UNL d   1      -3.418   3.376  -1.244  0.00  0.00    -0.334 N 
ATOM     10  C   UNL d   1      -3.399   5.523  -2.581  0.00  0.00     0.098 C 
ATOM     11  HN  UNL d   1      -4.420   3.194  -1.177  1.00  0.00     0.168 HD
BRANCH   6  12
ATOM     12  C   UNL d   1       0.255   2.957  -0.764  0.00  0.00     0.442 C 
ATOM     13  F   UNL d   1       0.494   1.857  -0.016  0.00  0.00    -0.164 F 
ATOM     14  F   UNL d   1       0.949   2.800  -1.922  0.00  0.00    -0.164 F 
ATOM     15  F   UNL d   1       0.838   3.996  -0.106  0.00  0.00    -0.164 F 
ENDBRANCH   6  12
ENDBRANCH   1   5
BRANCH   2  16
ATOM     16  N   UNL d   1      -4.229  -0.172   0.812  0.00  0.00    -0.263 N 
ATOM     17  C   UNL d   1      -5.561  -0.539   0.841  0.00  0.00     0.270 C 
ATOM     18  O   UNL d   1      -6.467   0.222   0.514  0.00  0.00    -0.266 OA
ATOM     19  H   UNL d   1      -3.463  -0.838   0.890  0.00  0.00     0.190 HD
BRANCH  17  20
ATOM     20  C   UNL d   1      -5.858  -1.944   1.240  0.00  0.00     0.035 A 
ATOM     21  C   UNL d   1      -5.006  -2.690   2.064  0.00  0.00     0.041 A 
ATOM     22  C   UNL d   1      -5.337  -4.010   2.378  0.00  0.00     0.035 A 
ATOM     23 CL   UNL d   1      -4.289  -4.932   3.386  0.00  0.00    -0.084 Cl
ATOM     24  C   UNL d   1      -6.505  -4.592   1.888  0.00  0.00     0.024 A 
ATOM     25  C   UNL d   1      -7.365  -3.845   1.084  0.00  0.00     0.003 A 
ATOM     26  C   UNL d   1      -7.045  -2.524   0.766  0.00  0.00     0.017 A 
ENDBRANCH  17  20
ENDBRANCH   2  16
TORSDOF 4
