REMARK  4 active torsions:
REMARK  status: ('A' for Active; 'I' for Inactive)
REMARK    1  A    between atoms: C_2  and  C_1 
REMARK       I    between atoms: N_3  and  C_1 
REMARK    2  A    between atoms: C_6  and  N_3 
REMARK    3  A    between atoms: C_4  and  C_5 
REMARK    4  A    between atoms: C_21  and  C_9 
ROOT
ATOM      1  C   UNL d   1       1.253   2.100   0.294  0.00  0.00     0.258 C 
ATOM      2  N   UNL d   1       0.269   1.129   0.225  0.00  0.00    -0.322 N 
ATOM      3  O   UNL d   1       1.123   3.263   0.637  0.00  0.00    -0.267 OA
ATOM      4  H   UNL d   1       0.585   0.169   0.291  0.00  0.00     0.169 HD
ENDROOT
BRANCH   1   5
ATOM      5  C   UNL d   1       2.601   1.636  -0.104  0.00  0.00     0.062 A 
ATOM      6  C   UNL d   1       3.765   1.942   0.609  0.00  0.00     0.066 A 
ATOM      7  C   UNL d   1       5.001   1.555   0.052  0.00  0.00     0.034 A 
ATOM      8  C   UNL d   1       5.023   0.871  -1.152  0.00  0.00     0.088 A 
ATOM      9  N   UNL d   1       3.908   0.547  -1.836  0.00  0.00    -0.374 N 
ATOM     10  C   UNL d   1       2.729   0.950  -1.309  0.00  0.00     0.105 A 
ATOM     11  HN  UNL d   1       3.952   0.024  -2.711  1.00  0.00     0.164 HD
BRANCH   6  12
ATOM     12  C   UNL d   1       3.787   2.663   1.930  0.00  0.00     0.418 C 
ATOM     13  F   UNL d   1       2.617   2.696   2.614  0.00  0.00    -0.166 F 
ATOM     14  F   UNL d   1       4.665   2.058   2.790  0.00  0.00    -0.166 F 
ATOM     15  F   UNL d   1       4.228   3.945   1.818  0.00  0.00    -0.166 F 
ENDBRANCH   6  12
ENDBRANCH   1   5
BRANCH   2  16
ATOM     16  C   UNL d   1      -1.131   1.313   0.348  0.00  0.00     0.047 A 
ATOM     17  C   UNL d   1      -1.837   2.380  -0.252  0.00  0.00    -0.035 A 
ATOM     18  C   UNL d   1      -3.245   2.400  -0.168  0.00  0.00     0.009 A 
ATOM     19  C   UNL d   1      -1.236   3.517  -1.034  0.00  0.00     0.050 C 
ATOM     20  C   UNL d   1      -3.953   1.377   0.448  0.00  0.00     0.001 A 
ATOM     21  C   UNL d   1      -3.263   0.328   1.040  0.00  0.00     0.009 A 
ATOM     22  C   UNL d   1      -1.857   0.295   1.025  0.00  0.00    -0.031 A 
BRANCH  22  23
ATOM     23  C   UNL d   1      -1.186  -0.778   1.863  0.00  0.00     0.036 C 
ATOM     24  C   UNL d   1      -0.999  -2.102   1.142  0.00  0.00     0.010 C 
ENDBRANCH  22  23
ENDBRANCH   2  16
TORSDOF 4
