REMARK  2 active torsions:
REMARK  status: ('A' for Active; 'I' for Inactive)
REMARK       I    between atoms: N_4  and  C_1 
REMARK       I    between atoms: C_2  and  N_3 
REMARK    1  A    between atoms: N_3  and  C_8 
REMARK    2  A    between atoms: C_7  and  N_4 
ROOT
ATOM      1  C   UNL d   1       1.032   0.179   2.446  0.00  0.00     0.034 A 
ATOM      2  C   UNL d   1       2.280   0.513   4.963  0.00  0.00     0.034 A 
ATOM      3  C   UNL d   1       1.222  -0.381   4.809  0.00  0.00     0.032 A 
ATOM      4  C   UNL d   1       2.688   1.260   3.853  0.00  0.00     0.032 A 
ATOM      5  C   UNL d   1       2.071   1.094   2.605  0.00  0.00     0.032 A 
ATOM      6  C   UNL d   1       0.604  -0.545   3.563  0.00  0.00     0.032 A 
ENDROOT
BRANCH   1   7
ATOM      7  N   UNL d   1       0.381  -0.079   1.222  0.00  0.00    -0.328 N 
ATOM      8  C   UNL d   1       0.665   0.473  -0.013  0.00  0.00     0.218 C 
ATOM      9  O   UNL d   1       1.538   1.298  -0.266  0.00  0.00    -0.274 OA
ATOM     10  C   UNL d   1      -0.220  -0.054  -1.117  0.00  0.00     0.117 C 
ATOM     11  H   UNL d   1      -0.356  -0.771   1.256  0.00  0.00     0.169 HD
ENDBRANCH   1   7
BRANCH   2  12
ATOM     12  N   UNL d   1       2.987   0.701   6.170  0.00  0.00    -0.328 N 
ATOM     13  C   UNL d   1       2.792   0.035   7.366  0.00  0.00     0.218 C 
ATOM     14  O   UNL d   1       1.938  -0.812   7.605  0.00  0.00    -0.274 OA
ATOM     15  C   UNL d   1       3.779   0.433   8.437  0.00  0.00     0.117 C 
ATOM     16  H   UNL d   1       3.740   1.377   6.135  0.00  0.00     0.169 HD
ENDBRANCH   2  12
TORSDOF 2
