REMARK  5 active torsions:
REMARK  status: ('A' for Active; 'I' for Inactive)
REMARK    1  A    between atoms: C_8  and  C_3 
REMARK    2  A    between atoms: S_4  and  C_9 
REMARK    3  A    between atoms: C_16  and  S_4 
REMARK    4  A    between atoms: C_9  and  C_5 
REMARK    5  A    between atoms: C_18  and  C_16 
ROOT
ATOM      1  N   UNL d   1       0.714  -4.228   1.579  0.00  0.00    -0.322 N 
ATOM      2  HN  UNL d   1       0.913  -5.044   1.001  1.00  0.00     0.169 HD
ATOM      3  C   UNL d   1       0.244  -4.176   2.872  0.00  0.00     0.138 A 
ATOM      4  C   UNL d   1       0.840  -2.953   1.284  0.00  0.00     0.162 A 
ATOM      5  N   UNL d   1       0.089  -2.940   3.362  0.00  0.00    -0.242 N 
ATOM      6  HN  UNL d   1      -0.238  -2.663   4.288  1.00  0.00     0.196 HD
ATOM      7  O   UNL d   1       0.482  -2.121   2.304  0.00  0.00    -0.222 OA
ENDROOT
BRANCH   4   8
ATOM      8  C   UNL d   1       1.234  -2.326   0.018  0.00  0.00     0.227 C 
BRANCH   8   9
ATOM      9  S   UNL d   1       2.993  -2.090   0.023  0.00  0.00     0.155 S 
ATOM     10  O   UNL d   1       3.319  -1.518  -1.274  0.00  0.00    -0.227 OA
ATOM     11  O   UNL d   1       3.353  -1.387   1.240  0.00  0.00    -0.227 OA
BRANCH   9  12
ATOM     12  C   UNL d   1       3.660  -3.758   0.079  0.00  0.00     0.179 C 
BRANCH  12  13
ATOM     13  C   UNL d   1       5.166  -3.693   0.038  0.00  0.00    -0.044 A 
ATOM     14  C   UNL d   1       5.903  -3.634   1.231  0.00  0.00     0.010 A 
ATOM     15  C   UNL d   1       7.298  -3.572   1.200  0.00  0.00     0.024 A 
ATOM     16  C   UNL d   1       7.965  -3.566  -0.023  0.00  0.00     0.034 A 
ATOM     17  C   UNL d   1       7.247  -3.616  -1.215  0.00  0.00     0.024 A 
ATOM     18 CL   UNL d   1       9.683  -3.493  -0.060  0.00  0.00    -0.084 Cl
ATOM     19  C   UNL d   1       5.852  -3.678  -1.186  0.00  0.00     0.010 A 
ENDBRANCH  12  13
ENDBRANCH   9  12
ENDBRANCH   8   9
ENDBRANCH   4   8
BRANCH   3  20
ATOM     20  C   UNL d   1      -0.066  -5.406   3.601  0.00  0.00     0.017 A 
ATOM     21  C   UNL d   1       0.094  -6.683   3.104  0.00  0.00     0.065 A 
ATOM     22  S   UNL d   1      -0.385  -7.882   4.228  0.00  0.00    -0.113 SA
ATOM     23  C   UNL d   1      -0.810  -6.700   5.390  0.00  0.00     0.050 A 
ATOM     24  C   UNL d   1      -0.588  -5.419   4.932  0.00  0.00     0.023 A 
ENDBRANCH   3  20
TORSDOF 5
