REMARK  6 active torsions:
REMARK  status: ('A' for Active; 'I' for Inactive)
REMARK    1  A    between atoms: S_2  and  C_1 
REMARK    2  A    between atoms: N_7  and  S_2 
REMARK    3  A    between atoms: C_10  and  C_3 
REMARK    4  A    between atoms: O_16  and  C_4 
REMARK    5  A    between atoms: C_8  and  N_7 
REMARK    6  A    between atoms: O_17  and  C_10 
ROOT
ATOM      1  S   UNL d   1      -0.569   3.043   0.102  0.00  0.00     0.251 S 
ATOM      2  O   UNL d   1      -1.694   2.978   1.013  0.00  0.00    -0.205 OA
ATOM      3  O   UNL d   1       0.445   4.063   0.240  0.00  0.00    -0.205 OA
ENDROOT
BRANCH   1   4
ATOM      4  C   UNL d   1       0.221   1.435   0.218  0.00  0.00     0.149 A 
ATOM      5  C   UNL d   1      -0.135   0.105  -0.016  0.00  0.00     0.114 A 
ATOM      6  C   UNL d   1       0.982  -0.808   0.155  0.00  0.00     0.081 A 
ATOM      7  C   UNL d   1       2.136  -0.124   0.485  0.00  0.00     0.071 A 
ATOM      8  S   UNL d   1       1.874   1.533   0.717  0.00  0.00    -0.085 SA
BRANCH   5   9
ATOM      9  O   UNL d   1      -1.322  -0.413  -0.435  0.00  0.00    -0.353 OA
ATOM     10  C   UNL d   1      -2.493   0.371  -0.352  0.00  0.00     0.210 C 
ENDBRANCH   5   9
BRANCH   6  11
ATOM     11  C   UNL d   1       1.000  -2.269   0.009  0.00  0.00     0.296 C 
ATOM     12  O   UNL d   1       2.034  -2.926   0.092  0.00  0.00    -0.259 OA
BRANCH  11  13
ATOM     13  O   UNL d   1      -0.229  -2.818  -0.191  0.00  0.00    -0.322 OA
ATOM     14  C   UNL d   1      -0.241  -4.241  -0.282  0.00  0.00     0.213 C 
ENDBRANCH  11  13
ENDBRANCH   6  11
ENDBRANCH   1   4
BRANCH   1  15
ATOM     15  N   UNL d   1      -1.214   3.196  -1.442  0.00  0.00    -0.202 NA
ATOM     16  H   UNL d   1      -2.159   3.591  -1.416  0.00  0.00     0.141 HD
BRANCH  15  17
ATOM     17  C   UNL d   1      -0.376   3.811  -2.509  0.00  0.00     0.163 C 
ATOM     18  C   UNL d   1      -1.280   4.018  -3.738  0.00  0.00     0.236 C 
ATOM     19  N   UNL d   1      -0.726   4.554  -4.867  0.00  0.00    -0.360 N 
ATOM     20  O   UNL d   1      -2.482   3.741  -3.734  0.00  0.00    -0.272 OA
ATOM     21  C   UNL d   1       0.578   5.174  -4.980  0.00  0.00     0.122 C 
ATOM     22  H   UNL d   1      -1.386   4.672  -5.627  0.00  0.00     0.162 HD
ATOM     23  C   UNL d   1       1.724   4.176  -4.885  0.00  0.00     0.020 C 
ATOM     24  C   UNL d   1       1.975   3.673  -3.469  0.00  0.00     0.004 C 
ATOM     25  C   UNL d   1       0.799   2.904  -2.876  0.00  0.00     0.030 C 
ENDBRANCH  15  17
ENDBRANCH   1  15
TORSDOF 6
