REMARK  5 active torsions:
REMARK  status: ('A' for Active; 'I' for Inactive)
REMARK    1  A    between atoms: C_2  and  C_1 
REMARK       I    between atoms: N_5  and  C_2 
REMARK    2  A    between atoms: C_3  and  C_4 
REMARK    3  A    between atoms: C_7  and  N_5 
REMARK    4  A    between atoms: O_17  and  C_15 
REMARK    5  A    between atoms: C_22  and  O_17 
ROOT
ATOM      1  C   UNL d   1       1.496   3.103   0.629  0.00  0.00     0.258 C 
ATOM      2  N   UNL d   1       0.543   3.835  -0.060  0.00  0.00    -0.323 N 
ATOM      3  O   UNL d   1       1.314   2.409   1.621  0.00  0.00    -0.267 OA
ATOM      4  H   UNL d   1       0.844   4.432  -0.818  0.00  0.00     0.169 HD
ENDROOT
BRANCH   1   5
ATOM      5  C   UNL d   1       2.902   3.225   0.158  0.00  0.00     0.062 A 
ATOM      6  C   UNL d   1       3.359   3.171  -1.165  0.00  0.00     0.066 A 
ATOM      7  C   UNL d   1       4.741   3.337  -1.397  0.00  0.00     0.034 A 
ATOM      8  C   UNL d   1       5.604   3.489  -0.325  0.00  0.00     0.088 A 
ATOM      9  N   UNL d   1       5.190   3.487   0.953  0.00  0.00    -0.374 N 
ATOM     10  C   UNL d   1       3.860   3.349   1.168  0.00  0.00     0.105 A 
ATOM     11  HN  UNL d   1       5.848   3.586   1.726  1.00  0.00     0.164 HD
BRANCH   6  12
ATOM     12  C   UNL d   1       2.498   2.914  -2.367  0.00  0.00     0.418 C 
ATOM     13  F   UNL d   1       1.257   2.435  -2.107  0.00  0.00    -0.166 F 
ATOM     14  F   UNL d   1       2.311   4.051  -3.093  0.00  0.00    -0.166 F 
ATOM     15  F   UNL d   1       3.060   2.016  -3.225  0.00  0.00    -0.166 F 
ENDBRANCH   6  12
ENDBRANCH   1   5
BRANCH   2  16
ATOM     16  C   UNL d   1      -0.859   3.805   0.158  0.00  0.00     0.037 A 
ATOM     17  C   UNL d   1      -1.479   3.002   1.121  0.00  0.00     0.066 A 
ATOM     18  C   UNL d   1      -2.871   2.976   1.253  0.00  0.00     0.070 A 
ATOM     19  C   UNL d   1      -3.651   3.783   0.428  0.00  0.00     0.037 A 
ATOM     20  C   UNL d   1      -3.050   4.601  -0.528  0.00  0.00     0.005 A 
ATOM     21  C   UNL d   1      -1.659   4.608  -0.666  0.00  0.00     0.029 A 
BRANCH  18  22
ATOM     22  O   UNL d   1      -3.574   2.199   2.138  0.00  0.00    -0.351 OA
BRANCH  22  23
ATOM     23  C   UNL d   1      -2.808   1.319   2.964  0.00  0.00     0.171 C 
ATOM     24  C   UNL d   1      -3.763   0.469   3.782  0.00  0.00     0.034 C 
ENDBRANCH  22  23
ENDBRANCH  18  22
ENDBRANCH   2  16
TORSDOF 5
