REMARK  3 active torsions:
REMARK  status: ('A' for Active; 'I' for Inactive)
REMARK    1  A    between atoms: N_5  and  N_1 
REMARK       I    between atoms: C_3  and  N_5 
REMARK    2  A    between atoms: O_9  and  C_3 
REMARK    3  A    between atoms: C_15  and  O_9 
ROOT
ATOM      1  N   UNL d   1       1.615  -2.220  -0.058  0.00  0.00    -0.300 N 
ATOM      2  HN  UNL d   1       0.822  -2.860  -0.105  1.00  0.00     0.186 HD
ATOM      3  C   UNL d   1       1.401  -0.939  -0.009  0.00  0.00     0.036 C 
ATOM      4  C   UNL d   1      -0.024  -0.476   0.004  0.00  0.00    -0.006 A 
ATOM      5  C   UNL d   1      -0.332   0.890   0.092  0.00  0.00    -0.046 A 
ATOM      6  C   UNL d   1       2.489   0.118   0.078  0.00  0.00     0.060 C 
ATOM      7  C   UNL d   1       2.026   1.464  -0.460  0.00  0.00     0.011 C 
ATOM      8  C   UNL d   1      -1.056  -1.422  -0.087  0.00  0.00     0.014 A 
ATOM      9  C   UNL d   1       0.752   1.922   0.235  0.00  0.00     0.040 C 
ATOM     10  C   UNL d   1      -1.677   1.289   0.081  0.00  0.00     0.008 A 
ATOM     11  C   UNL d   1      -2.389  -1.012  -0.107  0.00  0.00     0.001 A 
ATOM     12  C   UNL d   1      -2.698   0.343  -0.026  0.00  0.00     0.001 A 
ENDROOT
BRANCH   1  13
ATOM     13  N   UNL d   1       2.873  -2.720  -0.050  0.00  0.00    -0.245 N 
ATOM     14  C   UNL d   1       3.058  -4.077   0.054  0.00  0.00     0.379 C 
ATOM     15  O   UNL d   1       2.177  -4.929   0.088  0.00  0.00    -0.237 OA
ATOM     16  H   UNL d   1       3.686  -2.131   0.052  0.00  0.00     0.192 HD
BRANCH  14  17
ATOM     17  O   UNL d   1       4.386  -4.337   0.195  0.00  0.00    -0.303 OA
BRANCH  17  18
ATOM     18  C   UNL d   1       4.683  -5.639   0.718  0.00  0.00     0.176 C 
ATOM     19  C   UNL d   1       4.692  -5.535   2.232  0.00  0.00     0.034 C 
ENDBRANCH  17  18
ENDBRANCH  14  17
ENDBRANCH   1  13
TORSDOF 3
