REMARK  5 active torsions:
REMARK  status: ('A' for Active; 'I' for Inactive)
REMARK    1  A    between atoms: C_9  and  N_1 
REMARK    2  A    between atoms: N_7  and  N_2 
REMARK       I    between atoms: C_8  and  N_7 
REMARK    3  A    between atoms: C_15  and  C_8 
REMARK    4  A    between atoms: C_19  and  N_10 
REMARK    5  A    between atoms: N_11  and  C_15 
ROOT
ATOM      1  N   UNL d   1       1.201   2.127   1.071  0.00  0.00    -0.263 N 
ATOM      2  C   UNL d   1       2.504   2.276   0.622  0.00  0.00     0.264 C 
ATOM      3  O   UNL d   1       2.934   3.312   0.116  0.00  0.00    -0.270 OA
ATOM      4  H   UNL d   1       0.969   1.352   1.691  0.00  0.00     0.190 HD
ENDROOT
BRANCH   1   5
ATOM      5  N   UNL d   1       0.320   3.216   0.981  0.00  0.00    -0.248 N 
ATOM      6  C   UNL d   1      -0.411   3.593   2.100  0.00  0.00     0.257 C 
ATOM      7  C   UNL d   1      -1.399   4.734   1.802  0.00  0.00     0.236 C 
ATOM      8  O   UNL d   1      -0.361   3.011   3.180  0.00  0.00    -0.270 OA
ATOM      9  N   UNL d   1      -0.957   5.545   0.659  0.00  0.00    -0.308 N 
ATOM     10  C   UNL d   1      -0.572   4.888  -0.523  0.00  0.00     0.244 C 
ATOM     11  C   UNL d   1      -0.246   3.413  -0.341  0.00  0.00     0.255 C 
ATOM     12  O   UNL d   1      -0.622   5.383  -1.650  0.00  0.00    -0.271 OA
BRANCH   9  13
ATOM     13  C   UNL d   1      -1.198   6.950   0.637  0.00  0.00     0.039 A 
ATOM     14  C   UNL d   1      -2.293   7.526   1.290  0.00  0.00     0.053 A 
ATOM     15  C   UNL d   1      -2.504   8.906   1.209  0.00  0.00     0.036 A 
ATOM     16 CL   UNL d   1      -3.898   9.599   1.946  0.00  0.00    -0.084 Cl
ATOM     17  C   UNL d   1      -1.613   9.730   0.523  0.00  0.00     0.024 A 
ATOM     18  C   UNL d   1      -0.504   9.168  -0.103  0.00  0.00     0.004 A 
ATOM     19  C   UNL d   1      -0.308   7.787  -0.054  0.00  0.00     0.030 A 
ENDBRANCH   9  13
ENDBRANCH   1   5
BRANCH   2  20
ATOM     20  C   UNL d   1       3.393   1.036   0.799  0.00  0.00     0.376 C 
BRANCH  20  21
ATOM     21  N   UNL d   1       2.597  -0.209   0.902  0.00  0.00     0.100 N 
ATOM     22  C   UNL d   1       1.976  -0.599  -0.394  0.00  0.00     0.292 C 
ATOM     23  C   UNL d   1       2.882  -1.297  -1.442  0.00  0.00     0.153 C 
ATOM     24  N   UNL d   1       3.631  -2.409  -0.835  0.00  0.00    -0.378 N 
ATOM     25  C   UNL d   1       4.361  -2.014   0.378  0.00  0.00     0.153 C 
ATOM     26  C   UNL d   1       3.424  -1.336   1.406  0.00  0.00     0.292 C 
BRANCH  24  27
ATOM     27  C   UNL d   1       3.202  -3.715  -1.051  0.00  0.00     0.030 A 
ATOM     28  C   UNL d   1       3.122  -4.679  -0.036  0.00  0.00     0.029 A 
ATOM     29  C   UNL d   1       2.729  -6.002  -0.295  0.00  0.00     0.002 A 
ATOM     30  C   UNL d   1       2.415  -6.399  -1.587  0.00  0.00     0.000 A 
ATOM     31  C   UNL d   1       2.489  -5.470  -2.618  0.00  0.00     0.002 A 
ATOM     32  C   UNL d   1       2.878  -4.154  -2.348  0.00  0.00     0.029 A 
ENDBRANCH  24  27
ENDBRANCH  20  21
ENDBRANCH   2  20
TORSDOF 5
