REMARK  4 active torsions:
REMARK  status: ('A' for Active; 'I' for Inactive)
REMARK    1  A    between atoms: C_5  and  N_1 
REMARK    2  A    between atoms: C_6  and  C_2 
REMARK    3  A    between atoms: C_16  and  C_5 
REMARK    4  A    between atoms: N_10  and  C_9 
ROOT
ATOM      1  N   UNL d   1      -2.414   0.670   0.299  0.00  0.00     0.131 N 
ATOM      2  C   UNL d   1      -1.185   1.408  -0.090  0.00  0.00     0.490 C 
ATOM      3  N   UNL d   1       0.053   0.650   0.242  0.00  0.00     0.131 N 
ATOM      4  C   UNL d   1      -2.438  -0.634  -0.370  0.00  0.00     0.278 C 
ATOM      5  C   UNL d   1       0.051  -0.700  -0.365  0.00  0.00     0.228 C 
ATOM      6  C   UNL d   1      -1.220  -1.477  -0.028  0.00  0.00     0.066 C 
ATOM      7  C   UNL d   1       1.265   1.369  -0.224  0.00  0.00     0.276 C 
ATOM      8  C   UNL d   1       1.279  -1.496   0.115  0.00  0.00     0.036 C 
ATOM      9  C   UNL d   1       2.539   0.658   0.235  0.00  0.00     0.030 C 
ATOM     10  C   UNL d   1       2.575  -0.783  -0.249  0.00  0.00     0.004 C 
ENDROOT
BRANCH   2  11
ATOM     11  C   UNL d   1      -1.176   2.845   0.456  0.00  0.00     0.005 A 
ATOM     12  C   UNL d   1      -0.698   3.154   1.739  0.00  0.00     0.013 A 
ATOM     13  C   UNL d   1      -0.628   4.471   2.199  0.00  0.00     0.030 A 
ATOM     14  C   UNL d   1      -1.014   5.561   1.406  0.00  0.00     0.029 A 
ATOM     15  C   UNL d   1      -1.504   5.237   0.129  0.00  0.00     0.030 A 
ATOM     16  C   UNL d   1      -1.603   3.913  -0.339  0.00  0.00     0.013 A 
BRANCH  14  17
ATOM     17  N   UNL d   1      -0.848   6.882   1.811  0.00  0.00    -0.390 N 
ATOM     18  C   UNL d   1      -1.803   7.908   1.394  0.00  0.00     0.149 C 
ATOM     19  C   UNL d   1      -0.098   7.221   3.017  0.00  0.00     0.149 C 
ENDBRANCH  14  17
ENDBRANCH   2  11
BRANCH   1  20
ATOM     20  C   UNL d   1      -2.592   0.575   1.760  0.00  0.00     0.314 C 
BRANCH  20  21
ATOM     21  C   UNL d   1      -3.836  -0.156   2.236  0.00  0.00    -0.030 A 
ATOM     22  C   UNL d   1      -3.720  -1.319   3.014  0.00  0.00     0.009 A 
ATOM     23  C   UNL d   1      -4.855  -1.939   3.539  0.00  0.00     0.001 A 
ATOM     24  C   UNL d   1      -6.118  -1.404   3.295  0.00  0.00     0.000 A 
ATOM     25  C   UNL d   1      -6.248  -0.258   2.511  0.00  0.00     0.001 A 
ATOM     26  C   UNL d   1      -5.114   0.361   1.981  0.00  0.00     0.009 A 
ENDBRANCH  20  21
ENDBRANCH   1  20
TORSDOF 4
