REMARK  3 active torsions:
REMARK  status: ('A' for Active; 'I' for Inactive)
REMARK    1  A    between atoms: O_11  and  N_1 
REMARK    2  A    between atoms: O_13  and  N_2 
REMARK    3  A    between atoms: N_7  and  C_8 
ROOT
ATOM      1  N   UNL d   1       1.561  -1.173   0.001  0.00  0.00    -0.227 N 
ATOM      2  N   UNL d   1       1.539   1.111  -0.000  0.00  0.00    -0.227 N 
ATOM      3  C   UNL d   1       0.313  -0.785  -0.002  0.00  0.00     0.091 A 
ATOM      4  C   UNL d   1       2.493  -0.024   0.005  0.00  0.00     0.150 A 
ATOM      5  C   UNL d   1       0.297   0.695  -0.002  0.00  0.00     0.089 A 
ATOM      6  C   UNL d   1      -0.931  -1.549  -0.003  0.00  0.00     0.070 A 
ATOM      7  C   UNL d   1      -2.058  -0.813  -0.003  0.00  0.00     0.105 A 
ATOM      8  C   UNL d   1      -0.969   1.416  -0.004  0.00  0.00     0.036 A 
ATOM      9  C   UNL d   1      -2.076   0.653  -0.004  0.00  0.00     0.038 A 
ATOM     10  C   UNL d   1       3.301  -0.024  -1.274  0.00  0.00     0.067 C 
ATOM     11  C   UNL d   1       3.284  -0.023   1.295  0.00  0.00     0.067 C 
ENDROOT
BRANCH   7  12
ATOM     12  N   UNL d   1      -3.330  -1.560  -0.001  0.00  0.00    -0.116 N 
ATOM     13  O   UNL d   1      -3.286  -2.799  -0.001  0.00  0.00    -0.532 OA
ATOM     14  O   UNL d   1      -4.375  -0.897   0.001  0.00  0.00    -0.532 OA
ENDBRANCH   7  12
BRANCH   1  15
ATOM     15  O   UNL d   1       1.928  -2.387   0.002  0.00  0.00    -0.285 OA
ATOM     16  HO  UNL d   1       2.835  -2.670   0.004  1.00  0.00     0.245 HD
ENDBRANCH   1  15
BRANCH   2  17
ATOM     17  O   UNL d   1       1.885   2.331  -0.000  0.00  0.00    -0.285 OA
ATOM     18  HO  UNL d   1       1.273   3.058  -0.004  1.00  0.00     0.245 HD
ENDBRANCH   2  17
TORSDOF 3
