REMARK  3 active torsions:
REMARK  status: ('A' for Active; 'I' for Inactive)
REMARK    1  A    between atoms: N_14  and  C_2 
REMARK    2  A    between atoms: C_13  and  C_6 
REMARK    3  A    between atoms: C_7  and  C_12 
ROOT
ATOM      1  C   UNL d   1       2.604   0.167  -0.039  0.00  0.00     0.080 C 
ATOM      2  C   UNL d   1       1.999  -1.034   0.078  0.00  0.00     0.138 C 
ATOM      3  C   UNL d   1      -0.201  -0.076   0.025  0.00  0.00     0.095 A 
ATOM      4  O   UNL d   1       0.623  -1.180  -0.030  0.00  0.00    -0.296 OA
ATOM      5  C   UNL d   1       0.322   1.221   0.009  0.00  0.00    -0.009 A 
ATOM      6  C   UNL d   1       1.804   1.431  -0.239  0.00  0.00     0.102 C 
ATOM      7  C   UNL d   1       4.018   0.293   0.081  0.00  0.00     0.100 C 
ATOM      8  C   UNL d   1      -1.596  -0.301   0.054  0.00  0.00     0.009 A 
ATOM      9  N   UNL d   1       5.170   0.399   0.171  0.00  0.00    -0.191 NA
ATOM     10  C   UNL d   1      -0.550   2.314   0.099  0.00  0.00     0.012 A 
ATOM     11  C   UNL d   1      -2.464   0.816   0.107  0.00  0.00    -0.023 A 
ATOM     12  C   UNL d   1      -1.928   2.111   0.149  0.00  0.00     0.013 A 
ATOM     13  C   UNL d   1      -2.165  -1.591   0.008  0.00  0.00     0.015 A 
ATOM     14  C   UNL d   1      -3.854   0.617   0.101  0.00  0.00     0.012 A 
ATOM     15  C   UNL d   1      -3.549  -1.772  -0.001  0.00  0.00     0.001 A 
ATOM     16  C   UNL d   1      -4.393  -0.669   0.043  0.00  0.00     0.001 A 
ENDROOT
BRANCH   2  17
ATOM     17  N   UNL d   1       2.639  -2.234   0.291  0.00  0.00    -0.282 NA
ATOM     18  H   UNL d   1       3.612  -2.282  -0.001  0.00  0.00     0.126 HD
ATOM     19  H   UNL d   1       2.082  -3.028  -0.015  0.00  0.00     0.126 HD
ENDBRANCH   2  17
BRANCH   6  20
ATOM     20  C   UNL d   1       2.018   2.046  -1.627  0.00  0.00    -0.044 A 
ATOM     21  C   UNL d   1       2.652   3.290  -1.762  0.00  0.00     0.009 A 
ATOM     22  C   UNL d   1       2.736   3.909  -3.013  0.00  0.00     0.017 A 
ATOM     23  C   UNL d   1       2.192   3.298  -4.154  0.00  0.00     0.047 A 
ATOM     24  C   UNL d   1       1.590   2.041  -4.024  0.00  0.00     0.017 A 
ATOM     25  C   UNL d   1       1.512   1.419  -2.778  0.00  0.00     0.009 A 
BRANCH  23  26
ATOM     26  C   UNL d   1       2.242   4.000  -5.488  0.00  0.00     0.417 C 
ATOM     27  F   UNL d   1       1.682   3.284  -6.503  0.00  0.00    -0.166 F 
ATOM     28  F   UNL d   1       1.585   5.194  -5.471  0.00  0.00    -0.166 F 
ATOM     29  F   UNL d   1       3.513   4.279  -5.886  0.00  0.00    -0.166 F 
ENDBRANCH  23  26
ENDBRANCH   6  20
TORSDOF 3
