REMARK  4 active torsions:
REMARK  status: ('A' for Active; 'I' for Inactive)
REMARK    1  A    between atoms: C_2  and  C_1 
REMARK    2  A    between atoms: O_11  and  C_2 
REMARK    3  A    between atoms: N_6  and  O_11 
REMARK    4  A    between atoms: C_14  and  C_13 
ROOT
ATOM      1  N   UNL d   1       0.371   3.791  -2.401  0.00  0.00    -0.268 N 
ATOM      2  HN  UNL d   1      -0.318   3.572  -3.121  1.00  0.00     0.194 HD
ATOM      3  C   UNL d   1       1.177   4.800  -2.436  0.00  0.00     0.126 C 
ENDROOT
BRANCH   3   4
ATOM      4  C   UNL d   1       1.157   5.733  -3.581  0.00  0.00    -0.017 A 
ATOM      5  C   UNL d   1       2.047   6.810  -3.606  0.00  0.00     0.040 A 
ATOM      6  C   UNL d   1       2.035   7.679  -4.699  0.00  0.00     0.073 A 
ATOM      7 CL   UNL d   1       3.136   9.003  -4.736  0.00  0.00    -0.081 Cl
ATOM      8  C   UNL d   1       1.141   7.473  -5.751  0.00  0.00     0.138 A 
ATOM      9  C   UNL d   1       0.251   6.404  -5.725  0.00  0.00     0.045 A 
ATOM     10  F   UNL d   1       1.124   8.299  -6.808  0.00  0.00    -0.204 F 
ATOM     11  C   UNL d   1       0.257   5.531  -4.638  0.00  0.00     0.016 A 
ENDBRANCH   3   4
BRANCH   1  12
ATOM     12  O   UNL d   1       0.575   3.036  -1.231  0.00  0.00    -0.200 OA
BRANCH  12  13
ATOM     13  C   UNL d   1      -0.285   1.963  -1.230  0.00  0.00     0.285 C 
ATOM     14  O   UNL d   1      -1.120   1.680  -2.081  0.00  0.00    -0.263 OA
BRANCH  13  15
ATOM     15  C   UNL d   1      -0.094   1.123  -0.015  0.00  0.00     0.087 A 
ATOM     16  C   UNL d   1      -0.287  -0.376  -0.093  0.00  0.00     0.015 A 
ATOM     17  C   UNL d   1      -1.286   0.467   0.646  0.00  0.00     0.015 A 
ENDBRANCH  13  15
ENDBRANCH  12  13
ENDBRANCH   1  12
TORSDOF 4
