REMARK  10 active torsions:
REMARK  status: ('A' for Active; 'I' for Inactive)
REMARK    1  A    between atoms: C_20  and  N_1 
REMARK    2  A    between atoms: C_8  and  C_2 
REMARK    3  A    between atoms: S_16  and  C_5 
REMARK       I    between atoms: C_9  and  N_10 
REMARK       I    between atoms: N_18  and  C_9 
REMARK       I    between atoms: N_10  and  C_17 
REMARK    4  A    between atoms: O_25  and  C_11 
REMARK    5  A    between atoms: O_26  and  C_12 
REMARK    6  A    between atoms: O_27  and  C_13 
REMARK    7  A    between atoms: C_22  and  S_16 
REMARK    8  A    between atoms: C_17  and  C_22 
REMARK    9  A    between atoms: C_28  and  N_18 
REMARK   10  A    between atoms: C_23  and  C_20 
ROOT
ATOM      1  N   UNL d   1      -0.051  -0.513   0.370  0.00  0.00    -0.307 N 
ATOM      2  C   UNL d   1       1.244   0.010   0.127  0.00  0.00     0.135 A 
ATOM      3  N   UNL d   1       1.169   1.327   0.203  0.00  0.00    -0.283 N 
ATOM      4  HN  UNL d   1       1.934   1.975   0.013  1.00  0.00     0.188 HD
ATOM      5  C   UNL d   1      -0.818   0.589   0.701  0.00  0.00     0.163 A 
ATOM      6  N   UNL d   1      -0.101   1.682   0.577  0.00  0.00    -0.278 N 
ATOM      7  HN  UNL d   1      -0.432   2.634   0.733  1.00  0.00     0.189 HD
ENDROOT
BRANCH   5   8
ATOM      8  S   UNL d   1      -2.499   0.643   1.126  0.00  0.00    -0.083 SA
BRANCH   8   9
ATOM      9  C   UNL d   1      -2.669   2.062   2.257  0.00  0.00     0.185 C 
BRANCH   9  10
ATOM     10  C   UNL d   1      -3.376   3.288   1.664  0.00  0.00     0.235 C 
ATOM     11  N   UNL d   1      -2.692   3.917   0.639  0.00  0.00    -0.278 N 
ATOM     12  C   UNL d   1      -3.018   5.011  -0.140  0.00  0.00     0.327 C 
ATOM     13  H   UNL d   1      -1.896   3.420   0.253  0.00  0.00     0.173 HD
ATOM     14  N   UNL d   1      -4.045   5.820   0.291  0.00  0.00    -0.309 N 
ATOM     15  O   UNL d   1      -2.343   5.179  -1.155  0.00  0.00    -0.247 OA
ATOM     16  H   UNL d   1      -4.405   5.636   1.223  0.00  0.00     0.170 HD
ATOM     17  O   UNL d   1      -4.397   3.753   2.160  0.00  0.00    -0.272 OA
BRANCH  14  18
ATOM     18  C   UNL d   1      -4.551   6.964  -0.398  0.00  0.00     0.036 A 
ATOM     19  C   UNL d   1      -4.275   7.226  -1.746  0.00  0.00     0.029 A 
ATOM     20  C   UNL d   1      -4.793   8.356  -2.395  0.00  0.00     0.002 A 
ATOM     21  C   UNL d   1      -5.596   9.253  -1.700  0.00  0.00     0.000 A 
ATOM     22  C   UNL d   1      -5.887   9.012  -0.361  0.00  0.00     0.002 A 
ATOM     23  C   UNL d   1      -5.377   7.870   0.285  0.00  0.00     0.029 A 
ENDBRANCH  14  18
ENDBRANCH   9  10
ENDBRANCH   8   9
ENDBRANCH   5   8
BRANCH   1  24
ATOM     24  C   UNL d   1      -0.252  -1.965   0.430  0.00  0.00     0.159 C 
BRANCH  24  25
ATOM     25  C   UNL d   1      -1.493  -2.766   0.203  0.00  0.00    -0.017 C 
ATOM     26  C   UNL d   1      -2.764  -2.503  -0.107  0.00  0.00     0.008 C 
ENDBRANCH  24  25
ENDBRANCH   1  24
BRANCH   2  27
ATOM     27  C   UNL d   1       2.488  -0.750  -0.194  0.00  0.00     0.015 A 
ATOM     28  C   UNL d   1       3.315  -0.348  -1.257  0.00  0.00     0.055 A 
ATOM     29  C   UNL d   1       4.441  -1.107  -1.650  0.00  0.00     0.105 A 
ATOM     30  C   UNL d   1       4.750  -2.306  -0.972  0.00  0.00     0.135 A 
ATOM     31  C   UNL d   1       3.974  -2.673   0.142  0.00  0.00     0.105 A 
ATOM     32  C   UNL d   1       2.877  -1.884   0.528  0.00  0.00     0.055 A 
BRANCH  29  33
ATOM     33  O   UNL d   1       5.239  -0.776  -2.714  0.00  0.00    -0.353 OA
ATOM     34  C   UNL d   1       5.051   0.479  -3.350  0.00  0.00     0.210 C 
ENDBRANCH  29  33
BRANCH  30  35
ATOM     35  O   UNL d   1       5.680  -3.224  -1.397  0.00  0.00    -0.351 OA
ATOM     36  C   UNL d   1       6.905  -2.751  -1.944  0.00  0.00     0.210 C 
ENDBRANCH  30  35
BRANCH  31  37
ATOM     37  O   UNL d   1       4.117  -3.794   0.925  0.00  0.00    -0.353 OA
ATOM     38  C   UNL d   1       5.412  -4.379   1.015  0.00  0.00     0.210 C 
ENDBRANCH  31  37
ENDBRANCH   2  27
TORSDOF 10
