REMARK  2 active torsions:
REMARK  status: ('A' for Active; 'I' for Inactive)
REMARK       I    between atoms: C_8  and  N_1 
REMARK    1  A    between atoms: C_2  and  C_5 
REMARK    2  A    between atoms: C_12  and  C_8 
ROOT
ATOM      1  N   UNL d   1       0.845  -0.528  -0.124  0.00  0.00    -0.230 N 
ATOM      2  N   UNL d   1       0.914   0.784   0.265  0.00  0.00    -0.289 N 
ATOM      3  HN  UNL d   1       1.749   1.316   0.513  1.00  0.00     0.188 HD
ATOM      4  C   UNL d   1      -0.351   1.215   0.248  0.00  0.00     0.084 A 
ATOM      5  C   UNL d   1       2.009  -1.329  -0.298  0.00  0.00     0.283 C 
ATOM      6  C   UNL d   1      -1.248   0.193  -0.139  0.00  0.00     0.053 A 
ATOM      7  C   UNL d   1      -0.470  -0.922  -0.282  0.00  0.00     0.122 A 
ATOM      8  O   UNL d   1       1.784  -2.535  -0.363  0.00  0.00    -0.265 OA
ENDROOT
BRANCH   4   9
ATOM      9  C   UNL d   1      -0.801   2.566   0.726  0.00  0.00     0.103 C 
ATOM     10  N   UNL d   1      -2.039   2.969   0.534  0.00  0.00    -0.348 N 
ATOM     11  C   UNL d   1      -2.346   3.937   1.465  0.00  0.00     0.050 A 
ATOM     12  HN  UNL d   1      -2.670   2.621  -0.188  1.00  0.00     0.167 HD
ATOM     13  C   UNL d   1      -3.633   4.453   1.704  0.00  0.00     0.031 A 
ATOM     14  C   UNL d   1      -1.288   4.337   2.284  0.00  0.00     0.033 A 
ATOM     15  C   UNL d   1      -3.856   5.227   2.845  0.00  0.00     0.002 A 
ATOM     16  C   UNL d   1      -2.798   5.569   3.683  0.00  0.00     0.002 A 
ATOM     17  C   UNL d   1      -1.486   5.183   3.385  0.00  0.00     0.021 A 
ATOM     18  S   UNL d   1       0.159   3.585   1.718  0.00  0.00    -0.068 SA
ENDBRANCH   4   9
BRANCH   5  19
ATOM     19  C   UNL d   1       3.340  -0.747  -0.449  0.00  0.00     0.074 A 
ATOM     20  S   UNL d   1       4.693  -1.818  -0.507  0.00  0.00    -0.097 SA
ATOM     21  C   UNL d   1       5.781  -0.544  -0.834  0.00  0.00     0.050 A 
ATOM     22  C   UNL d   1       5.151   0.676  -0.870  0.00  0.00     0.009 A 
ATOM     23  C   UNL d   1       3.750   0.559  -0.637  0.00  0.00     0.025 A 
ENDBRANCH   5  19
TORSDOF 2
