REMARK  4 active torsions:
REMARK  status: ('A' for Active; 'I' for Inactive)
REMARK    1  A    between atoms: C_2  and  C_1 
REMARK       I    between atoms: N_6  and  C_1 
REMARK    2  A    between atoms: S_7  and  C_3 
REMARK    3  A    between atoms: C_12  and  N_6 
REMARK    4  A    between atoms: C_18  and  S_7 
ROOT
ATOM      1  C   UNL d   1       0.448  -0.637  -0.099  0.00  0.00     0.259 C 
ATOM      2  N   UNL d   1      -0.554  -1.464   0.385  0.00  0.00    -0.323 N 
ATOM      3  O   UNL d   1       1.605  -0.977  -0.295  0.00  0.00    -0.267 OA
ATOM      4  H   UNL d   1      -1.513  -1.211   0.181  0.00  0.00     0.169 HD
ENDROOT
BRANCH   1   5
ATOM      5  C   UNL d   1      -0.004   0.757  -0.371  0.00  0.00     0.066 A 
ATOM      6  C   UNL d   1       0.372   1.513  -1.484  0.00  0.00     0.090 A 
ATOM      7  N   UNL d   1      -0.061   2.798  -1.651  0.00  0.00    -0.359 N 
ATOM      8  C   UNL d   1      -0.833   3.354  -0.695  0.00  0.00     0.089 A 
ATOM      9  HN  UNL d   1       0.196   3.328  -2.484  1.00  0.00     0.166 HD
ATOM     10  C   UNL d   1      -1.250   2.679   0.431  0.00  0.00     0.018 A 
ATOM     11  C   UNL d   1      -0.828   1.365   0.595  0.00  0.00     0.021 A 
BRANCH   6  12
ATOM     12  S   UNL d   1       1.270   0.869  -2.885  0.00  0.00    -0.072 SA
BRANCH  12  13
ATOM     13  C   UNL d   1       2.782   1.824  -2.873  0.00  0.00     0.007 A 
ATOM     14  C   UNL d   1       3.998   1.133  -2.917  0.00  0.00     0.019 A 
ATOM     15  C   UNL d   1       5.213   1.825  -2.929  0.00  0.00     0.001 A 
ATOM     16  C   UNL d   1       5.225   3.217  -2.902  0.00  0.00     0.000 A 
ATOM     17  C   UNL d   1       4.021   3.917  -2.883  0.00  0.00     0.001 A 
ATOM     18  C   UNL d   1       2.807   3.223  -2.884  0.00  0.00     0.019 A 
ENDBRANCH  12  13
ENDBRANCH   6  12
ENDBRANCH   1   5
BRANCH   2  19
ATOM     19  C   UNL d   1      -0.362  -2.734   0.953  0.00  0.00     0.035 A 
ATOM     20  C   UNL d   1      -1.259  -3.745   0.599  0.00  0.00     0.043 A 
ATOM     21  C   UNL d   1      -1.294  -4.949   1.308  0.00  0.00    -0.007 A 
ATOM     22  C   UNL d   1      -2.225  -5.936   1.000  0.00  0.00     0.015 A 
ATOM     23  C   UNL d   1      -0.420  -5.156   2.396  0.00  0.00     0.042 A 
ATOM     24  C   UNL d   1      -2.319  -7.072   1.804  0.00  0.00     0.025 A 
ATOM     25  C   UNL d   1      -1.435  -7.205   2.862  0.00  0.00     0.005 A 
ATOM     26  N   UNL d   1      -0.490  -6.275   3.151  0.00  0.00    -0.359 N 
ATOM     27  C   UNL d   1      -1.555  -8.371   3.801  0.00  0.00     0.068 C 
ATOM     28  HN  UNL d   1       0.157  -6.418   3.926  1.00  0.00     0.166 HD
ATOM     29  C   UNL d   1       0.495  -4.164   2.699  0.00  0.00     0.033 A 
ATOM     30  C   UNL d   1       0.543  -2.953   1.987  0.00  0.00     0.032 A 
ENDBRANCH   2  19
TORSDOF 4
