REMARK  7 active torsions:
REMARK  status: ('A' for Active; 'I' for Inactive)
REMARK    1  A    between atoms: C_6  and  C_1 
REMARK    2  A    between atoms: N_16  and  C_2 
REMARK       I    between atoms: N_11  and  C_6 
REMARK    3  A    between atoms: C_10  and  N_12 
REMARK    4  A    between atoms: N_18  and  C_10 
REMARK    5  A    between atoms: N_12  and  N_11 
REMARK    6  A    between atoms: C_22  and  N_18 
REMARK    7  A    between atoms: C_19  and  C_22 
ROOT
ATOM      1  C   UNL d   1       2.481  -0.040  -0.019  0.00  0.00     0.103 A 
ATOM      2  C   UNL d   1       1.648   1.069  -0.000  0.00  0.00     0.062 A 
ATOM      3  C   UNL d   1       0.235   0.738  -0.001  0.00  0.00     0.032 A 
ATOM      4  S   UNL d   1       1.573  -1.489  -0.019  0.00  0.00    -0.064 SA
ATOM      5  C   UNL d   1       0.098  -0.651  -0.005  0.00  0.00     0.088 A 
ATOM      6  N   UNL d   1      -1.040  -1.371  -0.003  0.00  0.00    -0.354 N 
ATOM      7  HN  UNL d   1      -1.042  -2.391  -0.008  1.00  0.00     0.166 HD
ATOM      8  C   UNL d   1      -0.986   1.477   0.009  0.00  0.00    -0.045 A 
ATOM      9  C   UNL d   1      -2.188   0.738   0.009  0.00  0.00     0.032 A 
ATOM     10  C   UNL d   1      -2.170  -0.649   0.006  0.00  0.00     0.006 A 
ATOM     11  C   UNL d   1      -1.142   2.975   0.014  0.00  0.00     0.049 C 
ATOM     12  C   UNL d   1      -3.463  -1.412   0.008  0.00  0.00     0.068 C 
ENDROOT
BRANCH   1  13
ATOM     13  C   UNL d   1       3.944  -0.075  -0.011  0.00  0.00     0.279 C 
ATOM     14  N   UNL d   1       4.512  -1.333  -0.139  0.00  0.00    -0.263 N 
ATOM     15  H   UNL d   1       3.930  -2.166  -0.153  0.00  0.00     0.190 HD
ATOM     16  O   UNL d   1       4.651   0.925   0.122  0.00  0.00    -0.265 OA
BRANCH  14  17
ATOM     17  N   UNL d   1       5.868  -1.516   0.142  0.00  0.00    -0.274 N 
ATOM     18  H   UNL d   1       6.364  -0.692   0.482  0.00  0.00     0.189 HD
BRANCH  17  19
ATOM     19  C   UNL d   1       6.604  -2.484  -0.497  0.00  0.00     0.186 C 
ATOM     20  S   UNL d   1       6.107  -3.400  -1.800  0.00  0.00    -0.040 SA
BRANCH  19  21
ATOM     21  N   UNL d   1       7.827  -2.741   0.063  0.00  0.00    -0.363 N 
ATOM     22  H   UNL d   1       8.352  -3.455  -0.430  0.00  0.00     0.162 HD
BRANCH  21  23
ATOM     23  C   UNL d   1       8.085  -2.641   1.486  0.00  0.00     0.148 C 
BRANCH  23  24
ATOM     24  C   UNL d   1       9.202  -1.681   1.702  0.00  0.00    -0.018 C 
ATOM     25  C   UNL d   1       9.072  -0.519   2.357  0.00  0.00     0.008 C 
ENDBRANCH  23  24
ENDBRANCH  21  23
ENDBRANCH  19  21
ENDBRANCH  17  19
ENDBRANCH  14  17
ENDBRANCH   1  13
BRANCH   2  26
ATOM     26  N   UNL d   1       2.163   2.319   0.016  0.00  0.00    -0.397 N 
ATOM     27  H   UNL d   1       3.175   2.468  -0.009  0.00  0.00     0.156 HD
ATOM     28  H   UNL d   1       1.634   3.173  -0.080  0.00  0.00     0.156 HD
ENDBRANCH   2  26
TORSDOF 7
