REMARK  8 active torsions:
REMARK  status: ('A' for Active; 'I' for Inactive)
REMARK    1  A    between atoms: N_2  and  C_1 
REMARK    2  A    between atoms: N_4  and  C_3 
REMARK       I    between atoms: N_5  and  C_7 
REMARK    3  A    between atoms: C_6  and  N_5 
REMARK    4  A    between atoms: C_7  and  C_12 
REMARK    5  A    between atoms: C_14  and  C_19 
REMARK    6  A    between atoms: C_16  and  C_23 
REMARK    7  A    between atoms: O_30  and  C_20 
REMARK    8  A    between atoms: O_31  and  C_26 
ROOT
ATOM      1  C   UNL d   1       1.154  -0.166   0.340  0.00  0.00     0.130 A 
ATOM      2  C   UNL d   1       0.355  -1.310   0.112  0.00  0.00     0.063 A 
ATOM      3  C   UNL d   1       0.606   1.124   0.570  0.00  0.00     0.050 A 
ATOM      4  C   UNL d   1      -1.025  -1.058   0.016  0.00  0.00     0.033 A 
ATOM      5  C   UNL d   1      -0.772   1.301   0.566  0.00  0.00    -0.034 A 
ATOM      6  C   UNL d   1      -1.576   0.217   0.233  0.00  0.00     0.014 A 
ENDROOT
BRANCH   5   7
ATOM      7  C   UNL d   1      -1.357   2.619   0.841  0.00  0.00     0.017 C 
ATOM      8  C   UNL d   1      -2.503   2.766   1.526  0.00  0.00     0.075 C 
BRANCH   8   9
ATOM      9  C   UNL d   1      -3.128   4.104   1.655  0.00  0.00     0.245 C 
ATOM     10  N   UNL d   1      -4.120   4.125   2.610  0.00  0.00    -0.322 N 
ATOM     11  H   UNL d   1      -4.091   3.430   3.348  0.00  0.00     0.169 HD
ATOM     12  O   UNL d   1      -2.757   5.054   0.977  0.00  0.00    -0.268 OA
BRANCH  10  13
ATOM     13  C   UNL d   1      -5.013   5.201   2.805  0.00  0.00     0.057 A 
ATOM     14  C   UNL d   1      -5.516   5.468   4.087  0.00  0.00     0.063 A 
ATOM     15  C   UNL d   1      -6.433   6.503   4.297  0.00  0.00     0.062 A 
ATOM     16 CL   UNL d   1      -4.973   4.561   5.459  0.00  0.00    -0.082 Cl
ATOM     17  C   UNL d   1      -6.897   7.250   3.214  0.00  0.00     0.070 A 
ATOM     18  C   UNL d   1      -6.406   6.979   1.935  0.00  0.00     0.039 A 
ATOM     19  C   UNL d   1      -5.459   5.973   1.731  0.00  0.00     0.034 A 
BRANCH  17  20
ATOM     20  O   UNL d   1      -7.824   8.253   3.269  0.00  0.00    -0.356 OA
ATOM     21  C   UNL d   1      -8.388   8.541   4.542  0.00  0.00     0.210 C 
ENDBRANCH  17  20
ENDBRANCH  10  13
ENDBRANCH   8   9
ENDBRANCH   5   7
BRANCH   1  22
ATOM     22  N   UNL d   1       2.603  -0.228   0.301  0.00  0.00    -0.113 N 
ATOM     23  O   UNL d   1       3.142  -0.622  -0.741  0.00  0.00    -0.532 OA
ATOM     24  O   UNL d   1       3.202   0.175   1.311  0.00  0.00    -0.532 OA
ENDBRANCH   1  22
BRANCH   2  25
ATOM     25  N   UNL d   1       0.866  -2.639   0.032  0.00  0.00    -0.379 N 
ATOM     26  C   UNL d   1      -0.029  -3.624  -0.606  0.00  0.00     0.123 C 
ATOM     27  C   UNL d   1       0.611  -4.998  -0.712  0.00  0.00     0.029 C 
ATOM     28  C   UNL d   1       1.036  -5.543   0.656  0.00  0.00     0.024 C 
ATOM     29  C   UNL d   1       1.951  -4.526   1.345  0.00  0.00     0.029 C 
ATOM     30  C   UNL d   1       1.538  -3.057   1.283  0.00  0.00     0.123 C 
BRANCH  28  31
ATOM     31  C   UNL d   1      -0.125  -6.101   1.479  0.00  0.00    -0.021 A 
ATOM     32  C   UNL d   1      -0.395  -7.481   1.608  0.00  0.00     0.074 A 
ATOM     33  C   UNL d   1      -1.476  -7.921   2.395  0.00  0.00     0.037 A 
ATOM     34  C   UNL d   1      -2.312  -7.021   3.050  0.00  0.00     0.003 A 
ATOM     35  C   UNL d   1      -2.060  -5.664   2.942  0.00  0.00     0.001 A 
ATOM     36  C   UNL d   1      -0.980  -5.215   2.171  0.00  0.00     0.010 A 
BRANCH  32  37
ATOM     37  O   UNL d   1       0.382  -8.521   1.164  0.00  0.00    -0.355 OA
ATOM     38  C   UNL d   1       0.766  -8.538  -0.203  0.00  0.00     0.210 C 
ENDBRANCH  32  37
ENDBRANCH  28  31
ENDBRANCH   2  25
TORSDOF 8
