REMARK  6 active torsions:
REMARK  status: ('A' for Active; 'I' for Inactive)
REMARK       I    between atoms: N_3  and  C_1 
REMARK    1  A    between atoms: C_5  and  C_1 
REMARK       I    between atoms: C_2  and  N_4 
REMARK    2  A    between atoms: C_6  and  C_2 
REMARK    3  A    between atoms: N_4  and  N_3 
REMARK    4  A    between atoms: C_9  and  C_5 
REMARK    5  A    between atoms: C_16  and  C_5 
REMARK    6  A    between atoms: O_15  and  C_12 
ROOT
ATOM      1  C   UNL d   1       1.072   0.017   0.108  0.00  0.00     0.244 C 
ATOM      2  N   UNL d   1       0.321  -0.732   0.996  0.00  0.00    -0.267 N 
ATOM      3  O   UNL d   1       2.302  -0.077   0.060  0.00  0.00    -0.271 OA
ATOM      4  H   UNL d   1      -0.660  -0.551   1.208  0.00  0.00     0.190 HD
ENDROOT
BRANCH   2   5
ATOM      5  N   UNL d   1       0.993  -1.643   1.819  0.00  0.00    -0.263 N 
ATOM      6  C   UNL d   1       0.415  -2.052   3.006  0.00  0.00     0.270 C 
ATOM      7  O   UNL d   1      -0.689  -1.673   3.389  0.00  0.00    -0.266 OA
ATOM      8  H   UNL d   1       1.991  -1.752   1.633  0.00  0.00     0.190 HD
BRANCH   6   9
ATOM      9  C   UNL d   1       1.232  -2.999   3.819  0.00  0.00     0.033 A 
ATOM     10  C   UNL d   1       1.140  -2.974   5.217  0.00  0.00     0.020 A 
ATOM     11  C   UNL d   1       1.910  -3.853   5.993  0.00  0.00     0.038 A 
ATOM     12  C   UNL d   1       2.762  -4.771   5.375  0.00  0.00     0.068 A 
ATOM     13  C   UNL d   1       2.814  -4.828   3.982  0.00  0.00     0.038 A 
ATOM     14  C   UNL d   1       2.062  -3.945   3.204  0.00  0.00     0.020 A 
BRANCH  12  15
ATOM     15  O   UNL d   1       3.534  -5.695   6.023  0.00  0.00    -0.356 OA
ATOM     16  C   UNL d   1       4.044  -5.294   7.290  0.00  0.00     0.210 C 
ENDBRANCH  12  15
ENDBRANCH   6   9
ENDBRANCH   2   5
BRANCH   1  17
ATOM     17  C   UNL d   1       0.252   0.931  -0.811  0.00  0.00     0.112 C 
BRANCH  17  18
ATOM     18  C   UNL d   1      -0.048   2.264  -0.136  0.00  0.00    -0.045 A 
ATOM     19  C   UNL d   1       0.990   3.107   0.296  0.00  0.00     0.008 A 
ATOM     20  C   UNL d   1       0.708   4.333   0.902  0.00  0.00     0.001 A 
ATOM     21  C   UNL d   1      -0.613   4.733   1.084  0.00  0.00     0.000 A 
ATOM     22  C   UNL d   1      -1.653   3.912   0.654  0.00  0.00     0.001 A 
ATOM     23  C   UNL d   1      -1.374   2.685   0.044  0.00  0.00     0.008 A 
ENDBRANCH  17  18
BRANCH  17  24
ATOM     24  C   UNL d   1       0.959   1.174  -2.164  0.00  0.00     0.014 C 
ATOM     25  C   UNL d   1       1.152  -0.098  -2.982  0.00  0.00     0.006 C 
ENDBRANCH  17  24
ENDBRANCH   1  17
TORSDOF 6
