REMARK  3 active torsions:
REMARK  status: ('A' for Active; 'I' for Inactive)
REMARK    1  A    between atoms: O_2  and  S_1 
REMARK    2  A    between atoms: N_3  and  S_1 
REMARK    3  A    between atoms: C_8  and  O_2 
ROOT
ATOM      1  N   UNL d   1       2.073   4.803  -6.105  0.00  0.00    -0.191 NA
ATOM      2  C   UNL d   1       1.808   3.961  -5.349  0.00  0.00     0.099 C 
ATOM      3  C   UNL d   1       0.817   0.965  -2.528  0.00  0.00     0.090 A 
ATOM      4  C   UNL d   1       1.480   2.927  -4.414  0.00  0.00     0.044 A 
ATOM      5  C   UNL d   1       2.386   2.584  -3.407  0.00  0.00     0.025 A 
ATOM      6  C   UNL d   1       2.061   1.595  -2.475  0.00  0.00     0.040 A 
ATOM      7  C   UNL d   1       0.253   2.260  -4.497  0.00  0.00     0.025 A 
ATOM      8  C   UNL d   1      -0.075   1.276  -3.558  0.00  0.00     0.040 A 
ENDROOT
BRANCH   3   9
ATOM      9  O   UNL d   1       0.394   0.030  -1.615  0.00  0.00    -0.221 OA
BRANCH   9  10
ATOM     10  S   UNL d   1       0.918   0.081  -0.066  0.00  0.00     0.344 S 
ATOM     11  O   UNL d   1       0.886   1.455   0.392  0.00  0.00    -0.180 OA
ATOM     12  O   UNL d   1       2.135  -0.700   0.024  0.00  0.00    -0.180 OA
BRANCH  10  13
ATOM     13  N   UNL d   1      -0.292  -0.744   0.803  0.00  0.00    -0.196 NA
ATOM     14  C   UNL d   1      -1.631  -0.134   0.720  0.00  0.00     0.131 C 
ATOM     15  C   UNL d   1      -0.303  -2.207   0.660  0.00  0.00     0.131 C 
ENDBRANCH  10  13
ENDBRANCH   9  10
ENDBRANCH   3   9
TORSDOF 3
