REMARK  2 active torsions:
REMARK  status: ('A' for Active; 'I' for Inactive)
REMARK       I    between atoms: C_7  and  N_1 
REMARK    1  A    between atoms: C_11  and  C_6 
REMARK    2  A    between atoms: C_10  and  C_7 
ROOT
ATOM      1  N   UNL d   1      -3.014   1.104  -0.185  0.00  0.00    -0.247 N 
ATOM      2  N   UNL d   1      -1.704   1.528  -0.255  0.00  0.00    -0.298 N 
ATOM      3  HN  UNL d   1      -1.373   2.456  -0.518  1.00  0.00     0.187 HD
ATOM      4  C   UNL d   1      -0.979   0.506   0.082  0.00  0.00     0.043 C 
ATOM      5  C   UNL d   1      -1.734  -0.670   0.639  0.00  0.00     0.068 C 
ATOM      6  C   UNL d   1      -3.129  -0.334   0.103  0.00  0.00     0.154 C 
ATOM      7  C   UNL d   1      -4.125   1.942  -0.210  0.00  0.00     0.273 C 
ATOM      8  C   UNL d   1       0.480   0.442   0.025  0.00  0.00    -0.005 A 
ATOM      9  C   UNL d   1      -1.088  -2.034   0.404  0.00  0.00     0.018 C 
ATOM     10  O   UNL d   1      -5.268   1.507  -0.035  0.00  0.00    -0.266 OA
ATOM     11  C   UNL d   1       1.053  -0.822  -0.178  0.00  0.00    -0.046 A 
ATOM     12  C   UNL d   1       0.165  -2.004  -0.475  0.00  0.00     0.040 C 
ATOM     13  C   UNL d   1       1.263   1.585   0.170  0.00  0.00     0.014 A 
ATOM     14  C   UNL d   1       2.446  -0.929  -0.206  0.00  0.00     0.008 A 
ATOM     15  C   UNL d   1       2.651   1.462   0.155  0.00  0.00     0.001 A 
ATOM     16  C   UNL d   1       3.240   0.207  -0.023  0.00  0.00     0.001 A 
ENDROOT
BRANCH   6  17
ATOM     17  C   UNL d   1      -3.602  -1.130  -1.103  0.00  0.00    -0.033 A 
ATOM     18  C   UNL d   1      -4.777  -1.896  -1.000  0.00  0.00     0.012 A 
ATOM     19  C   UNL d   1      -5.206  -2.693  -2.062  0.00  0.00     0.043 A 
ATOM     20  C   UNL d   1      -4.464  -2.724  -3.234  0.00  0.00     0.116 A 
ATOM     21  C   UNL d   1      -3.318  -1.953  -3.374  0.00  0.00     0.043 A 
ATOM     22  F   UNL d   1      -4.860  -3.509  -4.245  0.00  0.00    -0.206 F 
ATOM     23  C   UNL d   1      -2.894  -1.146  -2.316  0.00  0.00     0.012 A 
ENDBRANCH   6  17
BRANCH   7  24
ATOM     24  C   UNL d   1      -3.960   3.421  -0.365  0.00  0.00     0.034 A 
ATOM     25  C   UNL d   1      -2.901   4.024  -1.059  0.00  0.00     0.020 A 
ATOM     26  C   UNL d   1      -2.794   5.417  -1.117  0.00  0.00     0.043 A 
ATOM     27  C   UNL d   1      -3.763   6.208  -0.511  0.00  0.00     0.116 A 
ATOM     28  C   UNL d   1      -4.845   5.635   0.141  0.00  0.00     0.043 A 
ATOM     29  F   UNL d   1      -3.653   7.542  -0.565  0.00  0.00    -0.206 F 
ATOM     30  C   UNL d   1      -4.944   4.244   0.213  0.00  0.00     0.020 A 
ENDBRANCH   7  24
TORSDOF 2
