REMARK  8 active torsions:
REMARK  status: ('A' for Active; 'I' for Inactive)
REMARK    1  A    between atoms: O_4  and  C_1 
REMARK    2  A    between atoms: C_3  and  O_4 
REMARK       I    between atoms: C_6  and  N_7 
REMARK    3  A    between atoms: C_15  and  C_6 
REMARK    4  A    between atoms: N_7  and  C_8 
REMARK    5  A    between atoms: C_9  and  C_15 
REMARK    6  A    between atoms: C_17  and  C_9 
REMARK    7  A    between atoms: C_12  and  C_17 
REMARK    8  A    between atoms: O_20  and  C_12 
ROOT
ATOM      1  C   UNL d   1      -1.288   1.529   0.121  0.00  0.00     0.175 A 
ATOM      2  C   UNL d   1       0.092   1.272   0.177  0.00  0.00     0.086 A 
ATOM      3  N   UNL d   1      -2.225   0.542   0.225  0.00  0.00    -0.345 N 
ATOM      4  HN  UNL d   1      -3.219   0.768   0.261  1.00  0.00     0.167 HD
ATOM      5  C   UNL d   1       0.477  -0.079   0.188  0.00  0.00     0.035 A 
ATOM      6  C   UNL d   1      -1.807  -0.735   0.278  0.00  0.00     0.090 A 
ATOM      7  C   UNL d   1      -0.477  -1.093   0.230  0.00  0.00     0.019 A 
ENDROOT
BRANCH   2   8
ATOM      8  N   UNL d   1       1.163   2.203   0.202  0.00  0.00    -0.324 N 
ATOM      9  C   UNL d   1       1.113   3.505   0.657  0.00  0.00     0.223 C 
ATOM     10  O   UNL d   1       0.153   4.047   1.197  0.00  0.00    -0.273 OA
ATOM     11  H   UNL d   1       2.100   1.805   0.141  0.00  0.00     0.169 HD
BRANCH   9  12
ATOM     12  C   UNL d   1       2.434   4.250   0.487  0.00  0.00     0.113 C 
BRANCH  12  13
ATOM     13  C   UNL d   1       3.112   4.692   1.811  0.00  0.00    -0.023 C 
ATOM     14  C   UNL d   1       2.272   5.733   2.584  0.00  0.00     0.010 C 
ATOM     15  C   UNL d   1       3.281   6.484   3.446  0.00  0.00     0.001 C 
ATOM     16  C   UNL d   1       4.552   6.543   2.610  0.00  0.00     0.001 C 
ATOM     17  C   UNL d   1       4.374   5.527   1.480  0.00  0.00     0.010 C 
BRANCH  13  18
ATOM     18  C   UNL d   1       3.417   3.502   2.759  0.00  0.00     0.119 C 
BRANCH  18  19
ATOM     19  C   UNL d   1       4.256   2.400   2.155  0.00  0.00     0.140 C 
ATOM     20  O   UNL d   1       3.892   1.718   1.205  0.00  0.00    -0.650 OA
BRANCH  19  21
ATOM     21  O   UNL d   1       5.444   2.214   2.768  0.00  0.00    -0.776 OA
ATOM     22  H   UNL d   1       5.610   2.796   3.534  0.00  0.00     0.167 HD
ENDBRANCH  19  21
ENDBRANCH  18  19
ENDBRANCH  13  18
ENDBRANCH  12  13
ENDBRANCH   9  12
ENDBRANCH   2   8
BRANCH   1  23
ATOM     23  O   UNL d   1      -1.751   2.811  -0.164  0.00  0.00    -0.291 OA
BRANCH  23  24
ATOM     24  C   UNL d   1      -2.970   2.925  -0.802  0.00  0.00     0.084 A 
ATOM     25  C   UNL d   1      -3.861   3.908  -0.386  0.00  0.00    -0.017 A 
ATOM     26  C   UNL d   1      -5.107   4.064  -1.009  0.00  0.00    -0.043 A 
ATOM     27  C   UNL d   1      -3.659   4.916   0.696  0.00  0.00     0.042 C 
ATOM     28  C   UNL d   1      -5.891   5.179  -0.394  0.00  0.00     0.040 C 
ATOM     29  C   UNL d   1      -5.494   3.257  -2.079  0.00  0.00    -0.055 A 
ATOM     30  C   UNL d   1      -5.014   5.636   0.777  0.00  0.00     0.009 C 
ATOM     31  C   UNL d   1      -4.587   2.286  -2.518  0.00  0.00     0.010 A 
ATOM     32  C   UNL d   1      -6.829   3.417  -2.743  0.00  0.00     0.049 C 
ATOM     33  C   UNL d   1      -3.334   2.138  -1.903  0.00  0.00     0.038 A 
ENDBRANCH  23  24
ENDBRANCH   1  23
TORSDOF 8
