REMARK  3 active torsions:
REMARK  status: ('A' for Active; 'I' for Inactive)
REMARK    1  A    between atoms: C1_2  and  C3_5 
REMARK    2  A    between atoms: C5_7  and  C2_3 
REMARK    3  A    between atoms: O2_11  and  C3_5 
ROOT
ATOM      1  N1  <1> d   1      -1.397  -0.655   0.146  0.00  0.00     0.117 N 
ATOM      2  C1  <1> d   1      -1.387   0.815  -0.060  0.00  0.00     0.328 C 
ATOM      3  C2  <1> d   1      -0.151  -1.226  -0.376  0.00  0.00     0.316 C 
ATOM      4  S1  <1> d   1       1.153  -0.013  -0.123  0.00  0.00    -0.126 SA
ATOM      5  C4  <1> d   1       0.020   1.380  -0.274  0.00  0.00     0.123 C 
ATOM      6  H3  <1> d   1      -2.159  -1.111  -0.356  0.00  0.00     0.319 HD
ENDROOT
BRANCH   3   7
ATOM      7  C5  <1> d   1       0.144  -2.557   0.282  0.00  0.00    -0.015 A 
ATOM      8  C6  <1> d   1       0.288  -3.721  -0.492  0.00  0.00     0.012 A 
ATOM      9  C9  <1> d   1       0.541  -4.957   0.116  0.00  0.00     0.024 A 
ATOM     10  C8  <1> d   1       0.658  -5.038   1.502  0.00  0.00     0.034 A 
ATOM     11  C10 <1> d   1       0.526  -3.896   2.287  0.00  0.00     0.024 A 
ATOM     12 Cl1  <1> d   1       0.964  -6.558   2.249  0.00  0.00    -0.084 Cl
ATOM     13  C7  <1> d   1       0.269  -2.665   1.680  0.00  0.00     0.012 A 
ENDBRANCH   3   7
BRANCH   2  14
ATOM     14  C3  <1> d   1      -2.353   1.193  -1.188  0.00  0.00     0.175 C 
ATOM     15  O1  <1> d   1      -2.072   1.823  -2.194  0.00  0.00    -0.648 OA
BRANCH  14  16
ATOM     16  O2  <1> d   1      -3.610   0.731  -0.951  0.00  0.00    -0.775 OA
ATOM     17  H8  <1> d   1      -3.695   0.306  -0.073  0.00  0.00     0.167 HD
ENDBRANCH  14  16
ENDBRANCH   2  14
TORSDOF 3
