REMARK  5 active torsions:
REMARK  status: ('A' for Active; 'I' for Inactive)
REMARK    1  A    between atoms: C_2  and  C_1 
REMARK    2  A    between atoms: O_4  and  C_2 
REMARK    3  A    between atoms: C_9  and  O_4 
REMARK    4  A    between atoms: C_5  and  C_9 
REMARK    5  A    between atoms: C_6  and  C_5 
ROOT
ATOM      1  C   UNL d   1      -0.065  -2.714  -0.388  0.00  0.00     0.294 C 
ATOM      2  O   UNL d   1       1.000  -2.402  -0.903  0.00  0.00    -0.259 OA
ENDROOT
BRANCH   1   3
ATOM      3  C   UNL d   1      -1.114  -1.701  -0.088  0.00  0.00     0.051 A 
ATOM      4  C   UNL d   1      -2.517  -1.786  -0.427  0.00  0.00     0.008 A 
ATOM      5  C   UNL d   1      -3.239  -2.797  -1.154  0.00  0.00     0.023 A 
ATOM      6  C   UNL d   1      -3.317  -0.671  -0.013  0.00  0.00    -0.024 A 
ATOM      7 BR   UNL d   1      -2.432  -4.229  -2.116  0.00  0.00    -0.050 Br
ATOM      8  C   UNL d   1      -4.635  -2.746  -1.329  0.00  0.00     0.020 A 
ATOM      9  C   UNL d   1      -5.366  -1.670  -0.862  0.00  0.00     0.002 A 
ATOM     10  C   UNL d   1      -4.702  -0.631  -0.231  0.00  0.00     0.012 A 
ATOM     11  C   UNL d   1      -2.750   0.451   0.608  0.00  0.00     0.012 A 
ATOM     12  C   UNL d   1      -1.392   0.523   0.872  0.00  0.00     0.002 A 
ATOM     13  C   UNL d   1      -0.583  -0.551   0.539  0.00  0.00     0.018 A 
ENDBRANCH   1   3
BRANCH   1  14
ATOM     14  O   UNL d   1      -0.380  -3.947   0.072  0.00  0.00    -0.310 OA
BRANCH  14  15
ATOM     15  C   UNL d   1       0.563  -4.983  -0.260  0.00  0.00     0.263 C 
BRANCH  15  16
ATOM     16  C   UNL d   1       0.680  -6.003   0.871  0.00  0.00     0.183 C 
ATOM     17  O   UNL d   1       0.105  -5.868   1.945  0.00  0.00    -0.290 OA
BRANCH  16  18
ATOM     18  C   UNL d   1       1.579  -7.183   0.684  0.00  0.00     0.012 A 
ATOM     19  C   UNL d   1       2.159  -7.741   1.835  0.00  0.00     0.016 A 
ATOM     20  C   UNL d   1       3.000  -8.852   1.740  0.00  0.00     0.020 A 
ATOM     21  C   UNL d   1       3.255  -9.419   0.495  0.00  0.00     0.011 A 
ATOM     22  C   UNL d   1       2.677  -8.883  -0.656  0.00  0.00     0.020 A 
ATOM     23 BR   UNL d   1       4.385 -10.930   0.367  0.00  0.00    -0.051 Br
ATOM     24  C   UNL d   1       1.839  -7.759  -0.565  0.00  0.00     0.016 A 
ENDBRANCH  16  18
ENDBRANCH  15  16
ENDBRANCH  14  15
ENDBRANCH   1  14
TORSDOF 5
