REMARK  6 active torsions:
REMARK  status: ('A' for Active; 'I' for Inactive)
REMARK    1  A    between atoms: C_4  and  C_1 
REMARK    2  A    between atoms: C_6  and  N_2 
REMARK    3  A    between atoms: N_3  and  C_5 
REMARK    4  A    between atoms: C_9  and  N_12 
REMARK    5  A    between atoms: N_25  and  C_9 
REMARK    6  A    between atoms: N_12  and  C_27 
ROOT
ATOM      1  N   UNL d   1      -2.211   7.037   2.890  0.00  0.00    -0.364 N 
ATOM      2  N   UNL d   1      -0.232   5.322   1.647  0.00  0.00    -0.364 N 
ATOM      3  C   UNL d   1      -0.811   6.450   0.891  0.00  0.00     0.144 C 
ATOM      4  C   UNL d   1      -2.203   6.857   1.428  0.00  0.00     0.144 C 
ATOM      5  C   UNL d   1      -1.660   5.889   3.636  0.00  0.00     0.144 C 
ATOM      6  C   UNL d   1      -0.265   5.484   3.111  0.00  0.00     0.144 C 
ENDROOT
BRANCH   1   7
ATOM      7  C   UNL d   1      -2.283   8.311   3.421  0.00  0.00     0.103 A 
ATOM      8  N   UNL d   1      -2.153   9.377   2.602  0.00  0.00    -0.350 N 
ATOM      9  C   UNL d   1      -2.336  10.625   3.119  0.00  0.00     0.119 A 
ATOM     10  HN  UNL d   1      -1.922   9.250   1.617  1.00  0.00     0.166 HD
ATOM     11  C   UNL d   1      -2.656  10.913   4.444  0.00  0.00     0.050 A 
ATOM     12  C   UNL d   1      -2.783   9.816   5.275  0.00  0.00     0.035 A 
ATOM     13  C   UNL d   1      -2.590   8.526   4.766  0.00  0.00     0.051 A 
BRANCH  11  14
ATOM     14  N   UNL d   1      -2.901  12.261   4.807  0.00  0.00    -0.332 N 
ATOM     15  H   UNL d   1      -2.857  12.914   4.036  0.00  0.00     0.168 HD
BRANCH  14  16
ATOM     16  C   UNL d   1      -3.041  12.866   6.030  0.00  0.00     0.171 C 
ATOM     17  S   UNL d   1      -2.570  12.313   7.533  0.00  0.00    -0.041 SA
BRANCH  16  18
ATOM     18  N   UNL d   1      -3.613  14.110   6.011  0.00  0.00    -0.371 N 
ATOM     19  C   UNL d   1      -4.354  14.786   4.964  0.00  0.00     0.148 C 
ATOM     20  H   UNL d   1      -3.706  14.508   6.941  0.00  0.00     0.161 HD
ENDBRANCH  16  18
ENDBRANCH  14  16
ENDBRANCH  11  14
ENDBRANCH   1   7
BRANCH   2  21
ATOM     21  C   UNL d   1      -0.152   4.052   1.109  0.00  0.00     0.103 A 
ATOM     22  C   UNL d   1       0.282   3.859  -0.204  0.00  0.00     0.049 A 
ATOM     23  C   UNL d   1       0.466   2.570  -0.711  0.00  0.00     0.021 A 
ATOM     24  C   UNL d   1       0.209   1.468   0.098  0.00  0.00     0.063 A 
ATOM     25  C   UNL d   1      -0.231   1.732   1.383  0.00  0.00     0.106 A 
ATOM     26  N   UNL d   1      -0.408   2.980   1.892  0.00  0.00    -0.352 N 
ATOM     27  HN  UNL d   1      -0.729   3.105   2.852  1.00  0.00     0.166 HD
BRANCH  24  28
ATOM     28  C   UNL d   1       0.430   0.068  -0.383  0.00  0.00     0.418 C 
ATOM     29  F   UNL d   1       0.053  -0.887   0.512  0.00  0.00    -0.166 F 
ATOM     30  F   UNL d   1       1.738  -0.185  -0.666  0.00  0.00    -0.166 F 
ATOM     31  F   UNL d   1      -0.255  -0.206  -1.528  0.00  0.00    -0.166 F 
ENDBRANCH  24  28
ENDBRANCH   2  21
TORSDOF 6
