REMARK  3 active torsions:
REMARK  status: ('A' for Active; 'I' for Inactive)
REMARK    1  A    between atoms: C_7  and  C_3 
REMARK    2  A    between atoms: C_18  and  C_4 
REMARK    3  A    between atoms: C_10  and  C_9 
ROOT
ATOM      1  N   UNL d   1       1.222   0.178  -0.307  0.00  0.00    -0.322 N 
ATOM      2  HN  UNL d   1       2.157   0.311  -0.693  1.00  0.00     0.169 HD
ATOM      3  C   UNL d   1       0.288   1.127   0.034  0.00  0.00     0.144 A 
ATOM      4  C   UNL d   1       0.606  -0.944  -0.010  0.00  0.00     0.156 A 
ATOM      5  N   UNL d   1      -0.874   0.625   0.478  0.00  0.00    -0.242 N 
ATOM      6  HN  UNL d   1      -1.710   1.131   0.768  1.00  0.00     0.196 HD
ATOM      7  O   UNL d   1      -0.667  -0.752   0.447  0.00  0.00    -0.222 OA
ENDROOT
BRANCH   3   8
ATOM      8  C   UNL d   1       0.586   2.589  -0.029  0.00  0.00     0.051 A 
ATOM      9  S   UNL d   1      -0.473   3.811   0.504  0.00  0.00    -0.084 SA
ATOM     10  C   UNL d   1       0.667   5.049   0.175  0.00  0.00     0.041 A 
ATOM     11  C   UNL d   1       1.819   4.528  -0.383  0.00  0.00     0.023 A 
ATOM     12  C   UNL d   1       1.773   3.106  -0.501  0.00  0.00     0.024 A 
BRANCH  10  13
ATOM     13  C   UNL d   1       0.406   6.430   0.470  0.00  0.00     0.117 A 
ATOM     14  O   UNL d   1       1.329   7.419   0.230  0.00  0.00    -0.237 OA
ATOM     15  N   UNL d   1       0.826   8.649   0.614  0.00  0.00    -0.272 N 
ATOM     16  C   UNL d   1      -0.395   8.398   1.083  0.00  0.00     0.117 A 
ATOM     17  HN  UNL d   1       1.290   9.555   0.551  1.00  0.00     0.194 HD
ATOM     18  C   UNL d   1      -0.711   7.032   1.019  0.00  0.00     0.059 A 
ENDBRANCH  10  13
ENDBRANCH   3   8
BRANCH   4  19
ATOM     19  C   UNL d   1       1.122  -2.353  -0.028  0.00  0.00     0.016 C 
ATOM     20  C   UNL d   1       2.572  -2.375  -0.544  0.00  0.00     0.023 C 
ATOM     21  C   UNL d   1       1.098  -2.920   1.402  0.00  0.00     0.023 C 
ATOM     22  C   UNL d   1       0.255  -3.227  -0.946  0.00  0.00     0.023 C 
ENDBRANCH   4  19
TORSDOF 3
