REMARK  5 active torsions:
REMARK  status: ('A' for Active; 'I' for Inactive)
REMARK    1  A    between atoms: C_5  and  C_1 
REMARK    2  A    between atoms: C_2  and  C_9 
REMARK    3  A    between atoms: C_3  and  C_4 
REMARK       I    between atoms: N_10  and  C_5 
REMARK    4  A    between atoms: O_23  and  C_8 
REMARK    5  A    between atoms: C_9  and  N_10 
ROOT
ATOM      1  C   UNL d   1       1.062   2.486  -0.316  0.00  0.00     0.257 C 
ATOM      2  N   UNL d   1       1.157   3.485   0.633  0.00  0.00    -0.352 N 
ATOM      3  O   UNL d   1       1.325   2.613  -1.503  0.00  0.00    -0.267 OA
ATOM      4  H   UNL d   1       0.784   3.325   1.559  0.00  0.00     0.163 HD
ENDROOT
BRANCH   1   5
ATOM      5  C   UNL d   1       0.517   1.208   0.153  0.00  0.00     0.098 A 
ATOM      6  C   UNL d   1      -0.870   0.995   0.174  0.00  0.00     0.069 A 
ATOM      7  C   UNL d   1      -1.335  -0.294   0.480  0.00  0.00     0.034 A 
ATOM      8  C   UNL d   1      -0.417  -1.290   0.760  0.00  0.00     0.091 A 
ATOM      9  N   UNL d   1       0.915  -1.093   0.760  0.00  0.00    -0.346 N 
ATOM     10  C   UNL d   1       1.367   0.144   0.444  0.00  0.00     0.158 A 
ATOM     11  HN  UNL d   1       1.561  -1.848   0.990  1.00  0.00     0.167 HD
BRANCH   6  12
ATOM     12  C   UNL d   1      -1.877   2.046  -0.204  0.00  0.00     0.418 C 
ATOM     13  F   UNL d   1      -1.442   3.330  -0.124  0.00  0.00    -0.166 F 
ATOM     14  F   UNL d   1      -2.357   1.880  -1.464  0.00  0.00    -0.166 F 
ATOM     15  F   UNL d   1      -2.970   2.000   0.613  0.00  0.00    -0.166 F 
ENDBRANCH   6  12
BRANCH  10  16
ATOM     16  O   UNL d   1       2.726   0.209   0.317  0.00  0.00    -0.340 OA
ATOM     17  C   UNL d   1       3.336   1.045   1.294  0.00  0.00     0.211 C 
ENDBRANCH  10  16
ENDBRANCH   1   5
BRANCH   2  18
ATOM     18  C   UNL d   1       1.315   4.863   0.219  0.00  0.00     0.165 C 
BRANCH  18  19
ATOM     19  C   UNL d   1       2.145   5.774   1.104  0.00  0.00     0.003 A 
ATOM     20  C   UNL d   1       2.472   5.539   2.453  0.00  0.00     0.045 A 
ATOM     21  C   UNL d   1       3.263   6.444   3.178  0.00  0.00     0.048 A 
ATOM     22 CL   UNL d   1       1.907   4.173   3.354  0.00  0.00    -0.084 Cl
ATOM     23  C   UNL d   1       3.715   7.614   2.584  0.00  0.00     0.037 A 
ATOM     24  C   UNL d   1       3.371   7.906   1.274  0.00  0.00     0.048 A 
ATOM     25 CL   UNL d   1       4.679   8.719   3.481  0.00  0.00    -0.084 Cl
ATOM     26  C   UNL d   1       2.589   7.001   0.548  0.00  0.00     0.045 A 
ATOM     27 CL   UNL d   1       2.163   7.493  -1.060  0.00  0.00    -0.084 Cl
ENDBRANCH  18  19
ENDBRANCH   2  18
TORSDOF 5
