REMARK  3 active torsions:
REMARK  status: ('A' for Active; 'I' for Inactive)
REMARK    1  A    between atoms: C_15  and  C_2 
REMARK    2  A    between atoms: S_13  and  C_10 
REMARK    3  A    between atoms: C_14  and  S_13 
ROOT
ATOM      1  N   UNL d   1       0.096   0.680  -0.073  0.00  0.00    -0.219 N 
ATOM      2  C   UNL d   1       1.398   1.154  -0.042  0.00  0.00     0.154 A 
ATOM      3  N   UNL d   1       2.219   0.115  -0.113  0.00  0.00    -0.282 N 
ATOM      4  HN  UNL d   1       3.237   0.166  -0.138  1.00  0.00     0.188 HD
ATOM      5  C   UNL d   1       0.211  -0.697  -0.122  0.00  0.00     0.143 A 
ATOM      6  N   UNL d   1      -1.071   1.405  -0.055  0.00  0.00    -0.284 N 
ATOM      7  HN  UNL d   1      -1.101   2.424  -0.024  1.00  0.00     0.188 HD
ATOM      8  N   UNL d   1       1.476  -1.041  -0.147  0.00  0.00    -0.282 N 
ATOM      9  HN  UNL d   1       1.842  -1.992  -0.184  1.00  0.00     0.188 HD
ATOM     10  C   UNL d   1      -2.126   0.658  -0.082  0.00  0.00     0.090 A 
ATOM     11  C   UNL d   1      -0.978  -1.458  -0.141  0.00  0.00     0.054 A 
ATOM     12  C   UNL d   1      -2.159  -0.827  -0.130  0.00  0.00     0.042 A 
ENDROOT
BRANCH  10  13
ATOM     13  S   UNL d   1      -3.702   1.407   0.041  0.00  0.00    -0.071 SA
BRANCH  13  14
ATOM     14  C   UNL d   1      -4.077   1.785  -1.661  0.00  0.00     0.008 A 
ATOM     15  C   UNL d   1      -5.257   1.275  -2.217  0.00  0.00     0.025 A 
ATOM     16  C   UNL d   1      -5.622   1.581  -3.534  0.00  0.00    -0.060 A 
ATOM     17  C   UNL d   1      -6.880   1.029  -4.136  0.00  0.00     0.048 C 
ATOM     18  C   UNL d   1      -4.796   2.421  -4.291  0.00  0.00     0.013 A 
ATOM     19  C   UNL d   1      -3.623   2.957  -3.745  0.00  0.00    -0.060 A 
ATOM     20  C   UNL d   1      -3.269   2.633  -2.427  0.00  0.00     0.025 A 
ATOM     21  C   UNL d   1      -2.778   3.882  -4.571  0.00  0.00     0.048 C 
ENDBRANCH  13  14
ENDBRANCH  10  13
BRANCH   2  22
ATOM     22  C   UNL d   1       1.808   2.559   0.029  0.00  0.00     0.011 A 
ATOM     23  C   UNL d   1       1.037   3.536   0.676  0.00  0.00     0.015 A 
ATOM     24  C   UNL d   1       1.469   4.864   0.738  0.00  0.00     0.001 A 
ATOM     25  C   UNL d   1       2.680   5.232   0.157  0.00  0.00     0.000 A 
ATOM     26  C   UNL d   1       3.462   4.274  -0.480  0.00  0.00     0.001 A 
ATOM     27  C   UNL d   1       3.031   2.946  -0.539  0.00  0.00     0.015 A 
ENDBRANCH   2  22
TORSDOF 3
