REMARK  4 active torsions:
REMARK  status: ('A' for Active; 'I' for Inactive)
REMARK    1  A    between atoms: C_6  and  C_1 
REMARK       I    between atoms: N_13  and  C_6 
REMARK    2  A    between atoms: N_7  and  N_13 
REMARK    3  A    between atoms: C_10  and  C_17 
REMARK    4  A    between atoms: O_21  and  C_15 
ROOT
ATOM      1  C   UNL d   1       1.095  -2.905   0.228  0.00  0.00     0.271 C 
ATOM      2  N   UNL d   1      -0.037  -3.570  -0.224  0.00  0.00    -0.266 N 
ATOM      3  O   UNL d   1       2.115  -3.456   0.633  0.00  0.00    -0.266 OA
ATOM      4  H   UNL d   1      -0.818  -3.072  -0.636  0.00  0.00     0.190 HD
ENDROOT
BRANCH   1   5
ATOM      5  C   UNL d   1       1.071  -1.420   0.135  0.00  0.00     0.048 A 
ATOM      6  C   UNL d   1      -0.052  -0.617   0.448  0.00  0.00     0.008 A 
ATOM      7  C   UNL d   1       0.068   0.757   0.150  0.00  0.00     0.043 A 
ATOM      8  C   UNL d   1      -1.245  -1.068   1.072  0.00  0.00     0.033 A 
ATOM      9  C   UNL d   1      -1.021   1.593   0.351  0.00  0.00     0.031 A 
ATOM     10  N   UNL d   1       1.202   1.315  -0.297  0.00  0.00    -0.359 N 
ATOM     11  C   UNL d   1      -2.210   1.133   0.919  0.00  0.00     0.021 A 
ATOM     12  C   UNL d   1      -2.305  -0.194   1.306  0.00  0.00     0.011 A 
ATOM     13 BR   UNL d   1      -3.864  -0.814   2.174  0.00  0.00    -0.051 Br
ATOM     14  C   UNL d   1       2.300   0.545  -0.452  0.00  0.00     0.006 A 
ATOM     15  HN  UNL d   1       1.235   2.310  -0.517  1.00  0.00     0.166 HD
ATOM     16  C   UNL d   1       2.265  -0.825  -0.287  0.00  0.00     0.042 A 
ATOM     17  C   UNL d   1       3.586   1.240  -0.785  0.00  0.00     0.068 C 
ENDBRANCH   1   5
BRANCH   2  18
ATOM     18  N   UNL d   1      -0.018  -4.933  -0.273  0.00  0.00    -0.308 N 
ATOM     19  C   UNL d   1      -1.139  -5.518  -0.564  0.00  0.00     0.121 C 
ATOM     20  HN  UNL d   1       0.833  -5.464  -0.092  1.00  0.00     0.186 HD
BRANCH  19  21
ATOM     21  C   UNL d   1      -1.204  -6.988  -0.692  0.00  0.00     0.014 A 
ATOM     22  C   UNL d   1      -0.049  -7.782  -0.737  0.00  0.00     0.077 A 
ATOM     23  C   UNL d   1      -0.151  -9.163  -0.890  0.00  0.00     0.037 A 
ATOM     24  C   UNL d   1      -1.407  -9.763  -0.984  0.00  0.00     0.003 A 
ATOM     25  C   UNL d   1      -2.561  -8.981  -0.928  0.00  0.00     0.001 A 
ATOM     26  C   UNL d   1      -2.463  -7.592  -0.788  0.00  0.00     0.015 A 
BRANCH  22  27
ATOM     27  O   UNL d   1       1.217  -7.272  -0.651  0.00  0.00    -0.360 OA
ATOM     28  H   UNL d   1       1.151  -6.312  -0.442  0.00  0.00     0.217 HD
ENDBRANCH  22  27
ENDBRANCH  19  21
ENDBRANCH   2  18
TORSDOF 4
