REMARK  3 active torsions:
REMARK  status: ('A' for Active; 'I' for Inactive)
REMARK    1  A    between atoms: C_13  and  N_2 
REMARK       I    between atoms: C_11  and  N_10 
REMARK    2  A    between atoms: O_21  and  C_11 
REMARK    3  A    between atoms: C_26  and  O_21 
ROOT
ATOM      1  C   UNL d   1       0.694   0.428   0.044  0.00  0.00     0.074 A 
ATOM      2  N   UNL d   1       2.999   1.176   0.056  0.00  0.00    -0.254 N 
ATOM      3  C   UNL d   1       1.187  -0.835  -0.032  0.00  0.00     0.093 A 
ATOM      4  C   UNL d   1       3.460  -0.165  -0.013  0.00  0.00     0.186 A 
ATOM      5  C   UNL d   1       1.623   1.544   0.098  0.00  0.00     0.268 A 
ATOM      6  N   UNL d   1       2.505  -1.157  -0.076  0.00  0.00    -0.326 N 
ATOM      7  C   UNL d   1      -0.739   0.399   0.044  0.00  0.00    -0.023 A 
ATOM      8  C   UNL d   1      -1.221  -0.905   0.026  0.00  0.00     0.010 A 
ATOM      9  S   UNL d   1       0.039  -2.060  -0.054  0.00  0.00    -0.074 SA
ATOM     10  N   UNL d   1      -3.483  -0.123   0.347  0.00  0.00    -0.323 N 
ATOM     11  C   UNL d   1      -4.398  -0.081   1.379  0.00  0.00     0.363 C 
ATOM     12  C   UNL d   1      -2.672  -1.308   0.042  0.00  0.00     0.174 C 
ATOM     13  S   UNL d   1       5.051  -0.718   0.047  0.00  0.00    -0.040 SA
ATOM     14  C   UNL d   1      -1.684   1.567   0.089  0.00  0.00     0.061 C 
ATOM     15  O   UNL d   1       1.207   2.700   0.154  0.00  0.00    -0.267 OA
ATOM     16  C   UNL d   1      -3.103   1.126  -0.319  0.00  0.00     0.133 C 
ATOM     17  O   UNL d   1      -4.955   0.943   1.756  0.00  0.00    -0.238 OA
ATOM     18  H   UNL d   1       2.793  -2.127  -0.105  0.00  0.00     0.169 HD
ENDROOT
BRANCH   2  19
ATOM     19  C   UNL d   1       3.933   2.265   0.098  0.00  0.00     0.045 A 
ATOM     20  C   UNL d   1       3.921   3.164   1.177  0.00  0.00     0.032 A 
ATOM     21  C   UNL d   1       4.830   4.224   1.227  0.00  0.00     0.026 A 
ATOM     22  C   UNL d   1       5.743   4.405   0.190  0.00  0.00     0.034 A 
ATOM     23  C   UNL d   1       5.755   3.533  -0.896  0.00  0.00     0.026 A 
ATOM     24 CL   UNL d   1       6.856   5.714   0.248  0.00  0.00    -0.084 Cl
ATOM     25  C   UNL d   1       4.852   2.466  -0.943  0.00  0.00     0.032 A 
ENDBRANCH   2  19
BRANCH  11  26
ATOM     26  O   UNL d   1      -4.566  -1.292   1.973  0.00  0.00    -0.304 OA
BRANCH  26  27
ATOM     27  C   UNL d   1      -5.082  -1.248   3.310  0.00  0.00     0.176 C 
ATOM     28  C   UNL d   1      -3.903  -1.062   4.249  0.00  0.00     0.034 C 
ENDBRANCH  26  27
ENDBRANCH  11  26
TORSDOF 3
