REMARK  2 active torsions:
REMARK  status: ('A' for Active; 'I' for Inactive)
REMARK    1  A    between atoms: C_7  and  C_1 
REMARK    2  A    between atoms: O_11  and  C_1 
ROOT
ATOM      1  C   UNL d   1      -2.426   0.637  -0.422  0.00  0.00     0.232 C 
ATOM      2  C   UNL d   1      -2.407  -0.773   0.253  0.00  0.00     0.270 C 
ATOM      3  C   UNL d   1      -1.232   1.435   0.137  0.00  0.00     0.210 C 
ATOM      4  C   UNL d   1       0.057   0.711   0.168  0.00  0.00     0.041 A 
ATOM      5  N   UNL d   1      -1.172  -1.383   0.307  0.00  0.00    -0.323 N 
ATOM      6  C   UNL d   1       0.036  -0.687   0.169  0.00  0.00     0.049 A 
ATOM      7  O   UNL d   1      -3.408  -1.364   0.654  0.00  0.00    -0.269 OA
ATOM      8  O   UNL d   1      -1.296   2.593   0.538  0.00  0.00    -0.288 OA
ATOM      9  C   UNL d   1       1.265   1.411   0.151  0.00  0.00     0.024 A 
ATOM     10  C   UNL d   1       1.233  -1.393   0.093  0.00  0.00     0.031 A 
ATOM     11  C   UNL d   1       2.473   0.707   0.078  0.00  0.00    -0.061 A 
ATOM     12  C   UNL d   1       2.445  -0.696   0.029  0.00  0.00     0.009 A 
ATOM     13  C   UNL d   1       3.785   1.432   0.049  0.00  0.00     0.048 C 
ATOM     14  H   UNL d   1      -1.171  -2.368   0.546  0.00  0.00     0.169 HD
ENDROOT
BRANCH   1  15
ATOM     15  C   UNL d   1      -2.365   0.413  -1.950  0.00  0.00    -0.007 A 
ATOM     16  C   UNL d   1      -3.379  -0.353  -2.559  0.00  0.00     0.011 A 
ATOM     17  C   UNL d   1      -3.278  -0.759  -3.890  0.00  0.00     0.001 A 
ATOM     18  C   UNL d   1      -2.168  -0.397  -4.646  0.00  0.00     0.000 A 
ATOM     19  C   UNL d   1      -1.186   0.414  -4.085  0.00  0.00     0.001 A 
ATOM     20  C   UNL d   1      -1.294   0.836  -2.758  0.00  0.00     0.011 A 
ENDBRANCH   1  15
BRANCH   1  21
ATOM     21  O   UNL d   1      -3.640   1.341  -0.172  0.00  0.00    -0.369 OA
ATOM     22  H   UNL d   1      -3.646   1.563   0.776  0.00  0.00     0.212 HD
ENDBRANCH   1  21
TORSDOF 2
