REMARK  5 active torsions:
REMARK  status: ('A' for Active; 'I' for Inactive)
REMARK    1  A    between atoms: C_2  and  S_1 
REMARK    2  A    between atoms: N_3  and  S_1 
REMARK    3  A    between atoms: O_18  and  C_4 
REMARK    4  A    between atoms: C_9  and  C_12 
REMARK    5  A    between atoms: O_20  and  C_13 
ROOT
ATOM      1  N   UNL d   1       0.719   0.520   1.767  0.00  0.00    -0.206 NA
ATOM      2  C   UNL d   1       0.971   1.991   1.799  0.00  0.00     0.108 C 
ATOM      3  C   UNL d   1      -0.694   0.112   2.024  0.00  0.00     0.108 C 
ATOM      4  C   UNL d   1      -1.225   2.301   3.163  0.00  0.00     0.024 C 
ATOM      5  C   UNL d   1       0.216   2.750   2.887  0.00  0.00     0.025 C 
ATOM      6  C   UNL d   1      -1.265   0.777   3.257  0.00  0.00     0.025 C 
ENDROOT
BRANCH   1   7
ATOM      7  S   UNL d   1       1.262  -0.231   0.303  0.00  0.00     0.246 S 
ATOM      8  O   UNL d   1       1.048  -1.656   0.397  0.00  0.00    -0.206 OA
ATOM      9  O   UNL d   1       0.622   0.508  -0.771  0.00  0.00    -0.206 OA
BRANCH   7  10
ATOM     10  C   UNL d   1       3.010   0.067   0.216  0.00  0.00     0.108 A 
ATOM     11  C   UNL d   1       3.966  -0.365   1.143  0.00  0.00     0.092 A 
ATOM     12  C   UNL d   1       5.321  -0.059   0.890  0.00  0.00     0.057 A 
ATOM     13  C   UNL d   1       5.718   0.659  -0.238  0.00  0.00     0.013 A 
ATOM     14  C   UNL d   1       4.771   1.103  -1.144  0.00  0.00     0.021 A 
ATOM     15 BR   UNL d   1       7.545   1.044  -0.524  0.00  0.00    -0.051 Br
ATOM     16  C   UNL d   1       3.429   0.802  -0.922  0.00  0.00     0.029 A 
BRANCH  11  17
ATOM     17  O   UNL d   1       3.844  -0.970   2.359  0.00  0.00    -0.354 OA
ATOM     18  C   UNL d   1       2.826  -1.918   2.619  0.00  0.00     0.210 C 
ENDBRANCH  11  17
ENDBRANCH   7  10
ENDBRANCH   1   7
BRANCH   4  19
ATOM     19  C   UNL d   1      -2.307   2.885   2.259  0.00  0.00    -0.021 A 
ATOM     20  C   UNL d   1      -3.519   3.367   2.795  0.00  0.00     0.074 A 
ATOM     21  C   UNL d   1      -4.487   3.973   1.987  0.00  0.00     0.037 A 
ATOM     22  C   UNL d   1      -4.289   4.080   0.613  0.00  0.00     0.003 A 
ATOM     23  C   UNL d   1      -3.121   3.569   0.051  0.00  0.00     0.001 A 
ATOM     24  C   UNL d   1      -2.148   2.982   0.865  0.00  0.00     0.010 A 
BRANCH  20  25
ATOM     25  O   UNL d   1      -3.778   3.361   4.143  0.00  0.00    -0.355 OA
ATOM     26  C   UNL d   1      -4.186   2.072   4.603  0.00  0.00     0.210 C 
ENDBRANCH  20  25
ENDBRANCH   4  19
TORSDOF 5
