REMARK  11 active torsions:
REMARK  status: ('A' for Active; 'I' for Inactive)
REMARK    1  A    between atoms: N_14  and  C_4 
REMARK    2  A    between atoms: N_16  and  C_9 
REMARK    3  A    between atoms: S_17  and  C_11 
REMARK    4  A    between atoms: C_20  and  N_14 
REMARK    5  A    between atoms: C_29  and  N_16 
REMARK    6  A    between atoms: C_30  and  N_16 
REMARK    7  A    between atoms: C_21  and  S_17 
REMARK    8  A    between atoms: C_18  and  C_21 
REMARK    9  A    between atoms: O_23  and  C_18 
REMARK   10  A    between atoms: O_28  and  C_22 
REMARK   11  A    between atoms: C_31  and  O_23 
ROOT
ATOM      1  N   UNL d   1      -1.180   1.339   0.085  0.00  0.00    -0.175 N 
ATOM      2  HN  UNL d   1      -1.199   2.355   0.171  1.00  0.00     0.186 HD
ATOM      3  C   UNL d   1      -0.014   0.695   0.043  0.00  0.00     0.138 A 
ATOM      4  C   UNL d   1       1.289  -1.290   0.032  0.00  0.00     0.123 A 
ATOM      5  N   UNL d   1       2.407  -0.554   0.017  0.00  0.00    -0.322 N 
ATOM      6  HN  UNL d   1       3.329  -0.991   0.003  1.00  0.00     0.169 HD
ATOM      7  N   UNL d   1       1.101   1.425   0.042  0.00  0.00    -0.322 N 
ATOM      8  HN  UNL d   1       1.065   2.444   0.055  1.00  0.00     0.169 HD
ATOM      9  C   UNL d   1      -2.331   0.646   0.014  0.00  0.00     0.681 A 
ATOM     10  C   UNL d   1       0.036  -0.682   0.010  0.00  0.00     0.069 A 
ATOM     11  C   UNL d   1       2.271   0.775   0.022  0.00  0.00     0.147 A 
ATOM     12  N   UNL d   1      -2.361  -0.688  -0.063  0.00  0.00    -0.201 N 
ATOM     13  HN  UNL d   1      -3.242  -1.195  -0.151  1.00  0.00     0.183 HD
ATOM     14  C   UNL d   1      -1.188  -1.332  -0.020  0.00  0.00     0.125 A 
ENDROOT
BRANCH   4  15
ATOM     15  N   UNL d   1       1.398  -2.702   0.059  0.00  0.00    -0.342 N 
ATOM     16  H   UNL d   1       1.063  -3.097  -0.814  0.00  0.00     0.167 HD
BRANCH  15  17
ATOM     17  C   UNL d   1       2.483  -3.432   0.595  0.00  0.00     0.033 A 
ATOM     18  C   UNL d   1       3.198  -2.967   1.707  0.00  0.00     0.032 A 
ATOM     19  C   UNL d   1       4.254  -3.702   2.253  0.00  0.00     0.039 A 
ATOM     20  C   UNL d   1       4.605  -4.931   1.702  0.00  0.00     0.068 A 
ATOM     21  C   UNL d   1       3.855  -5.441   0.641  0.00  0.00     0.039 A 
ATOM     22  C   UNL d   1       2.798  -4.702   0.095  0.00  0.00     0.032 A 
BRANCH  20  23
ATOM     23  O   UNL d   1       5.620  -5.730   2.152  0.00  0.00    -0.356 OA
ATOM     24  C   UNL d   1       6.723  -5.036   2.727  0.00  0.00     0.210 C 
ENDBRANCH  20  23
ENDBRANCH  15  17
ENDBRANCH   4  15
BRANCH  11  25
ATOM     25  S   UNL d   1       3.785   1.700  -0.095  0.00  0.00    -0.084 SA
BRANCH  25  26
ATOM     26  C   UNL d   1       3.345   3.165   0.881  0.00  0.00     0.193 C 
BRANCH  26  27
ATOM     27  C   UNL d   1       2.876   2.821   2.278  0.00  0.00     0.268 C 
ATOM     28  O   UNL d   1       2.869   1.714   2.797  0.00  0.00    -0.264 OA
BRANCH  27  29
ATOM     29  O   UNL d   1       2.399   3.957   2.870  0.00  0.00    -0.321 OA
BRANCH  29  30
ATOM     30  C   UNL d   1       1.504   3.731   3.967  0.00  0.00     0.174 C 
ATOM     31  C   UNL d   1       0.100   3.650   3.397  0.00  0.00     0.034 C 
ENDBRANCH  29  30
ENDBRANCH  27  29
ENDBRANCH  26  27
ENDBRANCH  25  26
ENDBRANCH  11  25
BRANCH   9  32
ATOM     32  N   UNL d   1      -3.531   1.321   0.039  0.00  0.00    -0.218 N 
BRANCH  32  33
ATOM     33  C   UNL d   1      -4.680   0.763  -0.661  0.00  0.00     0.136 C 
ATOM     34  C   UNL d   1      -5.565  -0.077   0.246  0.00  0.00     0.027 C 
ENDBRANCH  32  33
BRANCH  32  35
ATOM     35  C   UNL d   1      -3.616   2.625   0.673  0.00  0.00     0.136 C 
ATOM     36  C   UNL d   1      -3.345   3.761  -0.300  0.00  0.00     0.027 C 
ENDBRANCH  32  35
ENDBRANCH   9  32
TORSDOF 11
