REMARK  3 active torsions:
REMARK  status: ('A' for Active; 'I' for Inactive)
REMARK    1  A    between atoms: C_2  and  C_1 
REMARK    2  A    between atoms: C_12  and  N_3 
REMARK    3  A    between atoms: O_22  and  C_18 
ROOT
ATOM      1  C   UNL d   1      -0.502  -1.819  -0.520  0.00  0.00     0.151 C 
ATOM      2  N   UNL d   1       0.705  -1.215  -0.205  0.00  0.00    -0.224 N 
ATOM      3  N   UNL d   1       0.480   0.118  -0.071  0.00  0.00     0.001 NA
ATOM      4  N   UNL d   1      -0.726   0.327  -0.568  0.00  0.00    -0.007 NA
ATOM      5  N   UNL d   1      -1.335  -0.855  -0.884  0.00  0.00    -0.269 N 
ATOM      6  HN  UNL d   1      -2.252  -0.972  -1.316  1.00  0.00     0.185 HD
ENDROOT
BRANCH   1   7
ATOM      7  C   UNL d   1      -0.991  -3.214  -0.287  0.00  0.00     0.038 A 
ATOM      8  C   UNL d   1      -0.479  -4.294   0.505  0.00  0.00     0.006 A 
ATOM      9  C   UNL d   1      -1.513  -5.236   0.601  0.00  0.00     0.043 A 
ATOM     10  C   UNL d   1       0.701  -4.566   1.237  0.00  0.00     0.021 A 
ATOM     11  C   UNL d   1      -1.452  -6.362   1.431  0.00  0.00     0.031 A 
ATOM     12  N   UNL d   1      -2.536  -4.811  -0.209  0.00  0.00    -0.364 N 
ATOM     13  C   UNL d   1      -0.271  -6.593   2.137  0.00  0.00     0.009 A 
ATOM     14  C   UNL d   1       0.821  -5.736   2.010  0.00  0.00    -0.061 A 
ATOM     15  C   UNL d   1       2.105  -6.022   2.734  0.00  0.00     0.048 C 
ATOM     16  C   UNL d   1      -2.237  -3.595  -0.746  0.00  0.00     0.104 A 
ATOM     17  H   UNL d   1      -3.413  -5.304  -0.334  0.00  0.00     0.165 HD
ENDBRANCH   1   7
BRANCH   2  18
ATOM     18  C   UNL d   1       2.027  -1.702  -0.196  0.00  0.00     0.056 A 
ATOM     19  C   UNL d   1       2.414  -2.751  -1.040  0.00  0.00     0.034 A 
ATOM     20  C   UNL d   1       3.741  -3.194  -1.034  0.00  0.00     0.039 A 
ATOM     21  C   UNL d   1       4.676  -2.608  -0.174  0.00  0.00     0.068 A 
ATOM     22  C   UNL d   1       4.290  -1.544   0.643  0.00  0.00     0.039 A 
ATOM     23  C   UNL d   1       2.976  -1.076   0.625  0.00  0.00     0.034 A 
BRANCH  21  24
ATOM     24  O   UNL d   1       5.988  -2.971  -0.055  0.00  0.00    -0.356 OA
ATOM     25  C   UNL d   1       6.352  -4.228  -0.610  0.00  0.00     0.210 C 
ENDBRANCH  21  24
ENDBRANCH   2  18
TORSDOF 3
