REMARK  2 active torsions:
REMARK  status: ('A' for Active; 'I' for Inactive)
REMARK    1  A    between atoms: C_10  and  C_1 
REMARK    2  A    between atoms: C_16  and  C_15 
ROOT
ATOM      1  N   UNL d   1      -4.154  -7.017   1.162  0.00  0.00    -0.197 NA
ATOM      2  C   UNL d   1      -3.156  -6.837   0.582  0.00  0.00     0.063 C 
ATOM      3  C   UNL d   1      -1.879  -6.640  -0.158  0.00  0.00     0.162 C 
ENDROOT
BRANCH   3   4
ATOM      4  C   UNL d   1      -1.406  -5.199  -0.118  0.00  0.00    -0.045 A 
ATOM      5  C   UNL d   1      -0.589  -4.746   0.927  0.00  0.00     0.009 A 
ATOM      6  C   UNL d   1      -0.190  -3.406   0.994  0.00  0.00     0.016 A 
ATOM      7  C   UNL d   1      -0.592  -2.483   0.018  0.00  0.00     0.017 A 
ATOM      8  C   UNL d   1      -1.418  -2.935  -1.022  0.00  0.00     0.016 A 
ATOM      9  C   UNL d   1      -1.819  -4.277  -1.092  0.00  0.00     0.009 A 
BRANCH   7  10
ATOM     10  C   UNL d   1      -0.166  -1.089   0.061  0.00  0.00     0.173 A 
ATOM     11  N   UNL d   1      -0.429  -0.089  -0.759  0.00  0.00    -0.278 N 
ATOM     12  N   UNL d   1       0.247   1.011  -0.269  0.00  0.00    -0.288 N 
ATOM     13  HN  UNL d   1      -1.017  -0.123  -1.591  1.00  0.00     0.189 HD
ATOM     14  C   UNL d   1       0.871   0.601   0.809  0.00  0.00     0.251 A 
ATOM     15  HN  UNL d   1       0.259   1.951  -0.665  1.00  0.00     0.188 HD
ATOM     16  O   UNL d   1       0.663  -0.713   1.091  0.00  0.00    -0.286 OA
ENDBRANCH   7  10
ENDBRANCH   3   4
TORSDOF 2
