REMARK  3 active torsions:
REMARK  status: ('A' for Active; 'I' for Inactive)
REMARK    1  A    between atoms: N_12  and  N_3 
REMARK    2  A    between atoms: C_7  and  C_4 
REMARK    3  A    between atoms: C_11  and  C_5 
ROOT
ATOM      1  C   UNL d   1      -0.681   1.224   0.005  0.00  0.00     0.129 A 
ATOM      2  C   UNL d   1      -1.459  -0.057   0.056  0.00  0.00     0.284 A 
ATOM      3  N   UNL d   1      -0.702  -1.242   0.118  0.00  0.00    -0.243 N 
ATOM      4  C   UNL d   1       0.666   1.180  -0.021  0.00  0.00     0.076 A 
ATOM      5  C   UNL d   1       0.680  -1.257   0.059  0.00  0.00     0.065 A 
ATOM      6  C   UNL d   1       1.357  -0.102  -0.021  0.00  0.00     0.050 A 
ATOM      7  C   UNL d   1      -1.410   2.451   0.001  0.00  0.00     0.106 C 
ATOM      8  N   UNL d   1      -1.943   3.481  -0.006  0.00  0.00    -0.191 NA
ATOM      9  O   UNL d   1      -2.690  -0.050   0.038  0.00  0.00    -0.265 OA
ENDROOT
BRANCH   4  10
ATOM     10  C   UNL d   1       1.526   2.416  -0.036  0.00  0.00     0.419 C 
ATOM     11  F   UNL d   1       2.854   2.132  -0.036  0.00  0.00    -0.166 F 
ATOM     12  F   UNL d   1       1.293   3.169  -1.138  0.00  0.00    -0.166 F 
ATOM     13  F   UNL d   1       1.299   3.193   1.049  0.00  0.00    -0.166 F 
ENDBRANCH   4  10
BRANCH   3  14
ATOM     14  N   UNL d   1      -1.401  -2.458   0.323  0.00  0.00    -0.239 NA
ATOM     15  H   UNL d   1      -2.378  -2.294   0.055  0.00  0.00     0.143 HD
ATOM     16  H   UNL d   1      -1.047  -3.160  -0.327  0.00  0.00     0.143 HD
ENDBRANCH   3  14
BRANCH   5  17
ATOM     17  C   UNL d   1       1.456  -2.510   0.057  0.00  0.00    -0.008 A 
ATOM     18  C   UNL d   1       1.905  -3.071   1.259  0.00  0.00     0.014 A 
ATOM     19  C   UNL d   1       2.706  -4.215   1.247  0.00  0.00     0.001 A 
ATOM     20  C   UNL d   1       3.062  -4.807   0.036  0.00  0.00     0.000 A 
ATOM     21  C   UNL d   1       2.612  -4.262  -1.165  0.00  0.00     0.001 A 
ATOM     22  C   UNL d   1       1.812  -3.116  -1.157  0.00  0.00     0.014 A 
ENDBRANCH   5  17
TORSDOF 3
