REMARK  4 active torsions:
REMARK  status: ('A' for Active; 'I' for Inactive)
REMARK    1  A    between atoms: C_3  and  C_1 
REMARK       I    between atoms: N_2  and  C_3 
REMARK    2  A    between atoms: C_11  and  C_5 
REMARK    3  A    between atoms: O_25  and  C_15 
REMARK    4  A    between atoms: O_26  and  C_17 
ROOT
ATOM      1  N   UNL d   1       0.878  -3.428  -0.039  0.00  0.00    -0.339 N 
ATOM      2  C   UNL d   1      -0.136  -2.458  -0.070  0.00  0.00     0.263 C 
ATOM      3  C   UNL d   1       1.435  -5.683  -0.947  0.00  0.00    -0.026 A 
ATOM      4  C   UNL d   1       1.079  -4.236  -1.250  0.00  0.00     0.117 C 
ATOM      5  C   UNL d   1       1.828  -6.099   0.333  0.00  0.00    -0.045 A 
ATOM      6  C   UNL d   1       1.354  -6.635  -1.978  0.00  0.00     0.049 A 
ATOM      7  C   UNL d   1       1.827  -3.670   1.051  0.00  0.00     0.131 C 
ATOM      8  C   UNL d   1       1.670  -7.978  -1.753  0.00  0.00     0.102 A 
ATOM      9  C   UNL d   1       2.130  -7.452   0.564  0.00  0.00     0.047 A 
ATOM     10  C   UNL d   1       2.055  -8.394  -0.468  0.00  0.00     0.102 A 
ATOM     11  O   UNL d   1      -0.967  -2.465  -0.980  0.00  0.00    -0.267 OA
ATOM     12  C   UNL d   1       1.829  -5.134   1.487  0.00  0.00     0.059 C 
ATOM     13  C   UNL d   1       2.146  -3.591  -2.146  0.00  0.00     0.037 C 
ENDROOT
BRANCH   2  14
ATOM     14  C   UNL d   1      -0.228  -1.459   0.977  0.00  0.00     0.097 C 
ATOM     15  S   UNL d   1       1.107  -0.487   1.434  0.00  0.00    -0.063 SA
ATOM     16  C   UNL d   1       0.132   0.324   2.597  0.00  0.00     0.103 C 
ATOM     17  N   UNL d   1      -1.148   0.002   2.555  0.00  0.00    -0.351 N 
ATOM     18  C   UNL d   1      -1.372  -0.977   1.595  0.00  0.00     0.029 C 
ATOM     19  HN  UNL d   1      -1.871   0.415   3.145  1.00  0.00     0.166 HD
ATOM     20  C   UNL d   1      -2.775  -1.406   1.339  0.00  0.00     0.070 C 
BRANCH  16  21
ATOM     21  C   UNL d   1       0.722   1.299   3.524  0.00  0.00     0.081 A 
ATOM     22  N   UNL d   1       2.078   1.435   3.527  0.00  0.00    -0.361 N 
ATOM     23  C   UNL d   1       2.580   2.328   4.411  0.00  0.00     0.105 A 
ATOM     24  HN  UNL d   1       2.677   0.898   2.901  1.00  0.00     0.165 HD
ATOM     25  C   UNL d   1       1.776   3.061   5.265  0.00  0.00     0.104 A 
ATOM     26  N   UNL d   1       0.430   2.935   5.278  0.00  0.00    -0.372 N 
ATOM     27  C   UNL d   1      -0.074   2.037   4.390  0.00  0.00     0.120 A 
ATOM     28  HN  UNL d   1      -0.164   3.475   5.908  1.00  0.00     0.164 HD
ENDBRANCH  16  21
ENDBRANCH   2  14
BRANCH   8  29
ATOM     29  O   UNL d   1       1.584  -8.948  -2.722  0.00  0.00    -0.353 OA
ATOM     30  C   UNL d   1       1.675  -8.506  -4.070  0.00  0.00     0.210 C 
ENDBRANCH   8  29
BRANCH  10  31
ATOM     31  O   UNL d   1       2.334  -9.730  -0.321  0.00  0.00    -0.353 OA
ATOM     32  C   UNL d   1       2.752 -10.176   0.961  0.00  0.00     0.210 C 
ENDBRANCH  10  31
TORSDOF 4
