REMARK  3 active torsions:
REMARK  status: ('A' for Active; 'I' for Inactive)
REMARK    1  A    between atoms: C_2  and  C_1 
REMARK    2  A    between atoms: C_16  and  C_8 
REMARK    3  A    between atoms: C_11  and  C_15 
ROOT
ATOM      1  C   UNL d   1      -0.283  -1.088   0.041  0.00  0.00     0.179 A 
ATOM      2  O   UNL d   1      -1.089  -0.008  -0.227  0.00  0.00    -0.272 OA
ATOM      3  N   UNL d   1       0.935  -0.716   0.389  0.00  0.00    -0.277 N 
ATOM      4  HN  UNL d   1       1.714  -1.331   0.622  1.00  0.00     0.189 HD
ATOM      5  N   UNL d   1       0.953   0.663   0.378  0.00  0.00    -0.277 N 
ATOM      6  HN  UNL d   1       1.747   1.265   0.596  1.00  0.00     0.189 HD
ATOM      7  C   UNL d   1      -0.256   1.048   0.030  0.00  0.00     0.174 A 
ENDROOT
BRANCH   7   8
ATOM      8  C   UNL d   1      -0.830   2.385  -0.050  0.00  0.00     0.017 A 
ATOM      9  C   UNL d   1      -2.169   2.593  -0.414  0.00  0.00     0.032 A 
ATOM     10  C   UNL d   1      -2.729   3.884  -0.432  0.00  0.00     0.048 A 
ATOM     11  C   UNL d   1      -1.921   4.977  -0.086  0.00  0.00     0.016 A 
ATOM     12  C   UNL d   1      -0.586   4.787   0.264  0.00  0.00     0.002 A 
ATOM     13  C   UNL d   1      -0.044   3.499   0.281  0.00  0.00     0.016 A 
BRANCH  10  14
ATOM     14  C   UNL d   1      -4.177   4.099  -0.796  0.00  0.00     0.417 C 
ATOM     15  F   UNL d   1      -4.827   2.950  -1.133  0.00  0.00    -0.166 F 
ATOM     16  F   UNL d   1      -4.893   4.646   0.225  0.00  0.00    -0.166 F 
ATOM     17  F   UNL d   1      -4.330   4.939  -1.855  0.00  0.00    -0.166 F 
ENDBRANCH  10  14
ENDBRANCH   7   8
BRANCH   1  18
ATOM     18  C   UNL d   1      -0.733  -2.493  -0.021  0.00  0.00     0.072 A 
ATOM     19  C   UNL d   1      -1.968  -2.939  -0.423  0.00  0.00     0.089 A 
ATOM     20  O   UNL d   1      -1.998  -4.296  -0.319  0.00  0.00    -0.242 OA
ATOM     21  C   UNL d   1      -3.197  -2.296  -0.924  0.00  0.00     0.080 C 
ATOM     22  N   UNL d   1      -0.780  -4.753   0.153  0.00  0.00    -0.265 N 
ATOM     23  C   UNL d   1      -0.022  -3.663   0.330  0.00  0.00     0.045 A 
ATOM     24  HN  UNL d   1      -0.515  -5.722   0.331  1.00  0.00     0.194 HD
ATOM     25  C   UNL d   1       1.360  -3.788   0.850  0.00  0.00     0.071 C 
ENDBRANCH   1  18
TORSDOF 3
