REMARK  3 active torsions:
REMARK  status: ('A' for Active; 'I' for Inactive)
REMARK    1  A    between atoms: C_10  and  C_3 
REMARK    2  A    between atoms: O_12  and  C_10 
REMARK    3  A    between atoms: C_11  and  O_12 
ROOT
ATOM      1  C   UNL d   1       1.216  -1.369   0.075  0.00  0.00     0.051 C 
ATOM      2  C   UNL d   1      -0.095  -0.665   0.021  0.00  0.00     0.004 A 
ATOM      3  C   UNL d   1       2.412  -0.742   0.015  0.00  0.00    -0.024 C 
ATOM      4  S   UNL d   1       1.221   1.821   0.218  0.00  0.00    -0.125 SA
ATOM      5  C   UNL d   1      -0.177   0.737   0.058  0.00  0.00     0.012 A 
ATOM      6  C   UNL d   1       2.615   0.740  -0.124  0.00  0.00     0.117 C 
ATOM      7  C   UNL d   1      -1.313  -1.381  -0.036  0.00  0.00     0.038 A 
ATOM      8 CL   UNL d   1       1.177  -3.115   0.183  0.00  0.00    -0.083 Cl
ATOM      9  C   UNL d   1      -1.431   1.381   0.030  0.00  0.00     0.021 A 
ATOM     10  C   UNL d   1      -2.550  -0.731  -0.052  0.00  0.00     0.035 A 
ATOM     11  C   UNL d   1      -2.615   0.651  -0.024  0.00  0.00     0.025 A 
ATOM     12 CL   UNL d   1      -4.002  -1.653  -0.093  0.00  0.00    -0.084 Cl
ENDROOT
BRANCH   3  13
ATOM     13  C   UNL d   1       3.745  -1.470   0.089  0.00  0.00     0.212 C 
BRANCH  13  14
ATOM     14  O   UNL d   1       4.289  -1.564  -1.233  0.00  0.00    -0.345 OA
BRANCH  14  15
ATOM     15  C   UNL d   1       5.472  -2.257  -1.312  0.00  0.00     0.090 A 
ATOM     16  C   UNL d   1       5.662  -3.142  -2.388  0.00  0.00     0.069 A 
ATOM     17  C   UNL d   1       6.875  -3.831  -2.535  0.00  0.00     0.050 A 
ATOM     18 CL   UNL d   1       4.422  -3.423  -3.554  0.00  0.00    -0.081 Cl
ATOM     19  C   UNL d   1       7.896  -3.625  -1.614  0.00  0.00     0.035 A 
ATOM     20  C   UNL d   1       7.726  -2.737  -0.556  0.00  0.00     0.026 A 
ATOM     21 CL   UNL d   1       9.390  -4.462  -1.788  0.00  0.00    -0.084 Cl
ATOM     22  C   UNL d   1       6.520  -2.050  -0.411  0.00  0.00     0.040 A 
ENDBRANCH  14  15
ENDBRANCH  13  14
ENDBRANCH   3  13
TORSDOF 3
