REMARK  2 active torsions:
REMARK  status: ('A' for Active; 'I' for Inactive)
REMARK    1  A    between atoms: C_3  and  C_1 
REMARK       I    between atoms: N_8  and  C_3 
REMARK    2  A    between atoms: C_16  and  N_8 
ROOT
ATOM      1  C   UNL d   1       4.542  -1.013   0.500  0.00  0.00     0.254 C 
ATOM      2  N   UNL d   1       5.179  -0.182  -0.404  0.00  0.00    -0.323 N 
ATOM      3  O   UNL d   1       4.038  -0.682   1.561  0.00  0.00    -0.268 OA
ATOM      4  H   UNL d   1       5.595  -0.594  -1.221  0.00  0.00     0.169 HD
ENDROOT
BRANCH   2   5
ATOM      5  C   UNL d   1       5.171   1.243  -0.347  0.00  0.00     0.037 C 
ATOM      6  C   UNL d   1       4.575   1.951   0.696  0.00  0.00     0.068 C 
ATOM      7  C   UNL d   1       4.273   3.305   0.555  0.00  0.00     0.092 C 
ATOM      8  O   UNL d   1       3.506   3.831   1.577  0.00  0.00    -0.348 OA
ATOM      9  C   UNL d   1       4.603   4.007  -0.620  0.00  0.00     0.044 C 
ATOM     10  C   UNL d   1       3.029   5.154   1.304  0.00  0.00     0.196 C 
ATOM     11  C   UNL d   1       2.684   5.306  -0.182  0.00  0.00     0.087 C 
ATOM     12  N   UNL d   1       3.918   5.177  -0.969  0.00  0.00    -0.275 NA
ATOM     13  C   UNL d   1       2.184   6.676  -0.584  0.00  0.00     0.023 C 
ATOM     14  C   UNL d   1       4.577   6.481  -1.065  0.00  0.00     0.096 C 
ATOM     15  C   UNL d   1       3.462   7.496  -0.725  0.00  0.00     0.017 C 
ATOM     16  C   UNL d   1       5.424   3.360  -1.549  0.00  0.00     0.029 C 
ATOM     17  C   UNL d   1       5.687   1.980  -1.423  0.00  0.00     0.031 C 
ENDBRANCH   2   5
BRANCH   1  18
ATOM     18  C   UNL d   1       4.518  -2.473   0.173  0.00  0.00     0.035 C 
ATOM     19  C   UNL d   1       4.326  -3.014  -1.040  0.00  0.00     0.029 C 
ATOM     20  C   UNL d   1       4.212  -4.482  -1.088  0.00  0.00    -0.002 A 
ATOM     21  C   UNL d   1       3.700  -5.159  -2.199  0.00  0.00     0.014 A 
ATOM     22  C   UNL d   1       4.646  -5.237   0.014  0.00  0.00     0.079 A 
ATOM     23  C   UNL d   1       3.655  -6.560  -2.209  0.00  0.00     0.001 A 
ATOM     24  C   UNL d   1       4.135  -7.295  -1.124  0.00  0.00     0.003 A 
ATOM     25  C   UNL d   1       4.639  -6.631  -0.007  0.00  0.00     0.037 A 
ATOM     26  O   UNL d   1       5.125  -4.644   1.156  0.00  0.00    -0.346 OA
ATOM     27  C   UNL d   1       4.528  -3.356   1.396  0.00  0.00     0.220 C 
ENDBRANCH   1  18
TORSDOF 2
