REMARK  3 active torsions:
REMARK  status: ('A' for Active; 'I' for Inactive)
REMARK    1  A    between atoms: C_6  and  N_1 
REMARK    2  A    between atoms: N_3  and  N_10 
REMARK    3  A    between atoms: N_10  and  C_17 
ROOT
ATOM      1  C   UNL d   1      -3.137   4.634   5.676  0.00  0.00     0.024 A 
ATOM      2  N   UNL d   1      -2.850   2.593   4.430  0.00  0.00    -0.303 N 
ATOM      3  HN  UNL d   1      -2.021   3.012   4.007  1.00  0.00     0.186 HD
ATOM      4  C   UNL d   1      -3.558   3.263   5.291  0.00  0.00     0.041 C 
ATOM      5  C   UNL d   1      -4.054   5.452   6.347  0.00  0.00     0.081 A 
ATOM      6  C   UNL d   1      -1.841   5.090   5.420  0.00  0.00     0.058 A 
ATOM      7  O   UNL d   1      -5.336   5.076   6.655  0.00  0.00    -0.350 OA
ATOM      8  C   UNL d   1      -3.672   6.724   6.774  0.00  0.00     0.040 A 
ATOM      9  C   UNL d   1      -1.478   6.362   5.849  0.00  0.00     0.117 A 
ATOM     10  C   UNL d   1      -4.801   2.787   6.001  0.00  0.00     0.086 C 
ATOM     11  C   UNL d   1      -5.794   3.933   5.925  0.00  0.00     0.181 C 
ATOM     12  C   UNL d   1      -2.379   7.182   6.521  0.00  0.00     0.045 A 
ATOM     13  F   UNL d   1      -0.234   6.803   5.622  0.00  0.00    -0.206 F 
ENDROOT
BRANCH   2  14
ATOM     14  N   UNL d   1      -3.224   1.331   4.101  0.00  0.00    -0.301 N 
ATOM     15  H   UNL d   1      -4.213   1.099   4.033  0.00  0.00     0.187 HD
BRANCH  14  16
ATOM     16  C   UNL d   1      -2.458   0.643   3.130  0.00  0.00     0.048 A 
ATOM     17  C   UNL d   1      -1.311   1.201   2.544  0.00  0.00     0.033 A 
ATOM     18  C   UNL d   1      -0.535   0.475   1.633  0.00  0.00     0.038 A 
ATOM     19  C   UNL d   1      -0.889  -0.842   1.324  0.00  0.00     0.103 A 
ATOM     20  C   UNL d   1      -2.003  -1.435   1.928  0.00  0.00     0.038 A 
ATOM     21  C   UNL d   1      -2.777  -0.690   2.827  0.00  0.00     0.033 A 
BRANCH  19  22
ATOM     22  N   UNL d   1      -0.078  -1.606   0.371  0.00  0.00    -0.116 N 
ATOM     23  O   UNL d   1      -0.426  -2.775   0.126  0.00  0.00    -0.532 OA
ATOM     24  O   UNL d   1       0.901  -1.046  -0.143  0.00  0.00    -0.532 OA
ENDBRANCH  19  22
ENDBRANCH  14  16
ENDBRANCH   2  14
TORSDOF 3
