REMARK  2 active torsions:
REMARK  status: ('A' for Active; 'I' for Inactive)
REMARK       I    between atoms: C_5  and  N_1 
REMARK    1  A    between atoms: C_8  and  C_4 
REMARK    2  A    between atoms: C_12  and  C_5 
ROOT
ATOM      1  N   UNL d   1       0.832  -0.747  -0.011  0.00  0.00    -0.231 N 
ATOM      2  N   UNL d   1       0.886   0.596  -0.223  0.00  0.00    -0.290 N 
ATOM      3  HN  UNL d   1       1.699   1.151  -0.493  1.00  0.00     0.187 HD
ATOM      4  C   UNL d   1      -0.361   1.028  -0.001  0.00  0.00     0.067 A 
ATOM      5  C   UNL d   1       1.995  -1.541  -0.090  0.00  0.00     0.276 C 
ATOM      6  C   UNL d   1      -1.242  -0.043   0.272  0.00  0.00     0.051 A 
ATOM      7  C   UNL d   1      -0.446  -1.161   0.294  0.00  0.00     0.122 A 
ATOM      8  O   UNL d   1       1.949  -2.661   0.415  0.00  0.00    -0.265 OA
ENDROOT
BRANCH   5   9
ATOM      9  C   UNL d   1       3.239  -1.117  -0.781  0.00  0.00     0.034 A 
ATOM     10  C   UNL d   1       4.483  -1.512  -0.278  0.00  0.00     0.017 A 
ATOM     11  C   UNL d   1       5.651  -1.176  -0.968  0.00  0.00     0.001 A 
ATOM     12  C   UNL d   1       5.576  -0.464  -2.166  0.00  0.00     0.000 A 
ATOM     13  C   UNL d   1       4.335  -0.083  -2.678  0.00  0.00     0.001 A 
ATOM     14  C   UNL d   1       3.169  -0.410  -1.988  0.00  0.00     0.017 A 
ENDBRANCH   5   9
BRANCH   4  15
ATOM     15  C   UNL d   1      -0.713   2.487  -0.034  0.00  0.00     0.033 A 
ATOM     16  S   UNL d   1      -2.283   3.107   0.237  0.00  0.00    -0.100 SA
ATOM     17  C   UNL d   1      -1.744   4.723   0.076  0.00  0.00     0.050 A 
ATOM     18  C   UNL d   1      -0.394   4.791  -0.191  0.00  0.00     0.008 A 
ATOM     19  C   UNL d   1       0.202   3.497  -0.259  0.00  0.00     0.021 A 
ENDBRANCH   4  15
TORSDOF 2
