REMARK  6 active torsions:
REMARK  status: ('A' for Active; 'I' for Inactive)
REMARK    1  A    between atoms: N_6  and  N_1 
REMARK       I    between atoms: C_4  and  N_6 
REMARK    2  A    between atoms: C_13  and  C_4 
REMARK    3  A    between atoms: C_11  and  C_10 
REMARK    4  A    between atoms: C_18  and  C_13 
REMARK    5  A    between atoms: O_23  and  C_15 
REMARK    6  A    between atoms: C_16  and  C_18 
ROOT
ATOM      1  C   UNL d   1      -1.072  -1.002  -0.437  0.00  0.00     0.236 C 
ATOM      2  N   UNL d   1       0.176  -0.730  -0.983  0.00  0.00    -0.270 N 
ATOM      3  O   UNL d   1      -1.609  -0.333   0.444  0.00  0.00    -0.272 OA
ATOM      4  H   UNL d   1       0.576  -1.314  -1.708  0.00  0.00     0.190 HD
ENDROOT
BRANCH   2   5
ATOM      5  N   UNL d   1       0.845   0.370  -0.547  0.00  0.00    -0.309 N 
ATOM      6  C   UNL d   1       1.981   0.641  -1.101  0.00  0.00     0.118 C 
ATOM      7  HN  UNL d   1       0.464   0.962   0.192  1.00  0.00     0.186 HD
BRANCH   6   8
ATOM      8  C   UNL d   1       2.758   1.820  -0.659  0.00  0.00    -0.018 A 
ATOM      9  C   UNL d   1       3.980   2.114  -1.268  0.00  0.00     0.038 A 
ATOM     10  C   UNL d   1       4.719   3.223  -0.839  0.00  0.00     0.056 A 
ATOM     11 CL   UNL d   1       6.224   3.536  -1.630  0.00  0.00    -0.083 Cl
ATOM     12  C   UNL d   1       4.237   4.035   0.198  0.00  0.00     0.055 A 
ATOM     13  C   UNL d   1       3.011   3.737   0.799  0.00  0.00     0.026 A 
ATOM     14 CL   UNL d   1       5.104   5.410   0.781  0.00  0.00    -0.083 Cl
ATOM     15  C   UNL d   1       2.273   2.634   0.371  0.00  0.00     0.014 A 
ENDBRANCH   6   8
ENDBRANCH   2   5
BRANCH   1  16
ATOM     16  C   UNL d   1      -1.717  -2.251  -1.006  0.00  0.00     0.109 C 
BRANCH  16  17
ATOM     17  C   UNL d   1      -3.238  -2.152  -0.896  0.00  0.00     0.048 C 
BRANCH  17  18
ATOM     18  C   UNL d   1      -3.945  -3.371  -1.434  0.00  0.00    -0.058 A 
ATOM     19  C   UNL d   1      -4.284  -4.427  -0.576  0.00  0.00     0.010 A 
ATOM     20  C   UNL d   1      -4.976  -5.537  -1.063  0.00  0.00     0.037 A 
ATOM     21  C   UNL d   1      -5.327  -5.596  -2.405  0.00  0.00     0.065 A 
ATOM     22  C   UNL d   1      -4.984  -4.568  -3.277  0.00  0.00     0.037 A 
ATOM     23  C   UNL d   1      -4.290  -3.457  -2.790  0.00  0.00     0.010 A 
BRANCH  21  24
ATOM     24  O   UNL d   1      -6.022  -6.689  -2.833  0.00  0.00    -0.361 OA
ATOM     25  H   UNL d   1      -6.261  -6.557  -3.765  0.00  0.00     0.217 HD
ENDBRANCH  21  24
ENDBRANCH  17  18
ENDBRANCH  16  17
ENDBRANCH   1  16
TORSDOF 6
