REMARK  4 active torsions:
REMARK  status: ('A' for Active; 'I' for Inactive)
REMARK    1  A    between atoms: C_2  and  C_1 
REMARK       I    between atoms: N_3  and  C_1 
REMARK    2  A    between atoms: C_13  and  N_3 
REMARK    3  A    between atoms: C_14  and  N_5 
REMARK    4  A    between atoms: C_19  and  C_14 
ROOT
ATOM      1  C   UNL d   1       1.008  -0.564  -0.108  0.00  0.00     0.252 C 
ATOM      2  N   UNL d   1       0.322  -0.056   0.973  0.00  0.00    -0.352 N 
ATOM      3  O   UNL d   1       0.529  -1.343  -0.922  0.00  0.00    -0.268 OA
ATOM      4  H   UNL d   1       0.882   0.256   1.751  0.00  0.00     0.163 HD
ENDROOT
BRANCH   2   5
ATOM      5  C   UNL d   1      -1.099  -0.262   1.281  0.00  0.00     0.088 C 
ATOM      6  C   UNL d   1      -2.053  -0.279   0.087  0.00  0.00     0.055 C 
ATOM      7  C   UNL d   1      -2.055   1.057  -0.652  0.00  0.00     0.275 C 
ATOM      8  N   UNL d   1      -2.370   2.207   0.220  0.00  0.00     0.092 N 
ATOM      9  C   UNL d   1      -1.567   2.212   1.455  0.00  0.00     0.275 C 
ATOM     10  C   UNL d   1      -1.568   0.873   2.203  0.00  0.00     0.055 C 
BRANCH   8  11
ATOM     11  C   UNL d   1      -2.130   3.479  -0.500  0.00  0.00     0.311 C 
BRANCH  11  12
ATOM     12  C   UNL d   1      -2.951   3.668  -1.757  0.00  0.00    -0.030 A 
ATOM     13  C   UNL d   1      -4.330   3.890  -1.680  0.00  0.00     0.009 A 
ATOM     14  C   UNL d   1      -5.084   4.079  -2.843  0.00  0.00     0.001 A 
ATOM     15  C   UNL d   1      -4.463   4.037  -4.090  0.00  0.00     0.000 A 
ATOM     16  C   UNL d   1      -3.092   3.806  -4.181  0.00  0.00     0.001 A 
ATOM     17  C   UNL d   1      -2.339   3.623  -3.021  0.00  0.00     0.009 A 
ENDBRANCH  11  12
ENDBRANCH   8  11
ENDBRANCH   2   5
BRANCH   1  18
ATOM     18  C   UNL d   1       2.409  -0.060  -0.297  0.00  0.00     0.034 A 
ATOM     19  C   UNL d   1       2.931   1.002   0.452  0.00  0.00     0.056 A 
ATOM     20  C   UNL d   1       4.191   1.531   0.155  0.00  0.00     0.103 A 
ATOM     21  O   UNL d   1       4.533   2.638   0.893  0.00  0.00    -0.348 OA
ATOM     22  C   UNL d   1       4.979   0.969  -0.857  0.00  0.00     0.102 A 
ATOM     23  C   UNL d   1       5.052   3.677   0.060  0.00  0.00     0.178 C 
ATOM     24  C   UNL d   1       6.554   3.533  -0.104  0.00  0.00     0.053 C 
ATOM     25  C   UNL d   1       6.976   2.077  -0.236  0.00  0.00     0.178 C 
ATOM     26  O   UNL d   1       6.224   1.395  -1.240  0.00  0.00    -0.348 OA
ATOM     27  C   UNL d   1       4.459  -0.088  -1.608  0.00  0.00     0.040 A 
ATOM     28  C   UNL d   1       3.183  -0.596  -1.336  0.00  0.00     0.020 A 
ENDBRANCH   1  18
TORSDOF 4
