REMARK  7 active torsions:
REMARK  status: ('A' for Active; 'I' for Inactive)
REMARK       I    between atoms: N_4  and  C_1 
REMARK    1  A    between atoms: C_7  and  C_1 
REMARK    2  A    between atoms: C_2  and  C_7 
REMARK    3  A    between atoms: C_9  and  C_2 
REMARK    4  A    between atoms: C_3  and  C_9 
REMARK    5  A    between atoms: O_12  and  C_3 
REMARK    6  A    between atoms: C_11  and  N_4 
REMARK    7  A    between atoms: C_13  and  C_11 
ROOT
ATOM      1  C   UNL d   1       0.979  -0.559  -0.697  0.00  0.00     0.218 C 
ATOM      2  N   UNL d   1       2.176  -0.445  -1.369  0.00  0.00    -0.357 N 
ATOM      3  O   UNL d   1       0.658  -1.526  -0.012  0.00  0.00    -0.274 OA
ATOM      4  H   UNL d   1       2.351   0.376  -1.933  0.00  0.00     0.162 HD
ENDROOT
BRANCH   1   5
ATOM      5  C   UNL d   1       0.141   0.711  -0.754  0.00  0.00     0.112 C 
BRANCH   5   6
ATOM      6  C   UNL d   1      -1.411   0.566  -0.782  0.00  0.00    -0.023 C 
ATOM      7  C   UNL d   1      -1.888  -0.135  -2.085  0.00  0.00     0.010 C 
ATOM      8  C   UNL d   1      -1.700   0.693  -3.354  0.00  0.00     0.001 C 
ATOM      9  C   UNL d   1      -2.333   2.073  -3.224  0.00  0.00     0.000 C 
ATOM     10  C   UNL d   1      -1.810   2.815  -2.003  0.00  0.00     0.001 C 
ATOM     11  C   UNL d   1      -2.020   2.000  -0.726  0.00  0.00     0.010 C 
BRANCH   6  12
ATOM     12  C   UNL d   1      -1.984  -0.257   0.403  0.00  0.00     0.119 C 
BRANCH  12  13
ATOM     13  C   UNL d   1      -1.585   0.239   1.769  0.00  0.00     0.140 C 
ATOM     14  O   UNL d   1      -2.174   1.119   2.377  0.00  0.00    -0.650 OA
BRANCH  13  15
ATOM     15  O   UNL d   1      -0.472  -0.363   2.249  0.00  0.00    -0.776 OA
ATOM     16  H   UNL d   1      -0.092  -1.036   1.638  0.00  0.00     0.167 HD
ENDBRANCH  13  15
ENDBRANCH  12  13
ENDBRANCH   6  12
ENDBRANCH   5   6
ENDBRANCH   1   5
BRANCH   2  17
ATOM     17  C   UNL d   1       3.172  -1.496  -1.428  0.00  0.00     0.161 C 
BRANCH  17  18
ATOM     18  C   UNL d   1       4.565  -0.913  -1.412  0.00  0.00    -0.038 A 
ATOM     19  C   UNL d   1       5.027  -0.222  -0.285  0.00  0.00     0.025 A 
ATOM     20  C   UNL d   1       6.311   0.303  -0.304  0.00  0.00     0.088 A 
ATOM     21  N   UNL d   1       7.153   0.185  -1.349  0.00  0.00    -0.375 N 
ATOM     22  C   UNL d   1       6.697  -0.488  -2.424  0.00  0.00     0.088 A 
ATOM     23  HN  UNL d   1       8.091   0.586  -1.328  1.00  0.00     0.164 HD
ATOM     24  C   UNL d   1       5.428  -1.046  -2.505  0.00  0.00     0.025 A 
ENDBRANCH  17  18
ENDBRANCH   2  17
TORSDOF 7
