REMARK  4 active torsions:
REMARK  status: ('A' for Active; 'I' for Inactive)
REMARK    1  A    between atoms: C_5  and  C_1 
REMARK    2  A    between atoms: N_4  and  C_2 
REMARK       I    between atoms: C_3  and  N_4 
REMARK    3  A    between atoms: C_6  and  C_3 
REMARK    4  A    between atoms: O_14  and  C_5 
ROOT
ATOM      1  C   UNL d   1      -0.012   1.274   0.139  0.00  0.00     0.106 A 
ATOM      2  C   UNL d   1       1.299   0.817   0.129  0.00  0.00     0.058 A 
ATOM      3  S   UNL d   1      -1.132  -0.041   0.129  0.00  0.00    -0.094 SA
ATOM      4  C   UNL d   1       1.348  -0.614   0.253  0.00  0.00     0.038 A 
ATOM      5  C   UNL d   1       0.105  -1.200   0.240  0.00  0.00     0.053 A 
ENDROOT
BRANCH   2   6
ATOM      6  N   UNL d   1       2.498   1.519   0.017  0.00  0.00    -0.325 N 
ATOM      7  C   UNL d   1       2.679   2.758  -0.555  0.00  0.00     0.226 C 
ATOM      8  O   UNL d   1       1.809   3.480  -1.020  0.00  0.00    -0.273 OA
ATOM      9  H   UNL d   1       3.331   0.965   0.157  0.00  0.00     0.169 HD
BRANCH   7  10
ATOM     10  C   UNL d   1       4.108   3.191  -0.695  0.00  0.00     0.078 A 
ATOM     11  C   UNL d   1       5.128   2.261  -1.316  0.00  0.00     0.015 A 
ATOM     12  C   UNL d   1       5.257   2.654   0.126  0.00  0.00     0.015 A 
ENDBRANCH   7  10
ENDBRANCH   2   6
BRANCH   1  13
ATOM     13  C   UNL d   1      -0.605   2.597   0.203  0.00  0.00     0.302 C 
ATOM     14  O   UNL d   1      -1.638   2.942  -0.363  0.00  0.00    -0.259 OA
BRANCH  13  15
ATOM     15  O   UNL d   1       0.066   3.361   1.118  0.00  0.00    -0.322 OA
ATOM     16  C   UNL d   1      -0.453   4.681   1.322  0.00  0.00     0.213 C 
ENDBRANCH  13  15
ENDBRANCH   1  13
TORSDOF 4
