REMARK  1 active torsions:
REMARK  status: ('A' for Active; 'I' for Inactive)
REMARK    1  A    between atoms: C_12  and  N_2 
ROOT
ATOM      1  C   UNL d   1       0.760   0.430  -0.043  0.00  0.00     0.074 A 
ATOM      2  N   UNL d   1       3.058   1.175   0.037  0.00  0.00    -0.254 N 
ATOM      3  C   UNL d   1       1.253  -0.836  -0.097  0.00  0.00     0.093 A 
ATOM      4  C   UNL d   1       3.523  -0.166  -0.014  0.00  0.00     0.186 A 
ATOM      5  C   UNL d   1       1.686   1.545   0.040  0.00  0.00     0.268 A 
ATOM      6  N   UNL d   1       2.571  -1.158  -0.102  0.00  0.00    -0.326 N 
ATOM      7  C   UNL d   1      -0.672   0.405  -0.079  0.00  0.00    -0.026 A 
ATOM      8  C   UNL d   1      -1.149  -0.899  -0.068  0.00  0.00    -0.008 A 
ATOM      9  S   UNL d   1       0.105  -2.059  -0.129  0.00  0.00    -0.075 SA
ATOM     10  S   UNL d   1       5.112  -0.720   0.093  0.00  0.00    -0.040 SA
ATOM     11  C   UNL d   1      -1.591   1.593  -0.058  0.00  0.00     0.041 C 
ATOM     12  O   UNL d   1       1.262   2.698   0.093  0.00  0.00    -0.267 OA
ATOM     13  C   UNL d   1      -2.596  -1.289  -0.021  0.00  0.00     0.051 C 
ATOM     14  C   UNL d   1      -3.052   1.187  -0.317  0.00  0.00     0.009 C 
ATOM     15  C   UNL d   1      -3.463  -0.095   0.441  0.00  0.00    -0.014 C 
ATOM     16  C   UNL d   1      -3.390   0.100   1.961  0.00  0.00     0.010 C 
ATOM     17  H   UNL d   1       2.857  -2.130  -0.115  0.00  0.00     0.169 HD
ENDROOT
BRANCH   2  18
ATOM     18  C   UNL d   1       3.990   2.263   0.103  0.00  0.00     0.045 A 
ATOM     19  C   UNL d   1       3.938   3.174   1.171  0.00  0.00     0.030 A 
ATOM     20  C   UNL d   1       4.841   4.236   1.239  0.00  0.00     0.002 A 
ATOM     21  C   UNL d   1       5.791   4.410   0.235  0.00  0.00     0.000 A 
ATOM     22  C   UNL d   1       5.835   3.527  -0.844  0.00  0.00     0.002 A 
ATOM     23  C   UNL d   1       4.938   2.459  -0.910  0.00  0.00     0.030 A 
ENDBRANCH   2  18
TORSDOF 1
