REMARK  2 active torsions:
REMARK  status: ('A' for Active; 'I' for Inactive)
REMARK    1  A    between atoms: C_8  and  C_3 
REMARK    2  A    between atoms: C_10  and  C_7 
ROOT
ATOM      1  N   UNL d   1      -0.791   0.036   0.000  0.00  0.00    -0.331 N 
ATOM      2  HN  UNL d   1      -1.777  -0.225   0.003  1.00  0.00     0.168 HD
ATOM      3  C   UNL d   1      -0.269   1.220  -0.015  0.00  0.00     0.162 A 
ATOM      4  C   UNL d   1       0.309  -0.778   0.011  0.00  0.00     0.111 A 
ATOM      5  O   UNL d   1       1.084   1.311  -0.030  0.00  0.00    -0.256 OA
ATOM      6  C   UNL d   1       1.554   0.032  -0.011  0.00  0.00     0.316 A 
ATOM      7  C   UNL d   1       0.325  -2.115   0.040  0.00  0.00     0.047 C 
ATOM      8  O   UNL d   1       2.713  -0.331  -0.012  0.00  0.00    -0.257 OA
ENDROOT
BRANCH   7   9
ATOM      9  C   UNL d   1      -0.901  -2.912   0.021  0.00  0.00    -0.031 A 
ATOM     10  C   UNL d   1      -1.467  -3.279  -1.203  0.00  0.00     0.053 A 
ATOM     11  C   UNL d   1      -2.647  -4.013  -1.222  0.00  0.00     0.117 A 
ATOM     12  F   UNL d   1      -3.188  -4.360  -2.397  0.00  0.00    -0.206 F 
ATOM     13  C   UNL d   1      -3.278  -4.390  -0.041  0.00  0.00     0.042 A 
ATOM     14  C   UNL d   1      -2.720  -4.024   1.183  0.00  0.00     0.004 A 
ATOM     15  C   UNL d   1      -1.534  -3.284   1.215  0.00  0.00     0.011 A 
ENDBRANCH   7   9
BRANCH   3  16
ATOM     16  C   UNL d   1      -0.997   2.497   0.013  0.00  0.00     0.015 A 
ATOM     17  C   UNL d   1      -2.396   2.470   0.096  0.00  0.00     0.016 A 
ATOM     18  C   UNL d   1      -3.115   3.663   0.183  0.00  0.00     0.001 A 
ATOM     19  C   UNL d   1      -2.441   4.883   0.185  0.00  0.00     0.000 A 
ATOM     20  C   UNL d   1      -1.050   4.915   0.086  0.00  0.00     0.001 A 
ATOM     21  C   UNL d   1      -0.326   3.724  -0.002  0.00  0.00     0.016 A 
ENDBRANCH   3  16
TORSDOF 2
