REMARK  9 active torsions:
REMARK  status: ('A' for Active; 'I' for Inactive)
REMARK    1  A    between atoms: C_2  and  C_1 
REMARK    2  A    between atoms: C_23  and  N_3 
REMARK    3  A    between atoms: N_21  and  C_4 
REMARK    4  A    between atoms: S_19  and  C_10 
REMARK    5  A    between atoms: C_18  and  C_11 
REMARK    6  A    between atoms: C_25  and  C_16 
REMARK    7  A    between atoms: C_31  and  S_19 
REMARK    8  A    between atoms: C_27  and  C_23 
REMARK    9  A    between atoms: C_29  and  C_31 
ROOT
ATOM      1  C   UNL d   1       2.452   0.014  -0.154  0.00  0.00     0.150 A 
ATOM      2  C   UNL d   1       1.712   1.188  -0.193  0.00  0.00     0.079 A 
ATOM      3  C   UNL d   1       0.329   0.848  -0.187  0.00  0.00     0.058 A 
ATOM      4  C   UNL d   1       0.312  -0.546  -0.229  0.00  0.00     0.162 A 
ATOM      5  O   UNL d   1       1.583  -1.043  -0.234  0.00  0.00    -0.287 OA
ATOM      6  C   UNL d   1      -0.925   1.493  -0.108  0.00  0.00     0.017 A 
ATOM      7  N   UNL d   1      -0.765  -1.354  -0.233  0.00  0.00    -0.335 N 
ATOM      8  HN  UNL d   1      -0.691  -2.370  -0.281  1.00  0.00     0.168 HD
ATOM      9  C   UNL d   1      -1.953  -0.712  -0.169  0.00  0.00     0.045 A 
ATOM     10  C   UNL d   1      -2.066   0.677  -0.086  0.00  0.00     0.045 A 
ENDROOT
BRANCH   1  11
ATOM     11  C   UNL d   1       3.868  -0.128   0.029  0.00  0.00     0.161 A 
ATOM     12  N   UNL d   1       4.696  -1.115  -0.459  0.00  0.00    -0.306 N 
ATOM     13  C   UNL d   1       5.918  -0.868   0.112  0.00  0.00     0.163 A 
ATOM     14  N   UNL d   1       5.870   0.228   0.832  0.00  0.00    -0.278 N 
ATOM     15  N   UNL d   1       4.588   0.709   0.758  0.00  0.00    -0.281 N 
ATOM     16  HN  UNL d   1       6.643   0.644   1.350  1.00  0.00     0.189 HD
ATOM     17  HN  UNL d   1       4.247   1.566   1.193  1.00  0.00     0.188 HD
BRANCH  12  18
ATOM     18  C   UNL d   1       4.339  -2.197  -1.357  0.00  0.00     0.159 C 
BRANCH  18  19
ATOM     19  C   UNL d   1       3.943  -1.718  -2.728  0.00  0.00    -0.017 C 
ATOM     20  C   UNL d   1       2.810  -2.086  -3.343  0.00  0.00     0.008 C 
ENDBRANCH  18  19
ENDBRANCH  12  18
BRANCH  13  21
ATOM     21  S   UNL d   1       7.326  -1.852  -0.087  0.00  0.00    -0.085 SA
BRANCH  21  22
ATOM     22  C   UNL d   1       7.729  -2.196   1.650  0.00  0.00     0.160 C 
BRANCH  22  23
ATOM     23  C   UNL d   1       6.761  -3.173   2.297  0.00  0.00     0.132 C 
ATOM     24  O   UNL d   1       5.734  -3.591   1.754  0.00  0.00    -0.298 OA
ATOM     25  C   UNL d   1       7.143  -3.658   3.675  0.00  0.00     0.091 C 
ENDBRANCH  22  23
ENDBRANCH  21  22
ENDBRANCH  13  21
ENDBRANCH   1  11
BRANCH   2  26
ATOM     26  N   UNL d   1       2.229   2.432  -0.198  0.00  0.00    -0.396 N 
ATOM     27  H   UNL d   1       3.229   2.609  -0.118  0.00  0.00     0.156 HD
ATOM     28  H   UNL d   1       1.642   3.260  -0.267  0.00  0.00     0.156 HD
ENDBRANCH   2  26
BRANCH   6  29
ATOM     29  C   UNL d   1      -1.056   2.936   0.034  0.00  0.00     0.086 A 
ATOM     30  O   UNL d   1      -0.155   3.722  -0.628  0.00  0.00    -0.322 OA
ATOM     31  C   UNL d   1      -0.471   5.017  -0.366  0.00  0.00     0.142 A 
ATOM     32  C   UNL d   1      -1.581   5.086   0.439  0.00  0.00     0.027 A 
ATOM     33  C   UNL d   1      -1.969   3.747   0.686  0.00  0.00     0.040 A 
ENDBRANCH   6  29
BRANCH   9  34
ATOM     34  C   UNL d   1      -3.156  -1.579  -0.184  0.00  0.00    -0.009 A 
ATOM     35  C   UNL d   1      -3.153  -2.839   0.443  0.00  0.00     0.013 A 
ATOM     36  C   UNL d   1      -4.285  -3.663   0.428  0.00  0.00     0.001 A 
ATOM     37  C   UNL d   1      -5.446  -3.246  -0.217  0.00  0.00     0.000 A 
ATOM     38  C   UNL d   1      -5.478  -2.005  -0.844  0.00  0.00     0.001 A 
ATOM     39  C   UNL d   1      -4.345  -1.184  -0.828  0.00  0.00     0.013 A 
ENDBRANCH   9  34
TORSDOF 9
