REMARK  4 active torsions:
REMARK  status: ('A' for Active; 'I' for Inactive)
REMARK       I    between atoms: C_2  and  N_1 
REMARK    1  A    between atoms: O_13  and  C_2 
REMARK       I    between atoms: C_3  and  N_4 
REMARK    2  A    between atoms: C_9  and  C_3 
REMARK    3  A    between atoms: N_4  and  C_10 
REMARK    4  A    between atoms: C_16  and  O_13 
ROOT
ATOM      1  N   UNL d   1       1.328  -0.018   0.343  0.00  0.00    -0.328 N 
ATOM      2  C   UNL d   1       2.538  -0.003   1.011  0.00  0.00     0.362 C 
ATOM      3  C   UNL d   1       0.748   1.236  -0.104  0.00  0.00     0.130 C 
ATOM      4  C   UNL d   1       0.674  -1.232  -0.137  0.00  0.00     0.130 C 
ATOM      5  O   UNL d   1       3.146   1.021   1.296  0.00  0.00    -0.238 OA
ATOM      6  C   UNL d   1      -1.506   0.080  -0.175  0.00  0.00     0.087 C 
ATOM      7  C   UNL d   1      -0.720   1.309   0.294  0.00  0.00     0.045 C 
ATOM      8  C   UNL d   1      -0.806  -1.226   0.230  0.00  0.00     0.045 C 
ENDROOT
BRANCH   6   9
ATOM      9  N   UNL d   1      -1.749   0.141  -1.615  0.00  0.00    -0.356 N 
ATOM     10  C   UNL d   1      -2.872  -0.414  -2.193  0.00  0.00     0.222 C 
ATOM     11  O   UNL d   1      -3.759  -0.941  -1.535  0.00  0.00    -0.273 OA
ATOM     12  H   UNL d   1      -1.016   0.487  -2.217  0.00  0.00     0.162 HD
BRANCH  10  13
ATOM     13  C   UNL d   1      -2.926  -0.260  -3.719  0.00  0.00     0.078 C 
ATOM     14  C   UNL d   1      -4.245  -0.790  -4.307  0.00  0.00     0.014 C 
ATOM     15  C   UNL d   1      -4.325  -2.318  -4.329  0.00  0.00     0.001 C 
ATOM     16  C   UNL d   1      -3.101  -2.951  -4.983  0.00  0.00     0.000 C 
ATOM     17  C   UNL d   1      -1.800  -2.438  -4.375  0.00  0.00     0.001 C 
ATOM     18  C   UNL d   1      -1.729  -0.914  -4.421  0.00  0.00     0.014 C 
ENDBRANCH  10  13
ENDBRANCH   6   9
BRANCH   2  19
ATOM     19  O   UNL d   1       2.997  -1.254   1.277  0.00  0.00    -0.304 OA
BRANCH  19  20
ATOM     20  C   UNL d   1       4.375  -1.333   1.665  0.00  0.00     0.176 C 
ATOM     21  C   UNL d   1       5.210  -1.430   0.401  0.00  0.00     0.034 C 
ENDBRANCH  19  20
ENDBRANCH   2  19
TORSDOF 4
