REMARK  4 active torsions:
REMARK  status: ('A' for Active; 'I' for Inactive)
REMARK    1  A    between atoms: C_3  and  C_1 
REMARK    2  A    between atoms: C_10  and  N_2 
REMARK    3  A    between atoms: C_9  and  C_3 
REMARK    4  A    between atoms: N_11  and  C_8 
ROOT
ATOM      1  C   UNL d   1       0.582  -3.617   0.140  0.00  0.00     0.153 C 
ATOM      2  N   UNL d   1       0.561  -4.943  -0.303  0.00  0.00    -0.224 N 
ATOM      3  N   UNL d   1       1.548  -5.607   0.345  0.00  0.00     0.001 NA
ATOM      4  N   UNL d   1       2.267  -4.682   0.960  0.00  0.00    -0.007 NA
ATOM      5  N   UNL d   1       1.690  -3.449   0.837  0.00  0.00    -0.269 N 
ATOM      6  HN  UNL d   1       2.046  -2.569   1.211  1.00  0.00     0.185 HD
ENDROOT
BRANCH   1   7
ATOM      7  C   UNL d   1      -0.502  -2.719  -0.080  0.00  0.00     0.071 C 
ATOM      8  C   UNL d   1      -1.743  -3.158   0.221  0.00  0.00     0.103 C 
BRANCH   8   9
ATOM      9  N   UNL d   1      -3.041  -2.705   0.029  0.00  0.00    -0.398 N 
ATOM     10  C   UNL d   1      -3.423  -1.694  -0.953  0.00  0.00     0.148 C 
ATOM     11  C   UNL d   1      -4.151  -3.198   0.849  0.00  0.00     0.148 C 
ENDBRANCH   8   9
BRANCH   7  12
ATOM     12  C   UNL d   1      -0.192  -1.318  -0.545  0.00  0.00     0.160 C 
ATOM     13  O   UNL d   1      -0.973  -0.378  -0.377  0.00  0.00    -0.293 OA
ATOM     14  C   UNL d   1       1.139  -1.055  -1.206  0.00  0.00     0.097 C 
ENDBRANCH   7  12
ENDBRANCH   1   7
BRANCH   2  15
ATOM     15  C   UNL d   1      -0.226  -5.603  -1.284  0.00  0.00     0.056 A 
ATOM     16  C   UNL d   1      -0.760  -4.902  -2.375  0.00  0.00     0.033 A 
ATOM     17  C   UNL d   1      -1.477  -5.584  -3.361  0.00  0.00     0.026 A 
ATOM     18  C   UNL d   1      -1.676  -6.959  -3.254  0.00  0.00     0.034 A 
ATOM     19  C   UNL d   1      -1.169  -7.661  -2.162  0.00  0.00     0.026 A 
ATOM     20 CL   UNL d   1      -2.530  -7.796  -4.490  0.00  0.00    -0.084 Cl
ATOM     21  C   UNL d   1      -0.431  -6.989  -1.183  0.00  0.00     0.033 A 
ENDBRANCH   2  15
TORSDOF 4
