REMARK  5 active torsions:
REMARK  status: ('A' for Active; 'I' for Inactive)
REMARK    1  A    between atoms: C_11  and  N_1 
REMARK    2  A    between atoms: C_7  and  C_2 
REMARK    3  A    between atoms: O_17  and  C_8 
REMARK    4  A    between atoms: O_20  and  C_9 
REMARK    5  A    between atoms: O_19  and  C_10 
ROOT
ATOM      1  N   UNL d   1       0.839  -0.599  -0.381  0.00  0.00    -0.271 N 
ATOM      2  C   UNL d   1       0.889   0.719   0.033  0.00  0.00     0.140 A 
ATOM      3  N   UNL d   1      -0.237   1.174   0.512  0.00  0.00    -0.282 N 
ATOM      4  HN  UNL d   1      -0.424   2.102   0.892  1.00  0.00     0.188 HD
ATOM      5  C   UNL d   1      -0.477  -0.979  -0.149  0.00  0.00     0.199 A 
ATOM      6  N   UNL d   1      -1.105   0.137   0.391  0.00  0.00    -0.274 N 
ATOM      7  S   UNL d   1      -1.288  -2.420  -0.318  0.00  0.00    -0.039 SA
ATOM      8  H   UNL d   1      -2.062   0.192   0.717  0.00  0.00     0.189 HD
ENDROOT
BRANCH   2   9
ATOM      9  C   UNL d   1       2.064   1.609  -0.099  0.00  0.00     0.015 A 
ATOM     10  C   UNL d   1       2.875   1.571  -1.236  0.00  0.00     0.055 A 
ATOM     11  C   UNL d   1       4.032   2.358  -1.325  0.00  0.00     0.105 A 
ATOM     12  C   UNL d   1       4.330   3.279  -0.297  0.00  0.00     0.135 A 
ATOM     13  C   UNL d   1       3.432   3.399   0.790  0.00  0.00     0.105 A 
ATOM     14  C   UNL d   1       2.327   2.545   0.896  0.00  0.00     0.055 A 
BRANCH  11  15
ATOM     15  O   UNL d   1       4.881   2.268  -2.399  0.00  0.00    -0.353 OA
ATOM     16  C   UNL d   1       4.712   1.187  -3.309  0.00  0.00     0.210 C 
ENDBRANCH  11  15
BRANCH  12  17
ATOM     17  O   UNL d   1       5.441   4.079  -0.218  0.00  0.00    -0.351 OA
ATOM     18  C   UNL d   1       6.471   3.984  -1.187  0.00  0.00     0.210 C 
ENDBRANCH  12  17
BRANCH  13  19
ATOM     19  O   UNL d   1       3.549   4.261   1.856  0.00  0.00    -0.353 OA
ATOM     20  C   UNL d   1       4.077   5.553   1.572  0.00  0.00     0.210 C 
ENDBRANCH  13  19
ENDBRANCH   2   9
BRANCH   1  21
ATOM     21  C   UNL d   1       1.900  -1.439  -0.820  0.00  0.00     0.043 A 
ATOM     22  C   UNL d   1       3.183  -1.345  -0.256  0.00  0.00     0.032 A 
ATOM     23  C   UNL d   1       4.246  -2.118  -0.739  0.00  0.00     0.026 A 
ATOM     24  C   UNL d   1       4.032  -3.020  -1.775  0.00  0.00     0.034 A 
ATOM     25  C   UNL d   1       2.765  -3.156  -2.328  0.00  0.00     0.026 A 
ATOM     26 CL   UNL d   1       5.340  -3.957  -2.382  0.00  0.00    -0.084 Cl
ATOM     27  C   UNL d   1       1.709  -2.366  -1.856  0.00  0.00     0.032 A 
ENDBRANCH   1  21
TORSDOF 5
