REMARK  8 active torsions:
REMARK  status: ('A' for Active; 'I' for Inactive)
REMARK    1  A    between atoms: N_12  and  N_1 
REMARK    2  A    between atoms: C_18  and  C_2 
REMARK    3  A    between atoms: S_17  and  C_3 
REMARK    4  A    between atoms: C_20  and  N_6 
REMARK    5  A    between atoms: C_11  and  C_16 
REMARK    6  A    between atoms: C_21  and  S_17 
REMARK    7  A    between atoms: C_19  and  C_21 
REMARK    8  A    between atoms: C_25  and  C_19 
ROOT
ATOM      1  N   UNL d   1      -0.210  -1.325  -0.224  0.00  0.00    -0.214 N 
ATOM      2  C   UNL d   1       1.032  -0.680  -0.081  0.00  0.00     0.154 A 
ATOM      3  C   UNL d   1      -1.132  -0.288  -0.142  0.00  0.00     0.182 A 
ATOM      4  N   UNL d   1       0.825   0.601   0.164  0.00  0.00    -0.281 N 
ATOM      5  HN  UNL d   1       1.548   1.293   0.362  1.00  0.00     0.188 HD
ATOM      6  N   UNL d   1      -0.512   0.845   0.109  0.00  0.00    -0.277 N 
ATOM      7  HN  UNL d   1      -0.959   1.752   0.241  1.00  0.00     0.189 HD
ENDROOT
BRANCH   1   8
ATOM      8  N   UNL d   1      -0.457  -2.668  -0.484  0.00  0.00    -0.301 N 
ATOM      9  C   UNL d   1       0.165  -3.462   0.331  0.00  0.00     0.122 C 
ATOM     10  HN  UNL d   1      -1.063  -2.994  -1.237  1.00  0.00     0.186 HD
BRANCH   9  11
ATOM     11  C   UNL d   1       0.115  -4.896   0.147  0.00  0.00     0.022 A 
ATOM     12  C   UNL d   1      -0.474  -5.614  -0.874  0.00  0.00     0.131 A 
ATOM     13  N   UNL d   1      -0.323  -6.955  -0.580  0.00  0.00    -0.267 N 
ATOM     14  N   UNL d   1       0.406  -7.124   0.552  0.00  0.00    -0.298 N 
ATOM     15  C   UNL d   1       0.698  -5.891   0.971  0.00  0.00     0.035 A 
ATOM     16  HN  UNL d   1       0.673  -8.006   0.989  1.00  0.00     0.187 HD
ATOM     17  C   UNL d   1       1.555  -5.703   2.170  0.00  0.00     0.070 C 
BRANCH  13  18
ATOM     18  C   UNL d   1      -0.807  -8.083  -1.305  0.00  0.00     0.056 A 
ATOM     19  C   UNL d   1      -1.405  -7.937  -2.564  0.00  0.00     0.031 A 
ATOM     20  C   UNL d   1      -1.862  -9.064  -3.255  0.00  0.00     0.002 A 
ATOM     21  C   UNL d   1      -1.742 -10.334  -2.693  0.00  0.00     0.000 A 
ATOM     22  C   UNL d   1      -1.155 -10.485  -1.439  0.00  0.00     0.002 A 
ATOM     23  C   UNL d   1      -0.681  -9.367  -0.749  0.00  0.00     0.031 A 
ENDBRANCH  13  18
ENDBRANCH   9  11
ENDBRANCH   1   8
BRANCH   2  24
ATOM     24  C   UNL d   1       2.372  -1.278  -0.131  0.00  0.00     0.014 A 
ATOM     25  C   UNL d   1       2.693  -2.376  -0.931  0.00  0.00     0.032 A 
ATOM     26  C   UNL d   1       3.955  -2.937  -0.815  0.00  0.00     0.088 A 
ATOM     27  N   UNL d   1       4.920  -2.449  -0.010  0.00  0.00    -0.375 N 
ATOM     28  C   UNL d   1       4.622  -1.337   0.693  0.00  0.00     0.088 A 
ATOM     29  HN  UNL d   1       5.832  -2.900   0.065  1.00  0.00     0.164 HD
ATOM     30  C   UNL d   1       3.381  -0.728   0.668  0.00  0.00     0.032 A 
ENDBRANCH   2  24
BRANCH   3  31
ATOM     31  S   UNL d   1      -2.858  -0.316  -0.280  0.00  0.00    -0.083 SA
BRANCH  31  32
ATOM     32  C   UNL d   1      -3.398  -2.015  -0.456  0.00  0.00     0.166 C 
BRANCH  32  33
ATOM     33  C   UNL d   1      -3.150  -2.883   0.761  0.00  0.00     0.169 C 
ATOM     34  O   UNL d   1      -2.552  -2.494   1.768  0.00  0.00    -0.291 OA
BRANCH  33  35
ATOM     35  C   UNL d   1      -3.611  -4.303   0.711  0.00  0.00     0.010 A 
ATOM     36  C   UNL d   1      -4.392  -4.805  -0.337  0.00  0.00     0.015 A 
ATOM     37  C   UNL d   1      -4.781  -6.150  -0.339  0.00  0.00     0.001 A 
ATOM     38  C   UNL d   1      -4.388  -6.993   0.699  0.00  0.00     0.000 A 
ATOM     39  C   UNL d   1      -3.608  -6.500   1.741  0.00  0.00     0.001 A 
ATOM     40  C   UNL d   1      -3.223  -5.159   1.751  0.00  0.00     0.015 A 
ENDBRANCH  33  35
ENDBRANCH  32  33
ENDBRANCH  31  32
ENDBRANCH   3  31
TORSDOF 8
