REMARK  5 active torsions:
REMARK  status: ('A' for Active; 'I' for Inactive)
REMARK    1  A    between atoms: C_2  and  S_1 
REMARK    2  A    between atoms: N_10  and  S_1 
REMARK    3  A    between atoms: C_9  and  C_3 
REMARK    4  A    between atoms: C_7  and  C_17 
REMARK    5  A    between atoms: C_17  and  N_10 
ROOT
ATOM      1  S   UNL d   1       0.769   0.064   0.084  0.00  0.00     0.244 S 
ATOM      2  O   UNL d   1       0.063  -0.881  -0.747  0.00  0.00    -0.206 OA
ATOM      3  O   UNL d   1       2.220   0.068   0.118  0.00  0.00    -0.206 OA
ENDROOT
BRANCH   1   4
ATOM      4  C   UNL d   1       0.206  -0.117   1.755  0.00  0.00     0.102 A 
ATOM      5  C   UNL d   1      -1.160  -0.028   2.025  0.00  0.00     0.065 A 
ATOM      6  N   UNL d   1      -2.082   0.214   1.064  0.00  0.00    -0.364 N 
ATOM      7  C   UNL d   1      -1.553  -0.191   3.374  0.00  0.00    -0.008 A 
ATOM      8  C   UNL d   1      -3.391   0.245   1.402  0.00  0.00     0.088 A 
ATOM      9  HN  UNL d   1      -1.793   0.371   0.098  1.00  0.00     0.165 HD
ATOM     10  C   UNL d   1      -3.853   0.096   2.692  0.00  0.00     0.018 A 
ATOM     11  C   UNL d   1      -2.915  -0.114   3.692  0.00  0.00     0.015 A 
ATOM     12  C   UNL d   1      -0.603  -0.427   4.383  0.00  0.00     0.014 A 
ATOM     13  C   UNL d   1       0.751  -0.515   4.075  0.00  0.00     0.003 A 
ATOM     14  C   UNL d   1       1.159  -0.362   2.758  0.00  0.00     0.027 A 
ENDBRANCH   1   4
BRANCH   1  15
ATOM     15  N   UNL d   1       0.302   1.620  -0.348  0.00  0.00    -0.210 NA
ATOM     16  H   UNL d   1      -0.720   1.707  -0.383  0.00  0.00     0.140 HD
BRANCH  15  17
ATOM     17  C   UNL d   1       0.967   2.723   0.350  0.00  0.00     0.162 C 
BRANCH  17  18
ATOM     18  C   UNL d   1       0.566   4.011  -0.302  0.00  0.00     0.030 A 
ATOM     19  N   UNL d   1      -0.779   4.369  -0.340  0.00  0.00    -0.351 N 
ATOM     20  C   UNL d   1      -0.938   5.521  -0.964  0.00  0.00     0.091 A 
ATOM     21  HN  UNL d   1      -1.538   3.816   0.059  1.00  0.00     0.166 HD
ATOM     22  S   UNL d   1       0.529   6.255  -1.499  0.00  0.00    -0.081 SA
ATOM     23  C   UNL d   1       1.418   4.930  -0.886  0.00  0.00     0.078 A 
BRANCH  20  24
ATOM     24  C   UNL d   1      -2.231   6.132  -1.187  0.00  0.00     0.038 A 
ATOM     25  S   UNL d   1      -3.671   5.403  -0.590  0.00  0.00    -0.099 SA
ATOM     26  C   UNL d   1      -4.659   6.636  -1.241  0.00  0.00     0.050 A 
ATOM     27  C   UNL d   1      -3.923   7.594  -1.897  0.00  0.00     0.008 A 
ATOM     28  C   UNL d   1      -2.526   7.305  -1.864  0.00  0.00     0.022 A 
ENDBRANCH  20  24
ENDBRANCH  17  18
ENDBRANCH  15  17
ENDBRANCH   1  15
TORSDOF 5
