REMARK  1 active torsions:
REMARK  status: ('A' for Active; 'I' for Inactive)
REMARK    1  A    between atoms: S_7  and  C_1 
ROOT
ATOM      1  C   UNL d   1      -2.358  -0.051   0.000  0.00  0.00     0.142 A 
ATOM      2  N   UNL d   1      -1.629  -1.138  -0.000  0.00  0.00    -0.335 N 
ATOM      3  HN  UNL d   1      -1.950  -2.106  -0.000  1.00  0.00     0.168 HD
ATOM      4  N   UNL d   1      -1.608   1.085  -0.000  0.00  0.00    -0.335 N 
ATOM      5  C   UNL d   1      -0.330  -0.682  -0.000  0.00  0.00     0.061 A 
ATOM      6  C   UNL d   1      -0.288   0.711  -0.000  0.00  0.00     0.061 A 
ATOM      7  C   UNL d   1       0.876  -1.399  -0.001  0.00  0.00     0.032 A 
ATOM      8  C   UNL d   1       0.899   1.446   0.000  0.00  0.00     0.032 A 
ATOM      9  C   UNL d   1       2.083  -0.686  -0.001  0.00  0.00     0.002 A 
ATOM     10  C   UNL d   1       2.090   0.711  -0.000  0.00  0.00     0.002 A 
ATOM     11  H   UNL d   1      -1.971   2.026   0.000  0.00  0.00     0.168 HD
ENDROOT
BRANCH   1  12
ATOM     12  S   UNL d   1      -4.075   0.042   0.001  0.00  0.00    -0.107 SA
ATOM     13  H   UNL d   1      -4.302  -1.280   0.003  0.00  0.00     0.110 HD
ENDBRANCH   1  12
TORSDOF 1
