REMARK  4 active torsions:
REMARK  status: ('A' for Active; 'I' for Inactive)
REMARK    1  A    between atoms: N_6  and  S_1 
REMARK    2  A    between atoms: C_11  and  S_1 
REMARK    3  A    between atoms: C_2  and  N_8 
REMARK       I    between atoms: C_10  and  N_6 
REMARK       I    between atoms: N_8  and  C_10 
REMARK    4  A    between atoms: C_14  and  C_9 
ROOT
ATOM      1  N   UNL d   1      -0.349   2.900   1.757  0.00  0.00    -0.232 N 
ATOM      2  N   UNL d   1       1.297   1.380   2.540  0.00  0.00    -0.293 N 
ATOM      3  C   UNL d   1       0.577   1.935   1.431  0.00  0.00     0.335 C 
ATOM      4  O   UNL d   1       0.767   1.534   0.302  0.00  0.00    -0.246 OA
ATOM      5  H   UNL d   1      -0.610   3.167   2.695  0.00  0.00     0.183 HD
ATOM      6  H   UNL d   1       1.151   1.770   3.455  0.00  0.00     0.172 HD
ENDROOT
BRANCH   2   7
ATOM      7  C   UNL d   1       2.209   0.328   2.393  0.00  0.00     0.127 A 
ATOM      8  C   UNL d   1       2.666  -0.218   1.217  0.00  0.00     0.082 A 
ATOM      9  C   UNL d   1       3.653  -1.172   1.567  0.00  0.00     0.062 A 
ATOM     10  N   UNL d   1       3.712  -1.306   2.899  0.00  0.00    -0.296 N 
ATOM     11  N   UNL d   1       2.882  -0.358   3.376  0.00  0.00    -0.281 N 
ATOM     12  HN  UNL d   1       4.264  -1.978   3.434  1.00  0.00     0.187 HD
ATOM     13  C   UNL d   1       2.820  -0.152   4.803  0.00  0.00     0.179 C 
BRANCH   9  14
ATOM     14  C   UNL d   1       4.564  -1.853   0.650  0.00  0.00    -0.008 A 
ATOM     15  C   UNL d   1       4.944  -1.213  -0.544  0.00  0.00     0.015 A 
ATOM     16  C   UNL d   1       5.900  -1.781  -1.388  0.00  0.00     0.024 A 
ATOM     17  C   UNL d   1       6.475  -3.001  -1.050  0.00  0.00     0.034 A 
ATOM     18  C   UNL d   1       6.082  -3.669   0.110  0.00  0.00     0.024 A 
ATOM     19 CL   UNL d   1       7.697  -3.669  -2.058  0.00  0.00    -0.084 Cl
ATOM     20  C   UNL d   1       5.128  -3.096   0.960  0.00  0.00     0.015 A 
ENDBRANCH   9  14
ENDBRANCH   2   7
BRANCH   1  21
ATOM     21  S   UNL d   1      -1.218   3.695   0.581  0.00  0.00     0.266 S 
ATOM     22  O   UNL d   1      -0.287   4.250  -0.374  0.00  0.00    -0.200 OA
ATOM     23  O   UNL d   1      -2.142   4.531   1.310  0.00  0.00    -0.200 OA
BRANCH  21  24
ATOM     24  C   UNL d   1      -2.156   2.393  -0.187  0.00  0.00     0.080 A 
ATOM     25  C   UNL d   1      -3.353   1.966   0.394  0.00  0.00     0.026 A 
ATOM     26  C   UNL d   1      -4.058   0.910  -0.187  0.00  0.00     0.008 A 
ATOM     27  C   UNL d   1      -3.576   0.283  -1.345  0.00  0.00    -0.062 A 
ATOM     28  C   UNL d   1      -2.398   0.752  -1.940  0.00  0.00     0.008 A 
ATOM     29  C   UNL d   1      -4.315  -0.882  -1.938  0.00  0.00     0.048 C 
ATOM     30  C   UNL d   1      -1.695   1.813  -1.371  0.00  0.00     0.026 A 
ENDBRANCH  21  24
ENDBRANCH   1  21
TORSDOF 4
