REMARK  6 active torsions:
REMARK  status: ('A' for Active; 'I' for Inactive)
REMARK    1  A    between atoms: C_12  and  C_1 
REMARK    2  A    between atoms: N_23  and  C_2 
REMARK    3  A    between atoms: C_21  and  N_8 
REMARK    4  A    between atoms: C_9  and  C_18 
REMARK    5  A    between atoms: C_25  and  C_10 
REMARK       I    between atoms: N_22  and  C_12 
REMARK    6  A    between atoms: N_16  and  N_22 
ROOT
ATOM      1  N   UNL d   1       4.739  -2.881  -1.260  0.00  0.00    -0.308 N 
ATOM      2  HN  UNL d   1       4.366  -3.232  -2.142  1.00  0.00     0.186 HD
ATOM      3  C   UNL d   1       4.643  -3.553  -0.156  0.00  0.00     0.122 C 
ENDROOT
BRANCH   1   4
ATOM      4  N   UNL d   1       5.379  -1.659  -1.168  0.00  0.00    -0.266 N 
ATOM      5  C   UNL d   1       5.145  -0.741  -0.136  0.00  0.00     0.279 C 
ATOM      6  O   UNL d   1       4.451  -1.023   0.841  0.00  0.00    -0.265 OA
ATOM      7  H   UNL d   1       5.741  -1.297  -2.044  0.00  0.00     0.190 HD
BRANCH   5   8
ATOM      8  C   UNL d   1       5.771   0.571  -0.277  0.00  0.00     0.103 A 
ATOM      9  C   UNL d   1       5.757   1.597   0.658  0.00  0.00     0.062 A 
ATOM     10  C   UNL d   1       6.424   2.800   0.212  0.00  0.00     0.032 A 
ATOM     11  C   UNL d   1       6.666   4.089   0.772  0.00  0.00    -0.045 A 
ATOM     12  C   UNL d   1       6.942   2.580  -1.066  0.00  0.00     0.088 A 
ATOM     13  C   UNL d   1       7.404   5.000  -0.011  0.00  0.00     0.032 A 
ATOM     14  C   UNL d   1       6.220   4.591   2.120  0.00  0.00     0.049 C 
ATOM     15  C   UNL d   1       7.865   4.642  -1.270  0.00  0.00     0.006 A 
ATOM     16  N   UNL d   1       7.646   3.441  -1.828  0.00  0.00    -0.354 N 
ATOM     17  C   UNL d   1       8.656   5.632  -2.075  0.00  0.00     0.068 C 
ATOM     18  HN  UNL d   1       7.987   3.197  -2.758  1.00  0.00     0.166 HD
ATOM     19  S   UNL d   1       6.613   1.029  -1.684  0.00  0.00    -0.064 SA
BRANCH   9  20
ATOM     20  N   UNL d   1       5.163   1.427   1.863  0.00  0.00    -0.397 N 
ATOM     21  H   UNL d   1       4.616   0.577   2.036  0.00  0.00     0.156 HD
ATOM     22  H   UNL d   1       4.890   2.183   2.474  0.00  0.00     0.156 HD
ENDBRANCH   9  20
ENDBRANCH   5   8
ENDBRANCH   1   4
BRANCH   3  23
ATOM     23  C   UNL d   1       3.944  -4.812  -0.126  0.00  0.00     0.027 A 
ATOM     24  C   UNL d   1       4.148  -5.906   0.760  0.00  0.00     0.072 A 
ATOM     25  N   UNL d   1       3.238  -6.868   0.548  0.00  0.00    -0.292 N 
ATOM     26  N   UNL d   1       2.474  -6.429  -0.485  0.00  0.00    -0.266 N 
ATOM     27  HN  UNL d   1       3.140  -7.747   1.057  1.00  0.00     0.187 HD
ATOM     28  C   UNL d   1       2.886  -5.193  -0.922  0.00  0.00     0.132 A 
BRANCH  24  29
ATOM     29  C   UNL d   1       5.174  -6.040   1.800  0.00  0.00    -0.007 A 
ATOM     30  C   UNL d   1       6.466  -5.524   1.609  0.00  0.00     0.014 A 
ATOM     31  C   UNL d   1       7.414  -5.572   2.633  0.00  0.00     0.001 A 
ATOM     32  C   UNL d   1       7.092  -6.167   3.849  0.00  0.00     0.000 A 
ATOM     33  C   UNL d   1       5.828  -6.726   4.037  0.00  0.00     0.001 A 
ATOM     34  C   UNL d   1       4.874  -6.664   3.018  0.00  0.00     0.014 A 
ENDBRANCH  24  29
BRANCH  26  35
ATOM     35  C   UNL d   1       1.392  -7.213  -0.980  0.00  0.00     0.056 A 
ATOM     36  C   UNL d   1       0.605  -6.771  -2.053  0.00  0.00     0.031 A 
ATOM     37  C   UNL d   1      -0.445  -7.563  -2.527  0.00  0.00     0.002 A 
ATOM     38  C   UNL d   1      -0.718  -8.795  -1.935  0.00  0.00     0.000 A 
ATOM     39  C   UNL d   1       0.057  -9.239  -0.865  0.00  0.00     0.002 A 
ATOM     40  C   UNL d   1       1.108  -8.454  -0.387  0.00  0.00     0.031 A 
ENDBRANCH  26  35
ENDBRANCH   3  23
TORSDOF 6
