REMARK  2 active torsions:
REMARK  status: ('A' for Active; 'I' for Inactive)
REMARK    1  A    between atoms: C_3  and  C_1 
REMARK       I    between atoms: N_7  and  C_3 
REMARK    2  A    between atoms: C_13  and  N_11 
ROOT
ATOM      1  C   UNL d   1      -1.341  -2.951   0.017  0.00  0.00     0.256 C 
ATOM      2  N   UNL d   1      -0.080  -3.558  -0.075  0.00  0.00    -0.345 N 
ATOM      3  N   UNL d   1       2.432  -4.889  -0.478  0.00  0.00    -0.378 N 
ATOM      4  O   UNL d   1      -2.219  -3.148  -0.821  0.00  0.00    -0.267 OA
ATOM      5  C   UNL d   1       0.968  -3.530   0.960  0.00  0.00     0.146 C 
ATOM      6  C   UNL d   1       0.079  -4.612  -1.095  0.00  0.00     0.146 C 
ATOM      7  C   UNL d   1       2.397  -3.719   0.417  0.00  0.00     0.143 C 
ATOM      8  C   UNL d   1       1.522  -4.736  -1.625  0.00  0.00     0.143 C 
ENDROOT
BRANCH   1   9
ATOM      9  C   UNL d   1      -1.670  -2.061   1.151  0.00  0.00     0.061 A 
ATOM     10  C   UNL d   1      -2.342  -0.824   0.941  0.00  0.00     0.082 A 
ATOM     11  N   UNL d   1      -2.716  -0.263  -0.223  0.00  0.00    -0.310 N 
ATOM     12  C   UNL d   1      -2.703   0.049   2.127  0.00  0.00     0.068 A 
ATOM     13  S   UNL d   1      -3.515   1.142   0.139  0.00  0.00     0.068 SA
ATOM     14  HN  UNL d   1      -2.541  -0.635  -1.157  1.00  0.00     0.176 HD
ATOM     15  N   UNL d   1      -3.348   1.175   1.790  0.00  0.00    -0.310 N 
ATOM     16  HN  UNL d   1      -3.672   1.907   2.422  1.00  0.00     0.176 HD
ATOM     17  C   UNL d   1      -2.369  -0.333   3.449  0.00  0.00     0.032 A 
ATOM     18  C   UNL d   1      -1.746  -1.580   3.596  0.00  0.00     0.003 A 
ATOM     19  C   UNL d   1      -1.444  -2.421   2.500  0.00  0.00     0.019 A 
ENDBRANCH   1   9
BRANCH   3  20
ATOM     20  C   UNL d   1       3.659  -5.520  -0.619  0.00  0.00     0.030 A 
ATOM     21  C   UNL d   1       4.336  -5.638  -1.838  0.00  0.00     0.031 A 
ATOM     22  C   UNL d   1       5.554  -6.330  -1.924  0.00  0.00     0.026 A 
ATOM     23  C   UNL d   1       6.100  -6.920  -0.790  0.00  0.00     0.034 A 
ATOM     24  C   UNL d   1       5.451  -6.819   0.431  0.00  0.00     0.026 A 
ATOM     25 CL   UNL d   1       7.582  -7.787  -0.901  0.00  0.00    -0.084 Cl
ATOM     26  C   UNL d   1       4.244  -6.122   0.510  0.00  0.00     0.031 A 
ENDBRANCH   3  20
TORSDOF 2
