REMARK  8 active torsions:
REMARK  status: ('A' for Active; 'I' for Inactive)
REMARK    1  A    between atoms: N_3  and  C_1 
REMARK    2  A    between atoms: N_10  and  C_1 
REMARK    3  A    between atoms: C_2  and  C_6 
REMARK    4  A    between atoms: C_11  and  N_3 
REMARK    5  A    between atoms: C_18  and  N_10 
REMARK    6  A    between atoms: C_19  and  N_10 
REMARK    7  A    between atoms: C_16  and  C_18 
REMARK    8  A    between atoms: C_17  and  C_19 
ROOT
ATOM      1  N   UNL d   1       3.677  -1.637   3.300  0.00  0.00    -0.197 NA
ATOM      2  C   UNL d   1       3.471  -0.561   2.922  0.00  0.00     0.060 C 
ATOM      3  C   UNL d   1       3.169   0.775   2.387  0.00  0.00     0.143 C 
ENDROOT
BRANCH   3   4
ATOM      4  C   UNL d   1       3.252   0.793   0.854  0.00  0.00     0.139 C 
BRANCH   4   5
ATOM      5  N   UNL d   1       2.355  -0.213   0.239  0.00  0.00    -0.356 N 
BRANCH   5   6
ATOM      6  C   UNL d   1       0.958  -0.011   0.231  0.00  0.00     0.174 C 
ATOM      7  S   UNL d   1       0.291   1.511  -0.031  0.00  0.00    -0.041 SA
BRANCH   6   8
ATOM      8  N   UNL d   1       0.265  -1.169   0.585  0.00  0.00    -0.333 N 
ATOM      9  H   UNL d   1       0.814  -1.774   1.185  0.00  0.00     0.168 HD
BRANCH   8  10
ATOM     10  C   UNL d   1      -1.134  -1.343   0.728  0.00  0.00     0.035 A 
ATOM     11  C   UNL d   1      -2.071  -0.748  -0.119  0.00  0.00     0.045 A 
ATOM     12  C   UNL d   1      -3.449  -0.858   0.132  0.00  0.00     0.050 A 
ATOM     13  C   UNL d   1      -3.883  -1.639   1.212  0.00  0.00     0.016 A 
ATOM     14  C   UNL d   1      -2.957  -2.297   2.020  0.00  0.00     0.003 A 
ATOM     15  C   UNL d   1      -1.589  -2.155   1.774  0.00  0.00     0.029 A 
BRANCH  12  16
ATOM     16  C   UNL d   1      -4.449  -0.125  -0.726  0.00  0.00     0.417 C 
ATOM     17  F   UNL d   1      -3.883   0.635  -1.705  0.00  0.00    -0.166 F 
ATOM     18  F   UNL d   1      -5.308  -0.970  -1.362  0.00  0.00    -0.166 F 
ATOM     19  F   UNL d   1      -5.231   0.724  -0.002  0.00  0.00    -0.166 F 
ENDBRANCH  12  16
ENDBRANCH   8  10
ENDBRANCH   6   8
ENDBRANCH   5   6
BRANCH   5  20
ATOM     20  C   UNL d   1       3.001  -1.447  -0.265  0.00  0.00     0.139 C 
BRANCH  20  21
ATOM     21  C   UNL d   1       3.155  -1.482  -1.788  0.00  0.00     0.143 C 
ATOM     22  C   UNL d   1       4.008  -0.395  -2.284  0.00  0.00     0.060 C 
ATOM     23  N   UNL d   1       4.697   0.457  -2.665  0.00  0.00    -0.197 NA
ENDBRANCH  20  21
ENDBRANCH   5  20
ENDBRANCH   4   5
ENDBRANCH   3   4
TORSDOF 8
