REMARK  4 active torsions:
REMARK  status: ('A' for Active; 'I' for Inactive)
REMARK    1  A    between atoms: C_9  and  C_3 
REMARK    2  A    between atoms: C_8  and  C_4 
REMARK    3  A    between atoms: C_10  and  C_5 
REMARK    4  A    between atoms: O_22  and  C_16 
ROOT
ATOM      1  N   UNL d   1      -1.331  -0.062   0.002  0.00  0.00    -0.355 N 
ATOM      2  HN  UNL d   1      -2.350  -0.104   0.006  1.00  0.00     0.166 HD
ATOM      3  C   UNL d   1      -0.687   1.133  -0.018  0.00  0.00     0.043 A 
ATOM      4  C   UNL d   1      -0.592  -1.198   0.015  0.00  0.00     0.043 A 
ATOM      5  C   UNL d   1       1.486   0.055   0.007  0.00  0.00    -0.022 A 
ATOM      6  C   UNL d   1       0.704   1.215   0.016  0.00  0.00     0.042 A 
ATOM      7  C   UNL d   1       0.801  -1.163  -0.018  0.00  0.00     0.042 A 
ENDROOT
BRANCH   3   8
ATOM      8  C   UNL d   1      -1.544   2.337  -0.079  0.00  0.00    -0.009 A 
ATOM      9  C   UNL d   1      -2.826   2.345   0.494  0.00  0.00     0.016 A 
ATOM     10  C   UNL d   1      -3.649   3.480   0.443  0.00  0.00     0.037 A 
ATOM     11  C   UNL d   1      -3.208   4.638  -0.193  0.00  0.00     0.068 A 
ATOM     12  C   UNL d   1      -1.941   4.650  -0.772  0.00  0.00     0.037 A 
ATOM     13  C   UNL d   1      -1.123   3.517  -0.720  0.00  0.00     0.016 A 
BRANCH  11  14
ATOM     14  O   UNL d   1      -3.908   5.804  -0.325  0.00  0.00    -0.356 OA
ATOM     15  C   UNL d   1      -5.214   5.832   0.235  0.00  0.00     0.210 C 
ENDBRANCH  11  14
ENDBRANCH   3   8
BRANCH   4  16
ATOM     16  C   UNL d   1      -1.339  -2.475   0.051  0.00  0.00    -0.009 A 
ATOM     17  C   UNL d   1      -2.619  -2.585  -0.522  0.00  0.00     0.015 A 
ATOM     18  C   UNL d   1      -3.308  -3.804  -0.537  0.00  0.00     0.024 A 
ATOM     19  C   UNL d   1      -2.731  -4.935   0.030  0.00  0.00     0.034 A 
ATOM     20  C   UNL d   1      -1.479  -4.854   0.630  0.00  0.00     0.024 A 
ATOM     21 CL   UNL d   1      -3.560  -6.440  -0.012  0.00  0.00    -0.084 Cl
ATOM     22  C   UNL d   1      -0.797  -3.633   0.646  0.00  0.00     0.015 A 
ENDBRANCH   4  16
BRANCH   5  23
ATOM     23  C   UNL d   1       2.964   0.112   0.035  0.00  0.00    -0.026 A 
ATOM     24  C   UNL d   1       3.674   1.145  -0.602  0.00  0.00     0.012 A 
ATOM     25  C   UNL d   1       5.069   1.214  -0.546  0.00  0.00     0.001 A 
ATOM     26  C   UNL d   1       5.788   0.238   0.136  0.00  0.00     0.000 A 
ATOM     27  C   UNL d   1       5.114  -0.805   0.761  0.00  0.00     0.001 A 
ATOM     28  C   UNL d   1       3.719  -0.863   0.715  0.00  0.00     0.012 A 
ENDBRANCH   5  23
TORSDOF 4
