REMARK  5 active torsions:
REMARK  status: ('A' for Active; 'I' for Inactive)
REMARK    1  A    between atoms: C_2  and  C_1 
REMARK       I    between atoms: N_6  and  C_2 
REMARK    2  A    between atoms: O_9  and  C_3 
REMARK    3  A    between atoms: C_5  and  C_10 
REMARK    4  A    between atoms: C_12  and  O_9 
REMARK    5  A    between atoms: C_10  and  C_12 
ROOT
ATOM      1  C   UNL d   1       1.480  -0.175   0.120  0.00  0.00     0.065 A 
ATOM      2  C   UNL d   1       0.663  -1.316   0.019  0.00  0.00     0.084 A 
ATOM      3  C   UNL d   1       0.877   1.107   0.132  0.00  0.00     0.020 A 
ATOM      4  C   UNL d   1      -0.732  -1.125  -0.062  0.00  0.00     0.038 A 
ATOM      5  C   UNL d   1      -0.503   1.266   0.040  0.00  0.00     0.001 A 
ATOM      6  C   UNL d   1      -1.312   0.144  -0.058  0.00  0.00     0.003 A 
ENDROOT
BRANCH   1   7
ATOM      7  C   UNL d   1       2.959  -0.164   0.293  0.00  0.00     0.252 C 
ATOM      8  O   UNL d   1       3.545  -0.849   1.120  0.00  0.00    -0.268 OA
ATOM      9  N   UNL d   1       3.658   0.737  -0.464  0.00  0.00    -0.366 N 
ATOM     10  H   UNL d   1       3.231   1.375  -1.125  0.00  0.00     0.159 HD
ATOM     11  H   UNL d   1       4.657   0.798  -0.303  0.00  0.00     0.159 HD
ENDBRANCH   1   7
BRANCH   2  12
ATOM     12  O   UNL d   1       0.955  -2.653  -0.031  0.00  0.00    -0.350 OA
BRANCH  12  13
ATOM     13  C   UNL d   1       2.302  -3.111  -0.060  0.00  0.00     0.179 C 
BRANCH  13  14
ATOM     14  C   UNL d   1       2.334  -4.636  -0.234  0.00  0.00     0.053 C 
BRANCH  14  15
ATOM     15  C   UNL d   1       1.788  -5.120  -1.550  0.00  0.00    -0.035 C 
ATOM     16  C   UNL d   1       2.522  -5.723  -2.494  0.00  0.00     0.007 C 
ENDBRANCH  14  15
ENDBRANCH  13  14
ENDBRANCH  12  13
ENDBRANCH   2  12
TORSDOF 5
