REMARK  2 active torsions:
REMARK  status: ('A' for Active; 'I' for Inactive)
REMARK    1  A    between atoms: C_6  and  C_2 
REMARK    2  A    between atoms: N_13  and  C_5 
ROOT
ATOM      1  C   UNL d   1       4.682  -3.415   0.043  0.00  0.00     0.041 A 
ATOM      2  C   UNL d   1       2.413  -1.697  -0.010  0.00  0.00    -0.005 A 
ATOM      3  C   UNL d   1       4.430  -2.505   1.084  0.00  0.00     0.034 A 
ATOM      4  C   UNL d   1       3.742  -3.475  -1.000  0.00  0.00     0.034 A 
ATOM      5  C   UNL d   1       2.632  -2.621  -1.039  0.00  0.00     0.034 A 
ATOM      6  C   UNL d   1       3.322  -1.649   1.054  0.00  0.00     0.034 A 
ATOM      7 BR   UNL d   1       3.950  -4.713  -2.433  0.00  0.00    -0.049 Br
ATOM      8 BR   UNL d   1       5.610  -2.374   2.571  0.00  0.00    -0.049 Br
ENDROOT
BRANCH   2   9
ATOM      9  C   UNL d   1       1.250  -0.820  -0.007  0.00  0.00     0.063 A 
ATOM     10  N   UNL d   1       0.707  -0.352   1.185  0.00  0.00    -0.292 N 
ATOM     11  N   UNL d   1      -0.351   0.416   0.983  0.00  0.00    -0.061 NA
ATOM     12  HN  UNL d   1       1.080  -0.575   2.108  1.00  0.00     0.183 HD
ATOM     13  S   UNL d   1      -0.709   0.614  -0.637  0.00  0.00    -0.010 SA
ATOM     14  C   UNL d   1       0.601  -0.372  -1.147  0.00  0.00     0.096 A 
ENDBRANCH   2   9
BRANCH   1  15
ATOM     15  N   UNL d   1       5.698  -4.385   0.157  0.00  0.00    -0.301 NA
ATOM     16  H   UNL d   1       6.475  -4.097   0.746  0.00  0.00     0.124 HD
ATOM     17  H   UNL d   1       5.986  -4.786  -0.732  0.00  0.00     0.124 HD
ENDBRANCH   1  15
TORSDOF 2
