REMARK  3 active torsions:
REMARK  status: ('A' for Active; 'I' for Inactive)
REMARK    1  A    between atoms: C_10  and  C_5 
REMARK    2  A    between atoms: N_13  and  C_8 
REMARK    3  A    between atoms: O_14  and  C_9 
ROOT
ATOM      1  N   UNL d   1      -0.633   1.192   0.072  0.00  0.00    -0.322 N 
ATOM      2  HN  UNL d   1      -1.127   2.084   0.113  1.00  0.00     0.169 HD
ATOM      3  N   UNL d   1      -0.669  -1.152  -0.080  0.00  0.00    -0.311 N 
ATOM      4  HN  UNL d   1      -1.170  -2.038  -0.144  1.00  0.00     0.170 HD
ATOM      5  C   UNL d   1      -1.287   0.026  -0.008  0.00  0.00     0.090 A 
ATOM      6  N   UNL d   1       1.398   0.010   0.018  0.00  0.00    -0.298 N 
ATOM      7  HN  UNL d   1       2.418  -0.010   0.017  1.00  0.00     0.172 HD
ATOM      8  C   UNL d   1       0.691   1.123   0.096  0.00  0.00     0.159 A 
ATOM      9  C   UNL d   1       0.648  -1.073  -0.060  0.00  0.00     0.224 A 
ENDROOT
BRANCH   5  10
ATOM     10  C   UNL d   1      -2.797   0.041   0.023  0.00  0.00     0.053 A 
ATOM     11  C   UNL d   1      -3.587  -0.570  -1.112  0.00  0.00     0.013 A 
ATOM     12  C   UNL d   1      -3.583   0.917  -0.925  0.00  0.00     0.013 A 
ENDBRANCH   5  10
BRANCH   9  13
ATOM     13  O   UNL d   1       1.341  -2.241  -0.114  0.00  0.00    -0.332 OA
ATOM     14  H   UNL d   1       2.245  -1.895  -0.043  0.00  0.00     0.221 HD
ENDBRANCH   9  13
BRANCH   8  15
ATOM     15  N   UNL d   1       1.385   2.312   0.182  0.00  0.00    -0.274 NA
ATOM     16  H   UNL d   1       2.314   2.221  -0.203  0.00  0.00     0.127 HD
ATOM     17  H   UNL d   1       0.817   3.080  -0.148  0.00  0.00     0.127 HD
ENDBRANCH   8  15
TORSDOF 3
