REMARK  2 active torsions:
REMARK  status: ('A' for Active; 'I' for Inactive)
REMARK    1  A    between atoms: N_13  and  N_6 
REMARK    2  A    between atoms: C_15  and  N_13 
ROOT
ATOM      1  S   UNL d   1      -1.296   1.693   0.147  0.00  0.00     0.180 S 
ATOM      2  C   UNL d   1       0.127   0.654   0.099  0.00  0.00     0.071 A 
ATOM      3  C   UNL d   1       0.015  -0.737   0.016  0.00  0.00     0.011 A 
ATOM      4  C   UNL d   1      -1.303  -1.458   0.012  0.00  0.00     0.034 C 
ATOM      5  C   UNL d   1      -2.629   0.626  -0.354  0.00  0.00     0.115 C 
ATOM      6  N   UNL d   1      -1.310  -2.719  -0.314  0.00  0.00    -0.320 N 
ATOM      7  HN  UNL d   1      -0.441  -3.205  -0.533  1.00  0.00     0.181 HD
ATOM      8  C   UNL d   1      -2.539  -0.672   0.428  0.00  0.00     0.079 C 
ATOM      9  O   UNL d   1      -1.114   2.696  -0.885  0.00  0.00    -0.222 OA
ATOM     10  O   UNL d   1      -1.479   2.055   1.539  0.00  0.00    -0.222 OA
ATOM     11  C   UNL d   1       1.379   1.287   0.098  0.00  0.00     0.026 A 
ATOM     12  C   UNL d   1       1.196  -1.493  -0.074  0.00  0.00     0.038 A 
ATOM     13  C   UNL d   1       2.445  -0.863  -0.069  0.00  0.00     0.035 A 
ATOM     14  C   UNL d   1       2.540   0.523   0.019  0.00  0.00     0.025 A 
ATOM     15 CL   UNL d   1       3.878  -1.808  -0.172  0.00  0.00    -0.084 Cl
ATOM     16  C   UNL d   1      -3.971   1.319  -0.148  0.00  0.00     0.027 C 
ENDROOT
BRANCH   6  17
ATOM     17  N   UNL d   1      -2.502  -3.377  -0.357  0.00  0.00    -0.206 NA
ATOM     18  H   UNL d   1      -3.260  -2.917  -0.860  0.00  0.00     0.153 HD
BRANCH  17  19
ATOM     19  C   UNL d   1      -2.461  -4.752  -0.710  0.00  0.00     0.027 A 
ATOM     20  C   UNL d   1      -1.355  -5.565  -0.425  0.00  0.00     0.026 A 
ATOM     21  C   UNL d   1      -1.359  -6.925  -0.759  0.00  0.00     0.021 A 
ATOM     22  C   UNL d   1      -2.481  -7.484  -1.365  0.00  0.00     0.011 A 
ATOM     23  C   UNL d   1      -3.606  -6.704  -1.617  0.00  0.00     0.021 A 
ATOM     24 BR   UNL d   1      -2.481  -9.312  -1.844  0.00  0.00    -0.051 Br
ATOM     25  C   UNL d   1      -3.599  -5.349  -1.273  0.00  0.00     0.026 A 
ENDBRANCH  17  19
ENDBRANCH   6  17
TORSDOF 2
