REMARK  1 active torsions:
REMARK  status: ('A' for Active; 'I' for Inactive)
REMARK    1  A    between atoms: C_11  and  C_4 
ROOT
ATOM      1  C   UNL d   1      -0.192   0.092  -0.089  0.00  0.00     0.053 A 
ATOM      2  C   UNL d   1       0.314  -1.150  -0.243  0.00  0.00    -0.017 A 
ATOM      3  C   UNL d   1       2.605  -0.292  -0.114  0.00  0.00     0.124 A 
ATOM      4  C   UNL d   1       1.776  -1.354  -0.269  0.00  0.00     0.009 A 
ATOM      5  N   UNL d   1       0.657   1.155   0.065  0.00  0.00    -0.321 N 
ATOM      6  C   UNL d   1       2.022   1.067   0.074  0.00  0.00     0.267 A 
ATOM      7  C   UNL d   1      -1.660   0.315  -0.065  0.00  0.00    -0.003 A 
ATOM      8  C   UNL d   1       4.027  -0.385  -0.102  0.00  0.00     0.106 C 
ATOM      9  C   UNL d   1      -0.623  -2.335  -0.362  0.00  0.00     0.046 C 
ATOM     10  N   UNL d   1       5.183  -0.493  -0.091  0.00  0.00    -0.191 NA
ATOM     11  O   UNL d   1       2.712   2.068   0.234  0.00  0.00    -0.266 OA
ATOM     12  C   UNL d   1      -2.507  -0.777   0.209  0.00  0.00    -0.045 A 
ATOM     13  C   UNL d   1      -1.902  -2.135   0.460  0.00  0.00     0.044 C 
ATOM     14  C   UNL d   1      -2.243   1.570  -0.304  0.00  0.00     0.014 A 
ATOM     15  C   UNL d   1      -3.894  -0.596   0.296  0.00  0.00     0.008 A 
ATOM     16  C   UNL d   1      -3.629   1.740  -0.235  0.00  0.00     0.001 A 
ATOM     17  C   UNL d   1      -4.452   0.661   0.073  0.00  0.00     0.001 A 
ATOM     18  H   UNL d   1       0.295   2.085   0.231  0.00  0.00     0.169 HD
ENDROOT
BRANCH   4  19
ATOM     19  C   UNL d   1       2.381  -2.699  -0.450  0.00  0.00    -0.024 A 
ATOM     20  C   UNL d   1       2.665  -3.501   0.666  0.00  0.00     0.014 A 
ATOM     21  C   UNL d   1       3.229  -4.769   0.500  0.00  0.00     0.024 A 
ATOM     22  C   UNL d   1       3.503  -5.243  -0.781  0.00  0.00     0.034 A 
ATOM     23  C   UNL d   1       3.225  -4.457  -1.898  0.00  0.00     0.024 A 
ATOM     24 CL   UNL d   1       4.184  -6.810  -0.985  0.00  0.00    -0.084 Cl
ATOM     25  C   UNL d   1       2.666  -3.185  -1.734  0.00  0.00     0.014 A 
ENDBRANCH   4  19
TORSDOF 1
