REMARK  6 active torsions:
REMARK  status: ('A' for Active; 'I' for Inactive)
REMARK    1  A    between atoms: C_7  and  C_1 
REMARK    2  A    between atoms: S_8  and  C_4 
REMARK    3  A    between atoms: O_10  and  C_7 
REMARK    4  A    between atoms: C_11  and  S_8 
REMARK    5  A    between atoms: C_13  and  O_10 
REMARK    6  A    between atoms: C_12  and  C_11 
ROOT
ATOM      1  C   UNL d   1      -0.435  -1.104   0.085  0.00  0.00     0.125 A 
ATOM      2  N   UNL d   1      -1.225   0.041   0.172  0.00  0.00    -0.331 N 
ATOM      3  HN  UNL d   1      -2.242   0.089   0.241  1.00  0.00     0.168 HD
ATOM      4  C   UNL d   1      -0.379   1.042   0.148  0.00  0.00     0.145 A 
ATOM      5  C   UNL d   1       0.902  -0.744   0.058  0.00  0.00     0.126 A 
ATOM      6  N   UNL d   1       0.914   0.620   0.082  0.00  0.00    -0.344 N 
ATOM      7  H   UNL d   1       1.719   1.226   0.027  0.00  0.00     0.167 HD
ENDROOT
BRANCH   4   8
ATOM      8  S   UNL d   1      -0.695   2.733   0.116  0.00  0.00    -0.089 SA
BRANCH   8   9
ATOM      9  C   UNL d   1      -2.242   2.830   1.057  0.00  0.00     0.121 C 
BRANCH   9  10
ATOM     10  C   UNL d   1      -2.681   4.267   1.236  0.00  0.00    -0.049 A 
ATOM     11  C   UNL d   1      -3.507   4.884   0.285  0.00  0.00     0.008 A 
ATOM     12  C   UNL d   1      -3.914   6.210   0.449  0.00  0.00     0.001 A 
ATOM     13  C   UNL d   1      -3.493   6.938   1.561  0.00  0.00     0.000 A 
ATOM     14  C   UNL d   1      -2.659   6.343   2.505  0.00  0.00     0.001 A 
ATOM     15  C   UNL d   1      -2.251   5.017   2.343  0.00  0.00     0.008 A 
ENDBRANCH   9  10
ENDBRANCH   8   9
ENDBRANCH   4   8
BRANCH   1  16
ATOM     16  C   UNL d   1      -0.927  -2.476  -0.053  0.00  0.00     0.311 C 
ATOM     17  O   UNL d   1      -0.178  -3.443  -0.174  0.00  0.00    -0.258 OA
BRANCH  16  18
ATOM     18  O   UNL d   1      -2.288  -2.544  -0.134  0.00  0.00    -0.317 OA
BRANCH  18  19
ATOM     19  C   UNL d   1      -2.805  -3.766  -0.675  0.00  0.00     0.175 C 
ATOM     20  C   UNL d   1      -2.856  -3.636  -2.188  0.00  0.00     0.034 C 
ENDBRANCH  18  19
ENDBRANCH  16  18
ENDBRANCH   1  16
TORSDOF 6
