REMARK  2 active torsions:
REMARK  status: ('A' for Active; 'I' for Inactive)
REMARK    1  A    between atoms: N_2  and  S_1 
REMARK    2  A    between atoms: C_3  and  S_1 
ROOT
ATOM      1  N   UNL d   1       0.284  -0.735  -1.777  0.00  0.00    -0.265 N 
ATOM      2  C   UNL d   1      -0.993  -1.382  -1.731  0.00  0.00     0.072 A 
ATOM      3  C   UNL d   1       1.237  -1.137  -2.831  0.00  0.00     0.107 C 
ATOM      4  N   UNL d   1      -0.180  -3.741  -2.005  0.00  0.00    -0.325 N 
ATOM      5  C   UNL d   1       1.104  -3.695  -2.424  0.00  0.00     0.224 C 
ATOM      6  C   UNL d   1       1.928  -2.447  -2.528  0.00  0.00     0.129 C 
ATOM      7  C   UNL d   1      -1.169  -2.771  -1.775  0.00  0.00     0.062 A 
ATOM      8  O   UNL d   1       1.632  -4.782  -2.694  0.00  0.00    -0.273 OA
ATOM      9  C   UNL d   1      -2.116  -0.541  -1.655  0.00  0.00     0.033 A 
ATOM     10  C   UNL d   1       0.578  -1.085  -4.213  0.00  0.00     0.034 C 
ATOM     11  C   UNL d   1      -2.477  -3.283  -1.676  0.00  0.00     0.032 A 
ATOM     12  C   UNL d   1      -3.407  -1.063  -1.616  0.00  0.00     0.002 A 
ATOM     13  C   UNL d   1      -3.587  -2.439  -1.613  0.00  0.00     0.002 A 
ATOM     14  H   UNL d   1      -0.494  -4.706  -1.991  0.00  0.00     0.169 HD
ENDROOT
BRANCH   1  15
ATOM     15  S   UNL d   1       0.876  -0.088  -0.307  0.00  0.00     0.268 S 
ATOM     16  O   UNL d   1       1.974  -0.899   0.174  0.00  0.00    -0.200 OA
ATOM     17  O   UNL d   1      -0.230   0.231   0.573  0.00  0.00    -0.200 OA
BRANCH  15  18
ATOM     18  C   UNL d   1       1.516   1.472  -0.860  0.00  0.00     0.118 A 
ATOM     19  C   UNL d   1       2.852   1.604  -1.228  0.00  0.00     0.142 A 
ATOM     20  C   UNL d   1       3.331   2.820  -1.707  0.00  0.00     0.086 A 
ATOM     21  F   UNL d   1       3.694   0.564  -1.199  0.00  0.00    -0.204 F 
ATOM     22  C   UNL d   1       2.466   3.903  -1.799  0.00  0.00     0.119 A 
ATOM     23  C   UNL d   1       1.134   3.795  -1.409  0.00  0.00     0.044 A 
ATOM     24  F   UNL d   1       2.917   5.067  -2.281  0.00  0.00    -0.206 F 
ATOM     25  C   UNL d   1       0.654   2.576  -0.929  0.00  0.00     0.031 A 
ENDBRANCH  15  18
ENDBRANCH   1  15
TORSDOF 2
