REMARK  9 active torsions:
REMARK  status: ('A' for Active; 'I' for Inactive)
REMARK    1  A    between atoms: C_3  and  C_1 
REMARK    2  A    between atoms: N_5  and  C_1 
REMARK    3  A    between atoms: C_7  and  C_1 
REMARK    4  A    between atoms: S_2  and  C_6 
REMARK    5  A    between atoms: C_9  and  S_2 
REMARK       I    between atoms: N_8  and  C_3 
REMARK       I    between atoms: C_4  and  N_5 
REMARK    6  A    between atoms: C_6  and  C_4 
REMARK    7  A    between atoms: C_12  and  N_5 
REMARK    8  A    between atoms: C_13  and  C_7 
REMARK    9  A    between atoms: C_25  and  N_8 
ROOT
ATOM      1  C   UNL d   1      -0.761  -0.730   0.998  0.00  0.00     0.239 C 
ATOM      2  N   UNL d   1       0.323  -1.143   0.179  0.00  0.00    -0.296 N 
ATOM      3  O   UNL d   1      -0.941   0.472   1.242  0.00  0.00    -0.272 OA
ENDROOT
BRANCH   2   4
ATOM      4  C   UNL d   1       1.241  -0.024  -0.272  0.00  0.00     0.259 C 
BRANCH   4   5
ATOM      5  C   UNL d   1       0.751   0.526  -1.636  0.00  0.00     0.249 C 
ATOM      6  N   UNL d   1       0.301   1.846  -1.620  0.00  0.00    -0.354 N 
ATOM      7  H   UNL d   1      -0.046   2.159  -0.720  0.00  0.00     0.162 HD
ATOM      8  O   UNL d   1       0.718  -0.168  -2.652  0.00  0.00    -0.271 OA
BRANCH   6   9
ATOM      9  C   UNL d   1      -0.385   2.438  -2.781  0.00  0.00     0.084 C 
ATOM     10  C   UNL d   1       0.467   2.512  -4.064  0.00  0.00     0.025 C 
ATOM     11  C   UNL d   1       1.534   3.605  -4.034  0.00  0.00     0.002 C 
ATOM     12  C   UNL d   1       0.939   4.966  -3.693  0.00  0.00     0.000 C 
ATOM     13  C   UNL d   1       0.157   4.910  -2.387  0.00  0.00     0.002 C 
ATOM     14  C   UNL d   1      -0.931   3.835  -2.434  0.00  0.00     0.025 C 
ENDBRANCH   6   9
ENDBRANCH   4   5
BRANCH   4  15
ATOM     15  C   UNL d   1       2.790  -0.114  -0.239  0.00  0.00     0.191 C 
ATOM     16  O   UNL d   1       3.424  -1.147  -0.426  0.00  0.00    -0.289 OA
BRANCH  15  17
ATOM     17  C   UNL d   1       3.624   1.131  -0.025  0.00  0.00     0.013 A 
ATOM     18  C   UNL d   1       3.124   2.356   0.436  0.00  0.00     0.017 A 
ATOM     19  C   UNL d   1       3.969   3.472   0.552  0.00  0.00     0.025 A 
ATOM     20  C   UNL d   1       5.319   3.371   0.223  0.00  0.00     0.034 A 
ATOM     21  C   UNL d   1       5.845   2.152  -0.187  0.00  0.00     0.025 A 
ATOM     22 CL   UNL d   1       6.332   4.757   0.310  0.00  0.00    -0.084 Cl
ATOM     23  C   UNL d   1       5.003   1.040  -0.305  0.00  0.00     0.017 A 
ENDBRANCH  15  17
ENDBRANCH   4  15
ENDBRANCH   2   4
BRANCH   2  24
ATOM     24  C   UNL d   1       0.282  -2.390  -0.558  0.00  0.00     0.038 A 
ATOM     25  C   UNL d   1      -0.931  -2.874  -1.087  0.00  0.00     0.033 A 
ATOM     26  C   UNL d   1      -1.030  -4.148  -1.663  0.00  0.00     0.044 A 
ATOM     27  C   UNL d   1       0.103  -4.937  -1.776  0.00  0.00     0.116 A 
ATOM     28  C   UNL d   1       1.324  -4.469  -1.323  0.00  0.00     0.044 A 
ATOM     29  F   UNL d   1       0.012  -6.160  -2.313  0.00  0.00    -0.206 F 
ATOM     30  C   UNL d   1       1.405  -3.212  -0.701  0.00  0.00     0.033 A 
ENDBRANCH   2  24
BRANCH   1  31
ATOM     31  C   UNL d   1      -1.718  -1.756   1.539  0.00  0.00     0.248 C 
BRANCH  31  32
ATOM     32  S   UNL d   1      -1.993  -1.641   3.276  0.00  0.00     0.183 S 
ATOM     33  O   UNL d   1      -3.070  -2.570   3.580  0.00  0.00    -0.222 OA
ATOM     34  O   UNL d   1      -0.705  -1.819   3.923  0.00  0.00    -0.222 OA
BRANCH  32  35
ATOM     35  C   UNL d   1      -2.585  -0.024   3.713  0.00  0.00     0.059 A 
ATOM     36  C   UNL d   1      -3.962   0.234   3.751  0.00  0.00     0.024 A 
ATOM     37  C   UNL d   1      -4.425   1.449   4.270  0.00  0.00     0.008 A 
ATOM     38  C   UNL d   1      -3.524   2.411   4.750  0.00  0.00    -0.062 A 
ATOM     39  C   UNL d   1      -2.153   2.128   4.735  0.00  0.00     0.008 A 
ATOM     40  C   UNL d   1      -4.032   3.697   5.336  0.00  0.00     0.048 C 
ATOM     41  C   UNL d   1      -1.685   0.916   4.227  0.00  0.00     0.024 A 
ENDBRANCH  32  35
ENDBRANCH  31  32
ENDBRANCH   1  31
TORSDOF 9
