REMARK  11 active torsions:
REMARK  status: ('A' for Active; 'I' for Inactive)
REMARK    1  A    between atoms: C_8  and  C_1 
REMARK    2  A    between atoms: C_12  and  N_2 
REMARK    3  A    between atoms: S_11  and  C_5 
REMARK    4  A    between atoms: C_9  and  N_13 
REMARK    5  A    between atoms: N_14  and  C_9 
REMARK    6  A    between atoms: C_10  and  C_19 
REMARK       I    between atoms: N_15  and  C_10 
REMARK    7  A    between atoms: C_19  and  S_11 
REMARK    8  A    between atoms: N_13  and  N_15 
REMARK    9  A    between atoms: C_20  and  N_14 
REMARK   10  A    between atoms: O_23  and  C_16 
REMARK   11  A    between atoms: O_28  and  C_22 
ROOT
ATOM      1  C   UNL d   1      -0.044  -1.318   0.049  0.00  0.00     0.142 A 
ATOM      2  N   UNL d   1       1.234  -0.795  -0.245  0.00  0.00    -0.275 N 
ATOM      3  N   UNL d   1      -0.870  -0.308   0.263  0.00  0.00    -0.282 N 
ATOM      4  HN  UNL d   1      -1.847  -0.395   0.544  1.00  0.00     0.188 HD
ATOM      5  C   UNL d   1       1.022   0.580  -0.273  0.00  0.00     0.168 A 
ATOM      6  N   UNL d   1      -0.215   0.863   0.050  0.00  0.00    -0.278 N 
ATOM      7  HN  UNL d   1      -0.616   1.798   0.127  1.00  0.00     0.189 HD
ENDROOT
BRANCH   5   8
ATOM      8  S   UNL d   1       2.142   1.786  -0.853  0.00  0.00    -0.083 SA
BRANCH   8   9
ATOM      9  C   UNL d   1       1.154   3.293  -0.569  0.00  0.00     0.186 C 
BRANCH   9  10
ATOM     10  C   UNL d   1       1.828   4.564  -1.050  0.00  0.00     0.245 C 
ATOM     11  N   UNL d   1       3.207   4.576  -1.086  0.00  0.00    -0.267 N 
ATOM     12  H   UNL d   1       3.710   3.691  -1.061  0.00  0.00     0.190 HD
ATOM     13  O   UNL d   1       1.171   5.563  -1.363  0.00  0.00    -0.271 OA
BRANCH  11  14
ATOM     14  N   UNL d   1       3.805   5.593  -1.852  0.00  0.00    -0.274 N 
ATOM     15  H   UNL d   1       3.151   6.269  -2.253  0.00  0.00     0.189 HD
BRANCH  14  16
ATOM     16  C   UNL d   1       5.082   6.029  -1.627  0.00  0.00     0.191 C 
ATOM     17  S   UNL d   1       6.006   5.646  -0.283  0.00  0.00    -0.039 SA
BRANCH  16  18
ATOM     18  N   UNL d   1       5.643   6.827  -2.592  0.00  0.00    -0.332 N 
ATOM     19  H   UNL d   1       6.500   7.275  -2.284  0.00  0.00     0.168 HD
BRANCH  18  20
ATOM     20  C   UNL d   1       5.444   6.818  -3.994  0.00  0.00     0.034 A 
ATOM     21  C   UNL d   1       4.546   5.981  -4.662  0.00  0.00     0.032 A 
ATOM     22  C   UNL d   1       4.512   5.929  -6.061  0.00  0.00     0.039 A 
ATOM     23  C   UNL d   1       5.385   6.695  -6.817  0.00  0.00     0.068 A 
ATOM     24  C   UNL d   1       6.259   7.567  -6.163  0.00  0.00     0.039 A 
ATOM     25  C   UNL d   1       6.288   7.627  -4.763  0.00  0.00     0.032 A 
BRANCH  23  26
ATOM     26  O   UNL d   1       5.484   6.682  -8.182  0.00  0.00    -0.356 OA
ATOM     27  C   UNL d   1       4.751   5.663  -8.855  0.00  0.00     0.210 C 
ENDBRANCH  23  26
ENDBRANCH  18  20
ENDBRANCH  16  18
ENDBRANCH  14  16
ENDBRANCH  11  14
ENDBRANCH   9  10
ENDBRANCH   8   9
ENDBRANCH   5   8
BRANCH   2  28
ATOM     28  C   UNL d   1       2.466  -1.503  -0.421  0.00  0.00     0.043 A 
ATOM     29  C   UNL d   1       2.499  -2.761  -1.038  0.00  0.00     0.030 A 
ATOM     30  C   UNL d   1       3.690  -3.494  -1.087  0.00  0.00     0.002 A 
ATOM     31  C   UNL d   1       4.864  -2.963  -0.556  0.00  0.00     0.000 A 
ATOM     32  C   UNL d   1       4.850  -1.699   0.024  0.00  0.00     0.002 A 
ATOM     33  C   UNL d   1       3.657  -0.973   0.100  0.00  0.00     0.030 A 
ENDBRANCH   2  28
BRANCH   1  34
ATOM     34  C   UNL d   1      -0.442  -2.725   0.222  0.00  0.00     0.043 A 
ATOM     35  C   UNL d   1      -1.628  -3.268  -0.314  0.00  0.00     0.082 A 
ATOM     36  C   UNL d   1      -1.943  -4.620  -0.096  0.00  0.00     0.038 A 
ATOM     37  C   UNL d   1      -1.102  -5.447   0.645  0.00  0.00     0.003 A 
ATOM     38  C   UNL d   1       0.040  -4.913   1.224  0.00  0.00     0.001 A 
ATOM     39  C   UNL d   1       0.350  -3.564   1.034  0.00  0.00     0.018 A 
BRANCH  35  40
ATOM     40  O   UNL d   1      -2.635  -2.591  -0.953  0.00  0.00    -0.355 OA
ATOM     41  C   UNL d   1      -2.270  -1.780  -2.062  0.00  0.00     0.210 C 
ENDBRANCH  35  40
ENDBRANCH   1  34
TORSDOF 11
