REMARK  3 active torsions:
REMARK  status: ('A' for Active; 'I' for Inactive)
REMARK    1  A    between atoms: S_11  and  C_6 
REMARK    2  A    between atoms: C_15  and  S_11 
REMARK    3  A    between atoms: C_14  and  C_15 
ROOT
ATOM      1  C   UNL d   1       1.161   0.564   0.031  0.00  0.00     0.089 A 
ATOM      2  C   UNL d   1       0.563  -0.692   0.067  0.00  0.00     0.039 A 
ATOM      3  S   UNL d   1       0.047   1.849  -0.004  0.00  0.00    -0.075 SA
ATOM      4  C   UNL d   1      -0.885  -0.552   0.029  0.00  0.00    -0.029 A 
ATOM      5  C   UNL d   1      -1.269   0.780   0.033  0.00  0.00    -0.008 A 
ATOM      6  C   UNL d   1       1.478  -1.759   0.136  0.00  0.00     0.084 A 
ATOM      7  N   UNL d   1       2.477   0.837   0.024  0.00  0.00    -0.346 N 
ATOM      8  HN  UNL d   1       2.858   1.783  -0.013  1.00  0.00     0.167 HD
ATOM      9  N   UNL d   1       2.810  -1.528   0.131  0.00  0.00    -0.346 N 
ATOM     10  HN  UNL d   1       3.477  -2.298   0.172  1.00  0.00     0.167 HD
ATOM     11  C   UNL d   1       3.229  -0.259   0.070  0.00  0.00     0.182 A 
ATOM     12  C   UNL d   1      -1.917  -1.649   0.040  0.00  0.00     0.040 C 
ATOM     13  C   UNL d   1      -2.678   1.287   0.041  0.00  0.00     0.047 C 
ATOM     14  C   UNL d   1      -3.337  -1.132  -0.258  0.00  0.00     0.005 C 
ATOM     15  C   UNL d   1      -3.640   0.177   0.478  0.00  0.00     0.005 C 
ENDROOT
BRANCH   6  16
ATOM     16  S   UNL d   1       0.954  -3.450   0.189  0.00  0.00    -0.104 SA
BRANCH  16  17
ATOM     17  C   UNL d   1       2.111  -4.084   1.443  0.00  0.00     0.158 C 
BRANCH  17  18
ATOM     18  C   UNL d   1       1.795  -3.584   2.843  0.00  0.00     0.132 C 
ATOM     19  O   UNL d   1       0.878  -2.809   3.114  0.00  0.00    -0.298 OA
ATOM     20  C   UNL d   1       2.681  -4.120   3.943  0.00  0.00     0.091 C 
ENDBRANCH  17  18
ENDBRANCH  16  17
ENDBRANCH   6  16
TORSDOF 3
