REMARK  3 active torsions:
REMARK  status: ('A' for Active; 'I' for Inactive)
REMARK    1  A    between atoms: C_13  and  N_6 
REMARK    2  A    between atoms: C_20  and  C_14 
REMARK    3  A    between atoms: O_24  and  C_21 
ROOT
ATOM      1  C   UNL d   1       0.793  -0.819  -0.265  0.00  0.00     0.173 A 
ATOM      2  C   UNL d   1       0.492   0.523  -0.315  0.00  0.00     0.090 A 
ATOM      3  C   UNL d   1       2.017  -1.548  -0.037  0.00  0.00     0.285 C 
ATOM      4  C   UNL d   1      -0.940   0.623  -0.322  0.00  0.00     0.051 A 
ATOM      5  C   UNL d   1      -1.400  -0.689  -0.210  0.00  0.00     0.162 A 
ATOM      6  N   UNL d   1       2.949  -0.835   0.729  0.00  0.00    -0.303 N 
ATOM      7  O   UNL d   1      -0.356  -1.555  -0.264  0.00  0.00    -0.285 OA
ATOM      8  N   UNL d   1       1.357   1.591  -0.246  0.00  0.00    -0.322 N 
ATOM      9  N   UNL d   1      -2.660  -1.110  -0.017  0.00  0.00    -0.335 N 
ATOM     10  HN  UNL d   1      -2.911  -2.097   0.037  1.00  0.00     0.168 HD
ATOM     11  C   UNL d   1      -1.911   1.647  -0.301  0.00  0.00    -0.043 A 
ATOM     12  C   UNL d   1       2.665   1.623   0.111  0.00  0.00     0.240 C 
ATOM     13  C   UNL d   1      -3.568  -0.118   0.099  0.00  0.00     0.044 A 
ATOM     14  C   UNL d   1       3.538   0.375   0.192  0.00  0.00     0.235 C 
ATOM     15  C   UNL d   1      -3.237   1.228  -0.082  0.00  0.00     0.038 A 
ATOM     16  O   UNL d   1       2.151  -2.737  -0.314  0.00  0.00    -0.265 OA
ATOM     17  O   UNL d   1       3.179   2.744   0.235  0.00  0.00    -0.271 OA
ATOM     18  C   UNL d   1      -1.682   3.127  -0.431  0.00  0.00     0.049 C 
ATOM     19  H   UNL d   1       0.969   2.517  -0.300  0.00  0.00     0.169 HD
ENDROOT
BRANCH   6  20
ATOM     20  C   UNL d   1       3.525  -1.510   1.850  0.00  0.00     0.040 A 
ATOM     21  C   UNL d   1       2.669  -2.264   2.673  0.00  0.00     0.066 A 
ATOM     22  C   UNL d   1       3.140  -2.867   3.839  0.00  0.00     0.070 A 
ATOM     23  C   UNL d   1       4.482  -2.726   4.181  0.00  0.00     0.037 A 
ATOM     24  C   UNL d   1       5.349  -2.010   3.356  0.00  0.00     0.005 A 
ATOM     25  C   UNL d   1       4.873  -1.395   2.197  0.00  0.00     0.030 A 
BRANCH  22  26
ATOM     26  O   UNL d   1       2.371  -3.571   4.726  0.00  0.00    -0.356 OA
ATOM     27  C   UNL d   1       1.134  -4.069   4.222  0.00  0.00     0.210 C 
ENDBRANCH  22  26
ENDBRANCH   6  20
BRANCH  13  28
ATOM     28  C   UNL d   1      -4.951  -0.531   0.432  0.00  0.00    -0.009 A 
ATOM     29  C   UNL d   1      -5.830   0.312   1.145  0.00  0.00     0.013 A 
ATOM     30  C   UNL d   1      -7.153  -0.056   1.403  0.00  0.00     0.001 A 
ATOM     31  C   UNL d   1      -7.627  -1.288   0.971  0.00  0.00     0.000 A 
ATOM     32  C   UNL d   1      -6.771  -2.159   0.303  0.00  0.00     0.001 A 
ATOM     33  C   UNL d   1      -5.447  -1.787   0.043  0.00  0.00     0.013 A 
ENDBRANCH  13  28
TORSDOF 3
