REMARK  3 active torsions:
REMARK  status: ('A' for Active; 'I' for Inactive)
REMARK    1  A    between atoms: C_9  and  C_1 
REMARK    2  A    between atoms: C_11  and  C_6 
REMARK    3  A    between atoms: O_16  and  C_9 
ROOT
ATOM      1  C   UNL d   1      -2.429  -1.540   0.045  0.00  0.00     0.052 A 
ATOM      2  N   UNL d   1      -2.446   1.235   0.064  0.00  0.00    -0.355 N 
ATOM      3  HN  UNL d   1      -2.461   2.254   0.008  1.00  0.00     0.166 HD
ATOM      4  C   UNL d   1      -1.208  -0.840  -0.093  0.00  0.00     0.008 A 
ATOM      5  C   UNL d   1      -1.283   0.567  -0.068  0.00  0.00     0.044 A 
ATOM      6  C   UNL d   1      -3.591   0.548   0.272  0.00  0.00     0.044 A 
ATOM      7  C   UNL d   1      -3.615  -0.836   0.257  0.00  0.00     0.049 A 
ATOM      8  C   UNL d   1       0.065  -1.451  -0.202  0.00  0.00     0.027 A 
ATOM      9  C   UNL d   1      -0.104   1.304  -0.116  0.00  0.00     0.042 A 
ATOM     10  C   UNL d   1       1.246  -0.704  -0.141  0.00  0.00    -0.025 A 
ATOM     11  C   UNL d   1       1.165   0.699  -0.096  0.00  0.00    -0.024 A 
ATOM     12  C   UNL d   1       2.499  -1.333  -0.060  0.00  0.00     0.012 A 
ATOM     13  C   UNL d   1       2.349   1.446   0.023  0.00  0.00     0.012 A 
ATOM     14  C   UNL d   1       3.660  -0.581   0.106  0.00  0.00     0.001 A 
ATOM     15  C   UNL d   1       3.587   0.808   0.145  0.00  0.00     0.001 A 
ENDROOT
BRANCH   6  16
ATOM     16  C   UNL d   1      -4.809   1.342   0.543  0.00  0.00    -0.008 A 
ATOM     17  C   UNL d   1      -5.807   0.870   1.419  0.00  0.00     0.037 A 
ATOM     18  C   UNL d   1      -6.994   1.575   1.611  0.00  0.00     0.035 A 
ATOM     19 CL   UNL d   1      -8.205   0.930   2.650  0.00  0.00    -0.084 Cl
ATOM     20  C   UNL d   1      -7.210   2.782   0.957  0.00  0.00     0.024 A 
ATOM     21  C   UNL d   1      -6.220   3.294   0.122  0.00  0.00     0.003 A 
ATOM     22  C   UNL d   1      -5.031   2.583  -0.080  0.00  0.00     0.014 A 
ENDBRANCH   6  16
BRANCH   1  23
ATOM     23  C   UNL d   1      -2.485  -3.029   0.129  0.00  0.00     0.177 C 
ATOM     24  O   UNL d   1      -1.632  -3.713   0.653  0.00  0.00    -0.646 OA
BRANCH  23  25
ATOM     25  O   UNL d   1      -3.602  -3.562  -0.421  0.00  0.00    -0.773 OA
ATOM     26  H   UNL d   1      -4.168  -2.962  -0.935  0.00  0.00     0.167 HD
ENDBRANCH  23  25
ENDBRANCH   1  23
TORSDOF 3
