REMARK  2 active torsions:
REMARK  status: ('A' for Active; 'I' for Inactive)
REMARK    1  A    between atoms: C_19  and  N_9 
REMARK    2  A    between atoms: C_17  and  C_19 
ROOT
ATOM      1  C   UNL d   1       1.206   0.925  -0.039  0.00  0.00     0.102 A 
ATOM      2  C   UNL d   1       0.740  -0.361  -0.034  0.00  0.00     0.069 A 
ATOM      3  S   UNL d   1      -0.046   2.063  -0.026  0.00  0.00    -0.064 SA
ATOM      4  C   UNL d   1      -0.689  -0.460  -0.019  0.00  0.00     0.032 A 
ATOM      5  C   UNL d   1      -1.231   0.828  -0.016  0.00  0.00     0.088 A 
ATOM      6  C   UNL d   1       2.603   1.254  -0.041  0.00  0.00     0.268 A 
ATOM      7  N   UNL d   1       1.613  -1.461  -0.044  0.00  0.00    -0.350 N 
ATOM      8  HN  UNL d   1       1.284  -2.427  -0.051  1.00  0.00     0.166 HD
ATOM      9  N   UNL d   1       3.417   0.121  -0.035  0.00  0.00    -0.306 N 
ATOM     10  C   UNL d   1       2.871  -1.149  -0.043  0.00  0.00     0.186 A 
ATOM     11  N   UNL d   1      -2.539   1.159  -0.008  0.00  0.00    -0.354 N 
ATOM     12  HN  UNL d   1      -2.862   2.127  -0.005  1.00  0.00     0.166 HD
ATOM     13  C   UNL d   1      -1.608  -1.541  -0.008  0.00  0.00    -0.045 A 
ATOM     14  C   UNL d   1      -2.976  -1.216  -0.002  0.00  0.00     0.032 A 
ATOM     15  O   UNL d   1       3.054   2.398  -0.038  0.00  0.00    -0.266 OA
ATOM     16  C   UNL d   1      -3.386   0.112  -0.004  0.00  0.00     0.006 A 
ATOM     17  C   UNL d   1      -1.236  -2.998  -0.007  0.00  0.00     0.049 C 
ATOM     18  C   UNL d   1      -4.856   0.422  -0.006  0.00  0.00     0.068 C 
ENDROOT
BRANCH   9  19
ATOM     19  C   UNL d   1       4.857   0.285   0.059  0.00  0.00     0.159 C 
BRANCH  19  20
ATOM     20  C   UNL d   1       5.460   0.348  -1.315  0.00  0.00    -0.017 C 
ATOM     21  C   UNL d   1       6.430  -0.463  -1.760  0.00  0.00     0.008 C 
ENDBRANCH  19  20
ENDBRANCH   9  19
TORSDOF 2
