REMARK  5 active torsions:
REMARK  status: ('A' for Active; 'I' for Inactive)
REMARK    1  A    between atoms: C_8  and  C_2 
REMARK    2  A    between atoms: C_9  and  N_3 
REMARK    3  A    between atoms: N_6  and  C_10 
REMARK    4  A    between atoms: O_19  and  C_8 
REMARK    5  A    between atoms: C_20  and  O_19 
ROOT
ATOM      1  C   UNL d   1       1.015  -0.815  -0.059  0.00  0.00     0.139 A 
ATOM      2  C   UNL d   1      -0.297  -1.240   0.015  0.00  0.00     0.101 A 
ATOM      3  N   UNL d   1       0.989   0.576   0.079  0.00  0.00    -0.240 N 
ATOM      4  N   UNL d   1      -0.266   1.020   0.369  0.00  0.00    -0.302 N 
ATOM      5  HN  UNL d   1      -0.553   1.966   0.619  1.00  0.00     0.186 HD
ATOM      6  C   UNL d   1      -1.034  -0.064   0.250  0.00  0.00     0.129 A 
ATOM      7  N   UNL d   1       2.147  -1.564  -0.189  0.00  0.00    -0.383 N 
ATOM      8  H   UNL d   1       2.047  -2.582  -0.121  0.00  0.00     0.157 HD
ATOM      9  H   UNL d   1       3.021  -1.247   0.228  0.00  0.00     0.157 HD
ENDROOT
BRANCH   3  10
ATOM     10  C   UNL d   1       2.066   1.500  -0.027  0.00  0.00     0.058 A 
ATOM     11  C   UNL d   1       3.187   1.207  -0.820  0.00  0.00     0.034 A 
ATOM     12  C   UNL d   1       4.264   2.093  -0.867  0.00  0.00     0.038 A 
ATOM     13  C   UNL d   1       4.221   3.275  -0.118  0.00  0.00     0.103 A 
ATOM     14  C   UNL d   1       3.091   3.593   0.649  0.00  0.00     0.038 A 
ATOM     15  C   UNL d   1       2.005   2.711   0.675  0.00  0.00     0.034 A 
BRANCH  13  16
ATOM     16  N   UNL d   1       5.373   4.185  -0.135  0.00  0.00    -0.116 N 
ATOM     17  O   UNL d   1       5.309   5.207   0.562  0.00  0.00    -0.532 OA
ATOM     18  O   UNL d   1       6.343   3.871  -0.838  0.00  0.00    -0.532 OA
ENDBRANCH  13  16
ENDBRANCH   3  10
BRANCH   2  19
ATOM     19  C   UNL d   1      -0.759  -2.603  -0.117  0.00  0.00     0.298 C 
ATOM     20  O   UNL d   1      -0.003  -3.559  -0.268  0.00  0.00    -0.259 OA
BRANCH  19  21
ATOM     21  O   UNL d   1      -2.119  -2.690  -0.111  0.00  0.00    -0.318 OA
BRANCH  21  22
ATOM     22  C   UNL d   1      -2.644  -3.925  -0.617  0.00  0.00     0.174 C 
ATOM     23  C   UNL d   1      -2.802  -3.784  -2.119  0.00  0.00     0.034 C 
ENDBRANCH  21  22
ENDBRANCH  19  21
ENDBRANCH   2  19
TORSDOF 5
