REMARK  2 active torsions:
REMARK  status: ('A' for Active; 'I' for Inactive)
REMARK    1  A    between atoms: C_8  and  C_4 
REMARK    2  A    between atoms: O_15  and  C_8 
ROOT
ATOM      1  C   UNL d   1      -0.875  -0.467   0.015  0.00  0.00     0.024 A 
ATOM      2  S   UNL d   1      -1.711  -1.962   0.039  0.00  0.00    -0.082 SA
ATOM      3  C   UNL d   1      -1.755   0.601   0.000  0.00  0.00    -0.029 A 
ATOM      4  C   UNL d   1      -3.244  -1.222   0.023  0.00  0.00     0.079 A 
ATOM      5  C   UNL d   1       0.595  -0.389   0.008  0.00  0.00    -0.000 A 
ATOM      6  C   UNL d   1      -3.121   0.152   0.008  0.00  0.00     0.035 A 
ATOM      7  S   UNL d   1       0.385   2.448   0.092  0.00  0.00    -0.124 SA
ATOM      8  C   UNL d   1       1.226   0.870   0.023  0.00  0.00     0.012 A 
ATOM      9  C   UNL d   1      -1.379   2.043  -0.039  0.00  0.00     0.119 A 
ATOM     10  C   UNL d   1       1.403  -1.543  -0.009  0.00  0.00     0.038 A 
ATOM     11  C   UNL d   1       2.632   0.943   0.011  0.00  0.00     0.021 A 
ATOM     12  C   UNL d   1       2.795  -1.451  -0.014  0.00  0.00     0.035 A 
ATOM     13  C   UNL d   1       3.415  -0.211  -0.007  0.00  0.00     0.025 A 
ATOM     14 CL   UNL d   1       3.745  -2.885  -0.022  0.00  0.00    -0.084 Cl
ENDROOT
BRANCH   4  15
ATOM     15  C   UNL d   1      -4.476  -1.991   0.022  0.00  0.00     0.183 C 
ATOM     16  O   UNL d   1      -5.602  -1.513   0.014  0.00  0.00    -0.646 OA
BRANCH  15  17
ATOM     17  O   UNL d   1      -4.272  -3.334   0.028  0.00  0.00    -0.772 OA
ATOM     18  H   UNL d   1      -3.321  -3.554   0.032  0.00  0.00     0.167 HD
ENDBRANCH  15  17
ENDBRANCH   4  15
TORSDOF 2
