REMARK  7 active torsions:
REMARK  status: ('A' for Active; 'I' for Inactive)
REMARK    1  A    between atoms: S_12  and  C_2 
REMARK    2  A    between atoms: C_6  and  N_13 
REMARK    3  A    between atoms: N_9  and  C_6 
REMARK    4  A    between atoms: C_8  and  C_21 
REMARK       I    between atoms: N_14  and  C_8 
REMARK    5  A    between atoms: C_17  and  N_9 
REMARK    6  A    between atoms: C_21  and  S_12 
REMARK    7  A    between atoms: N_13  and  N_14 
ROOT
ATOM      1  C   UNL d   1       7.136   3.865  -0.554  0.00  0.00     0.245 C 
ATOM      2  N   UNL d   1       6.301   2.781  -0.787  0.00  0.00    -0.267 N 
ATOM      3  O   UNL d   1       8.015   3.876   0.308  0.00  0.00    -0.271 OA
ATOM      4  H   UNL d   1       5.485   2.863  -1.386  0.00  0.00     0.190 HD
ENDROOT
BRANCH   2   5
ATOM      5  N   UNL d   1       6.378   1.671   0.061  0.00  0.00    -0.274 N 
ATOM      6  H   UNL d   1       5.726   1.622   0.838  0.00  0.00     0.189 HD
BRANCH   5   7
ATOM      7  C   UNL d   1       7.322   0.688  -0.098  0.00  0.00     0.191 C 
ATOM      8  S   UNL d   1       8.207   0.415  -1.495  0.00  0.00    -0.039 SA
BRANCH   7   9
ATOM      9  N   UNL d   1       7.467  -0.195   0.941  0.00  0.00    -0.332 N 
ATOM     10  H   UNL d   1       7.941  -1.051   0.676  0.00  0.00     0.168 HD
BRANCH   9  11
ATOM     11  C   UNL d   1       7.331   0.008   2.332  0.00  0.00     0.034 A 
ATOM     12  C   UNL d   1       7.294   1.267   2.936  0.00  0.00     0.036 A 
ATOM     13  C   UNL d   1       7.282   1.399   4.341  0.00  0.00    -0.054 A 
ATOM     14  C   UNL d   1       7.333   2.776   4.950  0.00  0.00     0.049 C 
ATOM     15  C   UNL d   1       7.269   0.246   5.149  0.00  0.00    -0.056 A 
ATOM     16  C   UNL d   1       7.303  -1.015   4.537  0.00  0.00     0.009 A 
ATOM     17  C   UNL d   1       7.263   0.335   6.651  0.00  0.00     0.049 C 
ATOM     18  C   UNL d   1       7.353  -1.127   3.144  0.00  0.00     0.030 A 
ENDBRANCH   9  11
ENDBRANCH   7   9
ENDBRANCH   5   7
ENDBRANCH   2   5
BRANCH   1  19
ATOM     19  C   UNL d   1       6.913   5.048  -1.482  0.00  0.00     0.186 C 
BRANCH  19  20
ATOM     20  S   UNL d   1       5.196   5.616  -1.339  0.00  0.00    -0.095 SA
BRANCH  20  21
ATOM     21  C   UNL d   1       5.251   7.154  -2.174  0.00  0.00     0.115 A 
ATOM     22  S   UNL d   1       3.857   8.153  -2.250  0.00  0.00    -0.045 SA
ATOM     23  C   UNL d   1       4.750   9.299  -3.130  0.00  0.00     0.103 A 
ATOM     24  C   UNL d   1       6.056   8.851  -3.317  0.00  0.00     0.067 A 
ATOM     25  N   UNL d   1       4.213  10.459  -3.559  0.00  0.00    -0.358 N 
ATOM     26  C   UNL d   1       6.922   9.699  -4.029  0.00  0.00     0.034 A 
ATOM     27  N   UNL d   1       6.334   7.606  -2.768  0.00  0.00    -0.343 N 
ATOM     28  C   UNL d   1       6.413  10.914  -4.494  0.00  0.00     0.019 A 
ATOM     29  C   UNL d   1       5.087  11.233  -4.237  0.00  0.00     0.089 A 
ATOM     30  HN  UNL d   1       7.230   7.122  -2.817  1.00  0.00     0.167 HD
ATOM     31  HN  UNL d   1       3.243  10.725  -3.389  1.00  0.00     0.166 HD
ENDBRANCH  20  21
ENDBRANCH  19  20
ENDBRANCH   1  19
TORSDOF 7
