REMARK  8 active torsions:
REMARK  status: ('A' for Active; 'I' for Inactive)
REMARK    1  A    between atoms: C_11  and  N_1 
REMARK    2  A    between atoms: C_15  and  C_2 
REMARK    3  A    between atoms: S_5  and  C_9 
REMARK    4  A    between atoms: N_17  and  S_5 
REMARK    5  A    between atoms: S_10  and  C_6 
REMARK    6  A    between atoms: C_23  and  S_10 
REMARK    7  A    between atoms: C_14  and  C_23 
REMARK       I    between atoms: N_16  and  C_14 
REMARK    8  A    between atoms: C_24  and  N_16 
ROOT
ATOM      1  N   UNL d   1      -0.305  -1.479   0.216  0.00  0.00    -0.275 N 
ATOM      2  C   UNL d   1       0.913  -0.792   0.069  0.00  0.00     0.139 C 
ATOM      3  N   UNL d   1       0.666   0.506   0.041  0.00  0.00    -0.282 N 
ATOM      4  HN  UNL d   1       1.346   1.236  -0.173  1.00  0.00     0.188 HD
ATOM      5  C   UNL d   1      -1.212  -0.465   0.517  0.00  0.00     0.168 C 
ATOM      6  N   UNL d   1      -0.648   0.708   0.343  0.00  0.00    -0.278 N 
ATOM      7  HN  UNL d   1      -1.112   1.613   0.420  1.00  0.00     0.189 HD
ENDROOT
BRANCH   5   8
ATOM      8  S   UNL d   1      -2.885  -0.655   0.962  0.00  0.00    -0.083 SA
BRANCH   8   9
ATOM      9  C   UNL d   1      -3.458   1.065   0.942  0.00  0.00     0.185 C 
BRANCH   9  10
ATOM     10  C   UNL d   1      -4.853   1.281   1.523  0.00  0.00     0.231 C 
ATOM     11  N   UNL d   1      -5.370   0.262   2.306  0.00  0.00    -0.327 N 
ATOM     12  H   UNL d   1      -4.752  -0.523   2.483  0.00  0.00     0.169 HD
ATOM     13  O   UNL d   1      -5.417   2.354   1.308  0.00  0.00    -0.272 OA
BRANCH  11  14
ATOM     14  C   UNL d   1      -6.675   0.178   2.845  0.00  0.00     0.034 A 
ATOM     15  C   UNL d   1      -7.681   1.111   2.572  0.00  0.00     0.031 A 
ATOM     16  C   UNL d   1      -8.977   0.935   3.062  0.00  0.00     0.027 A 
ATOM     17  C   UNL d   1      -9.276  -0.186   3.831  0.00  0.00     0.074 A 
ATOM     18  C   UNL d   1      -8.278  -1.106   4.159  0.00  0.00     0.027 A 
ATOM     19  C   UNL d   1      -6.982  -0.925   3.658  0.00  0.00     0.031 A 
BRANCH  17  20
ATOM     20  S   UNL d   1     -10.939  -0.441   4.372  0.00  0.00     0.239 S 
ATOM     21  O   UNL d   1     -10.936  -1.313   5.526  0.00  0.00    -0.206 OA
ATOM     22  O   UNL d   1     -11.652   0.812   4.343  0.00  0.00    -0.206 OA
BRANCH  20  23
ATOM     23  N   UNL d   1     -11.553  -1.355   3.103  0.00  0.00    -0.225 NA
ATOM     24  H   UNL d   1     -11.852  -2.270   3.441  0.00  0.00     0.136 HD
ATOM     25  H   UNL d   1     -12.278  -0.833   2.610  0.00  0.00     0.136 HD
ENDBRANCH  20  23
ENDBRANCH  17  20
ENDBRANCH  11  14
ENDBRANCH   9  10
ENDBRANCH   8   9
ENDBRANCH   5   8
BRANCH   1  26
ATOM     26  C   UNL d   1      -0.526  -2.885   0.049  0.00  0.00     0.043 A 
ATOM     27  C   UNL d   1      -1.485  -3.575   0.798  0.00  0.00     0.030 A 
ATOM     28  C   UNL d   1      -1.662  -4.952   0.631  0.00  0.00     0.002 A 
ATOM     29  C   UNL d   1      -0.865  -5.661  -0.262  0.00  0.00     0.000 A 
ATOM     30  C   UNL d   1       0.092  -4.989  -1.014  0.00  0.00     0.002 A 
ATOM     31  C   UNL d   1       0.247  -3.607  -0.877  0.00  0.00     0.030 A 
ENDBRANCH   1  26
BRANCH   2  32
ATOM     32  C   UNL d   1       2.274  -1.354   0.038  0.00  0.00     0.013 A 
ATOM     33  C   UNL d   1       3.262  -0.737  -0.736  0.00  0.00     0.032 A 
ATOM     34  C   UNL d   1       4.530  -1.296  -0.768  0.00  0.00     0.088 A 
ATOM     35  N   UNL d   1       4.876  -2.412  -0.092  0.00  0.00    -0.375 N 
ATOM     36  C   UNL d   1       3.925  -2.970   0.681  0.00  0.00     0.088 A 
ATOM     37  HN  UNL d   1       5.811  -2.813  -0.164  1.00  0.00     0.164 HD
ATOM     38  C   UNL d   1       2.637  -2.471   0.797  0.00  0.00     0.032 A 
ENDBRANCH   2  32
TORSDOF 8
