REMARK  8 active torsions:
REMARK  status: ('A' for Active; 'I' for Inactive)
REMARK    1  A    between atoms: C_8  and  C_2 
REMARK    2  A    between atoms: S_14  and  C_5 
REMARK    3  A    between atoms: O_24  and  C_9 
REMARK    4  A    between atoms: O_25  and  C_10 
REMARK    5  A    between atoms: O_26  and  C_11 
REMARK    6  A    between atoms: C_12  and  C_13 
REMARK    7  A    between atoms: C_13  and  C_18 
REMARK    8  A    between atoms: C_18  and  S_14 
ROOT
ATOM      1  N   UNL d   1       0.675   0.019  -0.387  0.00  0.00    -0.315 N 
ATOM      2  C   UNL d   1      -0.075   1.116  -0.006  0.00  0.00     0.134 A 
ATOM      3  N   UNL d   1      -1.188   0.665   0.553  0.00  0.00    -0.283 N 
ATOM      4  HN  UNL d   1      -1.917   1.243   0.971  1.00  0.00     0.188 HD
ATOM      5  C   UNL d   1      -0.088  -1.081  -0.097  0.00  0.00     0.163 A 
ATOM      6  N   UNL d   1      -1.203  -0.709   0.479  0.00  0.00    -0.278 N 
ATOM      7  HN  UNL d   1      -1.946  -1.324   0.812  1.00  0.00     0.189 HD
ATOM      8  C   UNL d   1       2.008  -0.002  -0.936  0.00  0.00     0.160 C 
ENDROOT
BRANCH   2   9
ATOM      9  C   UNL d   1       0.282   2.534  -0.151  0.00  0.00     0.015 A 
ATOM     10  C   UNL d   1       0.934   3.026  -1.289  0.00  0.00     0.055 A 
ATOM     11  C   UNL d   1       1.332   4.371  -1.396  0.00  0.00     0.105 A 
ATOM     12  C   UNL d   1       1.013   5.276  -0.362  0.00  0.00     0.135 A 
ATOM     13  C   UNL d   1       0.269   4.802   0.742  0.00  0.00     0.105 A 
ATOM     14  C   UNL d   1      -0.062   3.443   0.850  0.00  0.00     0.055 A 
BRANCH  11  15
ATOM     15  O   UNL d   1       2.007   4.843  -2.493  0.00  0.00    -0.353 OA
ATOM     16  C   UNL d   1       2.517   3.910  -3.436  0.00  0.00     0.210 C 
ENDBRANCH  11  15
BRANCH  12  17
ATOM     17  O   UNL d   1       1.371   6.598  -0.296  0.00  0.00    -0.351 OA
ATOM     18  C   UNL d   1       2.225   7.169  -1.272  0.00  0.00     0.210 C 
ENDBRANCH  12  17
BRANCH  13  19
ATOM     19  O   UNL d   1      -0.139   5.547   1.825  0.00  0.00    -0.353 OA
ATOM     20  C   UNL d   1      -0.578   6.874   1.544  0.00  0.00     0.210 C 
ENDBRANCH  13  19
ENDBRANCH   2   9
BRANCH   5  21
ATOM     21  S   UNL d   1       0.406  -2.691  -0.473  0.00  0.00    -0.085 SA
BRANCH  21  22
ATOM     22  C   UNL d   1      -1.001  -3.673   0.130  0.00  0.00     0.168 C 
BRANCH  22  23
ATOM     23  C   UNL d   1      -0.726  -5.171  -0.020  0.00  0.00     0.192 C 
ATOM     24  O   UNL d   1       0.356  -5.620  -0.397  0.00  0.00    -0.289 OA
BRANCH  23  25
ATOM     25  C   UNL d   1      -1.825  -6.053   0.325  0.00  0.00     0.121 A 
ATOM     26  O   UNL d   1      -3.014  -5.532   0.753  0.00  0.00    -0.319 OA
ATOM     27  C   UNL d   1      -3.845  -6.578   1.000  0.00  0.00     0.142 A 
ATOM     28  C   UNL d   1      -3.212  -7.769   0.738  0.00  0.00     0.027 A 
ATOM     29  C   UNL d   1      -1.910  -7.434   0.303  0.00  0.00     0.043 A 
ENDBRANCH  23  25
ENDBRANCH  22  23
ENDBRANCH  21  22
ENDBRANCH   5  21
TORSDOF 8
