REMARK  2 active torsions:
REMARK  status: ('A' for Active; 'I' for Inactive)
REMARK    1  A    between atoms: C_10  and  N_1 
REMARK    2  A    between atoms: C_7  and  C_2 
ROOT
ATOM      1  N   UNL d   1       0.882  -0.717   0.131  0.00  0.00    -0.302 N 
ATOM      2  C   UNL d   1       0.452   0.308  -0.698  0.00  0.00     0.142 A 
ATOM      3  N   UNL d   1      -0.721   0.792  -0.382  0.00  0.00    -0.282 N 
ATOM      4  HN  UNL d   1      -1.237   1.535  -0.855  1.00  0.00     0.188 HD
ATOM      5  C   UNL d   1      -0.126  -0.822   1.068  0.00  0.00     0.195 A 
ATOM      6  N   UNL d   1      -1.098   0.093   0.706  0.00  0.00    -0.274 N 
ATOM      7  S   UNL d   1      -0.329  -1.727   2.438  0.00  0.00    -0.039 SA
ATOM      8  H   UNL d   1      -1.963   0.281   1.202  0.00  0.00     0.189 HD
ENDROOT
BRANCH   1   9
ATOM      9  C   UNL d   1       2.097  -1.546  -0.103  0.00  0.00     0.094 C 
ATOM     10  C   UNL d   1       1.995  -2.386  -1.395  0.00  0.00     0.026 C 
ATOM     11  C   UNL d   1       1.462  -3.798  -1.185  0.00  0.00     0.002 C 
ATOM     12  C   UNL d   1       2.270  -4.543  -0.134  0.00  0.00     0.000 C 
ATOM     13  C   UNL d   1       2.240  -3.801   1.192  0.00  0.00     0.002 C 
ATOM     14  C   UNL d   1       2.704  -2.349   1.063  0.00  0.00     0.026 C 
ENDBRANCH   1   9
BRANCH   2  15
ATOM     15  C   UNL d   1       1.188   0.856  -1.822  0.00  0.00     0.050 A 
ATOM     16  S   UNL d   1       0.306   1.358  -3.216  0.00  0.00    -0.098 SA
ATOM     17  C   UNL d   1       1.716   1.886  -4.018  0.00  0.00     0.050 A 
ATOM     18  C   UNL d   1       2.844   1.690  -3.257  0.00  0.00     0.009 A 
ATOM     19  C   UNL d   1       2.535   1.125  -1.984  0.00  0.00     0.023 A 
ENDBRANCH   2  15
TORSDOF 2
