REMARK  5 active torsions:
REMARK  status: ('A' for Active; 'I' for Inactive)
REMARK    1  A    between atoms: C_6  and  C_1 
REMARK    2  A    between atoms: C_5  and  C_2 
REMARK    3  A    between atoms: O_14  and  C_3 
REMARK    4  A    between atoms: O_15  and  C_6 
REMARK    5  A    between atoms: O_16  and  C_9 
ROOT
ATOM      1  C   UNL d   1       0.923  -0.338   0.767  0.00  0.00     0.120 C 
ATOM      2  C   UNL d   1       0.357   0.887   0.762  0.00  0.00     0.042 C 
ATOM      3  C   UNL d   1       2.166  -0.610   1.408  0.00  0.00     0.105 C 
ATOM      4  N   UNL d   1       3.178  -0.805   1.946  0.00  0.00    -0.191 NA
ENDROOT
BRANCH   1   5
ATOM      5  C   UNL d   1       0.216  -1.430   0.052  0.00  0.00     0.303 C 
ATOM      6  O   UNL d   1      -0.851  -1.300  -0.526  0.00  0.00    -0.258 OA
BRANCH   5   7
ATOM      7  O   UNL d   1       0.934  -2.581   0.132  0.00  0.00    -0.322 OA
ATOM      8  C   UNL d   1       0.347  -3.698  -0.536  0.00  0.00     0.213 C 
ENDBRANCH   5   7
ENDBRANCH   1   5
BRANCH   2   9
ATOM      9  C   UNL d   1       1.017   2.054   1.371  0.00  0.00    -0.010 A 
ATOM     10  C   UNL d   1       1.873   2.898   0.630  0.00  0.00     0.080 A 
ATOM     11  C   UNL d   1       2.689   3.851   1.285  0.00  0.00     0.124 A 
ATOM     12 CL   UNL d   1       1.818   2.775  -1.109  0.00  0.00    -0.080 Cl
ATOM     13  C   UNL d   1       2.537   4.029   2.675  0.00  0.00     0.103 A 
ATOM     14  C   UNL d   1       1.615   3.240   3.379  0.00  0.00     0.040 A 
ATOM     15  C   UNL d   1       0.873   2.250   2.744  0.00  0.00     0.016 A 
BRANCH  11  16
ATOM     16  O   UNL d   1       3.564   4.670   0.616  0.00  0.00    -0.351 OA
ATOM     17  C   UNL d   1       4.465   4.026  -0.287  0.00  0.00     0.210 C 
ENDBRANCH  11  16
BRANCH  13  18
ATOM     18  O   UNL d   1       3.175   4.906   3.512  0.00  0.00    -0.353 OA
ATOM     19  C   UNL d   1       4.244   5.694   3.019  0.00  0.00     0.210 C 
ENDBRANCH  13  18
ENDBRANCH   2   9
TORSDOF 5
