REMARK  4 active torsions:
REMARK  status: ('A' for Active; 'I' for Inactive)
REMARK    1  A    between atoms: C_4  and  S_1 
REMARK    2  A    between atoms: N_8  and  S_1 
REMARK       I    between atoms: C_2  and  N_3 
REMARK    3  A    between atoms: C_7  and  C_2 
REMARK    4  A    between atoms: N_3  and  C_12 
ROOT
ATOM      1  C   UNL d   1       0.836   0.260   1.801  0.00  0.00     0.074 A 
ATOM      2  C   UNL d   1       0.499   1.054   2.899  0.00  0.00     0.027 A 
ATOM      3  C   UNL d   1       0.689  -1.123   1.866  0.00  0.00     0.027 A 
ATOM      4  C   UNL d   1      -0.068  -0.945   4.178  0.00  0.00     0.034 A 
ATOM      5  C   UNL d   1       0.050   0.450   4.082  0.00  0.00     0.031 A 
ATOM      6  C   UNL d   1       0.240  -1.718   3.052  0.00  0.00     0.031 A 
ENDROOT
BRANCH   4   7
ATOM      7  N   UNL d   1      -0.489  -1.484   5.419  0.00  0.00    -0.327 N 
ATOM      8  C   UNL d   1      -0.606  -2.827   5.747  0.00  0.00     0.229 C 
ATOM      9  O   UNL d   1      -0.343  -3.756   4.985  0.00  0.00    -0.272 OA
ATOM     10  H   UNL d   1      -0.690  -0.811   6.146  0.00  0.00     0.169 HD
BRANCH   8  11
ATOM     11  C   UNL d   1      -1.073  -3.113   7.197  0.00  0.00     0.030 C 
ATOM     12  C   UNL d   1      -2.437  -2.467   7.481  0.00  0.00     0.025 C 
ATOM     13  C   UNL d   1      -1.214  -4.639   7.377  0.00  0.00     0.025 C 
ATOM     14  C   UNL d   1      -0.034  -2.600   8.204  0.00  0.00     0.025 C 
ENDBRANCH   8  11
ENDBRANCH   4   7
BRANCH   1  15
ATOM     15  S   UNL d   1       1.392   1.017   0.302  0.00  0.00     0.239 S 
ATOM     16  O   UNL d   1       0.895   2.373   0.249  0.00  0.00    -0.206 OA
ATOM     17  O   UNL d   1       1.234   0.092  -0.795  0.00  0.00    -0.206 OA
BRANCH  15  18
ATOM     18  N   UNL d   1       3.046   1.143   0.565  0.00  0.00    -0.225 NA
ATOM     19  H   UNL d   1       3.320   2.125   0.599  0.00  0.00     0.136 HD
ATOM     20  H   UNL d   1       3.549   0.602  -0.141  0.00  0.00     0.136 HD
ENDBRANCH  15  18
ENDBRANCH   1  15
TORSDOF 4
