REMARK  4 active torsions:
REMARK  status: ('A' for Active; 'I' for Inactive)
REMARK    1  A    between atoms: C_7  and  C_1 
REMARK    2  A    between atoms: C_17  and  C_5 
REMARK       I    between atoms: N_16  and  C_7 
REMARK    3  A    between atoms: C_9  and  C_15 
REMARK    4  A    between atoms: N_13  and  N_16 
ROOT
ATOM      1  C   UNL d   1      -0.209  -2.597   0.040  0.00  0.00     0.279 C 
ATOM      2  N   UNL d   1       0.973  -3.342   0.126  0.00  0.00    -0.266 N 
ATOM      3  O   UNL d   1      -1.310  -3.139  -0.039  0.00  0.00    -0.265 OA
ATOM      4  H   UNL d   1       1.871  -2.877   0.196  0.00  0.00     0.190 HD
ENDROOT
BRANCH   1   5
ATOM      5  C   UNL d   1      -0.070  -1.144   0.047  0.00  0.00     0.098 A 
ATOM      6  S   UNL d   1       1.437  -0.332   0.161  0.00  0.00    -0.064 SA
ATOM      7  C   UNL d   1       0.642   1.199   0.070  0.00  0.00     0.085 A 
ATOM      8  N   UNL d   1      -0.670   1.121   0.007  0.00  0.00    -0.352 N 
ATOM      9  C   UNL d   1      -1.087  -0.201  -0.038  0.00  0.00     0.029 A 
ATOM     10  HN  UNL d   1      -1.297   1.925  -0.008  1.00  0.00     0.166 HD
ATOM     11  C   UNL d   1      -2.546  -0.462  -0.179  0.00  0.00     0.070 C 
BRANCH   7  12
ATOM     12  C   UNL d   1       1.388   2.472   0.077  0.00  0.00    -0.002 A 
ATOM     13  C   UNL d   1       2.680   2.591  -0.460  0.00  0.00     0.014 A 
ATOM     14  C   UNL d   1       3.340   3.824  -0.482  0.00  0.00     0.001 A 
ATOM     15  C   UNL d   1       2.719   4.959   0.032  0.00  0.00     0.000 A 
ATOM     16  C   UNL d   1       1.438   4.865   0.568  0.00  0.00     0.001 A 
ATOM     17  C   UNL d   1       0.777   3.631   0.586  0.00  0.00     0.014 A 
ENDBRANCH   7  12
ENDBRANCH   1   5
BRANCH   2  18
ATOM     18  N   UNL d   1       0.891  -4.711   0.164  0.00  0.00    -0.306 N 
ATOM     19  C   UNL d   1       1.995  -5.385   0.231  0.00  0.00     0.144 C 
ATOM     20  HN  UNL d   1      -0.012  -5.184   0.140  1.00  0.00     0.186 HD
BRANCH  19  21
ATOM     21  C   UNL d   1       1.954  -6.824   0.294  0.00  0.00     0.093 A 
ATOM     22  O   UNL d   1       3.134  -7.513   0.374  0.00  0.00    -0.308 OA
ATOM     23  C   UNL d   1       2.823  -8.843   0.415  0.00  0.00     0.086 A 
ATOM     24  C   UNL d   1       3.736  -9.893   0.499  0.00  0.00     0.038 A 
ATOM     25  C   UNL d   1       1.445  -9.017   0.358  0.00  0.00     0.000 A 
ATOM     26  C   UNL d   1       3.201 -11.188   0.517  0.00  0.00     0.003 A 
ATOM     27  C   UNL d   1       1.822 -11.402   0.454  0.00  0.00     0.001 A 
ATOM     28  C   UNL d   1       0.929 -10.325   0.378  0.00  0.00     0.014 A 
ATOM     29  C   UNL d   1       0.895  -7.712   0.290  0.00  0.00     0.053 A 
ENDBRANCH  19  21
ENDBRANCH   2  18
TORSDOF 4
