REMARK  3 active torsions:
REMARK  status: ('A' for Active; 'I' for Inactive)
REMARK    1  A    between atoms: C_6  and  C_1 
REMARK    2  A    between atoms: N_9  and  C_2 
REMARK       I    between atoms: C_8  and  N_9 
REMARK       I    between atoms: N_10  and  C_8 
REMARK    3  A    between atoms: C_13  and  N_10 
ROOT
ATOM      1  C   UNL d   1      -1.736  -0.924  -0.179  0.00  0.00     0.096 A 
ATOM      2  C   UNL d   1      -0.326  -1.190  -0.204  0.00  0.00     0.097 A 
ATOM      3  N   UNL d   1      -1.968   0.382  -0.381  0.00  0.00    -0.258 N 
ATOM      4  HN  UNL d   1      -2.869   0.858  -0.336  1.00  0.00     0.195 HD
ATOM      5  C   UNL d   1       0.234   0.009  -0.591  0.00  0.00     0.101 A 
ATOM      6  O   UNL d   1      -0.746   0.951  -0.661  0.00  0.00    -0.240 OA
ATOM      7  C   UNL d   1       1.555   0.464  -1.070  0.00  0.00     0.081 C 
ENDROOT
BRANCH   2   8
ATOM      8  N   UNL d   1       0.272  -2.420  -0.005  0.00  0.00    -0.304 N 
ATOM      9  C   UNL d   1       1.509  -2.772   0.452  0.00  0.00     0.325 C 
ATOM     10  N   UNL d   1       2.168  -1.842   1.212  0.00  0.00    -0.309 N 
ATOM     11  O   UNL d   1       1.870  -3.930   0.254  0.00  0.00    -0.247 OA
ATOM     12  H   UNL d   1       1.635  -1.020   1.453  0.00  0.00     0.170 HD
ATOM     13  H   UNL d   1      -0.292  -3.237  -0.226  0.00  0.00     0.171 HD
BRANCH  10  14
ATOM     14  C   UNL d   1       3.383  -2.034   1.911  0.00  0.00     0.036 A 
ATOM     15  C   UNL d   1       4.218  -3.143   1.728  0.00  0.00     0.032 A 
ATOM     16  C   UNL d   1       5.391  -3.284   2.475  0.00  0.00     0.044 A 
ATOM     17  C   UNL d   1       5.735  -2.313   3.404  0.00  0.00     0.116 A 
ATOM     18  C   UNL d   1       4.928  -1.200   3.596  0.00  0.00     0.044 A 
ATOM     19  F   UNL d   1       6.857  -2.451   4.122  0.00  0.00    -0.206 F 
ATOM     20  C   UNL d   1       3.754  -1.058   2.848  0.00  0.00     0.032 A 
ENDBRANCH  10  14
ENDBRANCH   2   8
BRANCH   1  21
ATOM     21  C   UNL d   1      -2.834  -1.843   0.121  0.00  0.00     0.017 A 
ATOM     22  C   UNL d   1      -3.035  -3.050  -0.571  0.00  0.00     0.046 A 
ATOM     23 CL   UNL d   1      -2.062  -3.535  -1.917  0.00  0.00    -0.083 Cl
ATOM     24  C   UNL d   1      -4.073  -3.913  -0.203  0.00  0.00     0.025 A 
ATOM     25  C   UNL d   1      -4.935  -3.575   0.839  0.00  0.00     0.002 A 
ATOM     26  C   UNL d   1      -4.767  -2.368   1.512  0.00  0.00     0.001 A 
ATOM     27  C   UNL d   1      -3.725  -1.508   1.157  0.00  0.00     0.015 A 
ENDBRANCH   1  21
TORSDOF 3
