REMARK  8 active torsions:
REMARK  status: ('A' for Active; 'I' for Inactive)
REMARK    1  A    between atoms: S_3  and  C_1 
REMARK    2  A    between atoms: C_15  and  N_2 
REMARK    3  A    between atoms: C_10  and  S_3 
REMARK    4  A    between atoms: N_6  and  C_11 
REMARK    5  A    between atoms: C_21  and  C_9 
REMARK    6  A    between atoms: C_18  and  C_23 
REMARK    7  A    between atoms: S_19  and  C_21 
REMARK    8  A    between atoms: C_23  and  S_19 
ROOT
ATOM      1  C   UNL d   1      -0.447  -0.832  -0.001  0.00  0.00     0.174 A 
ATOM      2  N   UNL d   1       0.848  -0.415   0.275  0.00  0.00    -0.278 N 
ATOM      3  N   UNL d   1      -1.241   0.207  -0.130  0.00  0.00    -0.278 N 
ATOM      4  HN  UNL d   1      -2.245   0.174  -0.306  1.00  0.00     0.189 HD
ATOM      5  N   UNL d   1      -0.489   1.339   0.012  0.00  0.00    -0.286 N 
ATOM      6  HN  UNL d   1      -0.837   2.296  -0.044  1.00  0.00     0.188 HD
ATOM      7  C   UNL d   1       0.765   0.986   0.234  0.00  0.00     0.114 A 
ENDROOT
BRANCH   7   8
ATOM      8  C   UNL d   1       1.945   1.902   0.345  0.00  0.00     0.152 C 
BRANCH   8   9
ATOM      9  S   UNL d   1       1.817   3.543  -0.419  0.00  0.00    -0.157 SA
BRANCH   9  10
ATOM     10  C   UNL d   1       0.643   4.412   0.663  0.00  0.00     0.113 C 
BRANCH  10  11
ATOM     11  C   UNL d   1       0.759   4.182   2.155  0.00  0.00    -0.038 A 
ATOM     12  C   UNL d   1       1.658   4.894   3.003  0.00  0.00    -0.019 A 
ATOM     13  C   UNL d   1       1.589   4.668   4.405  0.00  0.00    -0.025 A 
ATOM     14  C   UNL d   1       2.607   5.840   2.550  0.00  0.00     0.013 A 
ATOM     15  C   UNL d   1       2.404   5.399   5.285  0.00  0.00     0.012 A 
ATOM     16  C   UNL d   1       0.692   3.726   4.926  0.00  0.00     0.012 A 
ATOM     17  C   UNL d   1       3.307   6.345   4.807  0.00  0.00     0.001 A 
ATOM     18  C   UNL d   1       3.418   6.556   3.440  0.00  0.00     0.001 A 
ATOM     19  C   UNL d   1      -0.160   3.016   4.090  0.00  0.00     0.001 A 
ATOM     20  C   UNL d   1      -0.138   3.257   2.724  0.00  0.00     0.009 A 
ENDBRANCH  10  11
ENDBRANCH   9  10
ENDBRANCH   8   9
ENDBRANCH   7   8
BRANCH   2  21
ATOM     21  C   UNL d   1       2.029  -1.186   0.488  0.00  0.00     0.043 A 
ATOM     22  C   UNL d   1       2.295  -2.329  -0.276  0.00  0.00     0.030 A 
ATOM     23  C   UNL d   1       3.492  -3.030  -0.099  0.00  0.00     0.002 A 
ATOM     24  C   UNL d   1       4.434  -2.592   0.829  0.00  0.00     0.000 A 
ATOM     25  C   UNL d   1       4.172  -1.466   1.602  0.00  0.00     0.002 A 
ATOM     26  C   UNL d   1       2.969  -0.775   1.445  0.00  0.00     0.030 A 
ENDBRANCH   2  21
BRANCH   1  27
ATOM     27  S   UNL d   1      -0.995  -2.464  -0.198  0.00  0.00    -0.032 SA
BRANCH  27  28
ATOM     28  C   UNL d   1      -1.316  -2.976   1.484  0.00  0.00     0.110 A 
ATOM     29  C   UNL d   1      -2.129  -4.061   1.792  0.00  0.00     0.136 A 
ATOM     30  C   UNL d   1      -2.357  -4.446   3.121  0.00  0.00     0.040 A 
ATOM     31  C   UNL d   1      -1.738  -3.721   4.128  0.00  0.00     0.020 A 
ATOM     32  C   UNL d   1      -0.925  -2.659   3.761  0.00  0.00     0.089 A 
ATOM     33  N   UNL d   1      -0.702  -2.279   2.478  0.00  0.00    -0.358 N 
ATOM     34  HN  UNL d   1      -0.089  -1.491   2.265  1.00  0.00     0.166 HD
BRANCH  29  35
ATOM     35  N   UNL d   1      -2.743  -4.854   0.757  0.00  0.00    -0.113 N 
ATOM     36  O   UNL d   1      -1.998  -5.559   0.071  0.00  0.00    -0.532 OA
ATOM     37  O   UNL d   1      -3.980  -4.820   0.685  0.00  0.00    -0.532 OA
ENDBRANCH  29  35
ENDBRANCH  27  28
ENDBRANCH   1  27
TORSDOF 8
