REMARK  6 active torsions:
REMARK  status: ('A' for Active; 'I' for Inactive)
REMARK    1  A    between atoms: C_8  and  N_1 
REMARK    2  A    between atoms: S_10  and  C_2 
REMARK    3  A    between atoms: C_14  and  C_7 
REMARK    4  A    between atoms: C_11  and  C_15 
REMARK    5  A    between atoms: S_12  and  C_14 
REMARK    6  A    between atoms: C_15  and  S_12 
ROOT
ATOM      1  N   UNL d   1      -0.248  -0.434   1.033  0.00  0.00    -0.310 N 
ATOM      2  C   UNL d   1       0.917  -0.491   0.286  0.00  0.00     0.160 A 
ATOM      3  N   UNL d   1       0.631  -0.574  -0.989  0.00  0.00    -0.278 N 
ATOM      4  HN  UNL d   1       1.304  -0.619  -1.754  1.00  0.00     0.189 HD
ATOM      5  N   UNL d   1      -0.725  -0.588  -1.109  0.00  0.00    -0.286 N 
ATOM      6  HN  UNL d   1      -1.241  -0.646  -1.987  1.00  0.00     0.188 HD
ATOM      7  C   UNL d   1      -1.264  -0.513   0.095  0.00  0.00     0.110 A 
ENDROOT
BRANCH   7   8
ATOM      8  C   UNL d   1      -2.737  -0.422   0.288  0.00  0.00     0.152 C 
BRANCH   8   9
ATOM      9  S   UNL d   1      -3.480  -1.916   1.001  0.00  0.00    -0.157 SA
BRANCH   9  10
ATOM     10  C   UNL d   1      -5.223  -1.460   0.739  0.00  0.00     0.113 C 
BRANCH  10  11
ATOM     11  C   UNL d   1      -6.201  -2.443   1.346  0.00  0.00    -0.038 A 
ATOM     12  C   UNL d   1      -6.683  -3.586   0.642  0.00  0.00    -0.019 A 
ATOM     13  C   UNL d   1      -7.669  -4.401   1.262  0.00  0.00    -0.025 A 
ATOM     14  C   UNL d   1      -6.248  -3.965  -0.647  0.00  0.00     0.013 A 
ATOM     15  C   UNL d   1      -8.187  -5.520   0.587  0.00  0.00     0.012 A 
ATOM     16  C   UNL d   1      -8.128  -4.090   2.549  0.00  0.00     0.012 A 
ATOM     17  C   UNL d   1      -7.741  -5.859  -0.686  0.00  0.00     0.001 A 
ATOM     18  C   UNL d   1      -6.768  -5.086  -1.303  0.00  0.00     0.001 A 
ATOM     19  C   UNL d   1      -7.626  -2.994   3.242  0.00  0.00     0.001 A 
ATOM     20  C   UNL d   1      -6.670  -2.178   2.647  0.00  0.00     0.009 A 
ENDBRANCH  10  11
ENDBRANCH   9  10
ENDBRANCH   8   9
ENDBRANCH   7   8
BRANCH   1  21
ATOM     21  C   UNL d   1      -0.297  -0.255   2.478  0.00  0.00     0.093 C 
ATOM     22  C   UNL d   1      -1.498   0.489   3.080  0.00  0.00     0.026 C 
ATOM     23  C   UNL d   1      -1.228   0.824   4.550  0.00  0.00     0.002 C 
ATOM     24  C   UNL d   1      -0.890  -0.423   5.367  0.00  0.00     0.000 C 
ATOM     25  C   UNL d   1       0.218  -1.260   4.730  0.00  0.00     0.002 C 
ATOM     26  C   UNL d   1      -0.061  -1.563   3.256  0.00  0.00     0.026 C 
ENDBRANCH   1  21
BRANCH   2  27
ATOM     27  S   UNL d   1       2.547  -0.444   0.878  0.00  0.00    -0.105 SA
ATOM     28  H   UNL d   1       2.356  -0.339   2.196  0.00  0.00     0.110 HD
ENDBRANCH   2  27
TORSDOF 6
