REMARK  8 active torsions:
REMARK  status: ('A' for Active; 'I' for Inactive)
REMARK       I    between atoms: N_2  and  C_1 
REMARK    1  A    between atoms: C_15  and  C_1 
REMARK    2  A    between atoms: C_7  and  N_2 
REMARK    3  A    between atoms: C_3  and  C_16 
REMARK    4  A    between atoms: O_9  and  C_3 
REMARK    5  A    between atoms: O_6  and  C_8 
REMARK    6  A    between atoms: C_10  and  O_6 
REMARK    7  A    between atoms: C_17  and  C_15 
REMARK    8  A    between atoms: C_16  and  C_17 
ROOT
ATOM      1  C   UNL d   1       0.825   0.562  -2.552  0.00  0.00     0.034 C 
ATOM      2  C   UNL d   1       2.127   1.051  -4.982  0.00  0.00     0.076 C 
ATOM      3  C   UNL d   1       1.590  -0.435  -3.161  0.00  0.00     0.032 C 
ATOM      4  C   UNL d   1       0.590   1.753  -3.249  0.00  0.00     0.032 C 
ATOM      5  C   UNL d   1       2.221  -0.203  -4.381  0.00  0.00     0.039 C 
ATOM      6  C   UNL d   1       1.255   2.003  -4.457  0.00  0.00     0.039 C 
ENDROOT
BRANCH   1   7
ATOM      7  N   UNL d   1       0.315   0.438  -1.237  0.00  0.00    -0.327 N 
ATOM      8  C   UNL d   1       0.808  -0.429  -0.279  0.00  0.00     0.222 C 
ATOM      9  O   UNL d   1       1.730  -1.226  -0.439  0.00  0.00    -0.273 OA
ATOM     10  H   UNL d   1      -0.305   1.173  -0.923  0.00  0.00     0.169 HD
BRANCH   8  11
ATOM     11  C   UNL d   1       0.143  -0.267   1.076  0.00  0.00     0.103 C 
BRANCH  11  12
ATOM     12  C   UNL d   1       0.701  -1.226   2.141  0.00  0.00     0.019 C 
BRANCH  12  13
ATOM     13  C   UNL d   1       2.162  -0.977   2.539  0.00  0.00     0.110 C 
BRANCH  13  14
ATOM     14  C   UNL d   1       2.356   0.388   3.144  0.00  0.00     0.139 C 
ATOM     15  O   UNL d   1       1.724   0.806   4.100  0.00  0.00    -0.650 OA
BRANCH  14  16
ATOM     16  O   UNL d   1       3.284   1.138   2.506  0.00  0.00    -0.776 OA
ATOM     17  H   UNL d   1       3.719   0.689   1.756  0.00  0.00     0.167 HD
ENDBRANCH  14  16
ENDBRANCH  13  14
ENDBRANCH  12  13
ENDBRANCH  11  12
ENDBRANCH   8  11
ENDBRANCH   1   7
BRANCH   2  18
ATOM     18  O   UNL d   1       2.858   1.400  -6.096  0.00  0.00    -0.311 OA
BRANCH  18  19
ATOM     19  C   UNL d   1       4.194   1.042  -6.145  0.00  0.00     0.076 A 
ATOM     20  C   UNL d   1       4.733   0.860  -7.419  0.00  0.00     0.037 A 
ATOM     21  C   UNL d   1       6.065   0.468  -7.569  0.00  0.00     0.003 A 
ATOM     22  C   UNL d   1       6.864   0.257  -6.446  0.00  0.00     0.000 A 
ATOM     23  C   UNL d   1       6.342   0.475  -5.172  0.00  0.00     0.003 A 
ATOM     24  C   UNL d   1       5.017   0.891  -5.023  0.00  0.00     0.037 A 
ENDBRANCH  18  19
ENDBRANCH   2  18
TORSDOF 8
