REMARK  3 active torsions:
REMARK  status: ('A' for Active; 'I' for Inactive)
REMARK       I    between atoms: N_2  and  C_1 
REMARK    1  A    between atoms: C_8  and  C_1 
REMARK    2  A    between atoms: C_12  and  C_11 
REMARK    3  A    between atoms: C_15  and  C_13 
ROOT
ATOM      1  C   UNL d   1      -1.753   0.564   2.502  0.00  0.00     0.001 C 
ATOM      2  C   UNL d   1      -3.082   0.425   2.648  0.00  0.00     0.011 C 
ENDROOT
BRANCH   1   3
ATOM      3  C   UNL d   1      -1.062   0.195   1.287  0.00  0.00     0.005 C 
ATOM      4  C   UNL d   1       0.255   0.360   1.100  0.00  0.00     0.074 C 
BRANCH   4   5
ATOM      5  C   UNL d   1       0.852  -0.155  -0.157  0.00  0.00     0.243 C 
ATOM      6  N   UNL d   1       1.751   0.663  -0.817  0.00  0.00    -0.349 N 
ATOM      7  C   UNL d   1       2.034   2.066  -0.509  0.00  0.00     0.126 C 
ATOM      8  C   UNL d   1       2.352   0.178  -2.057  0.00  0.00     0.126 C 
ATOM      9  C   UNL d   1       1.604   2.973  -1.664  0.00  0.00     0.020 C 
ATOM     10  C   UNL d   1       2.179   2.504  -3.001  0.00  0.00     0.003 C 
ATOM     11  C   UNL d   1       1.889   1.022  -3.241  0.00  0.00     0.020 C 
ATOM     12  O   UNL d   1       0.534  -1.274  -0.555  0.00  0.00    -0.268 OA
ENDBRANCH   4   5
ENDBRANCH   1   3
BRANCH   2  13
ATOM     13  C   UNL d   1      -3.827   0.728   3.883  0.00  0.00    -0.033 A 
ATOM     14  C   UNL d   1      -4.993  -0.005   4.159  0.00  0.00     0.051 A 
ATOM     15  C   UNL d   1      -5.683   0.275   5.322  0.00  0.00     0.105 A 
ATOM     16  O   UNL d   1      -6.812  -0.353   5.748  0.00  0.00    -0.323 OA
ATOM     17  C   UNL d   1      -5.269   1.253   6.193  0.00  0.00     0.105 A 
ATOM     18  C   UNL d   1      -7.029   0.307   7.013  0.00  0.00     0.352 A 
ATOM     19  O   UNL d   1      -6.081   1.362   7.278  0.00  0.00    -0.323 OA
ATOM     20  C   UNL d   1      -4.150   2.013   5.945  0.00  0.00     0.040 A 
ATOM     21  C   UNL d   1      -3.428   1.748   4.774  0.00  0.00     0.014 A 
ENDBRANCH   2  13
TORSDOF 3
