REMARK  2 active torsions:
REMARK  status: ('A' for Active; 'I' for Inactive)
REMARK    1  A    between atoms: C_7  and  C_4 
REMARK    2  A    between atoms: O_15  and  C_7 
ROOT
ATOM      1  C   UNL d   1      -0.897  -0.563   0.005  0.00  0.00     0.027 A 
ATOM      2  S   UNL d   1      -1.763  -2.015   0.022  0.00  0.00    -0.083 SA
ATOM      3  C   UNL d   1      -1.712   0.543  -0.007  0.00  0.00    -0.015 A 
ATOM      4  C   UNL d   1      -3.274  -1.202   0.010  0.00  0.00     0.081 A 
ATOM      5  C   UNL d   1       0.550  -0.445   0.002  0.00  0.00     0.018 A 
ATOM      6  C   UNL d   1      -3.097   0.173  -0.003  0.00  0.00     0.036 A 
ATOM      7  O   UNL d   1       0.324   2.005   0.023  0.00  0.00    -0.346 OA
ATOM      8  C   UNL d   1       1.079   0.859   0.008  0.00  0.00     0.081 A 
ATOM      9  C   UNL d   1      -1.122   1.914  -0.030  0.00  0.00     0.215 A 
ATOM     10  C   UNL d   1       1.421  -1.541  -0.004  0.00  0.00     0.058 A 
ATOM     11  C   UNL d   1       2.466   1.050   0.010  0.00  0.00     0.040 A 
ATOM     12  C   UNL d   1       2.794  -1.333  -0.004  0.00  0.00     0.117 A 
ATOM     13  C   UNL d   1       3.326  -0.049   0.003  0.00  0.00     0.045 A 
ATOM     14  F   UNL d   1       3.620  -2.386  -0.009  0.00  0.00    -0.206 F 
ENDROOT
BRANCH   4  15
ATOM     15  C   UNL d   1      -4.480  -2.008   0.012  0.00  0.00     0.299 C 
ATOM     16  O   UNL d   1      -4.531  -3.234   0.021  0.00  0.00    -0.259 OA
BRANCH  15  17
ATOM     17  O   UNL d   1      -5.589  -1.208   0.001  0.00  0.00    -0.322 OA
ATOM     18  C   UNL d   1      -6.810  -1.950  -0.002  0.00  0.00     0.213 C 
ENDBRANCH  15  17
ENDBRANCH   4  15
TORSDOF 2
