REMARK  3 active torsions:
REMARK  status: ('A' for Active; 'I' for Inactive)
REMARK    1  A    between atoms: C_4  and  C_1 
REMARK       I    between atoms: N_8  and  C_4 
REMARK       I    between atoms: C_5  and  N_9 
REMARK    2  A    between atoms: O_10  and  C_5 
REMARK    3  A    between atoms: C_16  and  O_10 
ROOT
ATOM      1  C   UNL d   1       3.951  -0.031   0.265  0.00  0.00     0.262 C 
ATOM      2  C   UNL d   1       6.672  -4.607  -0.828  0.00  0.00     0.363 C 
ATOM      3  N   UNL d   1       4.504  -1.300  -0.063  0.00  0.00    -0.346 N 
ATOM      4  N   UNL d   1       6.738  -3.234  -0.677  0.00  0.00    -0.326 N 
ATOM      5  O   UNL d   1       4.119   0.417   1.406  0.00  0.00    -0.267 OA
ATOM      6  O   UNL d   1       6.732  -5.168  -1.918  0.00  0.00    -0.238 OA
ATOM      7  C   UNL d   1       6.628  -2.525   0.606  0.00  0.00     0.148 C 
ATOM      8  C   UNL d   1       5.200  -2.079   0.981  0.00  0.00     0.146 C 
ATOM      9  C   UNL d   1       5.438  -1.867  -2.307  0.00  0.00     0.040 C 
ATOM     10  C   UNL d   1       6.790  -2.417  -1.870  0.00  0.00     0.129 C 
ATOM     11  C   UNL d   1       4.280  -2.025  -1.319  0.00  0.00     0.127 C 
ENDROOT
BRANCH   1  12
ATOM     12  C   UNL d   1       3.168   0.716  -0.720  0.00  0.00     0.096 C 
ATOM     13  S   UNL d   1       3.753   0.991  -2.301  0.00  0.00    -0.082 SA
ATOM     14  C   UNL d   1       2.276   1.637  -2.853  0.00  0.00     0.017 A 
ATOM     15  C   UNL d   1       1.918   1.889  -4.191  0.00  0.00     0.020 A 
ATOM     16  C   UNL d   1       1.447   1.955  -1.779  0.00  0.00     0.004 A 
ATOM     17  C   UNL d   1       0.718   2.546  -4.450  0.00  0.00     0.001 A 
ATOM     18  C   UNL d   1      -0.093   2.959  -3.403  0.00  0.00     0.001 A 
ATOM     19  C   UNL d   1       0.254   2.667  -2.075  0.00  0.00     0.014 A 
ATOM     20  C   UNL d   1       1.999   1.442  -0.539  0.00  0.00     0.068 C 
ATOM     21 CL   UNL d   1       1.181   1.656   0.959  0.00  0.00    -0.082 Cl
ENDBRANCH   1  12
BRANCH   2  22
ATOM     22  O   UNL d   1       6.548  -5.258   0.354  0.00  0.00    -0.294 OA
BRANCH  22  23
ATOM     23  C   UNL d   1       6.691  -6.704   0.410  0.00  0.00     0.061 C 
ATOM     24  C   UNL d   1       8.082  -7.131  -0.082  0.00  0.00     0.046 C 
ATOM     25  C   UNL d   1       6.561  -7.039   1.904  0.00  0.00     0.046 C 
ATOM     26  C   UNL d   1       5.577  -7.430  -0.354  0.00  0.00     0.046 C 
ENDBRANCH  22  23
ENDBRANCH   2  22
TORSDOF 3
