REMARK  4 active torsions:
REMARK  status: ('A' for Active; 'I' for Inactive)
REMARK    1  A    between atoms: N_6  and  S_1 
REMARK    2  A    between atoms: C_8  and  S_1 
REMARK    3  A    between atoms: C_3  and  C_15 
REMARK    4  A    between atoms: C_10  and  N_6 
ROOT
ATOM      1  S   UNL d   1       1.205  -0.084   0.129  0.00  0.00     0.259 S 
ATOM      2  O   UNL d   1       0.588  -0.143  -1.179  0.00  0.00    -0.201 OA
ATOM      3  O   UNL d   1       1.010  -1.121   1.116  0.00  0.00    -0.201 OA
ENDROOT
BRANCH   1   4
ATOM      4  N   UNL d   1       0.731   1.386   0.798  0.00  0.00    -0.310 N 
ATOM      5  H   UNL d   1      -0.038   1.778   0.253  0.00  0.00     0.172 HD
BRANCH   4   6
ATOM      6  C   UNL d   1       0.608   1.510   2.265  0.00  0.00     0.101 C 
ATOM      7  C   UNL d   1       1.906   1.229   3.046  0.00  0.00     0.065 C 
ATOM      8  C   UNL d   1       1.680   2.053   4.278  0.00  0.00    -0.050 A 
ATOM      9  C   UNL d   1       2.290   1.934   5.515  0.00  0.00     0.007 A 
ATOM     10  C   UNL d   1       0.744   3.063   4.030  0.00  0.00    -0.050 A 
ATOM     11  C   UNL d   1       1.952   2.855   6.509  0.00  0.00     0.001 A 
ATOM     12  C   UNL d   1       1.038   3.889   6.248  0.00  0.00     0.001 A 
ATOM     13  C   UNL d   1       0.429   4.002   4.997  0.00  0.00     0.007 A 
ATOM     14  C   UNL d   1       0.214   2.961   2.635  0.00  0.00     0.065 C 
ENDBRANCH   4   6
ENDBRANCH   1   4
BRANCH   1  15
ATOM     15  C   UNL d   1       2.942   0.154  -0.128  0.00  0.00     0.079 A 
ATOM     16  C   UNL d   1       3.865  -0.690   0.490  0.00  0.00     0.026 A 
ATOM     17  C   UNL d   1       5.233  -0.494   0.269  0.00  0.00     0.015 A 
ATOM     18  C   UNL d   1       5.681   0.539  -0.570  0.00  0.00    -0.008 A 
ATOM     19  C   UNL d   1       4.736   1.378  -1.180  0.00  0.00     0.015 A 
ATOM     20  C   UNL d   1       3.369   1.185  -0.968  0.00  0.00     0.026 A 
BRANCH  18  21
ATOM     21  C   UNL d   1       7.101   0.767  -0.809  0.00  0.00     0.063 A 
ATOM     22  N   UNL d   1       7.588   2.041  -1.086  0.00  0.00    -0.292 N 
ATOM     23  N   UNL d   1       8.897   2.042  -1.271  0.00  0.00    -0.061 NA
ATOM     24  HN  UNL d   1       7.003   2.875  -1.140  1.00  0.00     0.183 HD
ATOM     25  S   UNL d   1       9.573   0.519  -1.138  0.00  0.00    -0.010 SA
ATOM     26  C   UNL d   1       8.064  -0.228  -0.808  0.00  0.00     0.096 A 
ENDBRANCH  18  21
ENDBRANCH   1  15
TORSDOF 4
