REMARK  5 active torsions:
REMARK  status: ('A' for Active; 'I' for Inactive)
REMARK    1  A    between atoms: C_9  and  C_1 
REMARK    2  A    between atoms: C_8  and  C_2 
REMARK    3  A    between atoms: C_7  and  C_3 
REMARK    4  A    between atoms: O_16  and  C_8 
REMARK    5  A    between atoms: O_17  and  C_9 
ROOT
ATOM      1  C   UNL d   1      -1.247  -1.041   0.127  0.00  0.00     0.053 C 
ATOM      2  C   UNL d   1       1.309  -1.009   0.098  0.00  0.00     0.053 C 
ATOM      3  C   UNL d   1       0.045  -1.850  -0.107  0.00  0.00     0.108 C 
ATOM      4  C   UNL d   1      -1.214   0.311   0.037  0.00  0.00     0.018 C 
ATOM      5  C   UNL d   1       1.242   0.340   0.025  0.00  0.00     0.018 C 
ATOM      6  N   UNL d   1       0.007   0.951  -0.146  0.00  0.00    -0.362 N 
ATOM      7  C   UNL d   1      -2.387   1.258   0.127  0.00  0.00     0.069 C 
ATOM      8  C   UNL d   1       2.430   1.261   0.125  0.00  0.00     0.069 C 
ATOM      9  H   UNL d   1      -0.006   1.969  -0.141  0.00  0.00     0.165 HD
ENDROOT
BRANCH   3  10
ATOM     10  C   UNL d   1       0.037  -2.469  -1.509  0.00  0.00    -0.004 A 
ATOM     11  S   UNL d   1      -0.020  -4.166  -1.732  0.00  0.00    -0.105 SA
ATOM     12  C   UNL d   1      -0.020  -4.003  -3.437  0.00  0.00     0.050 A 
ATOM     13  C   UNL d   1       0.027  -2.689  -3.833  0.00  0.00     0.008 A 
ATOM     14  C   UNL d   1       0.057  -1.802  -2.722  0.00  0.00     0.016 A 
ENDBRANCH   3  10
BRANCH   2  15
ATOM     15  C   UNL d   1       2.595  -1.714   0.335  0.00  0.00     0.291 C 
ATOM     16  O   UNL d   1       3.695  -1.246   0.090  0.00  0.00    -0.260 OA
BRANCH  15  17
ATOM     17  O   UNL d   1       2.385  -2.927   0.906  0.00  0.00    -0.323 OA
ATOM     18  C   UNL d   1       3.590  -3.631   1.220  0.00  0.00     0.213 C 
ENDBRANCH  15  17
ENDBRANCH   2  15
BRANCH   1  19
ATOM     19  C   UNL d   1      -2.485  -1.828   0.392  0.00  0.00     0.291 C 
ATOM     20  O   UNL d   1      -3.627  -1.455   0.172  0.00  0.00    -0.260 OA
BRANCH  19  21
ATOM     21  O   UNL d   1      -2.160  -3.026   0.943  0.00  0.00    -0.323 OA
ATOM     22  C   UNL d   1      -3.265  -3.891   1.210  0.00  0.00     0.213 C 
ENDBRANCH  19  21
ENDBRANCH   1  19
TORSDOF 5
