REMARK  4 active torsions:
REMARK  status: ('A' for Active; 'I' for Inactive)
REMARK    1  A    between atoms: C_16  and  N_3 
REMARK    2  A    between atoms: S_6  and  C_15 
REMARK    3  A    between atoms: N_7  and  S_6 
REMARK    4  A    between atoms: C_8  and  N_7 
ROOT
ATOM      1  C   UNL d   1       6.770   0.182  -0.060  0.00  0.00     0.075 A 
ATOM      2  C   UNL d   1       3.950   0.028   0.050  0.00  0.00     0.046 A 
ATOM      3  C   UNL d   1       6.074   0.874   0.930  0.00  0.00     0.027 A 
ATOM      4  C   UNL d   1       6.078  -0.565  -1.008  0.00  0.00     0.027 A 
ATOM      5  C   UNL d   1       4.675   0.794   0.980  0.00  0.00     0.032 A 
ATOM      6  C   UNL d   1       4.684  -0.646  -0.944  0.00  0.00     0.032 A 
ENDROOT
BRANCH   1   7
ATOM      7  S   UNL d   1       8.530   0.370  -0.189  0.00  0.00     0.248 S 
ATOM      8  O   UNL d   1       8.884   0.084  -1.574  0.00  0.00    -0.205 OA
ATOM      9  O   UNL d   1       8.886   1.650   0.392  0.00  0.00    -0.205 OA
BRANCH   7  10
ATOM     10  N   UNL d   1       9.137  -0.909   0.706  0.00  0.00    -0.151 NA
ATOM     11  H   UNL d   1      10.014  -1.209   0.293  0.00  0.00     0.149 HD
BRANCH  10  12
ATOM     12  C   UNL d   1       9.279  -0.611   2.056  0.00  0.00     0.171 A 
ATOM     13  N   UNL d   1       8.248  -0.884   2.859  0.00  0.00    -0.336 N 
ATOM     14  C   UNL d   1       8.395  -0.504   4.140  0.00  0.00     0.009 A 
ATOM     15  HN  UNL d   1       7.405  -1.350   2.523  1.00  0.00     0.168 HD
ATOM     16  C   UNL d   1       7.293  -0.848   5.098  0.00  0.00     0.068 C 
ATOM     17  C   UNL d   1       9.504   0.199   4.583  0.00  0.00     0.049 A 
ATOM     18  C   UNL d   1      10.492   0.452   3.647  0.00  0.00     0.009 A 
ATOM     19  N   UNL d   1      10.416   0.009   2.383  0.00  0.00    -0.336 N 
ATOM     20  C   UNL d   1      11.680   1.294   4.008  0.00  0.00     0.068 C 
ATOM     21  HN  UNL d   1      11.177   0.137   1.716  1.00  0.00     0.168 HD
ENDBRANCH  10  12
ENDBRANCH   7  10
ENDBRANCH   1   7
BRANCH   2  22
ATOM     22  N   UNL d   1       2.525  -0.058   0.100  0.00  0.00    -0.243 N 
ATOM     23  C   UNL d   1       1.770  -1.030  -0.500  0.00  0.00     0.273 A 
ATOM     24  C   UNL d   1       0.350  -0.726  -0.220  0.00  0.00     0.091 A 
ATOM     25  O   UNL d   1       2.137  -2.035  -1.103  0.00  0.00    -0.266 OA
ATOM     26  C   UNL d   1       0.310   0.331   0.576  0.00  0.00     0.091 A 
ATOM     27  S   UNL d   1      -0.925  -1.652  -0.874  0.00  0.00    -0.122 SA
ATOM     28  C   UNL d   1       1.700   0.811   0.770  0.00  0.00     0.273 A 
ATOM     29  S   UNL d   1      -1.029   1.089   1.313  0.00  0.00    -0.122 SA
ATOM     30  O   UNL d   1       1.977   1.836   1.371  0.00  0.00    -0.266 OA
ATOM     31  C   UNL d   1      -2.434   0.385   0.403  0.00  0.00     0.090 C 
ATOM     32  C   UNL d   1      -2.355  -1.109   0.104  0.00  0.00     0.090 C 
ENDBRANCH   2  22
TORSDOF 4
