REMARK  2 active torsions:
REMARK  status: ('A' for Active; 'I' for Inactive)
REMARK    1  A    between atoms: C_11  and  N_3 
REMARK    2  A    between atoms: C_13  and  C_11 
ROOT
ATOM      1  C   UNL d   1       1.278   0.160   0.832  0.00  0.00     0.155 A 
ATOM      2  C   UNL d   1       0.977  -0.964   0.097  0.00  0.00     0.160 A 
ATOM      3  N   UNL d   1       1.533   1.107  -0.119  0.00  0.00    -0.254 N 
ATOM      4  N   UNL d   1       1.063  -0.700  -1.235  0.00  0.00    -0.276 N 
ATOM      5  HN  UNL d   1       0.889  -1.359  -1.993  1.00  0.00     0.184 HD
ATOM      6  N   UNL d   1       1.415   0.579  -1.365  0.00  0.00    -0.018 NA
ATOM      7  N   UNL d   1       1.315   0.294   2.180  0.00  0.00    -0.335 N 
ATOM      8  HN  UNL d   1       1.560   1.162   2.657  1.00  0.00     0.168 HD
ATOM      9  C   UNL d   1       0.654  -2.175   0.803  0.00  0.00     0.278 A 
ATOM     10  N   UNL d   1       0.681  -2.003   2.180  0.00  0.00    -0.318 N 
ATOM     11  C   UNL d   1       1.004  -0.806   2.797  0.00  0.00     0.185 A 
ATOM     12  O   UNL d   1       0.383  -3.253   0.287  0.00  0.00    -0.265 OA
ATOM     13  H   UNL d   1       0.463  -2.821   2.728  0.00  0.00     0.169 HD
ENDROOT
BRANCH   3  14
ATOM     14  C   UNL d   1       1.967   2.479   0.066  0.00  0.00     0.189 C 
BRANCH  14  15
ATOM     15  C   UNL d   1       0.795   3.430   0.113  0.00  0.00    -0.017 A 
ATOM     16  C   UNL d   1       0.236   3.900   1.312  0.00  0.00     0.042 A 
ATOM     17 CL   UNL d   1       0.904   3.523   2.858  0.00  0.00    -0.084 Cl
ATOM     18  C   UNL d   1      -0.893   4.728   1.294  0.00  0.00     0.024 A 
ATOM     19  C   UNL d   1      -1.466   5.113   0.083  0.00  0.00     0.002 A 
ATOM     20  C   UNL d   1      -0.909   4.676  -1.114  0.00  0.00     0.001 A 
ATOM     21  C   UNL d   1       0.208   3.839  -1.101  0.00  0.00     0.010 A 
ENDBRANCH  14  15
ENDBRANCH   3  14
TORSDOF 2
