REMARK  3 active torsions:
REMARK  status: ('A' for Active; 'I' for Inactive)
REMARK    1  A    between atoms: N_2  and  S_1 
REMARK    2  A    between atoms: C_3  and  S_1 
REMARK    3  A    between atoms: C_6  and  C_4 
ROOT
ATOM      1  C   UNL d   1      -0.215   1.122   2.532  0.00  0.00     0.064 C 
ATOM      2  C   UNL d   1       0.582   2.072   3.061  0.00  0.00     0.126 C 
ATOM      3  N   UNL d   1       2.958   1.554   3.937  0.00  0.00    -0.191 NA
ATOM      4  N   UNL d   1      -0.334   4.480   3.266  0.00  0.00    -0.191 NA
ATOM      5  C   UNL d   1       0.094   3.407   3.166  0.00  0.00     0.111 C 
ATOM      6  C   UNL d   1       1.894   1.795   3.536  0.00  0.00     0.111 C 
ENDROOT
BRANCH   1   7
ATOM      7  C   UNL d   1       0.154  -0.247   2.447  0.00  0.00     0.052 C 
ATOM      8  N   UNL d   1       0.742  -0.808   1.323  0.00  0.00    -0.247 N 
ATOM      9  C   UNL d   1       0.751  -2.178   1.439  0.00  0.00     0.110 C 
ATOM     10  C   UNL d   1       0.376  -2.488   2.727  0.00  0.00     0.021 C 
ATOM     11  C   UNL d   1      -0.004  -1.279   3.360  0.00  0.00     0.032 C 
BRANCH   8  12
ATOM     12  S   UNL d   1       1.119   0.011  -0.127  0.00  0.00     0.272 S 
ATOM     13  O   UNL d   1       1.742   1.260   0.264  0.00  0.00    -0.200 OA
ATOM     14  O   UNL d   1      -0.124  -0.016  -0.876  0.00  0.00    -0.200 OA
BRANCH  12  15
ATOM     15  C   UNL d   1       2.313  -0.960  -0.979  0.00  0.00     0.118 A 
ATOM     16  C   UNL d   1       3.518  -1.266  -0.354  0.00  0.00     0.142 A 
ATOM     17  C   UNL d   1       4.492  -2.001  -1.022  0.00  0.00     0.086 A 
ATOM     18  F   UNL d   1       3.752  -0.879   0.906  0.00  0.00    -0.204 F 
ATOM     19  C   UNL d   1       4.246  -2.425  -2.322  0.00  0.00     0.119 A 
ATOM     20  C   UNL d   1       3.039  -2.137  -2.957  0.00  0.00     0.044 A 
ATOM     21  F   UNL d   1       5.182  -3.122  -2.978  0.00  0.00    -0.206 F 
ATOM     22  C   UNL d   1       2.063  -1.398  -2.285  0.00  0.00     0.031 A 
ENDBRANCH  12  15
ENDBRANCH   8  12
ENDBRANCH   1   7
TORSDOF 3
