REMARK  6 active torsions:
REMARK  status: ('A' for Active; 'I' for Inactive)
REMARK    1  A    between atoms: C_6  and  C_1 
REMARK    2  A    between atoms: C_15  and  C_3 
REMARK    3  A    between atoms: C_7  and  C_4 
REMARK       I    between atoms: N_10  and  C_7 
REMARK    4  A    between atoms: C_8  and  C_12 
REMARK       I    between atoms: C_9  and  N_11 
REMARK    5  A    between atoms: C_13  and  C_9 
REMARK    6  A    between atoms: N_11  and  N_10 
ROOT
ATOM      1  C   UNL d   1      -0.261  -2.672  -0.150  0.00  0.00     0.277 C 
ATOM      2  N   UNL d   1      -1.604  -3.003  -0.205  0.00  0.00    -0.263 N 
ATOM      3  O   UNL d   1       0.594  -3.563  -0.113  0.00  0.00    -0.265 OA
ATOM      4  H   UNL d   1      -2.354  -2.318  -0.271  0.00  0.00     0.190 HD
ENDROOT
BRANCH   1   5
ATOM      5  C   UNL d   1       0.079  -1.257  -0.138  0.00  0.00     0.075 A 
ATOM      6  S   UNL d   1      -1.086  -0.019  -0.125  0.00  0.00    -0.079 SA
ATOM      7  C   UNL d   1       0.100   1.235  -0.049  0.00  0.00     0.100 A 
ATOM      8  C   UNL d   1       1.391   0.712  -0.092  0.00  0.00    -0.003 A 
ATOM      9  C   UNL d   1       1.352  -0.726  -0.134  0.00  0.00     0.038 A 
BRANCH   7  10
ATOM     10  C   UNL d   1      -0.381   2.652   0.055  0.00  0.00     0.424 C 
ATOM     11  F   UNL d   1      -1.704   2.749   0.356  0.00  0.00    -0.166 F 
ATOM     12  F   UNL d   1       0.276   3.350   1.016  0.00  0.00    -0.166 F 
ATOM     13  F   UNL d   1      -0.214   3.328  -1.112  0.00  0.00    -0.166 F 
ENDBRANCH   7  10
BRANCH   8  14
ATOM     14  C   UNL d   1       2.629   1.506  -0.045  0.00  0.00    -0.025 A 
ATOM     15  C   UNL d   1       3.730   1.023   0.685  0.00  0.00     0.012 A 
ATOM     16  C   UNL d   1       4.939   1.725   0.719  0.00  0.00     0.001 A 
ATOM     17  C   UNL d   1       5.064   2.931   0.037  0.00  0.00     0.000 A 
ATOM     18  C   UNL d   1       3.987   3.421  -0.695  0.00  0.00     0.001 A 
ATOM     19  C   UNL d   1       2.785   2.705  -0.751  0.00  0.00     0.012 A 
ENDBRANCH   8  14
ENDBRANCH   1   5
BRANCH   2  20
ATOM     20  N   UNL d   1      -1.948  -4.357  -0.296  0.00  0.00    -0.263 N 
ATOM     21  C   UNL d   1      -3.277  -4.716  -0.369  0.00  0.00     0.270 C 
ATOM     22  O   UNL d   1      -4.197  -3.904  -0.358  0.00  0.00    -0.266 OA
ATOM     23  H   UNL d   1      -1.189  -5.021  -0.147  0.00  0.00     0.190 HD
BRANCH  21  24
ATOM     24  C   UNL d   1      -3.547  -6.180  -0.436  0.00  0.00     0.034 A 
ATOM     25  C   UNL d   1      -4.723  -6.679   0.139  0.00  0.00     0.033 A 
ATOM     26  C   UNL d   1      -5.005  -8.056   0.110  0.00  0.00     0.048 A 
ATOM     27  C   UNL d   1      -4.097  -8.921  -0.525  0.00  0.00     0.016 A 
ATOM     28  C   UNL d   1      -2.937  -8.423  -1.118  0.00  0.00     0.002 A 
ATOM     29  C   UNL d   1      -2.660  -7.056  -1.075  0.00  0.00     0.017 A 
BRANCH  26  30
ATOM     30  C   UNL d   1      -6.251  -8.620   0.749  0.00  0.00     0.417 C 
ATOM     31  F   UNL d   1      -7.042  -7.678   1.333  0.00  0.00    -0.166 F 
ATOM     32  F   UNL d   1      -7.044  -9.275  -0.144  0.00  0.00    -0.166 F 
ATOM     33  F   UNL d   1      -5.964  -9.524   1.726  0.00  0.00    -0.166 F 
ENDBRANCH  26  30
ENDBRANCH  21  24
ENDBRANCH   2  20
TORSDOF 6
