REMARK  7 active torsions:
REMARK  status: ('A' for Active; 'I' for Inactive)
REMARK    1  A    between atoms: C_21  and  N_1 
REMARK    2  A    between atoms: C_3  and  C_2 
REMARK    3  A    between atoms: S_22  and  C_6 
REMARK    4  A    between atoms: O_29  and  C_7 
REMARK    5  A    between atoms: C_14  and  C_26 
REMARK    6  A    between atoms: C_23  and  C_21 
REMARK    7  A    between atoms: C_26  and  S_22 
ROOT
ATOM      1  S   UNL d   1       2.574  -1.284   0.341  0.00  0.00    -0.085 SA
ENDROOT
BRANCH   1   2
ATOM      2  C   UNL d   1       1.195  -0.540  -0.383  0.00  0.00     0.165 A 
ATOM      3  N   UNL d   1       0.502   0.512   0.156  0.00  0.00    -0.285 N 
ATOM      4  C   UNL d   1      -0.488   0.789  -0.754  0.00  0.00     0.240 A 
ATOM      5  N   UNL d   1      -0.392  -0.024  -1.779  0.00  0.00    -0.263 N 
ATOM      6  N   UNL d   1       0.661  -0.877  -1.536  0.00  0.00    -0.277 N 
ATOM      7  HN  UNL d   1      -0.989  -0.025  -2.606  1.00  0.00     0.190 HD
ATOM      8  HN  UNL d   1       0.972  -1.636  -2.143  1.00  0.00     0.189 HD
BRANCH   3   9
ATOM      9  C   UNL d   1       0.772   1.255   1.365  0.00  0.00     0.200 C 
BRANCH   9  10
ATOM     10  C   UNL d   1      -0.174   0.857   2.437  0.00  0.00     0.070 A 
ATOM     11  O   UNL d   1      -1.403   1.461   2.418  0.00  0.00    -0.325 OA
ATOM     12  C   UNL d   1      -2.107   0.954   3.462  0.00  0.00     0.142 A 
ATOM     13  C   UNL d   1      -1.351   0.035   4.157  0.00  0.00     0.027 A 
ATOM     14  C   UNL d   1      -0.098  -0.022   3.497  0.00  0.00     0.036 A 
ENDBRANCH   9  10
ENDBRANCH   3   9
BRANCH   4  15
ATOM     15  O   UNL d   1      -1.402   1.741  -0.652  0.00  0.00    -0.331 OA
ATOM     16  H   UNL d   1      -1.510   1.978   0.284  0.00  0.00     0.221 HD
ENDBRANCH   4  15
ENDBRANCH   1   2
BRANCH   1  17
ATOM     17  C   UNL d   1       2.897  -2.631  -0.858  0.00  0.00     0.160 C 
BRANCH  17  18
ATOM     18  C   UNL d   1       4.150  -3.387  -0.553  0.00  0.00     0.114 A 
ATOM     19  N   UNL d   1       4.212  -4.760  -0.630  0.00  0.00    -0.322 N 
ATOM     20  C   UNL d   1       5.432  -5.026  -0.208  0.00  0.00     0.186 A 
ATOM     21  HN  UNL d   1       3.491  -5.412  -0.939  1.00  0.00     0.169 HD
ATOM     22  O   UNL d   1       6.143  -3.886   0.068  0.00  0.00    -0.217 OA
ATOM     23  N   UNL d   1       5.303  -2.805  -0.192  0.00  0.00    -0.246 N 
ATOM     24  HN  UNL d   1       5.515  -1.810  -0.124  1.00  0.00     0.196 HD
BRANCH  20  25
ATOM     25  C   UNL d   1       5.958  -6.394  -0.008  0.00  0.00     0.073 A 
ATOM     26  C   UNL d   1       7.136  -6.734   0.612  0.00  0.00     0.089 A 
ATOM     27  O   UNL d   1       7.242  -8.091   0.637  0.00  0.00    -0.242 OA
ATOM     28  C   UNL d   1       8.230  -5.985   1.259  0.00  0.00     0.080 C 
ATOM     29  N   UNL d   1       6.141  -8.656   0.021  0.00  0.00    -0.265 N 
ATOM     30  C   UNL d   1       5.373  -7.629  -0.370  0.00  0.00     0.045 A 
ATOM     31  HN  UNL d   1       5.951  -9.649  -0.110  1.00  0.00     0.194 HD
ATOM     32  C   UNL d   1       4.106  -7.880  -1.095  0.00  0.00     0.071 C 
ENDBRANCH  20  25
ENDBRANCH  17  18
ENDBRANCH   1  17
TORSDOF 7
