REMARK  4 active torsions:
REMARK  status: ('A' for Active; 'I' for Inactive)
REMARK    1  A    between atoms: O_2  and  C_1 
REMARK    2  A    between atoms: C_3  and  O_2 
REMARK    3  A    between atoms: C_6  and  C_3 
REMARK    4  A    between atoms: C_7  and  C_6 
ROOT
ATOM      1  O   UNL d   1      -0.376   1.519   0.796  0.00  0.00    -0.272 OA
ENDROOT
BRANCH   1   2
ATOM      2  C   UNL d   1       0.566   2.119   1.637  0.00  0.00     0.122 A 
ATOM      3  C   UNL d   1       0.152   2.680   2.853  0.00  0.00     0.069 A 
ATOM      4 CL   UNL d   1      -1.510   2.703   3.326  0.00  0.00    -0.081 Cl
ATOM      5  C   UNL d   1       1.096   3.209   3.734  0.00  0.00     0.027 A 
ATOM      6  C   UNL d   1       2.453   3.161   3.412  0.00  0.00     0.003 A 
ATOM      7  C   UNL d   1       2.866   2.584   2.207  0.00  0.00     0.027 A 
ATOM      8  C   UNL d   1       1.924   2.059   1.319  0.00  0.00     0.069 A 
ATOM      9 CL   UNL d   1       2.475   1.323  -0.139  0.00  0.00    -0.081 Cl
ENDBRANCH   1   2
BRANCH   1  10
ATOM     10  C   UNL d   1      -1.092   2.444   0.066  0.00  0.00     0.288 C 
ATOM     11  O   UNL d   1      -0.761   3.592  -0.197  0.00  0.00    -0.260 OA
BRANCH  10  12
ATOM     12  C   UNL d   1      -2.436   1.912  -0.267  0.00  0.00     0.084 C 
BRANCH  12  13
ATOM     13  C   UNL d   1      -2.802   0.645  -0.022  0.00  0.00     0.025 C 
ATOM     14  C   UNL d   1      -4.149   0.197  -0.149  0.00  0.00     0.005 A 
ATOM     15  S   UNL d   1      -4.473  -1.492   0.025  0.00  0.00    -0.102 SA
ATOM     16  C   UNL d   1      -5.333   0.892  -0.342  0.00  0.00     0.019 A 
ATOM     17  C   UNL d   1      -6.158  -1.266  -0.110  0.00  0.00     0.050 A 
ATOM     18  C   UNL d   1      -6.487   0.054  -0.306  0.00  0.00     0.008 A 
ENDBRANCH  12  13
ENDBRANCH  10  12
ENDBRANCH   1  10
TORSDOF 4
