REMARK  1 active torsions:
REMARK  status: ('A' for Active; 'I' for Inactive)
REMARK    1  A    between atoms: C_10  and  C_5 
ROOT
ATOM      1  N   UNL d   1      -2.255   0.627  -0.211  0.00  0.00    -0.335 N 
ATOM      2  N   UNL d   1      -1.143  -1.395  -0.349  0.00  0.00    -0.362 N 
ATOM      3  C   UNL d   1       0.150   0.652  -0.059  0.00  0.00     0.060 A 
ATOM      4  C   UNL d   1      -1.121   1.390  -0.166  0.00  0.00     0.255 C 
ATOM      5  C   UNL d   1      -2.270  -0.715   0.332  0.00  0.00     0.191 C 
ATOM      6  C   UNL d   1       0.102  -0.750  -0.175  0.00  0.00     0.047 A 
ATOM      7  C   UNL d   1       1.334  -1.422  -0.156  0.00  0.00     0.032 A 
ATOM      8  C   UNL d   1       1.349   1.359   0.080  0.00  0.00     0.043 A 
ATOM      9  O   UNL d   1      -1.169   2.612  -0.227  0.00  0.00    -0.268 OA
ATOM     10  C   UNL d   1       2.546   0.657   0.103  0.00  0.00     0.035 A 
ATOM     11  C   UNL d   1      -1.124  -2.825  -0.603  0.00  0.00     0.152 C 
ATOM     12  C   UNL d   1       2.545  -0.729  -0.015  0.00  0.00     0.026 A 
ATOM     13 CL   UNL d   1       4.037   1.500   0.259  0.00  0.00    -0.084 Cl
ATOM     14  H   UNL d   1      -3.084   1.198  -0.195  0.00  0.00     0.164 HD
ENDROOT
BRANCH   5  15
ATOM     15  C   UNL d   1      -3.675  -1.379   0.149  0.00  0.00     0.032 C 
ATOM     16  C   UNL d   1      -3.857  -2.656   1.015  0.00  0.00     0.035 C 
ATOM     17  C   UNL d   1      -4.175  -2.389   2.457  0.00  0.00    -0.030 C 
ATOM     18  C   UNL d   1      -4.619  -1.209   2.899  0.00  0.00    -0.031 C 
ATOM     19  C   UNL d   1      -4.899  -0.052   1.984  0.00  0.00     0.027 C 
ATOM     20  C   UNL d   1      -4.869  -0.450   0.503  0.00  0.00     0.012 C 
ENDBRANCH   5  15
TORSDOF 1
