REMARK  6 active torsions:
REMARK  status: ('A' for Active; 'I' for Inactive)
REMARK    1  A    between atoms: C_10  and  N_2 
REMARK    2  A    between atoms: C_5  and  N_6 
REMARK    3  A    between atoms: N_6  and  C_21 
REMARK    4  A    between atoms: C_7  and  C_11 
REMARK    5  A    between atoms: C_21  and  C_12 
REMARK    6  A    between atoms: O_20  and  C_13 
ROOT
ATOM      1  N   UNL d   1       1.116  -0.215  -0.459  0.00  0.00    -0.197 NA
ATOM      2  C   UNL d   1       2.259  -0.065  -0.580  0.00  0.00     0.060 C 
ATOM      3  C   UNL d   1       3.706   0.132  -0.725  0.00  0.00     0.143 C 
ENDROOT
BRANCH   3   4
ATOM      4  C   UNL d   1       4.434  -1.213  -0.823  0.00  0.00     0.136 C 
BRANCH   4   5
ATOM      5  N   UNL d   1       5.880  -1.032  -1.046  0.00  0.00    -0.384 N 
ATOM      6  C   UNL d   1       6.541  -2.072  -1.838  0.00  0.00     0.149 C 
BRANCH   5   7
ATOM      7  C   UNL d   1       6.676  -0.401  -0.090  0.00  0.00     0.029 A 
ATOM      8  C   UNL d   1       6.367  -0.375   1.278  0.00  0.00     0.030 A 
ATOM      9  C   UNL d   1       7.125   0.380   2.184  0.00  0.00     0.015 A 
ATOM     10  C   UNL d   1       8.218   1.118   1.731  0.00  0.00    -0.021 A 
ATOM     11  C   UNL d   1       8.580   1.065   0.388  0.00  0.00     0.015 A 
ATOM     12  C   UNL d   1       7.814   0.312  -0.507  0.00  0.00     0.030 A 
BRANCH  10  13
ATOM     13  C   UNL d   1       8.962   1.969   2.683  0.00  0.00     0.099 C 
ATOM     14  N   UNL d   1      10.024   2.618   2.329  0.00  0.00    -0.365 N 
ATOM     15  HN  UNL d   1      10.361   2.563   1.367  1.00  0.00     0.165 HD
BRANCH  14  16
ATOM     16  C   UNL d   1      10.714   3.398   3.273  0.00  0.00     0.032 A 
ATOM     17  C   UNL d   1      10.877   3.028   4.612  0.00  0.00     0.032 A 
ATOM     18  C   UNL d   1      11.635   3.810   5.492  0.00  0.00     0.039 A 
ATOM     19  C   UNL d   1      12.263   4.968   5.040  0.00  0.00     0.068 A 
ATOM     20  C   UNL d   1      12.115   5.341   3.703  0.00  0.00     0.039 A 
ATOM     21  C   UNL d   1      11.347   4.562   2.829  0.00  0.00     0.032 A 
BRANCH  19  22
ATOM     22  O   UNL d   1      13.045   5.801   5.792  0.00  0.00    -0.356 OA
ATOM     23  C   UNL d   1      13.250   5.428   7.150  0.00  0.00     0.210 C 
ENDBRANCH  19  22
ENDBRANCH  14  16
ENDBRANCH  10  13
ENDBRANCH   5   7
ENDBRANCH   4   5
ENDBRANCH   3   4
TORSDOF 6
