REMARK  4 active torsions:
REMARK  status: ('A' for Active; 'I' for Inactive)
REMARK    1  A    between atoms: N_2  and  S_1 
REMARK    2  A    between atoms: C_8  and  S_1 
REMARK    3  A    between atoms: C_3  and  N_2 
REMARK    4  A    between atoms: N_4  and  C_5 
ROOT
ATOM      1  C   UNL d   1       0.999  -0.300  -2.697  0.00  0.00     0.049 A 
ATOM      2  C   UNL d   1       2.259  -0.013  -3.275  0.00  0.00     0.052 A 
ATOM      3  C   UNL d   1      -0.189  -0.040  -3.397  0.00  0.00     0.027 A 
ATOM      4  C   UNL d   1       2.252   0.585  -4.553  0.00  0.00     0.031 A 
ATOM      5  C   UNL d   1      -0.152   0.528  -4.670  0.00  0.00     0.002 A 
ATOM      6  C   UNL d   1       1.070   0.850  -5.246  0.00  0.00     0.002 A 
ENDROOT
BRANCH   1   7
ATOM      7  N   UNL d   1       0.908  -0.825  -1.361  0.00  0.00    -0.179 NA
ATOM      8  H   UNL d   1       0.316  -1.653  -1.311  0.00  0.00     0.146 HD
BRANCH   7   9
ATOM      9  S   UNL d   1       0.427   0.225  -0.118  0.00  0.00     0.245 S 
ATOM     10  O   UNL d   1       0.621  -0.519   1.110  0.00  0.00    -0.206 OA
ATOM     11  O   UNL d   1      -0.883   0.751  -0.448  0.00  0.00    -0.206 OA
BRANCH   9  12
ATOM     12  C   UNL d   1       1.580   1.573  -0.129  0.00  0.00     0.074 A 
ATOM     13  C   UNL d   1       1.436   2.586  -1.084  0.00  0.00     0.025 A 
ATOM     14  C   UNL d   1       2.330   3.655  -1.102  0.00  0.00     0.002 A 
ATOM     15  C   UNL d   1       3.341   3.733  -0.144  0.00  0.00     0.000 A 
ATOM     16  C   UNL d   1       3.453   2.750   0.842  0.00  0.00     0.002 A 
ATOM     17  C   UNL d   1       2.571   1.665   0.855  0.00  0.00     0.025 A 
ENDBRANCH   9  12
ENDBRANCH   7   9
ENDBRANCH   1   7
BRANCH   2  18
ATOM     18  N   UNL d   1       3.505  -0.332  -2.726  0.00  0.00    -0.379 N 
ATOM     19  C   UNL d   1       3.642  -1.489  -1.841  0.00  0.00     0.123 C 
ATOM     20  C   UNL d   1       5.082  -2.000  -1.928  0.00  0.00     0.020 C 
ATOM     21  C   UNL d   1       6.099  -0.894  -1.644  0.00  0.00     0.003 C 
ATOM     22  C   UNL d   1       5.835   0.350  -2.493  0.00  0.00     0.020 C 
ATOM     23  C   UNL d   1       4.380   0.796  -2.384  0.00  0.00     0.123 C 
ENDBRANCH   2  18
TORSDOF 4
