REMARK  8 active torsions:
REMARK  status: ('A' for Active; 'I' for Inactive)
REMARK    1  A    between atoms: C6_2  and  N1_1 
REMARK    2  A    between atoms: N_19  and  C11_7 
REMARK    3  A    between atoms: C11_7  and  C12_8 
REMARK    4  A    between atoms: CG_11  and  CB_16 
REMARK    5  A    between atoms: C_15  and  CA_17 
REMARK    6  A    between atoms: OXT_21  and  C_15 
REMARK    7  A    between atoms: CB_16  and  CA_17 
REMARK    8  A    between atoms: CA_17  and  N_19 
ROOT
ATOM      1  CA  TRP d   1      -2.172  -2.083   6.840  0.00  0.00     0.321 C 
ENDROOT
BRANCH   1   2
ATOM      2  C   TRP d   1      -2.167  -3.625   6.840  0.00  0.00     0.174 C 
ATOM      3  O   TRP d   1      -1.465  -4.322   6.118  0.00  0.00    -0.648 OA
BRANCH   2   4
ATOM      4  OXT TRP d   1      -3.025  -4.178   7.731  0.00  0.00    -0.775 OA
ATOM      5  HXT TRP d   1      -3.541  -3.542   8.261  0.00  0.00     0.167 HD
ENDBRANCH   2   4
ENDBRANCH   1   2
BRANCH   1   6
ATOM      6  CB  TRP d   1      -1.513  -1.622   8.159  0.00  0.00     0.087 C 
BRANCH   6   7
ATOM      7  CG  TRP d   1      -1.488  -0.136   8.348  0.00  0.00    -0.028 A 
ATOM      8  CD1 TRP d   1      -0.455   0.701   7.970  0.00  0.00     0.096 A 
ATOM      9  NE1 TRP d   1      -0.792   1.983   8.300  0.00  0.00    -0.365 N 
ATOM     10  CE2 TRP d   1      -2.026   2.008   8.905  0.00  0.00     0.042 A 
ATOM     11  HE1 TRP d   1      -0.222   2.798   8.124  0.00  0.00     0.165 HD
ATOM     12  CD2 TRP d   1      -2.492   0.693   8.948  0.00  0.00    -0.002 A 
ATOM     13  CZ2 TRP d   1      -2.755   3.092   9.407  0.00  0.00     0.030 A 
ATOM     14  CE3 TRP d   1      -3.757   0.454   9.527  0.00  0.00     0.014 A 
ATOM     15  CZ3 TRP d   1      -4.501   1.528  10.031  0.00  0.00     0.001 A 
ATOM     16  CH2 TRP d   1      -4.004   2.828   9.972  0.00  0.00     0.002 A 
ENDBRANCH   6   7
ENDBRANCH   1   6
BRANCH   1  17
ATOM     17  N   TRP d   1      -1.428  -1.545   5.670  0.00  0.00     0.102 N 
ATOM     18  H   TRP d   1      -0.491  -1.951   5.668  0.00  0.00     0.317 HD
BRANCH  17  19
ATOM     19  C11 <1> d   1      -2.065  -1.837   4.389  0.00  0.00     0.309 C 
BRANCH  19  20
ATOM     20  C12 <1> d   1      -1.234  -1.277   3.255  0.00  0.00    -0.030 A 
ATOM     21  C14 <1> d   1      -0.177  -2.031   2.718  0.00  0.00     0.011 A 
ATOM     22  C10 <1> d   1       0.604  -1.522   1.677  0.00  0.00     0.037 A 
ATOM     23  C6  <1> d   1       0.331  -0.246   1.174  0.00  0.00     0.102 A 
ATOM     24  C9  <1> d   1      -0.708   0.525   1.707  0.00  0.00     0.037 A 
ATOM     25  C13 <1> d   1      -1.483   0.009   2.751  0.00  0.00     0.011 A 
BRANCH  23  26
ATOM     26  N1  <1> d   1       1.149   0.291   0.076  0.00  0.00    -0.116 N 
ATOM     27  O1  <1> d   1       0.876   1.427  -0.342  0.00  0.00    -0.532 OA
ATOM     28  O2  <1> d   1       2.058  -0.420  -0.368  0.00  0.00    -0.532 OA
ENDBRANCH  23  26
ENDBRANCH  19  20
ENDBRANCH  17  19
ENDBRANCH   1  17
TORSDOF 8
