REMARK  7 active torsions:
REMARK  status: ('A' for Active; 'I' for Inactive)
REMARK    1  A    between atoms: C_8  and  N_1 
REMARK    2  A    between atoms: S_9  and  C_2 
REMARK    3  A    between atoms: O_26  and  C_3 
REMARK    4  A    between atoms: C_12  and  C_8 
REMARK    5  A    between atoms: C_18  and  S_9 
REMARK    6  A    between atoms: C_11  and  C_14 
REMARK    7  A    between atoms: C_14  and  C_18 
ROOT
ATOM      1  N   UNL d   1      -0.316  -1.825  -3.832  0.00  0.00    -0.285 N 
ATOM      2  C   UNL d   1       0.727  -1.844  -2.942  0.00  0.00     0.165 A 
ATOM      3  C   UNL d   1      -1.036  -0.702  -3.493  0.00  0.00     0.240 A 
ATOM      4  N   UNL d   1       0.680  -0.782  -2.170  0.00  0.00    -0.277 N 
ATOM      5  HN  UNL d   1       1.354  -0.535  -1.446  1.00  0.00     0.189 HD
ATOM      6  N   UNL d   1      -0.438  -0.066  -2.513  0.00  0.00    -0.263 N 
ATOM      7  HN  UNL d   1      -0.749   0.805  -2.083  1.00  0.00     0.190 HD
ENDROOT
BRANCH   2   8
ATOM      8  S   UNL d   1       1.905  -3.104  -2.816  0.00  0.00    -0.085 SA
BRANCH   8   9
ATOM      9  C   UNL d   1       2.718  -2.598  -1.264  0.00  0.00     0.166 C 
BRANCH   9  10
ATOM     10  C   UNL d   1       3.855  -3.542  -0.923  0.00  0.00     0.169 C 
ATOM     11  O   UNL d   1       3.733  -4.766  -0.931  0.00  0.00    -0.291 OA
BRANCH  10  12
ATOM     12  C   UNL d   1       5.181  -2.957  -0.568  0.00  0.00     0.013 A 
ATOM     13  C   UNL d   1       6.330  -3.718  -0.820  0.00  0.00     0.054 A 
ATOM     14  C   UNL d   1       7.600  -3.191  -0.571  0.00  0.00     0.102 A 
ATOM     15  O   UNL d   1       8.642  -4.039  -0.849  0.00  0.00    -0.348 OA
ATOM     16  C   UNL d   1       7.722  -1.873  -0.107  0.00  0.00     0.102 A 
ATOM     17  C   UNL d   1       9.801  -3.828  -0.041  0.00  0.00     0.178 C 
ATOM     18  C   UNL d   1      10.672  -2.723  -0.616  0.00  0.00     0.053 C 
ATOM     19  C   UNL d   1       9.856  -1.493  -0.970  0.00  0.00     0.178 C 
ATOM     20  O   UNL d   1       8.906  -1.199   0.058  0.00  0.00    -0.348 OA
ATOM     21  C   UNL d   1       6.577  -1.143   0.218  0.00  0.00     0.040 A 
ATOM     22  C   UNL d   1       5.308  -1.681  -0.008  0.00  0.00     0.018 A 
ENDBRANCH  10  12
ENDBRANCH   9  10
ENDBRANCH   8   9
ENDBRANCH   2   8
BRANCH   1  23
ATOM     23  C   UNL d   1      -0.669  -2.843  -4.802  0.00  0.00     0.200 C 
BRANCH  23  24
ATOM     24  C   UNL d   1      -0.950  -2.264  -6.142  0.00  0.00     0.070 A 
ATOM     25  O   UNL d   1      -2.229  -1.826  -6.349  0.00  0.00    -0.325 OA
ATOM     26  C   UNL d   1      -2.284  -1.333  -7.614  0.00  0.00     0.142 A 
ATOM     27  C   UNL d   1      -1.058  -1.450  -8.225  0.00  0.00     0.027 A 
ATOM     28  C   UNL d   1      -0.195  -2.053  -7.277  0.00  0.00     0.036 A 
ENDBRANCH  23  24
ENDBRANCH   1  23
BRANCH   3  29
ATOM     29  O   UNL d   1      -2.177  -0.289  -4.022  0.00  0.00    -0.331 OA
ATOM     30  H   UNL d   1      -2.372  -0.797  -4.828  0.00  0.00     0.221 HD
ENDBRANCH   3  29
TORSDOF 7
