REMARK  7 active torsions:
REMARK  status: ('A' for Active; 'I' for Inactive)
REMARK    1  A    between atoms: C_2  and  S_1 
REMARK    2  A    between atoms: C_3  and  S_1 
REMARK    3  A    between atoms: C_6  and  C_2 
REMARK    4  A    between atoms: C_12  and  C_6 
REMARK    5  A    between atoms: O_21  and  C_6 
REMARK    6  A    between atoms: O_9  and  C_12 
REMARK    7  A    between atoms: C_10  and  O_9 
ROOT
ATOM      1  C   UNL d   1       0.989  -2.351  -1.366  0.00  0.00     0.156 C 
ENDROOT
BRANCH   1   2
ATOM      2  C   UNL d   1       0.487  -1.674  -0.096  0.00  0.00     0.179 C 
BRANCH   2   3
ATOM      3  S   UNL d   1       1.022   0.013   0.064  0.00  0.00     0.178 S 
ATOM      4  O   UNL d   1       0.472   0.768  -1.043  0.00  0.00    -0.223 OA
ATOM      5  O   UNL d   1       2.446   0.016   0.343  0.00  0.00    -0.223 OA
BRANCH   3   6
ATOM      6  C   UNL d   1       0.231   0.549   1.556  0.00  0.00     0.059 A 
ATOM      7  C   UNL d   1       0.672   0.019   2.771  0.00  0.00     0.024 A 
ATOM      8  C   UNL d   1       0.067   0.431   3.958  0.00  0.00     0.008 A 
ATOM      9  C   UNL d   1      -0.963   1.380   3.935  0.00  0.00    -0.062 A 
ATOM     10  C   UNL d   1      -1.376   1.919   2.708  0.00  0.00     0.008 A 
ATOM     11  C   UNL d   1      -1.594   1.816   5.224  0.00  0.00     0.048 C 
ATOM     12  C   UNL d   1      -0.782   1.506   1.514  0.00  0.00     0.024 A 
ENDBRANCH   3   6
ENDBRANCH   2   3
ENDBRANCH   1   2
BRANCH   1  13
ATOM     13  C   UNL d   1       2.526  -2.422  -1.441  0.00  0.00     0.208 C 
BRANCH  13  14
ATOM     14  O   UNL d   1       2.947  -3.125  -2.616  0.00  0.00    -0.349 OA
BRANCH  14  15
ATOM     15  C   UNL d   1       4.293  -3.063  -2.880  0.00  0.00     0.069 A 
ATOM     16  C   UNL d   1       5.274  -2.610  -1.990  0.00  0.00     0.038 A 
ATOM     17  C   UNL d   1       6.618  -2.581  -2.373  0.00  0.00     0.022 A 
ATOM     18  C   UNL d   1       6.985  -3.009  -3.644  0.00  0.00     0.011 A 
ATOM     19  C   UNL d   1       6.018  -3.473  -4.537  0.00  0.00     0.022 A 
ATOM     20 BR   UNL d   1       8.802  -2.958  -4.164  0.00  0.00    -0.051 Br
ATOM     21  C   UNL d   1       4.676  -3.501  -4.149  0.00  0.00     0.038 A 
ENDBRANCH  14  15
ENDBRANCH  13  14
ENDBRANCH   1  13
BRANCH   1  22
ATOM     22  O   UNL d   1       0.413  -3.671  -1.376  0.00  0.00    -0.392 OA
ATOM     23  H   UNL d   1       1.025  -4.285  -0.934  0.00  0.00     0.210 HD
ENDBRANCH   1  22
TORSDOF 7
