REMARK  5 active torsions:
REMARK  status: ('A' for Active; 'I' for Inactive)
REMARK    1  A    between atoms: C_13  and  C_1 
REMARK    2  A    between atoms: C_2  and  C_7 
REMARK    3  A    between atoms: N_12  and  C_3 
REMARK    4  A    between atoms: C_15  and  C_6 
REMARK       I    between atoms: C_7  and  N_12 
REMARK    5  A    between atoms: O_20  and  C_13 
ROOT
ATOM      1  C   UNL d   1       0.204   1.385  -0.342  0.00  0.00     0.107 A 
ATOM      2  C   UNL d   1       1.487   0.879  -0.130  0.00  0.00     0.059 A 
ATOM      3  S   UNL d   1      -0.973   0.116  -0.290  0.00  0.00    -0.081 SA
ATOM      4  C   UNL d   1       0.209  -1.124  -0.152  0.00  0.00     0.018 A 
ATOM      5  C   UNL d   1       1.465  -0.556  -0.094  0.00  0.00     0.051 A 
ENDROOT
BRANCH   2   6
ATOM      6  N   UNL d   1       2.704   1.545   0.021  0.00  0.00    -0.320 N 
ATOM      7  C   UNL d   1       2.906   2.818   0.527  0.00  0.00     0.274 C 
ATOM      8  O   UNL d   1       1.998   3.563   0.876  0.00  0.00    -0.266 OA
ATOM      9  H   UNL d   1       3.514   0.943  -0.015  0.00  0.00     0.169 HD
BRANCH   7  10
ATOM     10  C   UNL d   1       4.309   3.165   0.729  0.00  0.00     0.120 C 
ATOM     11  N   UNL d   1       4.779   4.391   1.154  0.00  0.00    -0.291 N 
ATOM     12  N   UNL d   1       6.076   4.370   1.527  0.00  0.00    -0.303 N 
ATOM     13  C   UNL d   1       4.104   5.667   1.218  0.00  0.00     0.178 C 
ATOM     14  C   UNL d   1       6.490   3.140   1.225  0.00  0.00     0.024 C 
ATOM     15  HN  UNL d   1       6.618   5.126   1.945  1.00  0.00     0.186 HD
ATOM     16  C   UNL d   1       5.459   2.391   0.618  0.00  0.00     0.063 C 
ATOM     17  C   UNL d   1       7.865   2.705   1.571  0.00  0.00     0.070 C 
ENDBRANCH   7  10
ENDBRANCH   2   6
BRANCH   1  18
ATOM     18  C   UNL d   1      -0.250   2.741  -0.641  0.00  0.00     0.302 C 
ATOM     19  O   UNL d   1      -1.296   3.266  -0.289  0.00  0.00    -0.259 OA
BRANCH  18  20
ATOM     20  O   UNL d   1       0.677   3.331  -1.458  0.00  0.00    -0.322 OA
ATOM     21  C   UNL d   1       0.581   4.750  -1.591  0.00  0.00     0.213 C 
ENDBRANCH  18  20
ENDBRANCH   1  18
BRANCH   4  22
ATOM     22  C   UNL d   1      -0.131  -2.570  -0.114  0.00  0.00    -0.019 A 
ATOM     23  C   UNL d   1       0.780  -3.514  -0.634  0.00  0.00     0.014 A 
ATOM     24  C   UNL d   1       0.524  -4.891  -0.583  0.00  0.00     0.024 A 
ATOM     25  C   UNL d   1      -0.654  -5.352  -0.009  0.00  0.00     0.034 A 
ATOM     26  C   UNL d   1      -1.571  -4.447   0.517  0.00  0.00     0.024 A 
ATOM     27 CL   UNL d   1      -0.972  -7.042   0.054  0.00  0.00    -0.084 Cl
ATOM     28  C   UNL d   1      -1.310  -3.066   0.466  0.00  0.00     0.014 A 
ENDBRANCH   4  22
TORSDOF 5
