REMARK  3 active torsions:
REMARK  status: ('A' for Active; 'I' for Inactive)
REMARK    1  A    between atoms: S_18  and  C_9 
REMARK    2  A    between atoms: C_19  and  S_18 
REMARK    3  A    between atoms: C_24  and  C_19 
ROOT
ATOM      1  N   UNL d   1      -3.578   1.142  -0.074  0.00  0.00    -0.060 N 
ATOM      2  C   UNL d   1      -2.977   2.121   0.702  0.00  0.00     0.721 C 
ATOM      3  C   UNL d   1      -1.714  -0.073  -0.200  0.00  0.00     0.088 C 
ATOM      4  N   UNL d   1      -2.980  -0.017  -0.513  0.00  0.00    -0.275 N 
ATOM      5  HN  UNL d   1      -3.471  -0.749  -1.026  1.00  0.00     0.188 HD
ATOM      6  C   UNL d   1      -0.984   1.133   0.381  0.00  0.00     0.089 C 
ATOM      7  N   UNL d   1      -1.631   2.147   0.875  0.00  0.00    -0.185 N 
ATOM      8  HN  UNL d   1      -1.159   2.910   1.361  1.00  0.00     0.184 HD
ATOM      9  C   UNL d   1      -4.859   1.595  -0.272  0.00  0.00     0.199 C 
ATOM     10  N   UNL d   1      -3.899   2.979   1.093  0.00  0.00    -0.128 N 
ATOM     11  HN  UNL d   1      -3.758   3.754   1.741  1.00  0.00     0.205 HD
ATOM     12  N   UNL d   1      -5.088   2.650   0.474  0.00  0.00    -0.263 N 
ATOM     13  HN  UNL d   1      -5.978   3.137   0.578  1.00  0.00     0.189 HD
ATOM     14  C   UNL d   1      -0.936  -1.328  -0.345  0.00  0.00     0.005 A 
ATOM     15  C   UNL d   1       0.491   1.156   0.292  0.00  0.00     0.005 A 
ATOM     16  C   UNL d   1       0.466  -1.303  -0.194  0.00  0.00    -0.012 A 
ATOM     17  C   UNL d   1       1.185  -0.019  -0.039  0.00  0.00    -0.012 A 
ATOM     18  C   UNL d   1      -1.627  -2.538  -0.526  0.00  0.00     0.014 A 
ATOM     19  C   UNL d   1       1.154   2.386   0.449  0.00  0.00     0.014 A 
ATOM     20  C   UNL d   1       1.130  -2.544  -0.179  0.00  0.00     0.013 A 
ATOM     21  C   UNL d   1       2.576   0.102  -0.237  0.00  0.00     0.013 A 
ATOM     22  C   UNL d   1       0.441  -3.751  -0.338  0.00  0.00     0.001 A 
ATOM     23  C   UNL d   1       2.528   2.469   0.257  0.00  0.00     0.001 A 
ATOM     24  C   UNL d   1      -0.937  -3.747  -0.524  0.00  0.00     0.001 A 
ATOM     25  C   UNL d   1       3.238   1.327  -0.092  0.00  0.00     0.001 A 
ENDROOT
BRANCH   9  26
ATOM     26  S   UNL d   1      -5.943   0.925  -1.439  0.00  0.00    -0.086 SA
BRANCH  26  27
ATOM     27  C   UNL d   1      -5.243   1.640  -2.961  0.00  0.00     0.121 C 
BRANCH  27  28
ATOM     28  C   UNL d   1      -5.989   2.812  -3.569  0.00  0.00    -0.049 A 
ATOM     29  C   UNL d   1      -5.257   3.803  -4.250  0.00  0.00     0.008 A 
ATOM     30  C   UNL d   1      -5.903   4.845  -4.923  0.00  0.00     0.001 A 
ATOM     31  C   UNL d   1      -7.290   4.914  -4.928  0.00  0.00     0.000 A 
ATOM     32  C   UNL d   1      -8.034   3.943  -4.262  0.00  0.00     0.001 A 
ATOM     33  C   UNL d   1      -7.389   2.895  -3.596  0.00  0.00     0.008 A 
ENDBRANCH  27  28
ENDBRANCH  26  27
ENDBRANCH   9  26
TORSDOF 3
