REMARK  2 active torsions:
REMARK  status: ('A' for Active; 'I' for Inactive)
REMARK    1  A    between atoms: C_7  and  N_1 
REMARK    2  A    between atoms: N_6  and  C_8 
ROOT
ATOM      1  C   UNL d   1       0.133   2.293   0.067  0.00  0.00     0.046 A 
ATOM      2  C   UNL d   1       0.103   5.170  -0.042  0.00  0.00     0.030 A 
ATOM      3  C   UNL d   1      -0.605   3.056   0.978  0.00  0.00     0.032 A 
ATOM      4  C   UNL d   1       0.893   2.998  -0.871  0.00  0.00     0.032 A 
ATOM      5  C   UNL d   1      -0.616   4.461   0.924  0.00  0.00     0.031 A 
ATOM      6  C   UNL d   1       0.870   4.401  -0.924  0.00  0.00     0.031 A 
ENDROOT
BRANCH   1   7
ATOM      7  N   UNL d   1       0.092   0.868   0.073  0.00  0.00    -0.245 N 
ATOM      8  C   UNL d   1      -0.834   0.105   0.735  0.00  0.00     0.255 A 
ATOM      9  C   UNL d   1      -0.542  -1.302   0.438  0.00  0.00     0.080 A 
ATOM     10  O   UNL d   1      -1.786   0.409   1.431  0.00  0.00    -0.268 OA
ATOM     11  C   UNL d   1       0.510  -1.339  -0.374  0.00  0.00     0.080 A 
ATOM     12  C   UNL d   1       0.935   0.043  -0.624  0.00  0.00     0.255 A 
ATOM     13  O   UNL d   1       1.901   0.278  -1.329  0.00  0.00    -0.268 OA
ENDBRANCH   1   7
BRANCH   2  14
ATOM     14  N   UNL d   1       0.011   6.540  -0.195  0.00  0.00    -0.377 N 
ATOM     15  C   UNL d   1      -1.088   7.322   0.394  0.00  0.00     0.149 C 
ATOM     16  C   UNL d   1      -1.390   8.524  -0.520  0.00  0.00     0.187 C 
ATOM     17  O   UNL d   1      -0.221   9.330  -0.753  0.00  0.00    -0.388 OA
ATOM     18  C   UNL d   1       0.816   8.539  -1.360  0.00  0.00     0.187 C 
ATOM     19  C   UNL d   1       1.211   7.352  -0.467  0.00  0.00     0.149 C 
ENDBRANCH   2  14
TORSDOF 2
