REMARK  3 active torsions:
REMARK  status: ('A' for Active; 'I' for Inactive)
REMARK    1  A    between atoms: C_4  and  C_1 
REMARK    2  A    between atoms: C_14  and  C_5 
REMARK    3  A    between atoms: C_7  and  C_10 
ROOT
ATOM      1  C   UNL d   1       0.240  -1.164  -0.013  0.00  0.00     0.086 A 
ATOM      2  N   UNL d   1       1.405  -0.561  -0.147  0.00  0.00    -0.349 N 
ATOM      3  HN  UNL d   1       2.289  -1.042  -0.310  1.00  0.00     0.166 HD
ATOM      4  C   UNL d   1       1.269   0.814  -0.036  0.00  0.00     0.050 A 
ATOM      5  S   UNL d   1      -1.098  -0.084   0.169  0.00  0.00    -0.081 SA
ATOM      6  C   UNL d   1      -0.034   1.252   0.087  0.00  0.00     0.082 A 
ENDROOT
BRANCH   1   7
ATOM      7  C   UNL d   1       0.036  -2.627  -0.000  0.00  0.00     0.019 A 
ATOM      8  C   UNL d   1       0.962  -3.511   0.586  0.00  0.00     0.047 A 
ATOM      9  C   UNL d   1       0.742  -4.898   0.572  0.00  0.00     0.041 A 
ATOM     10 CL   UNL d   1       2.396  -2.982   1.402  0.00  0.00    -0.083 Cl
ATOM     11  C   UNL d   1      -0.406  -5.443  -0.017  0.00  0.00     0.049 A 
ATOM     12  C   UNL d   1      -1.333  -4.573  -0.600  0.00  0.00     0.017 A 
ATOM     13  C   UNL d   1      -1.111  -3.191  -0.598  0.00  0.00     0.017 A 
BRANCH  11  14
ATOM     14  C   UNL d   1      -0.651  -6.932  -0.025  0.00  0.00     0.417 C 
ATOM     15  F   UNL d   1       0.347  -7.652   0.557  0.00  0.00    -0.166 F 
ATOM     16  F   UNL d   1      -1.792  -7.272   0.634  0.00  0.00    -0.166 F 
ATOM     17  F   UNL d   1      -0.785  -7.428  -1.286  0.00  0.00    -0.166 F 
ENDBRANCH  11  14
ENDBRANCH   1   7
BRANCH   4  18
ATOM     18  C   UNL d   1       2.427   1.702  -0.081  0.00  0.00    -0.009 A 
ATOM     19  C   UNL d   1       3.579   1.306  -0.775  0.00  0.00     0.014 A 
ATOM     20  C   UNL d   1       4.691   2.151  -0.850  0.00  0.00     0.001 A 
ATOM     21  C   UNL d   1       4.667   3.394  -0.221  0.00  0.00     0.000 A 
ATOM     22  C   UNL d   1       3.538   3.789   0.494  0.00  0.00     0.001 A 
ATOM     23  C   UNL d   1       2.425   2.945   0.568  0.00  0.00     0.014 A 
ENDBRANCH   4  18
TORSDOF 3
