REMARK  3 active torsions:
REMARK  status: ('A' for Active; 'I' for Inactive)
REMARK    1  A    between atoms: C_6  and  C_1 
REMARK    2  A    between atoms: O_12  and  C_1 
REMARK    3  A    between atoms: C_13  and  C_6 
ROOT
ATOM      1  C   UNL d   1      -1.294  -1.500  -0.088  0.00  0.00     0.173 A 
ATOM      2  C   UNL d   1      -2.375  -0.363  -0.017  0.00  0.00     0.262 A 
ATOM      3  C   UNL d   1      -0.025  -0.708   0.128  0.00  0.00     0.015 A 
ATOM      4  N   UNL d   1      -1.700   0.843   0.131  0.00  0.00    -0.324 N 
ATOM      5  C   UNL d   1      -0.327   0.656   0.180  0.00  0.00     0.044 A 
ATOM      6  C   UNL d   1       1.291  -1.138   0.154  0.00  0.00     0.055 A 
ATOM      7  O   UNL d   1      -3.587  -0.485  -0.085  0.00  0.00    -0.269 OA
ATOM      8  C   UNL d   1       0.646   1.631   0.227  0.00  0.00     0.033 A 
ATOM      9  C   UNL d   1       2.286  -0.164   0.193  0.00  0.00     0.117 A 
ATOM     10  C   UNL d   1       1.977   1.205   0.221  0.00  0.00     0.044 A 
ATOM     11  F   UNL d   1       3.571  -0.539   0.178  0.00  0.00    -0.206 F 
ATOM     12  H   UNL d   1      -2.175   1.734   0.153  0.00  0.00     0.169 HD
ENDROOT
BRANCH   1  13
ATOM     13  C   UNL d   1      -1.363  -2.214  -1.452  0.00  0.00     0.110 C 
BRANCH  13  14
ATOM     14  C   UNL d   1      -1.068  -1.300  -2.619  0.00  0.00     0.012 A 
ATOM     15  N   UNL d   1       0.236  -1.152  -2.958  0.00  0.00    -0.369 N 
ATOM     16  C   UNL d   1       0.545  -0.202  -3.866  0.00  0.00     0.088 A 
ATOM     17  HN  UNL d   1       0.959  -1.739  -2.542  1.00  0.00     0.165 HD
ATOM     18  C   UNL d   1      -0.394   0.613  -4.471  0.00  0.00     0.017 A 
ATOM     19  C   UNL d   1      -1.731   0.427  -4.143  0.00  0.00     0.003 A 
ATOM     20  C   UNL d   1      -2.079  -0.546  -3.210  0.00  0.00     0.025 A 
ENDBRANCH  13  14
ENDBRANCH   1  13
BRANCH   1  21
ATOM     21  O   UNL d   1      -1.455  -2.447   0.963  0.00  0.00    -0.375 OA
ATOM     22  H   UNL d   1      -1.276  -1.983   1.799  0.00  0.00     0.211 HD
ENDBRANCH   1  21
TORSDOF 3
