REMARK  2 active torsions:
REMARK  status: ('A' for Active; 'I' for Inactive)
REMARK       I    between atoms: C_2  and  N_1 
REMARK       I    between atoms: C_4  and  N_1 
REMARK       I    between atoms: N_8  and  C_2 
REMARK    1  A    between atoms: C_12  and  C_4 
REMARK    2  A    between atoms: C_5  and  C_11 
ROOT
ATOM      1  C   UNL d   1       5.053  -3.524   0.089  0.00  0.00    -0.008 A 
ATOM      2  C   UNL d   1       3.412  -1.216   0.093  0.00  0.00     0.032 A 
ATOM      3  C   UNL d   1       5.620  -2.249  -0.006  0.00  0.00     0.015 A 
ATOM      4  C   UNL d   1       3.655  -3.631   0.175  0.00  0.00     0.015 A 
ATOM      5  C   UNL d   1       4.809  -1.112  -0.002  0.00  0.00     0.018 A 
ATOM      6  C   UNL d   1       2.837  -2.487   0.185  0.00  0.00     0.018 A 
ENDROOT
BRANCH   2   7
ATOM      7  C   UNL d   1       2.643   0.066   0.115  0.00  0.00     0.259 C 
ATOM      8  N   UNL d   1       1.309   0.018  -0.250  0.00  0.00    -0.275 N 
ATOM      9  C   UNL d   1       0.532   1.138  -0.442  0.00  0.00     0.325 C 
ATOM     10  H   UNL d   1       0.924  -0.867  -0.498  0.00  0.00     0.173 HD
ATOM     11  N   UNL d   1      -0.739   0.926  -0.978  0.00  0.00    -0.334 N 
ATOM     12  O   UNL d   1       0.898   2.270  -0.136  0.00  0.00    -0.247 OA
ATOM     13  C   UNL d   1      -1.578   2.111  -1.198  0.00  0.00     0.127 C 
ATOM     14  C   UNL d   1      -1.291  -0.306  -1.544  0.00  0.00     0.127 C 
ATOM     15  C   UNL d   1      -2.981   1.899  -0.638  0.00  0.00     0.020 C 
ATOM     16  C   UNL d   1      -3.613   0.630  -1.202  0.00  0.00     0.003 C 
ATOM     17  C   UNL d   1      -2.694  -0.574  -1.001  0.00  0.00     0.020 C 
ATOM     18  O   UNL d   1       3.258   1.077   0.447  0.00  0.00    -0.267 OA
ENDBRANCH   2   7
BRANCH   1  19
ATOM     19  C   UNL d   1       5.884  -4.722   0.095  0.00  0.00     0.063 A 
ATOM     20  N   UNL d   1       5.403  -5.936  -0.385  0.00  0.00    -0.292 N 
ATOM     21  N   UNL d   1       6.312  -6.894  -0.305  0.00  0.00    -0.061 NA
ATOM     22  HN  UNL d   1       4.462  -6.071  -0.755  1.00  0.00     0.183 HD
ATOM     23  S   UNL d   1       7.752  -6.372   0.364  0.00  0.00    -0.010 SA
ATOM     24  C   UNL d   1       7.182  -4.767   0.577  0.00  0.00     0.096 A 
ENDBRANCH   1  19
TORSDOF 2
