REMARK  4 active torsions:
REMARK  status: ('A' for Active; 'I' for Inactive)
REMARK    1  A    between atoms: O_3  and  C_2 
REMARK    2  A    between atoms: C_6  and  O_3 
REMARK    3  A    between atoms: C_5  and  C_6 
REMARK    4  A    between atoms: O_12  and  C_5 
ROOT
ATOM      1  C   UNL d   1       0.145  -0.269   0.490  0.00  0.00     0.051 A 
ATOM      2  C   UNL d   1      -0.049  -1.650   0.295  0.00  0.00     0.087 A 
ATOM      3  C   UNL d   1       1.436   0.331   0.266  0.00  0.00    -0.007 A 
ATOM      4  C   UNL d   1       1.074  -2.449   0.039  0.00  0.00     0.039 A 
ATOM      5  C   UNL d   1       2.538  -0.518   0.003  0.00  0.00    -0.025 A 
ATOM      6  C   UNL d   1       2.348  -1.899  -0.083  0.00  0.00     0.015 A 
ATOM      7  I   UNL d   1      -1.351   0.953   1.431  0.00  0.00    -0.041 I 
ATOM      8  C   UNL d   1       1.708   1.727   0.284  0.00  0.00     0.013 A 
ATOM      9  C   UNL d   1       3.830   0.013  -0.161  0.00  0.00     0.012 A 
ATOM     10  C   UNL d   1       2.991   2.246   0.091  0.00  0.00     0.001 A 
ATOM     11  C   UNL d   1       4.057   1.387  -0.116  0.00  0.00     0.001 A 
ENDROOT
BRANCH   2  12
ATOM     12  O   UNL d   1      -1.188  -2.408   0.342  0.00  0.00    -0.334 OA
BRANCH  12  13
ATOM     13  C   UNL d   1      -2.438  -1.914  -0.131  0.00  0.00     0.222 C 
ATOM     14  C   UNL d   1      -3.407  -3.097  -0.121  0.00  0.00     0.051 C 
BRANCH  13  15
ATOM     15  C   UNL d   1      -2.488  -1.298  -1.534  0.00  0.00     0.170 C 
ATOM     16  O   UNL d   1      -3.308  -0.463  -1.887  0.00  0.00    -0.648 OA
BRANCH  15  17
ATOM     17  O   UNL d   1      -1.578  -1.821  -2.394  0.00  0.00    -0.775 OA
ATOM     18  H   UNL d   1      -0.999  -2.477  -1.957  0.00  0.00     0.167 HD
ENDBRANCH  15  17
ENDBRANCH  13  15
ENDBRANCH  12  13
ENDBRANCH   2  12
TORSDOF 4
