REMARK  5 active torsions:
REMARK  status: ('A' for Active; 'I' for Inactive)
REMARK    1  A    between atoms: C_7  and  C_1 
REMARK    2  A    between atoms: N_2  and  C_3 
REMARK       I    between atoms: C_5  and  N_4 
REMARK    3  A    between atoms: C_6  and  C_5 
REMARK    4  A    between atoms: C_12  and  C_9 
REMARK    5  A    between atoms: O_22  and  C_12 
ROOT
ATOM      1  N   UNL d   1      -1.456  -2.384   3.741  0.00  0.00    -0.364 N 
ATOM      2  N   UNL d   1      -2.222  -1.055   6.169  0.00  0.00    -0.346 N 
ATOM      3  C   UNL d   1      -2.991  -1.030   7.316  0.00  0.00     0.243 C 
ATOM      4  C   UNL d   1      -2.780  -1.744   3.820  0.00  0.00     0.144 C 
ATOM      5  C   UNL d   1      -0.848  -2.759   5.027  0.00  0.00     0.144 C 
ATOM      6  C   UNL d   1      -0.852  -1.572   6.004  0.00  0.00     0.146 C 
ATOM      7  C   UNL d   1      -2.821  -0.631   4.895  0.00  0.00     0.146 C 
ATOM      8  O   UNL d   1      -4.155  -0.629   7.321  0.00  0.00    -0.268 OA
ENDROOT
BRANCH   1   9
ATOM      9  C   UNL d   1      -0.651  -2.321   2.621  0.00  0.00     0.103 A 
ATOM     10  C   UNL d   1      -1.183  -2.351   1.333  0.00  0.00     0.064 A 
ATOM     11  C   UNL d   1      -0.339  -2.373   0.209  0.00  0.00     0.052 A 
ATOM     12  C   UNL d   1       1.039  -2.358   0.412  0.00  0.00     0.033 A 
ATOM     13  C   UNL d   1       1.498  -2.320   1.710  0.00  0.00     0.090 A 
ATOM     14  N   UNL d   1       0.688  -2.303   2.792  0.00  0.00    -0.352 N 
ATOM     15  HN  UNL d   1       1.086  -2.277   3.731  1.00  0.00     0.166 HD
BRANCH  11  16
ATOM     16  C   UNL d   1      -0.894  -2.434  -1.186  0.00  0.00     0.417 C 
ATOM     17  F   UNL d   1      -2.255  -2.450  -1.235  0.00  0.00    -0.166 F 
ATOM     18  F   UNL d   1      -0.482  -3.542  -1.863  0.00  0.00    -0.166 F 
ATOM     19  F   UNL d   1      -0.507  -1.370  -1.944  0.00  0.00    -0.166 F 
ENDBRANCH  11  16
ENDBRANCH   1   9
BRANCH   3  20
ATOM     20  C   UNL d   1      -2.392  -1.508   8.589  0.00  0.00     0.081 C 
ATOM     21  C   UNL d   1      -3.135  -1.493   9.708  0.00  0.00     0.086 C 
BRANCH  21  22
ATOM     22  C   UNL d   1      -2.538  -1.978  10.964  0.00  0.00     0.165 C 
ATOM     23  O   UNL d   1      -1.402  -2.411  11.062  0.00  0.00    -0.647 OA
BRANCH  22  24
ATOM     24  O   UNL d   1      -3.389  -1.893  12.002  0.00  0.00    -0.773 OA
ATOM     25  H   UNL d   1      -4.269  -1.525  11.796  0.00  0.00     0.167 HD
ENDBRANCH  22  24
ENDBRANCH  21  22
ENDBRANCH   3  20
TORSDOF 5
