REMARK  5 active torsions:
REMARK  status: ('A' for Active; 'I' for Inactive)
REMARK    1  A    between atoms: C_3  and  S_1 
REMARK    2  A    between atoms: N_5  and  S_1 
REMARK    3  A    between atoms: C_2  and  N_5 
REMARK    4  A    between atoms: C_14  and  C_4 
REMARK    5  A    between atoms: O_19  and  C_14 
ROOT
ATOM      1  N   UNL d   1       0.566  -1.409   0.834  0.00  0.00    -0.163 NA
ATOM      2  H   UNL d   1      -0.043  -1.141   1.607  0.00  0.00     0.147 HD
ENDROOT
BRANCH   1   3
ATOM      3  C   UNL d   1      -0.019  -2.475   0.169  0.00  0.00     0.124 A 
ATOM      4  N   UNL d   1      -1.338  -2.626   0.239  0.00  0.00    -0.286 N 
ATOM      5  N   UNL d   1      -1.567  -3.779  -0.414  0.00  0.00    -0.294 N 
ATOM      6  HN  UNL d   1      -2.018  -2.010   0.685  1.00  0.00     0.188 HD
ATOM      7  C   UNL d   1      -2.918  -4.278  -0.521  0.00  0.00     0.178 C 
ATOM      8  C   UNL d   1      -0.426  -4.420  -0.830  0.00  0.00     0.067 A 
ATOM      9  C   UNL d   1       0.621  -3.586  -0.432  0.00  0.00     0.071 A 
ATOM     10  C   UNL d   1      -0.214  -5.648  -1.475  0.00  0.00     0.032 A 
ATOM     11  C   UNL d   1       1.937  -4.021  -0.644  0.00  0.00     0.132 A 
ATOM     12  F   UNL d   1       2.980  -3.291  -0.229  0.00  0.00    -0.205 F 
ATOM     13  C   UNL d   1       2.175  -5.250  -1.267  0.00  0.00     0.043 A 
ATOM     14  C   UNL d   1       1.111  -6.046  -1.688  0.00  0.00     0.005 A 
ENDBRANCH   1   3
BRANCH   1  15
ATOM     15  S   UNL d   1       0.817   0.045   0.018  0.00  0.00     0.269 S 
ATOM     16  O   UNL d   1      -0.092   1.005   0.605  0.00  0.00    -0.203 OA
ATOM     17  O   UNL d   1       2.247   0.300  -0.004  0.00  0.00    -0.203 OA
BRANCH  15  18
ATOM     18  C   UNL d   1       0.363  -0.010  -1.722  0.00  0.00     0.186 A 
ATOM     19  C   UNL d   1       1.126   0.254  -2.856  0.00  0.00     0.071 A 
ATOM     20  C   UNL d   1       0.280   0.189  -3.998  0.00  0.00     0.072 A 
ATOM     21  C   UNL d   1      -0.970  -0.124  -3.498  0.00  0.00     0.067 A 
ATOM     22  O   UNL d   1      -0.929  -0.256  -2.143  0.00  0.00    -0.301 OA
ATOM     23  C   UNL d   1      -2.292  -0.310  -4.140  0.00  0.00     0.078 C 
BRANCH  20  24
ATOM     24  C   UNL d   1       0.597   0.414  -5.397  0.00  0.00     0.295 C 
ATOM     25  O   UNL d   1      -0.224   0.316  -6.304  0.00  0.00    -0.259 OA
BRANCH  24  26
ATOM     26  O   UNL d   1       1.910   0.740  -5.584  0.00  0.00    -0.322 OA
ATOM     27  C   UNL d   1       2.264   0.965  -6.949  0.00  0.00     0.213 C 
ENDBRANCH  24  26
ENDBRANCH  20  24
ENDBRANCH  15  18
ENDBRANCH   1  15
TORSDOF 5
