REMARK  5 active torsions:
REMARK  status: ('A' for Active; 'I' for Inactive)
REMARK    1  A    between atoms: C_13  and  N_1 
REMARK    2  A    between atoms: C_2  and  C_3 
REMARK    3  A    between atoms: C_6  and  C_7 
REMARK       I    between atoms: C_7  and  N_11 
REMARK    4  A    between atoms: C_8  and  C_14 
REMARK       I    between atoms: N_12  and  C_8 
REMARK    5  A    between atoms: N_11  and  N_12 
ROOT
ATOM      1  C   UNL d   1       5.737  -3.848  -0.036  0.00  0.00     0.270 C 
ATOM      2  N   UNL d   1       6.733  -3.591   0.897  0.00  0.00    -0.263 N 
ATOM      3  O   UNL d   1       5.837  -4.779  -0.833  0.00  0.00    -0.266 OA
ATOM      4  H   UNL d   1       6.707  -2.863   1.610  0.00  0.00     0.190 HD
ENDROOT
BRANCH   2   5
ATOM      5  N   UNL d   1       7.815  -4.476   0.970  0.00  0.00    -0.263 N 
ATOM      6  C   UNL d   1       8.641  -4.425   2.078  0.00  0.00     0.271 C 
ATOM      7  O   UNL d   1       8.547  -3.583   2.956  0.00  0.00    -0.266 OA
ATOM      8  H   UNL d   1       7.825  -5.219   0.273  0.00  0.00     0.190 HD
BRANCH   6   9
ATOM      9  C   UNL d   1       9.640  -5.529   2.183  0.00  0.00     0.048 A 
ATOM     10  C   UNL d   1      10.976  -5.332   2.571  0.00  0.00     0.063 A 
ATOM     11  C   UNL d   1      11.816  -6.469   2.667  0.00  0.00     0.017 A 
ATOM     12  C   UNL d   1      11.344  -7.753   2.394  0.00  0.00     0.001 A 
ATOM     13  C   UNL d   1      10.019  -7.937   2.032  0.00  0.00     0.001 A 
ATOM     14  C   UNL d   1       9.169  -6.834   1.932  0.00  0.00     0.018 A 
BRANCH  10  15
ATOM     15  C   UNL d   1      11.613  -4.003   2.898  0.00  0.00     0.418 C 
ATOM     16  F   UNL d   1      10.901  -2.886   2.609  0.00  0.00    -0.166 F 
ATOM     17  F   UNL d   1      11.960  -3.914   4.213  0.00  0.00    -0.166 F 
ATOM     18  F   UNL d   1      12.789  -3.845   2.214  0.00  0.00    -0.166 F 
ENDBRANCH  10  15
ENDBRANCH   6   9
ENDBRANCH   2   5
BRANCH   1  19
ATOM     19  C   UNL d   1       4.523  -2.971  -0.038  0.00  0.00     0.033 A 
ATOM     20  C   UNL d   1       4.275  -2.001   0.937  0.00  0.00     0.019 A 
ATOM     21  C   UNL d   1       3.077  -1.266   0.921  0.00  0.00     0.031 A 
ATOM     22  C   UNL d   1       2.128  -1.442  -0.095  0.00  0.00     0.039 A 
ATOM     23  C   UNL d   1       2.393  -2.389  -1.090  0.00  0.00     0.031 A 
ATOM     24  C   UNL d   1       3.569  -3.159  -1.049  0.00  0.00     0.019 A 
BRANCH  22  25
ATOM     25  N   UNL d   1       0.916  -0.669  -0.108  0.00  0.00    -0.320 N 
ATOM     26  C   UNL d   1      -0.350  -1.098  -0.532  0.00  0.00     0.013 A 
ATOM     27  C   UNL d   1      -1.241  -0.050  -0.391  0.00  0.00     0.027 A 
ATOM     28  C   UNL d   1      -0.733  -2.472  -0.975  0.00  0.00     0.068 C 
ATOM     29  C   UNL d   1      -0.549   1.035   0.153  0.00  0.00     0.027 A 
ATOM     30  C   UNL d   1       0.774   0.664   0.308  0.00  0.00     0.013 A 
ATOM     31  C   UNL d   1       1.859   1.589   0.753  0.00  0.00     0.068 C 
ENDBRANCH  22  25
ENDBRANCH   1  19
TORSDOF 5
