REMARK  1 active torsions:
REMARK  status: ('A' for Active; 'I' for Inactive)
REMARK    1  A    between atoms: C_8  and  C_1 
ROOT
ATOM      1  C   UNL d   1      -0.235  -1.097  -0.013  0.00  0.00     0.173 A 
ATOM      2  N   UNL d   1       0.574  -0.498   0.841  0.00  0.00    -0.278 N 
ATOM      3  HN  UNL d   1       1.013  -0.917   1.661  1.00  0.00     0.189 HD
ATOM      4  N   UNL d   1       0.710   0.806   0.408  0.00  0.00    -0.288 N 
ATOM      5  HN  UNL d   1       1.269   1.542   0.841  1.00  0.00     0.188 HD
ATOM      6  O   UNL d   1      -0.657  -0.252  -1.010  0.00  0.00    -0.286 OA
ATOM      7  C   UNL d   1      -0.025   0.905  -0.673  0.00  0.00     0.251 A 
ENDROOT
BRANCH   1   8
ATOM      8  C   UNL d   1      -0.721  -2.470  -0.041  0.00  0.00     0.017 A 
ATOM      9  C   UNL d   1      -0.369  -3.353   0.990  0.00  0.00     0.016 A 
ATOM     10  C   UNL d   1      -0.816  -4.678   0.984  0.00  0.00     0.007 A 
ATOM     11  C   UNL d   1      -1.624  -5.148  -0.057  0.00  0.00    -0.062 A 
ATOM     12  C   UNL d   1      -1.984  -4.273  -1.085  0.00  0.00     0.007 A 
ATOM     13  C   UNL d   1      -2.091  -6.574  -0.056  0.00  0.00     0.048 C 
ATOM     14  C   UNL d   1      -1.538  -2.947  -1.077  0.00  0.00     0.016 A 
ENDBRANCH   1   8
TORSDOF 1
