REMARK  5 active torsions:
REMARK  status: ('A' for Active; 'I' for Inactive)
REMARK    1  A    between atoms: N_7  and  N_1 
REMARK    2  A    between atoms: C_11  and  N_2 
REMARK       I    between atoms: C_8  and  N_7 
REMARK    3  A    between atoms: C_14  and  C_8 
REMARK    4  A    between atoms: C_18  and  N_9 
REMARK    5  A    between atoms: N_10  and  C_14 
ROOT
ATOM      1  N   UNL d   1       1.616   2.332   0.014  0.00  0.00    -0.263 N 
ATOM      2  C   UNL d   1       2.743   2.409   0.818  0.00  0.00     0.264 C 
ATOM      3  O   UNL d   1       3.036   3.397   1.490  0.00  0.00    -0.270 OA
ATOM      4  H   UNL d   1       1.328   1.448  -0.400  0.00  0.00     0.190 HD
ENDROOT
BRANCH   1   5
ATOM      5  N   UNL d   1       0.731   3.425  -0.031  0.00  0.00    -0.248 N 
ATOM      6  C   UNL d   1      -0.617   3.214   0.225  0.00  0.00     0.257 C 
ATOM      7  C   UNL d   1      -1.470   4.475   0.009  0.00  0.00     0.236 C 
ATOM      8  O   UNL d   1      -1.101   2.118   0.482  0.00  0.00    -0.270 OA
ATOM      9  N   UNL d   1      -0.694   5.719   0.122  0.00  0.00    -0.308 N 
ATOM     10  C   UNL d   1       0.552   5.798  -0.531  0.00  0.00     0.244 C 
ATOM     11  C   UNL d   1       1.121   4.457  -0.970  0.00  0.00     0.255 C 
ATOM     12  O   UNL d   1       1.103   6.841  -0.884  0.00  0.00    -0.271 OA
BRANCH   9  13
ATOM     13  C   UNL d   1      -1.336   6.918   0.567  0.00  0.00     0.037 A 
ATOM     14  C   UNL d   1      -2.713   7.119   0.428  0.00  0.00     0.030 A 
ATOM     15  C   UNL d   1      -3.302   8.331   0.822  0.00  0.00     0.009 A 
ATOM     16  C   UNL d   1      -2.531   9.346   1.399  0.00  0.00    -0.062 A 
ATOM     17  C   UNL d   1      -1.162   9.136   1.570  0.00  0.00     0.009 A 
ATOM     18  C   UNL d   1      -3.155  10.657   1.773  0.00  0.00     0.048 C 
ATOM     19  C   UNL d   1      -0.574   7.938   1.157  0.00  0.00     0.030 A 
ENDBRANCH   9  13
ENDBRANCH   1   5
BRANCH   2  20
ATOM     20  C   UNL d   1       3.622   1.150   0.798  0.00  0.00     0.376 C 
BRANCH  20  21
ATOM     21  N   UNL d   1       3.838   0.676  -0.587  0.00  0.00     0.100 N 
ATOM     22  C   UNL d   1       4.692   1.605  -1.378  0.00  0.00     0.292 C 
ATOM     23  C   UNL d   1       6.226   1.538  -1.149  0.00  0.00     0.153 C 
ATOM     24  N   UNL d   1       6.709   0.147  -1.217  0.00  0.00    -0.378 N 
ATOM     25  C   UNL d   1       5.961  -0.767  -0.345  0.00  0.00     0.153 C 
ATOM     26  C   UNL d   1       4.439  -0.682  -0.612  0.00  0.00     0.292 C 
BRANCH  24  27
ATOM     27  C   UNL d   1       7.393  -0.289  -2.346  0.00  0.00     0.030 A 
ATOM     28  C   UNL d   1       7.149  -1.526  -2.963  0.00  0.00     0.029 A 
ATOM     29  C   UNL d   1       7.889  -1.962  -4.072  0.00  0.00     0.002 A 
ATOM     30  C   UNL d   1       8.903  -1.169  -4.594  0.00  0.00     0.000 A 
ATOM     31  C   UNL d   1       9.174   0.059  -4.005  0.00  0.00     0.002 A 
ATOM     32  C   UNL d   1       8.428   0.486  -2.899  0.00  0.00     0.029 A 
ENDBRANCH  24  27
ENDBRANCH  20  21
ENDBRANCH   2  20
TORSDOF 5
