REMARK  3 active torsions:
REMARK  status: ('A' for Active; 'I' for Inactive)
REMARK    1  A    between atoms: N_2  and  N_6 
REMARK    2  A    between atoms: C_13  and  N_3 
REMARK    3  A    between atoms: C_24  and  C_10 
ROOT
ATOM      1  N   UNL d   1       2.120  -2.987  -0.227  0.00  0.00    -0.222 N 
ATOM      2  C   UNL d   1       0.983  -5.053  -0.917  0.00  0.00     0.120 C 
ATOM      3  C   UNL d   1       1.219  -3.594  -1.137  0.00  0.00     0.288 C 
ATOM      4  C   UNL d   1       3.061  -3.736   0.467  0.00  0.00     0.034 C 
ATOM      5  C   UNL d   1       1.829  -5.755  -0.134  0.00  0.00    -0.034 C 
ATOM      6  C   UNL d   1       2.943  -5.074   0.498  0.00  0.00     0.035 C 
ATOM      7  C   UNL d   1      -0.165  -5.640  -1.519  0.00  0.00     0.105 C 
ATOM      8  N   UNL d   1      -1.098  -6.181  -1.958  0.00  0.00    -0.191 NA
ATOM      9  O   UNL d   1       0.623  -3.004  -2.040  0.00  0.00    -0.265 OA
ATOM     10  C   UNL d   1       1.695  -7.227   0.137  0.00  0.00     0.050 C 
ATOM     11  C   UNL d   1       4.212  -3.060   1.158  0.00  0.00     0.070 C 
ENDROOT
BRANCH   1  12
ATOM     12  N   UNL d   1       2.260  -1.612  -0.185  0.00  0.00    -0.270 N 
ATOM     13  C   UNL d   1       1.209  -0.863  -0.011  0.00  0.00     0.167 C 
ATOM     14  N   UNL d   1       1.137   0.548  -0.036  0.00  0.00    -0.330 N 
ATOM     15  S   UNL d   1      -0.422  -1.499   0.414  0.00  0.00    -0.050 SA
ATOM     16  C   UNL d   1      -0.191   1.008   0.031  0.00  0.00     0.113 C 
ATOM     17  C   UNL d   1      -1.132   0.066   0.209  0.00  0.00     0.034 C 
ATOM     18  HN  UNL d   1       3.181  -1.186  -0.290  1.00  0.00     0.190 HD
BRANCH  14  19
ATOM     19  C   UNL d   1       2.238   1.361   0.515  0.00  0.00     0.099 C 
ATOM     20  C   UNL d   1       3.692   0.924   0.196  0.00  0.00     0.032 C 
ATOM     21  C   UNL d   1       4.002   1.076  -1.278  0.00  0.00    -0.024 C 
ATOM     22  C   UNL d   1       4.445   2.160   0.716  0.00  0.00     0.019 C 
ATOM     23  C   UNL d   1       4.056   2.390  -1.543  0.00  0.00    -0.026 C 
ATOM     24  C   UNL d   1       3.747   3.112  -0.256  0.00  0.00     0.010 C 
ATOM     25  C   UNL d   1       2.252   2.858   0.056  0.00  0.00     0.035 C 
ENDBRANCH  14  19
BRANCH  17  26
ATOM     26  C   UNL d   1      -2.584   0.156   0.234  0.00  0.00    -0.018 A 
ATOM     27  C   UNL d   1      -3.301   0.162  -0.969  0.00  0.00     0.013 A 
ATOM     28  C   UNL d   1      -4.695   0.064  -0.961  0.00  0.00     0.001 A 
ATOM     29  C   UNL d   1      -5.381  -0.031   0.249  0.00  0.00     0.000 A 
ATOM     30  C   UNL d   1      -4.677  -0.008   1.452  0.00  0.00     0.001 A 
ATOM     31  C   UNL d   1      -3.283   0.088   1.447  0.00  0.00     0.013 A 
ENDBRANCH  17  26
ENDBRANCH   1  12
TORSDOF 3
