REMARK  10 active torsions:
REMARK  status: ('A' for Active; 'I' for Inactive)
REMARK    1  A    between atoms: N_6  and  C_1 
REMARK    2  A    between atoms: C_10  and  C_2 
REMARK    3  A    between atoms: C_9  and  N_6 
REMARK       I    between atoms: C_8  and  N_7 
REMARK    4  A    between atoms: O_20  and  C_8 
REMARK    5  A    between atoms: N_17  and  C_9 
REMARK    6  A    between atoms: O_21  and  C_10 
REMARK    7  A    between atoms: C_22  and  N_17 
REMARK    8  A    between atoms: C_18  and  C_22 
REMARK    9  A    between atoms: C_23  and  O_20 
REMARK   10  A    between atoms: C_24  and  O_21 
ROOT
ATOM      1  C   UNL d   1       2.203   1.022  -0.217  0.00  0.00     0.093 A 
ATOM      2  C   UNL d   1       1.089   1.858  -0.199  0.00  0.00     0.080 A 
ATOM      3  C   UNL d   1       0.142  -0.285  -0.064  0.00  0.00     0.010 A 
ATOM      4  C   UNL d   1      -0.129   1.072  -0.117  0.00  0.00    -0.023 A 
ATOM      5  S   UNL d   1       1.796  -0.613   0.016  0.00  0.00    -0.074 SA
ATOM      6  N   UNL d   1      -2.177  -0.849  -0.376  0.00  0.00    -0.323 N 
ATOM      7  C   UNL d   1      -3.129  -1.578  -1.058  0.00  0.00     0.363 C 
ATOM      8  C   UNL d   1      -0.861  -1.397  -0.052  0.00  0.00     0.174 C 
ATOM      9  C   UNL d   1      -1.562   1.545  -0.145  0.00  0.00     0.061 C 
ATOM     10  C   UNL d   1      -2.534   0.421   0.256  0.00  0.00     0.133 C 
ATOM     11  O   UNL d   1      -4.284  -1.207  -1.224  0.00  0.00    -0.238 OA
ENDROOT
BRANCH   1  12
ATOM     12  N   UNL d   1       3.544   1.392  -0.256  0.00  0.00    -0.327 N 
ATOM     13  H   UNL d   1       3.727   2.394  -0.223  0.00  0.00     0.169 HD
BRANCH  12  14
ATOM     14  C   UNL d   1       4.628   0.580  -0.564  0.00  0.00     0.172 C 
ATOM     15  S   UNL d   1       4.697  -0.521  -1.830  0.00  0.00    -0.041 SA
BRANCH  14  16
ATOM     16  N   UNL d   1       5.688   0.856   0.285  0.00  0.00    -0.364 N 
ATOM     17  H   UNL d   1       5.520   1.574   0.976  0.00  0.00     0.162 HD
BRANCH  16  18
ATOM     18  C   UNL d   1       6.749  -0.078   0.616  0.00  0.00     0.148 C 
BRANCH  18  19
ATOM     19  C   UNL d   1       8.027   0.388   0.003  0.00  0.00    -0.018 C 
ATOM     20  C   UNL d   1       9.170   0.553   0.682  0.00  0.00     0.008 C 
ENDBRANCH  18  19
ENDBRANCH  16  18
ENDBRANCH  14  16
ENDBRANCH  12  14
ENDBRANCH   1  12
BRANCH   2  21
ATOM     21  C   UNL d   1       1.224   3.317  -0.269  0.00  0.00     0.296 C 
ATOM     22  O   UNL d   1       2.314   3.871  -0.400  0.00  0.00    -0.259 OA
BRANCH  21  23
ATOM     23  O   UNL d   1       0.049   3.976  -0.100  0.00  0.00    -0.318 OA
BRANCH  23  24
ATOM     24  C   UNL d   1       0.114   5.407   0.009  0.00  0.00     0.174 C 
ATOM     25  C   UNL d   1      -0.936   6.011  -0.902  0.00  0.00     0.034 C 
ENDBRANCH  23  24
ENDBRANCH  21  23
ENDBRANCH   2  21
BRANCH   7  26
ATOM     26  O   UNL d   1      -2.639  -2.763  -1.507  0.00  0.00    -0.304 OA
BRANCH  26  27
ATOM     27  C   UNL d   1      -3.581  -3.657  -2.115  0.00  0.00     0.176 C 
ATOM     28  C   UNL d   1      -4.144  -4.566  -1.040  0.00  0.00     0.034 C 
ENDBRANCH  26  27
ENDBRANCH   7  26
TORSDOF 10
