REMARK  3 active torsions:
REMARK  status: ('A' for Active; 'I' for Inactive)
REMARK       I    between atoms: C_2  and  N_1 
REMARK    1  A    between atoms: C_11  and  C_2 
REMARK    2  A    between atoms: C_4  and  N_3 
REMARK    3  A    between atoms: O_12  and  C_10 
ROOT
ATOM      1  N   UNL d   1      -1.098   0.528   1.022  0.00  0.00    -0.349 N 
ATOM      2  C   UNL d   1      -2.443   0.450   1.397  0.00  0.00     0.224 C 
ATOM      3  N   UNL d   1       1.353   0.365  -0.509  0.00  0.00    -0.376 N 
ATOM      4  C   UNL d   1      -0.506  -0.762   0.627  0.00  0.00     0.145 C 
ATOM      5  C   UNL d   1      -0.568   1.704   0.308  0.00  0.00     0.145 C 
ATOM      6  C   UNL d   1       1.016  -0.737   0.417  0.00  0.00     0.143 C 
ATOM      7  C   UNL d   1       0.956   1.670   0.057  0.00  0.00     0.143 C 
ATOM      8  O   UNL d   1      -3.000  -0.644   1.502  0.00  0.00    -0.273 OA
ENDROOT
BRANCH   2   9
ATOM      9  C   UNL d   1      -3.197   1.748   1.728  0.00  0.00     0.078 C 
ATOM     10  C   UNL d   1      -2.747   2.327   3.074  0.00  0.00     0.014 C 
ATOM     11  C   UNL d   1      -3.220   1.487   4.260  0.00  0.00     0.001 C 
ATOM     12  C   UNL d   1      -4.730   1.271   4.256  0.00  0.00     0.000 C 
ATOM     13  C   UNL d   1      -5.256   0.753   2.924  0.00  0.00     0.001 C 
ATOM     14  C   UNL d   1      -4.725   1.542   1.726  0.00  0.00     0.014 C 
ENDBRANCH   2   9
BRANCH   3  15
ATOM     15  C   UNL d   1       2.601   0.241  -1.142  0.00  0.00     0.064 A 
ATOM     16  C   UNL d   1       2.887  -0.808  -2.057  0.00  0.00     0.094 A 
ATOM     17  C   UNL d   1       4.134  -0.903  -2.692  0.00  0.00     0.039 A 
ATOM     18  C   UNL d   1       5.126   0.040  -2.451  0.00  0.00     0.003 A 
ATOM     19  C   UNL d   1       4.881   1.070  -1.553  0.00  0.00     0.002 A 
ATOM     20  C   UNL d   1       3.638   1.167  -0.913  0.00  0.00     0.032 A 
BRANCH  16  21
ATOM     21  O   UNL d   1       2.044  -1.849  -2.365  0.00  0.00    -0.354 OA
ATOM     22  C   UNL d   1       0.755  -1.463  -2.827  0.00  0.00     0.210 C 
ENDBRANCH  16  21
ENDBRANCH   3  15
TORSDOF 3
