REMARK  7 active torsions:
REMARK  status: ('A' for Active; 'I' for Inactive)
REMARK    1  A    between atoms: C_14  and  N_1 
REMARK    2  A    between atoms: C_23  and  N_4 
REMARK    3  A    between atoms: C_5  and  C_21 
REMARK    4  A    between atoms: C_19  and  C_6 
REMARK    5  A    between atoms: N_7  and  C_16 
REMARK    6  A    between atoms: C_15  and  C_14 
REMARK       I    between atoms: N_24  and  C_15 
REMARK    7  A    between atoms: N_17  and  N_24 
ROOT
ATOM      1  N   UNL d   1       2.401  -0.595   1.118  0.00  0.00    -0.308 N 
ATOM      2  HN  UNL d   1       1.635   0.057   1.288  1.00  0.00     0.186 HD
ATOM      3  C   UNL d   1       3.168  -0.519   0.072  0.00  0.00     0.122 C 
ENDROOT
BRANCH   3   4
ATOM      4  C   UNL d   1       2.895   0.394  -1.021  0.00  0.00     0.027 A 
ATOM      5  C   UNL d   1       3.575   0.506  -2.268  0.00  0.00     0.072 A 
ATOM      6  N   UNL d   1       3.041   1.478  -3.015  0.00  0.00    -0.292 N 
ATOM      7  N   UNL d   1       2.069   2.036  -2.271  0.00  0.00    -0.266 N 
ATOM      8  HN  UNL d   1       3.316   1.743  -3.961  1.00  0.00     0.187 HD
ATOM      9  C   UNL d   1       1.891   1.351  -1.091  0.00  0.00     0.132 A 
BRANCH   5  10
ATOM     10  C   UNL d   1       4.686  -0.255  -2.849  0.00  0.00    -0.007 A 
ATOM     11  C   UNL d   1       5.599   0.422  -3.681  0.00  0.00     0.016 A 
ATOM     12  C   UNL d   1       6.563  -0.271  -4.413  0.00  0.00     0.037 A 
ATOM     13  C   UNL d   1       6.629  -1.663  -4.305  0.00  0.00     0.102 A 
ATOM     14  C   UNL d   1       5.761  -2.351  -3.444  0.00  0.00     0.037 A 
ATOM     15  C   UNL d   1       4.790  -1.646  -2.720  0.00  0.00     0.016 A 
BRANCH  13  16
ATOM     16  N   UNL d   1       7.583  -2.406  -5.136  0.00  0.00    -0.116 N 
ATOM     17  O   UNL d   1       8.297  -1.759  -5.916  0.00  0.00    -0.532 OA
ATOM     18  O   UNL d   1       7.616  -3.639  -5.014  0.00  0.00    -0.532 OA
ENDBRANCH  13  16
ENDBRANCH   5  10
BRANCH   7  19
ATOM     19  C   UNL d   1       1.423   3.214  -2.741  0.00  0.00     0.056 A 
ATOM     20  C   UNL d   1       0.580   3.961  -1.913  0.00  0.00     0.031 A 
ATOM     21  C   UNL d   1       0.017   5.152  -2.387  0.00  0.00     0.002 A 
ATOM     22  C   UNL d   1       0.280   5.595  -3.684  0.00  0.00     0.000 A 
ATOM     23  C   UNL d   1       1.110   4.850  -4.518  0.00  0.00     0.002 A 
ATOM     24  C   UNL d   1       1.685   3.668  -4.048  0.00  0.00     0.031 A 
ENDBRANCH   7  19
ENDBRANCH   3   4
BRANCH   1  25
ATOM     25  N   UNL d   1       2.704  -1.631   1.984  0.00  0.00    -0.269 N 
ATOM     26  C   UNL d   1       2.874  -2.946   1.531  0.00  0.00     0.254 C 
ATOM     27  O   UNL d   1       2.899  -3.246   0.331  0.00  0.00    -0.270 OA
ATOM     28  H   UNL d   1       2.387  -1.490   2.941  0.00  0.00     0.190 HD
BRANCH  26  29
ATOM     29  C   UNL d   1       3.012  -4.021   2.620  0.00  0.00     0.234 C 
BRANCH  29  30
ATOM     30  N   UNL d   1       4.431  -4.332   2.974  0.00  0.00    -0.336 N 
ATOM     31  C   UNL d   1       4.951  -3.357   3.867  0.00  0.00     0.052 A 
ATOM     32  C   UNL d   1       5.856  -2.366   3.450  0.00  0.00     0.032 A 
ATOM     33  C   UNL d   1       4.569  -3.409   5.218  0.00  0.00     0.031 A 
ATOM     34  C   UNL d   1       6.239  -1.362   4.346  0.00  0.00     0.021 A 
ATOM     35  S   UNL d   1       6.542  -2.356   1.803  0.00  0.00    -0.086 SA
ATOM     36  C   UNL d   1       5.812  -1.397   5.675  0.00  0.00     0.002 A 
ATOM     37  C   UNL d   1       5.008  -2.443   6.121  0.00  0.00     0.002 A 
ATOM     38  C   UNL d   1       6.233  -4.047   1.301  0.00  0.00     0.032 A 
ATOM     39  C   UNL d   1       5.187  -4.805   1.865  0.00  0.00     0.052 A 
ATOM     40  C   UNL d   1       7.033  -4.601   0.293  0.00  0.00     0.021 A 
ATOM     41  C   UNL d   1       4.950  -6.101   1.375  0.00  0.00     0.031 A 
ATOM     42  C   UNL d   1       5.754  -6.646   0.372  0.00  0.00     0.002 A 
ATOM     43  C   UNL d   1       6.803  -5.900  -0.160  0.00  0.00     0.002 A 
ENDBRANCH  29  30
ENDBRANCH  26  29
ENDBRANCH   1  25
TORSDOF 7
