REMARK  3 active torsions:
REMARK  status: ('A' for Active; 'I' for Inactive)
REMARK    1  A    between atoms: C_5  and  C_1 
REMARK    2  A    between atoms: O_9  and  C_5 
REMARK    3  A    between atoms: C_8  and  O_9 
ROOT
ATOM      1  O   UNL d   1       3.650  -1.166   0.073  0.00  0.00    -0.274 OA
ENDROOT
BRANCH   1   2
ATOM      2  C   UNL d   1       3.872   0.230   0.127  0.00  0.00     0.082 A 
ATOM      3  C   UNL d   1       3.285   1.063   1.079  0.00  0.00     0.061 A 
ATOM      4  C   UNL d   1       3.533   2.435   1.034  0.00  0.00     0.038 A 
ATOM      5 CL   UNL d   1       2.758   3.476   2.165  0.00  0.00    -0.084 Cl
ATOM      6  C   UNL d   1       4.391   2.974   0.078  0.00  0.00     0.048 A 
ATOM      7  C   UNL d   1       5.013   2.123  -0.833  0.00  0.00     0.038 A 
ATOM      8  C   UNL d   1       4.763   0.750  -0.814  0.00  0.00     0.061 A 
ATOM      9 CL   UNL d   1       6.098   2.777  -1.998  0.00  0.00    -0.084 Cl
ENDBRANCH   1   2
BRANCH   1  10
ATOM     10  C   UNL d   1       2.396  -1.705   0.380  0.00  0.00     0.316 C 
ATOM     11  O   UNL d   1       1.425  -1.056   0.762  0.00  0.00    -0.257 OA
BRANCH  10  12
ATOM     12  C   UNL d   1       2.330  -3.145   0.182  0.00  0.00     0.128 A 
ATOM     13  N   UNL d   1       3.388  -3.877  -0.351  0.00  0.00    -0.287 N 
ATOM     14  N   UNL d   1       3.090  -5.160  -0.470  0.00  0.00    -0.061 NA
ATOM     15  HN  UNL d   1       4.285  -3.472  -0.619  1.00  0.00     0.183 HD
ATOM     16  S   UNL d   1       1.545  -5.526   0.058  0.00  0.00    -0.010 SA
ATOM     17  C   UNL d   1       1.207  -3.904   0.486  0.00  0.00     0.102 A 
ENDBRANCH  10  12
ENDBRANCH   1  10
TORSDOF 3
