REMARK  5 active torsions:
REMARK  status: ('A' for Active; 'I' for Inactive)
REMARK    1  A    between atoms: C_10  and  C_1 
REMARK    2  A    between atoms: N_8  and  C_2 
REMARK    3  A    between atoms: C_12  and  C_4 
REMARK       I    between atoms: C_6  and  N_8 
REMARK       I    between atoms: N_7  and  C_6 
REMARK    4  A    between atoms: C_9  and  N_7 
REMARK    5  A    between atoms: O_20  and  C_10 
ROOT
ATOM      1  C   UNL d   1      -0.076   1.393  -0.128  0.00  0.00     0.107 A 
ATOM      2  C   UNL d   1       1.237   0.959  -0.022  0.00  0.00     0.060 A 
ATOM      3  S   UNL d   1      -1.140   0.042  -0.363  0.00  0.00    -0.081 SA
ATOM      4  C   UNL d   1       0.086  -1.126  -0.137  0.00  0.00     0.018 A 
ATOM      5  C   UNL d   1       1.297  -0.479   0.004  0.00  0.00     0.051 A 
ENDROOT
BRANCH   2   6
ATOM      6  N   UNL d   1       2.440   1.633   0.136  0.00  0.00    -0.307 N 
ATOM      7  C   UNL d   1       2.859   2.906  -0.064  0.00  0.00     0.325 C 
ATOM      8  N   UNL d   1       2.166   3.679  -0.955  0.00  0.00    -0.303 N 
ATOM      9  O   UNL d   1       3.919   3.234   0.475  0.00  0.00    -0.247 OA
ATOM     10  H   UNL d   1       1.741   3.202  -1.732  0.00  0.00     0.171 HD
ATOM     11  H   UNL d   1       3.203   1.079   0.511  0.00  0.00     0.170 HD
BRANCH   8  12
ATOM     12  C   UNL d   1       2.532   4.993  -1.145  0.00  0.00     0.077 A 
ATOM     13  S   UNL d   1       2.284   5.594  -2.711  0.00  0.00    -0.084 SA
ATOM     14  C   UNL d   1       3.008   7.093  -2.296  0.00  0.00     0.052 A 
ATOM     15  C   UNL d   1       3.339   7.154  -0.958  0.00  0.00     0.010 A 
ATOM     16  C   UNL d   1       3.069   5.925  -0.290  0.00  0.00     0.038 A 
ENDBRANCH   8  12
ENDBRANCH   2   6
BRANCH   1  17
ATOM     17  C   UNL d   1      -0.750   2.680  -0.020  0.00  0.00     0.302 C 
ATOM     18  O   UNL d   1      -1.834   2.950  -0.527  0.00  0.00    -0.259 OA
BRANCH  17  19
ATOM     19  O   UNL d   1      -0.066   3.530   0.796  0.00  0.00    -0.322 OA
ATOM     20  C   UNL d   1      -0.674   4.808   1.027  0.00  0.00     0.213 C 
ENDBRANCH  17  19
ENDBRANCH   1  17
BRANCH   4  21
ATOM     21  C   UNL d   1      -0.189  -2.585  -0.104  0.00  0.00    -0.019 A 
ATOM     22  C   UNL d   1       0.880  -3.502  -0.108  0.00  0.00     0.014 A 
ATOM     23  C   UNL d   1       0.666  -4.882  -0.004  0.00  0.00     0.024 A 
ATOM     24  C   UNL d   1      -0.628  -5.375   0.098  0.00  0.00     0.034 A 
ATOM     25  C   UNL d   1      -1.707  -4.498   0.081  0.00  0.00     0.024 A 
ATOM     26 CL   UNL d   1      -0.890  -7.066   0.259  0.00  0.00    -0.084 Cl
ATOM     27  C   UNL d   1      -1.488  -3.116  -0.020  0.00  0.00     0.014 A 
ENDBRANCH   4  21
TORSDOF 5
