REMARK  4 active torsions:
REMARK  status: ('A' for Active; 'I' for Inactive)
REMARK    1  A    between atoms: C_14  and  N_10 
REMARK    2  A    between atoms: C_12  and  O_19 
REMARK    3  A    between atoms: C_15  and  C_12 
REMARK    4  A    between atoms: O_19  and  N_16 
ROOT
ATOM      1  C   UNL d   1       0.071   1.180  -0.077  0.00  0.00     0.041 A 
ATOM      2  C   UNL d   1       0.358  -1.255   0.019  0.00  0.00     0.150 A 
ATOM      3  C   UNL d   1      -0.393   2.549  -0.150  0.00  0.00     0.024 A 
ATOM      4  S   UNL d   1      -0.986  -0.175   0.036  0.00  0.00    -0.051 SA
ATOM      5  S   UNL d   1       0.719   3.866  -0.247  0.00  0.00    -0.081 SA
ATOM      6  N   UNL d   1       1.529  -0.665  -0.044  0.00  0.00    -0.345 N 
ATOM      7  HN  UNL d   1       2.427  -1.150  -0.054  1.00  0.00     0.167 HD
ATOM      8  C   UNL d   1       1.372   0.706  -0.095  0.00  0.00     0.110 A 
ATOM      9  C   UNL d   1      -0.524   5.005  -0.344  0.00  0.00     0.052 A 
ATOM     10  N   UNL d   1       0.168  -2.591   0.064  0.00  0.00    -0.331 N 
ATOM     11  C   UNL d   1      -1.697   3.023  -0.168  0.00  0.00     0.022 A 
ATOM     12  C   UNL d   1      -1.774   4.447  -0.287  0.00  0.00     0.028 A 
ATOM     13 BR   UNL d   1      -0.216   6.844  -0.517  0.00  0.00    -0.043 Br
ATOM     14  H   UNL d   1      -0.780  -2.943   0.120  0.00  0.00     0.168 HD
ENDROOT
BRANCH  10  15
ATOM     15  C   UNL d   1       1.125  -3.557   0.009  0.00  0.00     0.207 C 
ATOM     16  N   UNL d   1       0.866  -4.823   0.039  0.00  0.00    -0.253 N 
ATOM     17  HN  UNL d   1      -0.067  -5.227   0.115  1.00  0.00     0.195 HD
BRANCH  16  18
ATOM     18  O   UNL d   1       2.067  -5.564  -0.049  0.00  0.00    -0.194 OA
BRANCH  18  19
ATOM     19  C   UNL d   1       1.777  -6.902   0.007  0.00  0.00     0.315 C 
ATOM     20  O   UNL d   1       0.675  -7.413   0.148  0.00  0.00    -0.257 OA
BRANCH  19  21
ATOM     21  C   UNL d   1       3.010  -7.729  -0.144  0.00  0.00     0.041 A 
ATOM     22  C   UNL d   1       2.852  -9.126  -0.167  0.00  0.00     0.019 A 
ATOM     23  C   UNL d   1       3.956  -9.969  -0.323  0.00  0.00     0.025 A 
ATOM     24  C   UNL d   1       5.228  -9.419  -0.454  0.00  0.00     0.034 A 
ATOM     25  C   UNL d   1       5.403  -8.035  -0.425  0.00  0.00     0.025 A 
ATOM     26 CL   UNL d   1       6.588 -10.453  -0.656  0.00  0.00    -0.084 Cl
ATOM     27  C   UNL d   1       4.296  -7.187  -0.270  0.00  0.00     0.019 A 
ENDBRANCH  19  21
ENDBRANCH  18  19
ENDBRANCH  16  18
ENDBRANCH  10  15
TORSDOF 4
