REMARK  4 active torsions:
REMARK  status: ('A' for Active; 'I' for Inactive)
REMARK    1  A    between atoms: N_5  and  C_1 
REMARK       I    between atoms: C_4  and  N_9 
REMARK    2  A    between atoms: C_8  and  C_4 
REMARK    3  A    between atoms: N_9  and  N_5 
REMARK    4  A    between atoms: C_11  and  N_6 
ROOT
ATOM      1  N   UNL d   1       1.762  -6.888  -3.335  0.00  0.00    -0.197 NA
ATOM      2  C   UNL d   1       1.788  -5.868  -3.881  0.00  0.00     0.068 C 
ATOM      3  C   UNL d   1       1.848  -4.564  -4.543  0.00  0.00     0.228 C 
ENDROOT
BRANCH   3   4
ATOM      4  C   UNL d   1       0.914  -3.591  -3.870  0.00  0.00     0.249 C 
ATOM      5  N   UNL d   1       1.286  -3.221  -2.592  0.00  0.00    -0.267 N 
ATOM      6  H   UNL d   1       2.062  -3.647  -2.091  0.00  0.00     0.190 HD
ATOM      7  O   UNL d   1      -0.094  -3.151  -4.421  0.00  0.00    -0.271 OA
BRANCH   5   8
ATOM      8  N   UNL d   1       0.367  -2.511  -1.796  0.00  0.00    -0.274 N 
ATOM      9  H   UNL d   1      -0.526  -2.310  -2.248  0.00  0.00     0.189 HD
BRANCH   8  10
ATOM     10  C   UNL d   1       0.815  -1.611  -0.865  0.00  0.00     0.186 C 
ATOM     11  N   UNL d   1      -0.116  -1.095  -0.015  0.00  0.00    -0.361 N 
ATOM     12  H   UNL d   1       0.286  -0.432   0.639  0.00  0.00     0.162 HD
ATOM     13  S   UNL d   1       2.412  -1.166  -0.634  0.00  0.00    -0.040 SA
BRANCH  11  14
ATOM     14  C   UNL d   1      -1.447  -1.631   0.329  0.00  0.00     0.083 C 
ATOM     15  C   UNL d   1      -2.539  -0.997  -0.546  0.00  0.00     0.025 C 
ATOM     16  C   UNL d   1      -3.906  -0.756   0.104  0.00  0.00     0.002 C 
ATOM     17  C   UNL d   1      -3.987   0.462   1.026  0.00  0.00     0.000 C 
ATOM     18  C   UNL d   1      -3.287   0.366   2.379  0.00  0.00     0.000 C 
ATOM     19  C   UNL d   1      -1.835  -0.089   2.353  0.00  0.00     0.002 C 
ATOM     20  C   UNL d   1      -1.665  -1.520   1.845  0.00  0.00     0.025 C 
ENDBRANCH  11  14
ENDBRANCH   8  10
ENDBRANCH   5   8
ENDBRANCH   3   4
TORSDOF 4
