REMARK  2 active torsions:
REMARK  status: ('A' for Active; 'I' for Inactive)
REMARK    1  A    between atoms: N_14  and  N_9 
REMARK    2  A    between atoms: C_20  and  C_19 
ROOT
ATOM      1  C   UNL d   1       1.243   0.891   0.054  0.00  0.00     0.104 A 
ATOM      2  C   UNL d   1       0.775  -0.392   0.020  0.00  0.00     0.069 A 
ATOM      3  C   UNL d   1       2.639   1.229   0.100  0.00  0.00     0.286 A 
ATOM      4  S   UNL d   1      -0.003   2.036   0.037  0.00  0.00    -0.064 SA
ATOM      5  C   UNL d   1      -0.656  -0.483  -0.000  0.00  0.00     0.032 A 
ATOM      6  C   UNL d   1      -1.191   0.807   0.006  0.00  0.00     0.088 A 
ATOM      7  N   UNL d   1       1.644  -1.497   0.035  0.00  0.00    -0.349 N 
ATOM      8  HN  UNL d   1       1.312  -2.462   0.023  1.00  0.00     0.167 HD
ATOM      9  N   UNL d   1       3.459   0.085   0.062  0.00  0.00    -0.215 N 
ATOM     10  C   UNL d   1       2.906  -1.186   0.065  0.00  0.00     0.211 A 
ATOM     11  N   UNL d   1      -2.495   1.148  -0.004  0.00  0.00    -0.354 N 
ATOM     12  HN  UNL d   1      -2.809   2.119  -0.003  1.00  0.00     0.166 HD
ATOM     13  C   UNL d   1      -1.583  -1.558  -0.015  0.00  0.00    -0.045 A 
ATOM     14  O   UNL d   1       3.066   2.381   0.158  0.00  0.00    -0.265 OA
ATOM     15  C   UNL d   1      -2.949  -1.222  -0.022  0.00  0.00     0.032 A 
ATOM     16  C   UNL d   1      -3.350   0.109  -0.015  0.00  0.00     0.006 A 
ATOM     17  C   UNL d   1      -1.223  -3.018  -0.014  0.00  0.00     0.049 C 
ATOM     18  C   UNL d   1      -4.816   0.435  -0.014  0.00  0.00     0.068 C 
ENDROOT
BRANCH   9  19
ATOM     19  N   UNL d   1       4.821   0.326   0.134  0.00  0.00    -0.301 N 
ATOM     20  C   UNL d   1       5.676  -0.505  -0.364  0.00  0.00     0.119 C 
ATOM     21  HN  UNL d   1       5.156   1.175   0.589  1.00  0.00     0.186 HD
BRANCH  20  22
ATOM     22  C   UNL d   1       7.125  -0.200  -0.325  0.00  0.00    -0.019 A 
ATOM     23  C   UNL d   1       7.590   0.971   0.291  0.00  0.00     0.016 A 
ATOM     24  C   UNL d   1       8.951   1.282   0.256  0.00  0.00     0.043 A 
ATOM     25  C   UNL d   1       9.832   0.424  -0.393  0.00  0.00     0.116 A 
ATOM     26  C   UNL d   1       9.381  -0.746  -0.996  0.00  0.00     0.043 A 
ATOM     27  F   UNL d   1      11.134   0.733  -0.445  0.00  0.00    -0.206 F 
ATOM     28  C   UNL d   1       8.021  -1.065  -0.961  0.00  0.00     0.016 A 
ENDBRANCH  20  22
ENDBRANCH   9  19
TORSDOF 2
