REMARK  5 active torsions:
REMARK  status: ('A' for Active; 'I' for Inactive)
REMARK    1  A    between atoms: C_9  and  C_23 
REMARK    2  A    between atoms: C_31  and  N_10 
REMARK    3  A    between atoms: N_21  and  N_13 
REMARK    4  A    between atoms: C_25  and  C_14 
REMARK    5  A    between atoms: N_15  and  C_24 
ROOT
ATOM      1  N   UNL d   1       9.067   0.460   0.657  0.00  0.00    -0.292 N 
ATOM      2  HN  UNL d   1       9.760   0.949   1.224  1.00  0.00     0.187 HD
ATOM      3  C   UNL d   1       7.103  -0.382  -0.133  0.00  0.00     0.027 A 
ATOM      4  N   UNL d   1       9.303  -0.359  -0.404  0.00  0.00    -0.266 N 
ATOM      5  C   UNL d   1       7.731   0.491   0.802  0.00  0.00     0.072 A 
ATOM      6  C   UNL d   1       8.133  -0.887  -0.893  0.00  0.00     0.132 A 
ENDROOT
BRANCH   3   7
ATOM      7  C   UNL d   1       5.703  -0.694  -0.279  0.00  0.00     0.123 C 
ATOM      8  N   UNL d   1       5.234  -0.994  -1.447  0.00  0.00    -0.301 N 
ATOM      9  HN  UNL d   1       5.839  -1.013  -2.268  1.00  0.00     0.186 HD
BRANCH   8  10
ATOM     10  N   UNL d   1       3.875  -1.291  -1.545  0.00  0.00    -0.215 N 
ATOM     11  C   UNL d   1       3.137  -1.890  -0.513  0.00  0.00     0.286 A 
ATOM     12  C   UNL d   1       1.767  -2.097  -0.880  0.00  0.00     0.104 A 
ATOM     13  O   UNL d   1       3.607  -2.228   0.574  0.00  0.00    -0.265 OA
ATOM     14  C   UNL d   1       1.266  -1.832  -2.126  0.00  0.00     0.069 A 
ATOM     15  S   UNL d   1       0.599  -2.707   0.176  0.00  0.00    -0.064 SA
ATOM     16  C   UNL d   1      -0.126  -2.148  -2.262  0.00  0.00     0.032 A 
ATOM     17  N   UNL d   1       2.077  -1.318  -3.152  0.00  0.00    -0.349 N 
ATOM     18  C   UNL d   1      -1.068  -2.075  -3.321  0.00  0.00    -0.045 A 
ATOM     19  C   UNL d   1      -0.595  -2.642  -1.042  0.00  0.00     0.088 A 
ATOM     20  C   UNL d   1      -2.377  -2.509  -3.041  0.00  0.00     0.032 A 
ATOM     21  C   UNL d   1      -0.777  -1.581  -4.712  0.00  0.00     0.049 C 
ATOM     22  C   UNL d   1      -2.712  -2.979  -1.776  0.00  0.00     0.006 A 
ATOM     23  N   UNL d   1      -1.845  -3.056  -0.754  0.00  0.00    -0.354 N 
ATOM     24  C   UNL d   1      -4.115  -3.439  -1.503  0.00  0.00     0.068 C 
ATOM     25  HN  UNL d   1      -2.111  -3.402   0.168  1.00  0.00     0.166 HD
ATOM     26  C   UNL d   1       3.307  -1.091  -2.799  0.00  0.00     0.211 A 
ATOM     27  HN  UNL d   1       1.730  -1.138  -4.094  1.00  0.00     0.167 HD
ENDBRANCH   8  10
ENDBRANCH   3   7
BRANCH   5  28
ATOM     28  C   UNL d   1       7.085   1.380   1.783  0.00  0.00    -0.007 A 
ATOM     29  C   UNL d   1       5.827   1.949   1.508  0.00  0.00     0.016 A 
ATOM     30  C   UNL d   1       5.199   2.802   2.418  0.00  0.00     0.037 A 
ATOM     31  C   UNL d   1       5.846   3.130   3.610  0.00  0.00     0.102 A 
ATOM     32  C   UNL d   1       7.106   2.588   3.904  0.00  0.00     0.037 A 
ATOM     33  C   UNL d   1       7.716   1.713   2.991  0.00  0.00     0.016 A 
BRANCH  31  34
ATOM     34  N   UNL d   1       5.209   4.072   4.540  0.00  0.00    -0.116 N 
ATOM     35  O   UNL d   1       4.097   4.529   4.224  0.00  0.00    -0.532 OA
ATOM     36  O   UNL d   1       5.819   4.362   5.575  0.00  0.00    -0.532 OA
ENDBRANCH  31  34
ENDBRANCH   5  28
BRANCH   4  37
ATOM     37  C   UNL d   1      10.621  -0.592  -0.897  0.00  0.00     0.056 A 
ATOM     38  C   UNL d   1      10.836  -1.420  -2.010  0.00  0.00     0.031 A 
ATOM     39  C   UNL d   1      12.129  -1.639  -2.491  0.00  0.00     0.002 A 
ATOM     40  C   UNL d   1      13.218  -1.038  -1.866  0.00  0.00     0.000 A 
ATOM     41  C   UNL d   1      13.016  -0.212  -0.761  0.00  0.00     0.002 A 
ATOM     42  C   UNL d   1      11.723   0.015  -0.276  0.00  0.00     0.031 A 
ENDBRANCH   4  37
TORSDOF 5
