REMARK  8 active torsions:
REMARK  status: ('A' for Active; 'I' for Inactive)
REMARK    1  A    between atoms: N_15  and  C_3 
REMARK    2  A    between atoms: C_6  and  C_4 
REMARK    3  A    between atoms: S_13  and  C_5 
REMARK    4  A    between atoms: O_18  and  C_6 
REMARK    5  A    between atoms: C_11  and  C_10 
REMARK    6  A    between atoms: C_17  and  C_11 
REMARK    7  A    between atoms: C_12  and  S_13 
REMARK    8  A    between atoms: C_21  and  O_18 
ROOT
ATOM      1  N   UNL d   1       0.313  -1.152   0.121  0.00  0.00    -0.327 N 
ATOM      2  HN  UNL d   1       0.861  -2.012   0.117  1.00  0.00     0.169 HD
ATOM      3  C   UNL d   1       0.907   0.057   0.138  0.00  0.00     0.097 A 
ATOM      4  C   UNL d   1       0.181   1.236   0.153  0.00  0.00     0.092 A 
ATOM      5  C   UNL d   1      -1.032  -1.178   0.109  0.00  0.00     0.149 A 
ATOM      6  N   UNL d   1      -1.822  -0.092   0.095  0.00  0.00    -0.345 N 
ATOM      7  HN  UNL d   1      -2.839  -0.164   0.068  1.00  0.00     0.167 HD
ATOM      8  C   UNL d   1      -1.190   1.100   0.119  0.00  0.00     0.111 A 
ENDROOT
BRANCH   5   9
ATOM      9  S   UNL d   1      -1.817  -2.774   0.030  0.00  0.00    -0.066 SA
BRANCH   9  10
ATOM     10  C   UNL d   1      -2.048  -3.103   1.720  0.00  0.00     0.057 C 
ATOM     11  C   UNL d   1      -2.537  -4.287   2.119  0.00  0.00     0.063 C 
BRANCH  11  12
ATOM     12  C   UNL d   1      -2.750  -4.566   3.565  0.00  0.00     0.182 C 
ATOM     13  O   UNL d   1      -2.795  -3.660   4.392  0.00  0.00    -0.288 OA
BRANCH  12  14
ATOM     14  C   UNL d   1      -2.944  -5.983   3.989  0.00  0.00     0.014 A 
ATOM     15  C   UNL d   1      -2.371  -7.057   3.294  0.00  0.00     0.015 A 
ATOM     16  C   UNL d   1      -2.546  -8.366   3.756  0.00  0.00     0.001 A 
ATOM     17  C   UNL d   1      -3.287  -8.609   4.911  0.00  0.00     0.000 A 
ATOM     18  C   UNL d   1      -3.855  -7.546   5.611  0.00  0.00     0.001 A 
ATOM     19  C   UNL d   1      -3.680  -6.237   5.154  0.00  0.00     0.015 A 
ENDBRANCH  12  14
ENDBRANCH  11  12
ENDBRANCH   9  10
ENDBRANCH   5   9
BRANCH   3  20
ATOM     20  N   UNL d   1       2.295   0.029   0.261  0.00  0.00    -0.288 NA
ATOM     21  H   UNL d   1       2.639  -0.914   0.118  0.00  0.00     0.125 HD
ATOM     22  H   UNL d   1       2.762   0.733  -0.308  0.00  0.00     0.125 HD
ENDBRANCH   3  20
BRANCH   4  23
ATOM     23  C   UNL d   1       0.841   2.546   0.222  0.00  0.00     0.298 C 
ATOM     24  O   UNL d   1       1.956   2.780  -0.218  0.00  0.00    -0.259 OA
BRANCH  23  25
ATOM     25  O   UNL d   1       0.062   3.386   0.949  0.00  0.00    -0.318 OA
BRANCH  25  26
ATOM     26  C   UNL d   1       0.734   4.527   1.504  0.00  0.00     0.174 C 
ATOM     27  C   UNL d   1       1.278   4.135   2.866  0.00  0.00     0.034 C 
ENDBRANCH  25  26
ENDBRANCH  23  25
ENDBRANCH   4  23
TORSDOF 8
