REMARK  4 active torsions:
REMARK  status: ('A' for Active; 'I' for Inactive)
REMARK    1  A    between atoms: O_6  and  C_3 
REMARK    2  A    between atoms: C_4  and  C_10 
REMARK    3  A    between atoms: O_11  and  C_4 
REMARK    4  A    between atoms: C_10  and  O_6 
ROOT
ATOM      1  C   UNL d   1      -0.329   0.667  -0.002  0.00  0.00    -0.018 A 
ATOM      2  C   UNL d   1      -0.098  -0.713  -0.007  0.00  0.00    -0.043 A 
ATOM      3  C   UNL d   1       0.722   1.578   0.039  0.00  0.00     0.076 A 
ATOM      4  C   UNL d   1       1.195  -1.227   0.016  0.00  0.00    -0.055 A 
ATOM      5  C   UNL d   1       2.024   1.075   0.049  0.00  0.00     0.038 A 
ATOM      6  C   UNL d   1       2.257  -0.311   0.040  0.00  0.00     0.010 A 
ATOM      7  C   UNL d   1      -1.381  -1.482  -0.046  0.00  0.00     0.040 A 
ATOM      8  C   UNL d   1      -1.791   0.981  -0.039  0.00  0.00     0.042 A 
ATOM      9  C   UNL d   1      -2.464  -0.397  -0.024  0.00  0.00     0.009 A 
ATOM     10  C   UNL d   1       1.492  -2.696   0.003  0.00  0.00     0.049 C 
ENDROOT
BRANCH   3  11
ATOM     11  O   UNL d   1       0.392   2.905   0.020  0.00  0.00    -0.340 OA
BRANCH  11  12
ATOM     12  C   UNL d   1       1.345   3.779   0.638  0.00  0.00     0.285 C 
BRANCH  12  13
ATOM     13  C   UNL d   1       0.814   5.202   0.604  0.00  0.00     0.164 C 
ATOM     14  O   UNL d   1       1.391   6.158   1.102  0.00  0.00    -0.648 OA
BRANCH  13  15
ATOM     15  O   UNL d   1      -0.363   5.323  -0.057  0.00  0.00    -0.775 OA
ATOM     16  H   UNL d   1      -0.647   4.439  -0.379  0.00  0.00     0.167 HD
ENDBRANCH  13  15
ENDBRANCH  12  13
ENDBRANCH  11  12
ENDBRANCH   3  11
TORSDOF 4
