REMARK  3 active torsions:
REMARK  status: ('A' for Active; 'I' for Inactive)
REMARK       I    between atoms: N_2  and  C_5 
REMARK       I    between atoms: C_6  and  N_2 
REMARK    1  A    between atoms: C_5  and  C_3 
REMARK    2  A    between atoms: C_7  and  C_4 
REMARK       I    between atoms: N_11  and  C_6 
REMARK    3  A    between atoms: C_17  and  N_11 
ROOT
ATOM      1  N   UNL d   1      -1.966   2.795   0.295  0.00  0.00    -0.274 N 
ATOM      2  C   UNL d   1      -0.667   2.389   0.043  0.00  0.00     0.266 C 
ATOM      3  C   UNL d   1      -3.137   2.301  -0.245  0.00  0.00     0.327 C 
ATOM      4  N   UNL d   1      -4.245   2.901   0.333  0.00  0.00    -0.309 N 
ATOM      5  O   UNL d   1      -3.203   1.416  -1.091  0.00  0.00    -0.247 OA
ATOM      6  O   UNL d   1       0.148   3.306  -0.115  0.00  0.00    -0.267 OA
ATOM      7  H   UNL d   1      -1.983   3.795   0.413  0.00  0.00     0.173 HD
ATOM      8  H   UNL d   1      -4.213   3.900   0.477  0.00  0.00     0.170 HD
ENDROOT
BRANCH   2   9
ATOM      9  C   UNL d   1      -0.256   0.987   0.025  0.00  0.00     0.073 C 
ATOM     10  S   UNL d   1      -1.283  -0.360   0.287  0.00  0.00    -0.084 SA
ATOM     11  C   UNL d   1      -0.059  -1.479  -0.113  0.00  0.00     0.022 C 
ATOM     12  C   UNL d   1       1.169  -0.865  -0.205  0.00  0.00     0.022 C 
ATOM     13  C   UNL d   1       1.053   0.552  -0.133  0.00  0.00     0.026 C 
BRANCH  11  14
ATOM     14  C   UNL d   1      -0.338  -2.870  -0.319  0.00  0.00     0.021 A 
ATOM     15  S   UNL d   1      -0.584  -3.476  -1.904  0.00  0.00    -0.101 SA
ATOM     16  C   UNL d   1      -0.778  -5.074  -1.332  0.00  0.00     0.050 A 
ATOM     17  C   UNL d   1      -0.659  -5.151   0.037  0.00  0.00     0.008 A 
ATOM     18  C   UNL d   1      -0.411  -3.873   0.626  0.00  0.00     0.021 A 
ENDBRANCH  11  14
ENDBRANCH   2   9
BRANCH   4  19
ATOM     19  C   UNL d   1      -5.479   2.257   0.540  0.00  0.00     0.036 A 
ATOM     20  C   UNL d   1      -5.574   0.863   0.631  0.00  0.00     0.031 A 
ATOM     21  C   UNL d   1      -6.792   0.256   0.945  0.00  0.00     0.026 A 
ATOM     22  C   UNL d   1      -7.923   1.042   1.147  0.00  0.00     0.034 A 
ATOM     23  C   UNL d   1      -7.842   2.430   1.048  0.00  0.00     0.026 A 
ATOM     24 CL   UNL d   1      -9.424   0.296   1.534  0.00  0.00    -0.084 Cl
ATOM     25  C   UNL d   1      -6.617   3.039   0.760  0.00  0.00     0.031 A 
ENDBRANCH   4  19
TORSDOF 3
