REMARK  6 active torsions:
REMARK  status: ('A' for Active; 'I' for Inactive)
REMARK    1  A    between atoms: C_3  and  C_1 
REMARK    2  A    between atoms: C_2  and  C_4 
REMARK       I    between atoms: N_14  and  C_3 
REMARK       I    between atoms: C_4  and  N_13 
REMARK    3  A    between atoms: C_22  and  C_9 
REMARK    4  A    between atoms: C_21  and  C_10 
REMARK    5  A    between atoms: N_13  and  C_18 
REMARK    6  A    between atoms: C_17  and  N_14 
ROOT
ATOM      1  C   UNL d   1      -2.018  -3.118  -0.187  0.00  0.00     0.062 A 
ATOM      2  C   UNL d   1      -2.046  -2.915  -1.583  0.00  0.00     0.062 A 
ATOM      3  C   UNL d   1      -3.181  -3.343  -2.283  0.00  0.00     0.032 A 
ATOM      4  C   UNL d   1      -3.024  -3.851   0.454  0.00  0.00     0.032 A 
ATOM      5  C   UNL d   1      -4.101  -4.343  -0.275  0.00  0.00     0.002 A 
ATOM      6  C   UNL d   1      -4.194  -4.060  -1.634  0.00  0.00     0.002 A 
ENDROOT
BRANCH   1   7
ATOM      7  N   UNL d   1      -1.105  -2.429   0.647  0.00  0.00    -0.321 N 
ATOM      8  C   UNL d   1      -1.522  -1.200   1.149  0.00  0.00     0.261 C 
ATOM      9  O   UNL d   1      -2.672  -0.774   1.074  0.00  0.00    -0.267 OA
ATOM     10  H   UNL d   1      -0.143  -2.441   0.322  0.00  0.00     0.169 HD
BRANCH   8  11
ATOM     11  C   UNL d   1      -0.476  -0.388   1.718  0.00  0.00     0.093 A 
ATOM     12  C   UNL d   1       0.458  -0.641   2.768  0.00  0.00     0.083 A 
ATOM     13  N   UNL d   1       1.249   0.436   2.936  0.00  0.00    -0.259 N 
ATOM     14  O   UNL d   1       0.789   1.410   2.083  0.00  0.00    -0.241 OA
ATOM     15  HN  UNL d   1       2.040   0.514   3.576  1.00  0.00     0.195 HD
ATOM     16  C   UNL d   1      -0.257   0.927   1.373  0.00  0.00     0.090 A 
ATOM     17  C   UNL d   1      -0.908   1.867   0.436  0.00  0.00     0.080 C 
BRANCH  12  18
ATOM     18  C   UNL d   1       0.613  -1.812   3.647  0.00  0.00    -0.006 A 
ATOM     19  C   UNL d   1      -0.399  -2.772   3.798  0.00  0.00     0.014 A 
ATOM     20  C   UNL d   1      -0.229  -3.871   4.646  0.00  0.00     0.001 A 
ATOM     21  C   UNL d   1       0.942  -4.010   5.384  0.00  0.00     0.000 A 
ATOM     22  C   UNL d   1       1.944  -3.051   5.275  0.00  0.00     0.001 A 
ATOM     23  C   UNL d   1       1.782  -1.965   4.410  0.00  0.00     0.014 A 
ENDBRANCH  12  18
ENDBRANCH   8  11
ENDBRANCH   1   7
BRANCH   2  24
ATOM     24  N   UNL d   1      -1.026  -2.271  -2.339  0.00  0.00    -0.321 N 
ATOM     25  C   UNL d   1       0.325  -2.384  -2.067  0.00  0.00     0.261 C 
ATOM     26  O   UNL d   1       0.752  -2.924  -1.047  0.00  0.00    -0.267 OA
ATOM     27  H   UNL d   1      -1.300  -1.891  -3.233  0.00  0.00     0.169 HD
BRANCH  25  28
ATOM     28  C   UNL d   1       1.269  -1.813  -3.014  0.00  0.00     0.093 A 
ATOM     29  C   UNL d   1       1.302  -1.542  -4.428  0.00  0.00     0.083 A 
ATOM     30  N   UNL d   1       2.501  -1.022  -4.757  0.00  0.00    -0.259 N 
ATOM     31  O   UNL d   1       3.241  -0.932  -3.615  0.00  0.00    -0.241 OA
ATOM     32  HN  UNL d   1       2.801  -0.745  -5.692  1.00  0.00     0.195 HD
ATOM     33  C   UNL d   1       2.519  -1.392  -2.577  0.00  0.00     0.090 A 
ATOM     34  C   UNL d   1       3.181  -1.337  -1.255  0.00  0.00     0.080 C 
BRANCH  29  35
ATOM     35  C   UNL d   1       0.322  -1.706  -5.517  0.00  0.00    -0.006 A 
ATOM     36  C   UNL d   1       0.438  -0.885  -6.660  0.00  0.00     0.014 A 
ATOM     37  C   UNL d   1      -0.475  -0.959  -7.713  0.00  0.00     0.001 A 
ATOM     38  C   UNL d   1      -1.540  -1.847  -7.637  0.00  0.00     0.000 A 
ATOM     39  C   UNL d   1      -1.655  -2.693  -6.536  0.00  0.00     0.001 A 
ATOM     40  C   UNL d   1      -0.711  -2.648  -5.499  0.00  0.00     0.014 A 
ENDBRANCH  29  35
ENDBRANCH  25  28
ENDBRANCH   2  24
TORSDOF 6
