REMARK  5 active torsions:
REMARK  status: ('A' for Active; 'I' for Inactive)
REMARK       I    between atoms: C_10  and  N_1 
REMARK    1  A    between atoms: C_4  and  C_5 
REMARK    2  A    between atoms: C_14  and  C_6 
REMARK    3  A    between atoms: C_8  and  C_7 
REMARK    4  A    between atoms: C_18  and  C_10 
REMARK    5  A    between atoms: O_24  and  C_14 
ROOT
ATOM      1  N   UNL d   1      -0.120  -1.008   0.539  0.00  0.00    -0.231 N 
ATOM      2  N   UNL d   1      -0.733   0.155   0.881  0.00  0.00    -0.289 N 
ATOM      3  HN  UNL d   1      -1.392   0.312   1.644  1.00  0.00     0.188 HD
ATOM      4  C   UNL d   1      -0.280   1.048  -0.004  0.00  0.00     0.084 A 
ATOM      5  C   UNL d   1      -0.396  -2.199   1.244  0.00  0.00     0.276 C 
ATOM      6  C   UNL d   1       0.614   0.474  -0.923  0.00  0.00     0.053 A 
ATOM      7  C   UNL d   1       0.743  -0.833  -0.523  0.00  0.00     0.122 A 
ATOM      8  O   UNL d   1       0.392  -3.135   1.107  0.00  0.00    -0.265 OA
ENDROOT
BRANCH   4   9
ATOM      9  C   UNL d   1      -0.714   2.470   0.016  0.00  0.00     0.104 A 
ATOM     10  O   UNL d   1      -0.372   3.401  -0.922  0.00  0.00    -0.308 OA
ATOM     11  C   UNL d   1      -1.007   4.569  -0.616  0.00  0.00     0.088 A 
ATOM     12  C   UNL d   1      -1.702   4.405   0.568  0.00  0.00     0.041 A 
ATOM     13  C   UNL d   1      -1.525   3.060   0.967  0.00  0.00     0.042 A 
BRANCH  11  14
ATOM     14  C   UNL d   1      -0.946   5.817  -1.446  0.00  0.00     0.021 A 
ATOM     15  C   UNL d   1      -0.272   5.937  -2.654  0.00  0.00     0.093 A 
ATOM     16  S   UNL d   1      -0.431   7.537  -3.287  0.00  0.00    -0.095 SA
ATOM     17  C   UNL d   1      -1.392   8.050  -1.980  0.00  0.00     0.051 A 
ATOM     18  C   UNL d   1      -1.593   7.043  -1.066  0.00  0.00     0.023 A 
BRANCH  15  19
ATOM     19  C   UNL d   1       0.457   4.948  -3.431  0.00  0.00     0.300 C 
ATOM     20  O   UNL d   1       0.197   3.753  -3.519  0.00  0.00    -0.259 OA
BRANCH  19  21
ATOM     21  O   UNL d   1       1.503   5.535  -4.092  0.00  0.00    -0.322 OA
ATOM     22  C   UNL d   1       2.263   4.644  -4.908  0.00  0.00     0.213 C 
ENDBRANCH  19  21
ENDBRANCH  15  19
ENDBRANCH  11  14
ENDBRANCH   4   9
BRANCH   5  23
ATOM     23  C   UNL d   1      -1.600  -2.392   2.096  0.00  0.00     0.034 A 
ATOM     24  C   UNL d   1      -2.837  -1.849   1.716  0.00  0.00     0.019 A 
ATOM     25  C   UNL d   1      -3.980  -2.103   2.477  0.00  0.00     0.025 A 
ATOM     26  C   UNL d   1      -3.890  -2.904   3.613  0.00  0.00     0.034 A 
ATOM     27  C   UNL d   1      -2.665  -3.455   3.996  0.00  0.00     0.025 A 
ATOM     28 CL   UNL d   1      -5.302  -3.227   4.539  0.00  0.00    -0.084 Cl
ATOM     29  C   UNL d   1      -1.519  -3.205   3.232  0.00  0.00     0.019 A 
ENDBRANCH   5  23
TORSDOF 5
