REMARK  19 active torsions:
REMARK  status: ('A' for Active; 'I' for Inactive)
REMARK    1  A    between atoms: C_1  and  O_5 
REMARK    2  A    between atoms: C_1  and  C_3 
REMARK    3  A    between atoms: C_1  and  C_2 
REMARK    4  A    between atoms: C_2  and  O_6 
REMARK    5  A    between atoms: C_8  and  C_2 
REMARK    6  A    between atoms: C_3  and  O_7 
REMARK    7  A    between atoms: C_3  and  C_4 
REMARK    8  A    between atoms: C_4  and  C_15 
REMARK    9  A    between atoms: C_4  and  O_9 
REMARK   10  A    between atoms: C_10  and  O_5 
REMARK   11  A    between atoms: C_11  and  O_6 
REMARK   12  A    between atoms: C_12  and  O_7 
REMARK   13  A    between atoms: S_22  and  C_8 
REMARK   14  A    between atoms: S_23  and  C_8 
REMARK   15  A    between atoms: C_13  and  O_9 
REMARK   16  A    between atoms: C_14  and  O_16 
REMARK   17  A    between atoms: O_16  and  C_15 
REMARK   18  A    between atoms: C_29  and  S_22 
REMARK   19  A    between atoms: C_30  and  S_23 
ROOT
ATOM      1  C   UNL d   1       1.024   0.046   0.072  0.00  0.00     0.195 C 
ENDROOT
BRANCH   1   2
ATOM      2  O   UNL d   1       2.436  -0.273   0.156  0.00  0.00    -0.311 OA
BRANCH   2   3
ATOM      3  C   UNL d   1       3.016  -0.682  -1.010  0.00  0.00     0.255 C 
ATOM      4  O   UNL d   1       2.423  -1.188  -1.957  0.00  0.00    -0.266 OA
ATOM      5  C   UNL d   1       4.481  -0.396  -1.035  0.00  0.00     0.126 C 
ENDBRANCH   2   3
ENDBRANCH   1   2
BRANCH   1   6
ATOM      6  C   UNL d   1       0.128  -0.749   1.086  0.00  0.00     0.195 C 
BRANCH   6   7
ATOM      7  O   UNL d   1       0.496  -2.133   1.280  0.00  0.00    -0.311 OA
BRANCH   7   8
ATOM      8  C   UNL d   1       0.565  -3.030   0.276  0.00  0.00     0.255 C 
ATOM      9  O   UNL d   1       0.114  -2.877  -0.843  0.00  0.00    -0.266 OA
ATOM     10  C   UNL d   1       1.344  -4.231   0.757  0.00  0.00     0.126 C 
ENDBRANCH   7   8
ENDBRANCH   6   7
BRANCH   6  11
ATOM     11  C   UNL d   1      -1.377  -0.423   0.911  0.00  0.00     0.188 C 
BRANCH  11  12
ATOM     12  C   UNL d   1      -2.328  -0.912   2.019  0.00  0.00     0.213 C 
BRANCH  12  13
ATOM     13  O   UNL d   1      -2.111  -0.213   3.272  0.00  0.00    -0.319 OA
BRANCH  13  14
ATOM     14  C   UNL d   1      -2.575   1.073   3.337  0.00  0.00     0.254 C 
ATOM     15  O   UNL d   1      -3.032   1.705   2.398  0.00  0.00    -0.266 OA
ATOM     16  C   UNL d   1      -2.485   1.620   4.729  0.00  0.00     0.126 C 
ENDBRANCH  13  14
ENDBRANCH  12  13
ENDBRANCH  11  12
BRANCH  11  17
ATOM     17  O   UNL d   1      -1.810  -0.544  -0.456  0.00  0.00    -0.311 OA
BRANCH  17  18
ATOM     18  C   UNL d   1      -2.664  -1.511  -0.849  0.00  0.00     0.255 C 
ATOM     19  O   UNL d   1      -3.060  -2.443  -0.158  0.00  0.00    -0.266 OA
ATOM     20  C   UNL d   1      -3.119  -1.234  -2.251  0.00  0.00     0.126 C 
ENDBRANCH  17  18
ENDBRANCH  11  17
ENDBRANCH   6  11
ENDBRANCH   1   6
BRANCH   1  21
ATOM     21  C   UNL d   1       0.881   1.606   0.209  0.00  0.00     0.187 C 
BRANCH  21  22
ATOM     22  O   UNL d   1       1.314   2.198  -1.057  0.00  0.00    -0.312 OA
BRANCH  22  23
ATOM     23  C   UNL d   1       0.571   3.246  -1.508  0.00  0.00     0.255 C 
ATOM     24  O   UNL d   1      -0.383   3.732  -0.916  0.00  0.00    -0.266 OA
ATOM     25  C   UNL d   1       1.089   3.761  -2.816  0.00  0.00     0.126 C 
ENDBRANCH  22  23
ENDBRANCH  21  22
BRANCH  21  26
ATOM     26  C   UNL d   1       1.508   2.360   1.454  0.00  0.00     0.140 C 
BRANCH  26  27
ATOM     27  S   UNL d   1       1.546   1.389   3.029  0.00  0.00    -0.151 SA
BRANCH  27  28
ATOM     28  C   UNL d   1       1.285   2.629   4.317  0.00  0.00     0.070 C 
ATOM     29  C   UNL d   1       2.553   2.744   5.142  0.00  0.00     0.016 C 
ENDBRANCH  27  28
ENDBRANCH  26  27
BRANCH  26  30
ATOM     30  S   UNL d   1       3.236   2.962   1.216  0.00  0.00    -0.151 SA
BRANCH  30  31
ATOM     31  C   UNL d   1       2.902   4.567   0.439  0.00  0.00     0.070 C 
ATOM     32  C   UNL d   1       4.112   5.471   0.567  0.00  0.00     0.016 C 
ENDBRANCH  30  31
ENDBRANCH  26  30
ENDBRANCH  21  26
ENDBRANCH   1  21
TORSDOF 19
