REMARK  5 active torsions:
REMARK  status: ('A' for Active; 'I' for Inactive)
REMARK    1  A    between atoms: N_6  and  N_1 
REMARK    2  A    between atoms: C_9  and  C_4 
REMARK    3  A    between atoms: O_16  and  C_9 
REMARK    4  A    between atoms: C_12  and  C_11 
REMARK    5  A    between atoms: C_20  and  O_16 
ROOT
ATOM      1  N   UNL d   1       0.968   0.516   0.047  0.00  0.00    -0.202 N 
ATOM      2  C   UNL d   1      -0.140   1.371   0.098  0.00  0.00     0.287 C 
ATOM      3  C   UNL d   1       0.701  -0.850   0.066  0.00  0.00     0.168 C 
ATOM      4  C   UNL d   1      -1.389   0.569   0.004  0.00  0.00     0.099 C 
ATOM      5  S   UNL d   1      -1.034  -1.105  -0.129  0.00  0.00    -0.051 SA
ATOM      6  S   UNL d   1       1.727  -2.155   0.287  0.00  0.00    -0.050 SA
ATOM      7  O   UNL d   1      -0.141   2.594   0.208  0.00  0.00    -0.265 OA
ENDROOT
BRANCH   1   8
ATOM      8  N   UNL d   1       2.214   1.106   0.213  0.00  0.00    -0.300 N 
ATOM      9  C   UNL d   1       3.220   0.635  -0.452  0.00  0.00     0.119 C 
ATOM     10  HN  UNL d   1       2.334   1.897   0.846  1.00  0.00     0.186 HD
BRANCH   9  11
ATOM     11  C   UNL d   1       4.581   1.198  -0.318  0.00  0.00    -0.018 A 
ATOM     12  C   UNL d   1       4.801   2.395   0.369  0.00  0.00     0.036 A 
ATOM     13  C   UNL d   1       6.094   2.916   0.432  0.00  0.00     0.034 A 
ATOM     14 CL   UNL d   1       6.378   4.401   1.253  0.00  0.00    -0.084 Cl
ATOM     15  C   UNL d   1       7.160   2.249  -0.173  0.00  0.00     0.024 A 
ATOM     16  C   UNL d   1       6.938   1.048  -0.846  0.00  0.00     0.003 A 
ATOM     17  C   UNL d   1       5.647   0.521  -0.921  0.00  0.00     0.013 A 
ENDBRANCH   9  11
ENDBRANCH   1   8
BRANCH   4  18
ATOM     18  C   UNL d   1      -2.614   1.105   0.039  0.00  0.00     0.159 C 
BRANCH  18  19
ATOM     19  O   UNL d   1      -3.757   0.355  -0.083  0.00  0.00    -0.362 OA
BRANCH  19  20
ATOM     20  C   UNL d   1      -4.874   0.909   0.616  0.00  0.00     0.170 C 
ATOM     21  C   UNL d   1      -6.017  -0.085   0.515  0.00  0.00     0.034 C 
ENDBRANCH  19  20
ENDBRANCH  18  19
ENDBRANCH   4  18
TORSDOF 5
