REMARK  8 active torsions:
REMARK  status: ('A' for Active; 'I' for Inactive)
REMARK    1  A    between atoms: C_31  and  N_1 
REMARK    2  A    between atoms: C_2  and  N_14 
REMARK    3  A    between atoms: C_16  and  C_3 
REMARK    4  A    between atoms: S_21  and  C_9 
REMARK       I    between atoms: C_15  and  N_13 
REMARK       I    between atoms: N_14  and  C_22 
REMARK    5  A    between atoms: O_32  and  C_15 
REMARK    6  A    between atoms: C_30  and  S_21 
REMARK    7  A    between atoms: C_22  and  C_30 
REMARK    8  A    between atoms: C_33  and  O_32 
ROOT
ATOM      1  C   UNL d   1      -5.635   0.812  -0.135  0.00  0.00     0.098 C 
ATOM      2  C   UNL d   1      -4.374   1.161   0.296  0.00  0.00     0.086 C 
ATOM      3  C   UNL d   1      -5.264   3.290  -0.155  0.00  0.00     0.011 C 
ATOM      4  C   UNL d   1      -4.314   2.565   0.528  0.00  0.00    -0.018 C 
ATOM      5  S   UNL d   1      -6.527   2.205  -0.635  0.00  0.00    -0.073 SA
ATOM      6  N   UNL d   1      -4.155   5.376   0.614  0.00  0.00    -0.323 N 
ATOM      7  C   UNL d   1      -3.815   6.727   0.580  0.00  0.00     0.363 C 
ATOM      8  C   UNL d   1      -5.249   4.819  -0.252  0.00  0.00     0.174 C 
ATOM      9  C   UNL d   1      -3.359   0.299   0.784  0.00  0.00     0.103 C 
ATOM     10  N   UNL d   1      -2.518  -0.326   1.263  0.00  0.00    -0.191 NA
ATOM     11  C   UNL d   1      -3.352   3.191   1.457  0.00  0.00     0.061 C 
ATOM     12  C   UNL d   1      -3.752   4.612   1.785  0.00  0.00     0.133 C 
ATOM     13  O   UNL d   1      -4.026   7.479  -0.360  0.00  0.00    -0.238 OA
ENDROOT
BRANCH   1  14
ATOM     14  N   UNL d   1      -6.261  -0.436  -0.087  0.00  0.00    -0.319 N 
ATOM     15  C   UNL d   1      -5.497  -1.595  -0.090  0.00  0.00     0.232 C 
ATOM     16  O   UNL d   1      -4.485  -1.683  -0.795  0.00  0.00    -0.272 OA
ATOM     17  H   UNL d   1      -7.269  -0.479  -0.004  0.00  0.00     0.169 HD
BRANCH  15  18
ATOM     18  C   UNL d   1      -5.814  -2.741   0.869  0.00  0.00     0.185 C 
BRANCH  18  19
ATOM     19  S   UNL d   1      -7.502  -2.839   1.488  0.00  0.00    -0.083 SA
BRANCH  19  20
ATOM     20  C   UNL d   1      -7.380  -4.230   2.544  0.00  0.00     0.163 C 
ATOM     21  N   UNL d   1      -8.451  -4.787   3.207  0.00  0.00    -0.311 N 
ATOM     22  C   UNL d   1      -7.921  -5.722   4.074  0.00  0.00     0.141 C 
ATOM     23  N   UNL d   1      -6.627  -5.817   3.813  0.00  0.00    -0.282 N 
ATOM     24  N   UNL d   1      -6.290  -4.885   2.863  0.00  0.00    -0.278 N 
ATOM     25  HN  UNL d   1      -5.982  -6.478   4.247  1.00  0.00     0.188 HD
ATOM     26  HN  UNL d   1      -5.359  -4.729   2.476  1.00  0.00     0.189 HD
BRANCH  21  27
ATOM     27  C   UNL d   1      -9.838  -4.426   3.024  0.00  0.00     0.128 C 
ATOM     28  C   UNL d   1     -10.306  -3.385   4.022  0.00  0.00     0.027 C 
ENDBRANCH  21  27
BRANCH  22  29
ATOM     29  C   UNL d   1      -8.566  -6.431   5.164  0.00  0.00     0.050 A 
ATOM     30  S   UNL d   1      -7.599  -7.071   6.450  0.00  0.00    -0.098 SA
ATOM     31  C   UNL d   1      -8.959  -7.588   7.343  0.00  0.00     0.050 A 
ATOM     32  C   UNL d   1     -10.132  -7.337   6.676  0.00  0.00     0.009 A 
ATOM     33  C   UNL d   1      -9.904  -6.701   5.415  0.00  0.00     0.023 A 
ENDBRANCH  22  29
ENDBRANCH  19  20
ENDBRANCH  18  19
ENDBRANCH  15  18
ENDBRANCH   1  14
BRANCH   7  34
ATOM     34  O   UNL d   1      -3.393   7.182   1.795  0.00  0.00    -0.304 OA
BRANCH  34  35
ATOM     35  C   UNL d   1      -2.019   7.493   2.132  0.00  0.00     0.176 C 
ATOM     36  C   UNL d   1      -0.957   7.295   1.070  0.00  0.00     0.034 C 
ENDBRANCH  34  35
ENDBRANCH   7  34
TORSDOF 8
