REMARK  4 active torsions:
REMARK  status: ('A' for Active; 'I' for Inactive)
REMARK       I    between atoms: C_2  and  N_1 
REMARK       I    between atoms: N_7  and  C_2 
REMARK    1  A    between atoms: C_5  and  C_3 
REMARK    2  A    between atoms: C_6  and  C_5 
REMARK       I    between atoms: N_9  and  C_6 
REMARK    3  A    between atoms: C_10  and  N_7 
REMARK    4  A    between atoms: C_8  and  N_9 
ROOT
ATOM      1  N   UNL d   1      -1.452  -1.200   0.291  0.00  0.00    -0.318 N 
ATOM      2  C   UNL d   1      -2.312  -2.087   0.934  0.00  0.00     0.323 C 
ATOM      3  C   UNL d   1       0.033  -1.315   0.430  0.00  0.00     0.189 C 
ATOM      4  C   UNL d   1       0.585  -0.190   1.343  0.00  0.00     0.241 C 
ATOM      5  N   UNL d   1      -3.653  -1.805   0.825  0.00  0.00    -0.309 N 
ATOM      6  N   UNL d   1       0.008   1.054   1.196  0.00  0.00    -0.358 N 
ATOM      7  O   UNL d   1      -1.887  -3.073   1.529  0.00  0.00    -0.247 OA
ATOM      8  O   UNL d   1       1.599  -0.285   2.031  0.00  0.00    -0.271 OA
ATOM      9  C   UNL d   1      -1.849   0.135  -0.191  0.00  0.00     0.148 C 
ATOM     10  C   UNL d   1      -1.367   1.225   0.773  0.00  0.00     0.142 C 
ATOM     11  H   UNL d   1      -3.943  -1.289   0.011  0.00  0.00     0.170 HD
ATOM     12  H   UNL d   1       0.422   1.755   1.801  0.00  0.00     0.162 HD
ENDROOT
BRANCH   3  13
ATOM     13  C   UNL d   1       0.684  -2.647   0.808  0.00  0.00     0.138 C 
BRANCH  13  14
ATOM     14  C   UNL d   1       0.658  -3.631  -0.339  0.00  0.00     0.224 C 
ATOM     15  N   UNL d   1      -0.352  -4.559  -0.259  0.00  0.00    -0.326 N 
ATOM     16  H   UNL d   1      -1.126  -4.346   0.376  0.00  0.00     0.169 HD
ATOM     17  O   UNL d   1       1.490  -3.546  -1.241  0.00  0.00    -0.273 OA
BRANCH  15  18
ATOM     18  C   UNL d   1      -0.458  -5.758  -1.002  0.00  0.00     0.058 A 
ATOM     19  C   UNL d   1       0.636  -6.306  -1.686  0.00  0.00     0.055 A 
ATOM     20  C   UNL d   1       0.529  -7.551  -2.310  0.00  0.00     0.036 A 
ATOM     21 CL   UNL d   1       1.894  -8.226  -3.111  0.00  0.00    -0.084 Cl
ATOM     22  C   UNL d   1      -0.667  -8.264  -2.272  0.00  0.00     0.026 A 
ATOM     23  C   UNL d   1      -1.771  -7.720  -1.621  0.00  0.00     0.028 A 
ATOM     24  C   UNL d   1      -1.669  -6.475  -0.989  0.00  0.00     0.060 A 
ATOM     25 CL   UNL d   1      -3.083  -5.838  -0.223  0.00  0.00    -0.082 Cl
ENDBRANCH  15  18
ENDBRANCH  13  14
ENDBRANCH   3  13
BRANCH   5  26
ATOM     26  C   UNL d   1      -4.711  -2.350   1.593  0.00  0.00     0.037 A 
ATOM     27  C   UNL d   1      -4.526  -3.207   2.681  0.00  0.00     0.036 A 
ATOM     28  C   UNL d   1      -5.613  -3.638   3.457  0.00  0.00    -0.059 A 
ATOM     29  C   UNL d   1      -5.404  -4.544   4.635  0.00  0.00     0.048 C 
ATOM     30  C   UNL d   1      -6.899  -3.187   3.143  0.00  0.00     0.013 A 
ATOM     31  C   UNL d   1      -7.107  -2.324   2.062  0.00  0.00    -0.059 A 
ATOM     32  C   UNL d   1      -6.011  -1.931   1.278  0.00  0.00     0.036 A 
ATOM     33  C   UNL d   1      -8.484  -1.795   1.789  0.00  0.00     0.048 C 
ENDBRANCH   5  26
TORSDOF 4
