REMARK  5 active torsions:
REMARK  status: ('A' for Active; 'I' for Inactive)
REMARK    1  A    between atoms: C_8  and  C_3 
REMARK    2  A    between atoms: C_12  and  C_4 
REMARK    3  A    between atoms: C_7  and  O_10 
REMARK    4  A    between atoms: C_9  and  C_7 
REMARK    5  A    between atoms: O_10  and  C_12 
ROOT
ATOM      1  N   UNL d   1       1.414  -0.494   0.445  0.00  0.00    -0.351 N 
ATOM      2  HN  UNL d   1       2.185  -0.951   0.932  1.00  0.00     0.166 HD
ATOM      3  C   UNL d   1       1.277   0.879   0.284  0.00  0.00     0.049 A 
ATOM      4  C   UNL d   1       0.401  -1.123  -0.122  0.00  0.00     0.075 A 
ATOM      5  S   UNL d   1      -0.765  -0.101  -0.874  0.00  0.00    -0.084 SA
ATOM      6  C   UNL d   1       0.154   1.269  -0.419  0.00  0.00     0.082 A 
ENDROOT
BRANCH   4   7
ATOM      7  C   UNL d   1       0.161  -2.602  -0.115  0.00  0.00     0.243 C 
BRANCH   7   8
ATOM      8  O   UNL d   1       1.405  -3.314  -0.015  0.00  0.00    -0.314 OA
BRANCH   8   9
ATOM      9  C   UNL d   1       2.050  -3.523  -1.191  0.00  0.00     0.266 C 
ATOM     10  O   UNL d   1       1.687  -3.062  -2.267  0.00  0.00    -0.264 OA
BRANCH   9  11
ATOM     11  C   UNL d   1       3.242  -4.477  -1.039  0.00  0.00     0.037 C 
ATOM     12  C   UNL d   1       3.468  -4.933   0.411  0.00  0.00     0.025 C 
ATOM     13  C   UNL d   1       2.952  -5.711  -1.908  0.00  0.00     0.025 C 
ATOM     14  C   UNL d   1       4.507  -3.772  -1.542  0.00  0.00     0.025 C 
ENDBRANCH   9  11
ENDBRANCH   8   9
ENDBRANCH   7   8
ENDBRANCH   4   7
BRANCH   3  15
ATOM     15  C   UNL d   1       2.274   1.809   0.804  0.00  0.00    -0.009 A 
ATOM     16  C   UNL d   1       3.605   1.387   0.941  0.00  0.00     0.015 A 
ATOM     17  C   UNL d   1       4.586   2.264   1.416  0.00  0.00     0.024 A 
ATOM     18  C   UNL d   1       4.240   3.566   1.766  0.00  0.00     0.034 A 
ATOM     19  C   UNL d   1       2.920   3.999   1.652  0.00  0.00     0.024 A 
ATOM     20 CL   UNL d   1       5.446   4.648   2.343  0.00  0.00    -0.084 Cl
ATOM     21  C   UNL d   1       1.941   3.122   1.174  0.00  0.00     0.015 A 
ENDBRANCH   3  15
TORSDOF 5
