REMARK  6 active torsions:
REMARK  status: ('A' for Active; 'I' for Inactive)
REMARK    1  A    between atoms: C_9  and  N_1 
REMARK    2  A    between atoms: C_10  and  C_3 
REMARK    3  A    between atoms: C_7  and  O_11 
REMARK    4  A    between atoms: O_12  and  C_10 
REMARK    5  A    between atoms: O_11  and  C_16 
REMARK    6  A    between atoms: C_17  and  O_12 
ROOT
ATOM      1  N   UNL d   1      -0.277   1.001   0.454  0.00  0.00    -0.273 N 
ATOM      2  C   UNL d   1      -1.043  -0.155   0.334  0.00  0.00     0.199 A 
ATOM      3  C   UNL d   1       0.947   0.651  -0.045  0.00  0.00     0.130 A 
ATOM      4  N   UNL d   1       1.028  -0.585  -0.465  0.00  0.00    -0.284 N 
ATOM      5  HN  UNL d   1       1.832  -1.048  -0.889  1.00  0.00     0.188 HD
ATOM      6  N   UNL d   1      -0.197  -1.113  -0.210  0.00  0.00    -0.274 N 
ATOM      7  S   UNL d   1      -2.645  -0.485   0.611  0.00  0.00    -0.039 SA
ATOM      8  H   UNL d   1      -0.443  -2.060  -0.471  0.00  0.00     0.189 HD
ENDROOT
BRANCH   3   9
ATOM      9  C   UNL d   1       2.140   1.592  -0.111  0.00  0.00     0.254 C 
BRANCH   9  10
ATOM     10  O   UNL d   1       3.362   0.867  -0.075  0.00  0.00    -0.344 OA
BRANCH  10  11
ATOM     11  C   UNL d   1       4.517   1.566  -0.294  0.00  0.00     0.069 A 
ATOM     12  C   UNL d   1       5.671   0.783  -0.271  0.00  0.00     0.039 A 
ATOM     13  C   UNL d   1       6.922   1.359  -0.495  0.00  0.00     0.040 A 
ATOM     14  C   UNL d   1       7.038   2.723  -0.769  0.00  0.00     0.078 A 
ATOM     15  C   UNL d   1       5.892   3.518  -0.754  0.00  0.00     0.040 A 
ATOM     16  C   UNL d   1       4.632   2.937  -0.525  0.00  0.00     0.039 A 
BRANCH  14  17
ATOM     17  O   UNL d   1       8.312   3.144  -1.004  0.00  0.00    -0.255 OA
BRANCH  17  18
ATOM     18  C   UNL d   1       8.496   4.286  -1.824  0.00  0.00     0.530 C 
ATOM     19  F   UNL d   1       7.523   4.433  -2.750  0.00  0.00    -0.144 F 
ATOM     20  F   UNL d   1       8.556   5.399  -1.062  0.00  0.00    -0.144 F 
ATOM     21  F   UNL d   1       9.672   4.156  -2.478  0.00  0.00    -0.144 F 
ENDBRANCH  17  18
ENDBRANCH  14  17
ENDBRANCH  10  11
ENDBRANCH   9  10
ENDBRANCH   3   9
BRANCH   1  22
ATOM     22  C   UNL d   1      -0.695   2.262   0.950  0.00  0.00     0.043 A 
ATOM     23  C   UNL d   1      -1.555   2.355   2.056  0.00  0.00     0.030 A 
ATOM     24  C   UNL d   1      -1.958   3.596   2.561  0.00  0.00     0.002 A 
ATOM     25  C   UNL d   1      -1.500   4.770   1.976  0.00  0.00     0.000 A 
ATOM     26  C   UNL d   1      -0.651   4.703   0.876  0.00  0.00     0.002 A 
ATOM     27  C   UNL d   1      -0.262   3.461   0.363  0.00  0.00     0.030 A 
ENDBRANCH   1  22
TORSDOF 6
