REMARK  3 active torsions:
REMARK  status: ('A' for Active; 'I' for Inactive)
REMARK    1  A    between atoms: C_2  and  C_1 
REMARK       I    between atoms: N_6  and  C_2 
REMARK       I    between atoms: C_3  and  N_8 
REMARK    2  A    between atoms: C_10  and  C_3 
REMARK    3  A    between atoms: N_8  and  N_6 
ROOT
ATOM      1  C   UNL d   1       1.352   4.763  -0.042  0.00  0.00     0.270 C 
ATOM      2  N   UNL d   1       0.628   3.600   0.119  0.00  0.00    -0.263 N 
ATOM      3  O   UNL d   1       2.568   4.773  -0.209  0.00  0.00    -0.266 OA
ATOM      4  H   UNL d   1      -0.345   3.566   0.417  0.00  0.00     0.190 HD
ENDROOT
BRANCH   2   5
ATOM      5  N   UNL d   1       1.317   2.380   0.094  0.00  0.00    -0.261 N 
ATOM      6  C   UNL d   1       0.605   1.207   0.259  0.00  0.00     0.295 C 
ATOM      7  O   UNL d   1      -0.605   1.225   0.490  0.00  0.00    -0.264 OA
ATOM      8  H   UNL d   1       2.311   2.408  -0.135  0.00  0.00     0.190 HD
BRANCH   6   9
ATOM      9  C   UNL d   1       1.371  -0.008   0.139  0.00  0.00     0.169 A 
ATOM     10  O   UNL d   1       2.712   0.056  -0.101  0.00  0.00    -0.233 OA
ATOM     11  N   UNL d   1       3.231  -1.226  -0.178  0.00  0.00    -0.272 N 
ATOM     12  C   UNL d   1       2.193  -2.042   0.016  0.00  0.00     0.117 A 
ATOM     13  HN  UNL d   1       4.201  -1.491  -0.348  1.00  0.00     0.194 HD
ATOM     14  C   UNL d   1       0.998  -1.331   0.220  0.00  0.00     0.064 A 
ENDBRANCH   6   9
ENDBRANCH   2   5
BRANCH   1  15
ATOM     15  C   UNL d   1       0.585   6.035   0.015  0.00  0.00     0.035 A 
ATOM     16  C   UNL d   1      -0.738   6.120  -0.436  0.00  0.00     0.041 A 
ATOM     17  C   UNL d   1      -1.395   7.351  -0.404  0.00  0.00     0.035 A 
ATOM     18 CL   UNL d   1      -3.013   7.467  -0.979  0.00  0.00    -0.084 Cl
ATOM     19  C   UNL d   1      -0.751   8.493   0.075  0.00  0.00     0.024 A 
ATOM     20  C   UNL d   1       0.567   8.409   0.521  0.00  0.00     0.003 A 
ATOM     21  C   UNL d   1       1.237   7.184   0.485  0.00  0.00     0.017 A 
ENDBRANCH   1  15
TORSDOF 3
