REMARK  5 active torsions:
REMARK  status: ('A' for Active; 'I' for Inactive)
REMARK    1  A    between atoms: C_21  and  N_5 
REMARK    2  A    between atoms: N_13  and  N_6 
REMARK    3  A    between atoms: C_12  and  N_13 
REMARK    4  A    between atoms: N_14  and  C_12 
REMARK    5  A    between atoms: C_15  and  N_14 
ROOT
ATOM      1  C   UNL d   1      -0.459  -0.453   0.484  0.00  0.00     0.144 C 
ATOM      2  C   UNL d   1      -0.353   0.811  -0.079  0.00  0.00     0.072 C 
ATOM      3  N   UNL d   1       0.503  -1.127   1.186  0.00  0.00    -0.335 N 
ATOM      4  HN  UNL d   1       0.351  -2.018   1.658  1.00  0.00     0.168 HD
ATOM      5  N   UNL d   1      -1.723  -0.928   0.137  0.00  0.00    -0.239 N 
ATOM      6  N   UNL d   1       1.883   0.715   0.538  0.00  0.00    -0.233 N 
ATOM      7  C   UNL d   1       0.906   1.522  -0.028  0.00  0.00     0.137 C 
ATOM      8  N   UNL d   1      -2.471   0.074  -0.429  0.00  0.00    -0.302 N 
ATOM      9  HN  UNL d   1      -3.460   0.045  -0.679  1.00  0.00     0.186 HD
ATOM     10  C   UNL d   1       1.638  -0.489   1.178  0.00  0.00     0.210 C 
ATOM     11  C   UNL d   1      -1.625   1.093  -0.581  0.00  0.00     0.127 C 
ATOM     12  N   UNL d   1       1.045   2.739  -0.438  0.00  0.00    -0.383 N 
ATOM     13  HN  UNL d   1       1.916   3.269  -0.395  1.00  0.00     0.157 HD
ATOM     14  H   UNL d   1       0.160   3.101  -0.811  0.00  0.00     0.157 HD
ENDROOT
BRANCH   6  15
ATOM     15  N   UNL d   1       3.110   1.351   0.800  0.00  0.00    -0.267 N 
ATOM     16  H   UNL d   1       3.019   2.362   0.675  0.00  0.00     0.190 HD
BRANCH  15  17
ATOM     17  C   UNL d   1       4.296   0.840   0.340  0.00  0.00     0.191 C 
ATOM     18  S   UNL d   1       4.486  -0.441  -0.723  0.00  0.00    -0.039 SA
BRANCH  17  19
ATOM     19  N   UNL d   1       5.438   1.438   0.802  0.00  0.00    -0.331 N 
ATOM     20  H   UNL d   1       6.279   1.105   0.331  0.00  0.00     0.168 HD
BRANCH  19  21
ATOM     21  C   UNL d   1       5.678   2.355   1.856  0.00  0.00     0.056 A 
ATOM     22  C   UNL d   1       6.989   2.854   2.015  0.00  0.00     0.062 A 
ATOM     23  C   UNL d   1       7.301   3.765   3.027  0.00  0.00     0.050 A 
ATOM     24 CL   UNL d   1       8.266   2.349   0.959  0.00  0.00    -0.082 Cl
ATOM     25  C   UNL d   1       6.307   4.183   3.903  0.00  0.00     0.035 A 
ATOM     26  C   UNL d   1       5.014   3.682   3.786  0.00  0.00     0.026 A 
ATOM     27 CL   UNL d   1       6.673   5.311   5.145  0.00  0.00    -0.084 Cl
ATOM     28  C   UNL d   1       4.707   2.762   2.778  0.00  0.00     0.033 A 
ENDBRANCH  19  21
ENDBRANCH  17  19
ENDBRANCH  15  17
ENDBRANCH   6  15
BRANCH   5  29
ATOM     29  C   UNL d   1      -2.244  -2.256   0.219  0.00  0.00     0.058 A 
ATOM     30  C   UNL d   1      -1.488  -3.318   0.733  0.00  0.00     0.031 A 
ATOM     31  C   UNL d   1      -1.988  -4.624   0.706  0.00  0.00     0.002 A 
ATOM     32  C   UNL d   1      -3.245  -4.880   0.169  0.00  0.00     0.000 A 
ATOM     33  C   UNL d   1      -4.016  -3.830  -0.326  0.00  0.00     0.002 A 
ATOM     34  C   UNL d   1      -3.522  -2.523  -0.297  0.00  0.00     0.031 A 
ENDBRANCH   5  29
TORSDOF 5
