REMARK  5 active torsions:
REMARK  status: ('A' for Active; 'I' for Inactive)
REMARK    1  A    between atoms: C_8  and  C_1 
REMARK    2  A    between atoms: C_10  and  C_2 
REMARK    3  A    between atoms: C_9  and  C_3 
REMARK    4  A    between atoms: O_17  and  C_9 
REMARK    5  A    between atoms: O_18  and  C_10 
ROOT
ATOM      1  C   UNL d   1      -0.029  -1.853  -0.005  0.00  0.00     0.017 A 
ATOM      2  C   UNL d   1      -1.230  -1.108   0.133  0.00  0.00     0.074 A 
ATOM      3  C   UNL d   1       1.180  -1.122  -0.089  0.00  0.00     0.074 A 
ATOM      4  N   UNL d   1      -0.021   0.966   0.005  0.00  0.00    -0.362 N 
ATOM      5  HN  UNL d   1      -0.016   1.986  -0.008  1.00  0.00     0.165 HD
ATOM      6  C   UNL d   1       1.143   0.278  -0.069  0.00  0.00     0.022 A 
ATOM      7  C   UNL d   1      -1.189   0.289   0.097  0.00  0.00     0.022 A 
ATOM      8  C   UNL d   1      -2.381   1.196   0.197  0.00  0.00     0.069 C 
ATOM      9  C   UNL d   1       2.370   1.144  -0.106  0.00  0.00     0.069 C 
ENDROOT
BRANCH   1  10
ATOM     10  C   UNL d   1      -0.033  -3.339  -0.052  0.00  0.00     0.017 A 
ATOM     11  S   UNL d   1      -1.097  -4.167  -1.131  0.00  0.00    -0.101 SA
ATOM     12  C   UNL d   1      -0.583  -5.702  -0.592  0.00  0.00     0.050 A 
ATOM     13  C   UNL d   1       0.454  -5.608   0.305  0.00  0.00     0.008 A 
ATOM     14  C   UNL d   1       0.764  -4.251   0.622  0.00  0.00     0.020 A 
ENDBRANCH   1  10
BRANCH   2  15
ATOM     15  C   UNL d   1      -2.501  -1.772   0.479  0.00  0.00     0.295 C 
ATOM     16  O   UNL d   1      -2.665  -2.386   1.520  0.00  0.00    -0.259 OA
BRANCH  15  17
ATOM     17  O   UNL d   1      -3.411  -1.558  -0.501  0.00  0.00    -0.322 OA
ATOM     18  C   UNL d   1      -4.733  -2.040  -0.229  0.00  0.00     0.213 C 
ENDBRANCH  15  17
ENDBRANCH   2  15
BRANCH   3  19
ATOM     19  C   UNL d   1       2.484  -1.783  -0.289  0.00  0.00     0.295 C 
ATOM     20  O   UNL d   1       2.743  -2.505  -1.240  0.00  0.00    -0.259 OA
BRANCH  19  21
ATOM     21  O   UNL d   1       3.326  -1.423   0.710  0.00  0.00    -0.322 OA
ATOM     22  C   UNL d   1       4.697  -1.809   0.556  0.00  0.00     0.213 C 
ENDBRANCH  19  21
ENDBRANCH   3  19
TORSDOF 5
