REMARK  7 active torsions:
REMARK  status: ('A' for Active; 'I' for Inactive)
REMARK       I    between atoms: C_2  and  N_1 
REMARK    1  A    between atoms: C_4  and  N_1 
REMARK    2  A    between atoms: C_5  and  N_1 
REMARK    3  A    between atoms: C_14  and  C_2 
REMARK    4  A    between atoms: C_7  and  N_3 
REMARK    5  A    between atoms: C_8  and  C_4 
REMARK    6  A    between atoms: N_6  and  C_8 
REMARK    7  A    between atoms: O_18  and  C_15 
ROOT
ATOM      1  C   UNL d   1       0.183   1.111   0.278  0.00  0.00     0.118 C 
ATOM      2  C   UNL d   1      -1.315   0.897   0.522  0.00  0.00     0.034 C 
ENDROOT
BRANCH   1   3
ATOM      3  N   UNL d   1       0.937  -0.161   0.375  0.00  0.00    -0.297 N 
ATOM      4  C   UNL d   1       0.747  -1.190  -0.546  0.00  0.00     0.230 C 
ATOM      5  O   UNL d   1      -0.182  -1.187  -1.352  0.00  0.00    -0.273 OA
BRANCH   4   6
ATOM      6  C   UNL d   1       1.734  -2.365  -0.516  0.00  0.00     0.078 C 
ATOM      7  C   UNL d   1       1.542  -3.306   0.678  0.00  0.00     0.014 C 
ATOM      8  C   UNL d   1       2.744  -4.244   0.768  0.00  0.00     0.001 C 
ATOM      9  C   UNL d   1       2.927  -5.055  -0.515  0.00  0.00     0.000 C 
ATOM     10  C   UNL d   1       2.849  -4.213  -1.792  0.00  0.00     0.001 C 
ATOM     11  C   UNL d   1       1.677  -3.228  -1.787  0.00  0.00     0.014 C 
ENDBRANCH   4   6
BRANCH   3  12
ATOM     12  C   UNL d   1       2.077  -0.077   1.200  0.00  0.00     0.110 A 
ATOM     13  N   UNL d   1       3.220   0.410   0.677  0.00  0.00    -0.352 N 
ATOM     14  C   UNL d   1       4.256   0.588   1.529  0.00  0.00     0.089 A 
ATOM     15  HN  UNL d   1       3.300   0.634  -0.315  1.00  0.00     0.166 HD
ATOM     16  C   UNL d   1       4.205   0.298   2.884  0.00  0.00     0.017 A 
ATOM     17  C   UNL d   1       3.017  -0.198   3.404  0.00  0.00     0.005 A 
ATOM     18  C   UNL d   1       1.929  -0.371   2.554  0.00  0.00     0.049 A 
ENDBRANCH   3  12
ENDBRANCH   1   3
BRANCH   1  19
ATOM     19  C   UNL d   1       0.478   1.904  -1.037  0.00  0.00     0.297 C 
BRANCH  19  20
ATOM     20  N   UNL d   1      -0.299   3.152  -1.150  0.00  0.00     0.093 N 
ATOM     21  C   UNL d   1       0.057   4.180  -0.144  0.00  0.00     0.292 C 
ATOM     22  C   UNL d   1       1.300   5.025  -0.484  0.00  0.00     0.153 C 
ATOM     23  N   UNL d   1       1.064   5.680  -1.774  0.00  0.00    -0.375 N 
ATOM     24  C   UNL d   1       0.880   4.720  -2.869  0.00  0.00     0.153 C 
ATOM     25  C   UNL d   1      -0.275   3.737  -2.514  0.00  0.00     0.292 C 
BRANCH  23  26
ATOM     26  C   UNL d   1       1.472   6.994  -1.952  0.00  0.00     0.064 A 
ATOM     27  C   UNL d   1       1.110   8.030  -1.045  0.00  0.00     0.094 A 
ATOM     28  C   UNL d   1       1.566   9.342  -1.236  0.00  0.00     0.039 A 
ATOM     29  C   UNL d   1       2.347   9.666  -2.343  0.00  0.00     0.003 A 
ATOM     30  C   UNL d   1       2.673   8.680  -3.266  0.00  0.00     0.002 A 
ATOM     31  C   UNL d   1       2.238   7.365  -3.070  0.00  0.00     0.032 A 
BRANCH  27  32
ATOM     32  O   UNL d   1       0.290   7.682   0.007  0.00  0.00    -0.354 OA
ATOM     33  C   UNL d   1      -0.476   8.719   0.604  0.00  0.00     0.210 C 
ENDBRANCH  27  32
ENDBRANCH  23  26
ENDBRANCH  19  20
ENDBRANCH   1  19
TORSDOF 7
