REMARK  3 active torsions:
REMARK  status: ('A' for Active; 'I' for Inactive)
REMARK    1  A    between atoms: C_5  and  C_3 
REMARK    2  A    between atoms: C_13  and  N_7 
REMARK    3  A    between atoms: O_22  and  C_15 
ROOT
ATOM      1  C   UNL d   1       1.286  -1.476   0.136  0.00  0.00     0.057 A 
ATOM      2  C   UNL d   1       0.008  -0.751   0.110  0.00  0.00     0.023 A 
ATOM      3  C   UNL d   1       2.415  -0.762   0.000  0.00  0.00     0.004 A 
ATOM      4  O   UNL d   1       1.161   1.390  -0.147  0.00  0.00    -0.346 OA
ATOM      5  C   UNL d   1       0.026   0.643  -0.028  0.00  0.00     0.081 A 
ATOM      6  C   UNL d   1       2.428   0.721  -0.186  0.00  0.00     0.217 A 
ATOM      7  C   UNL d   1      -1.236  -1.388   0.231  0.00  0.00     0.058 A 
ATOM      8 CL   UNL d   1       1.262  -3.197   0.331  0.00  0.00    -0.083 Cl
ATOM      9  C   UNL d   1      -1.167   1.377  -0.043  0.00  0.00     0.040 A 
ATOM     10  C   UNL d   1      -2.419  -0.648   0.214  0.00  0.00     0.117 A 
ATOM     11  C   UNL d   1      -2.393   0.731   0.078  0.00  0.00     0.045 A 
ATOM     12  F   UNL d   1      -3.592  -1.278   0.334  0.00  0.00    -0.206 F 
ENDROOT
BRANCH   3  13
ATOM     13  C   UNL d   1       3.748  -1.416   0.041  0.00  0.00     0.099 C 
ATOM     14  N   UNL d   1       4.867  -0.793  -0.151  0.00  0.00    -0.365 N 
ATOM     15  HN  UNL d   1       4.888   0.208  -0.345  1.00  0.00     0.165 HD
BRANCH  14  16
ATOM     16  C   UNL d   1       6.057  -1.549  -0.083  0.00  0.00     0.032 A 
ATOM     17  C   UNL d   1       6.138  -2.885  -0.498  0.00  0.00     0.032 A 
ATOM     18  C   UNL d   1       7.315  -3.616  -0.342  0.00  0.00     0.039 A 
ATOM     19  C   UNL d   1       8.461  -3.009   0.161  0.00  0.00     0.068 A 
ATOM     20  C   UNL d   1       8.418  -1.662   0.520  0.00  0.00     0.039 A 
ATOM     21  C   UNL d   1       7.217  -0.938   0.401  0.00  0.00     0.032 A 
BRANCH  19  22
ATOM     22  O   UNL d   1       9.530  -3.846   0.311  0.00  0.00    -0.356 OA
ATOM     23  C   UNL d   1      10.815  -3.255   0.184  0.00  0.00     0.210 C 
ENDBRANCH  19  22
ENDBRANCH  14  16
ENDBRANCH   3  13
TORSDOF 3
