REMARK  4 active torsions:
REMARK  status: ('A' for Active; 'I' for Inactive)
REMARK    1  A    between atoms: C_2  and  C_1 
REMARK    2  A    between atoms: C_13  and  N_3 
REMARK    3  A    between atoms: C_15  and  C_4 
REMARK    4  A    between atoms: C_14  and  N_5 
ROOT
ATOM      1  C   UNL d   1      -0.246   1.246   0.018  0.00  0.00     0.057 A 
ATOM      2  C   UNL d   1       1.077   0.838  -0.143  0.00  0.00     0.082 A 
ATOM      3  N   UNL d   1       1.024  -0.572  -0.131  0.00  0.00    -0.255 N 
ATOM      4  N   UNL d   1      -0.245  -1.023   0.081  0.00  0.00    -0.303 N 
ATOM      5  HN  UNL d   1      -0.547  -1.988   0.217  1.00  0.00     0.186 HD
ATOM      6  C   UNL d   1      -1.000   0.067   0.073  0.00  0.00     0.125 A 
ENDROOT
BRANCH   1   7
ATOM      7  C   UNL d   1      -0.801   2.632   0.118  0.00  0.00     0.152 C 
ATOM      8  N   UNL d   1      -2.012   3.027   0.678  0.00  0.00    -0.224 N 
ATOM      9  N   UNL d   1      -2.310   4.258   0.197  0.00  0.00     0.001 NA
ATOM     10  N   UNL d   1      -1.216   4.677  -0.416  0.00  0.00    -0.007 NA
ATOM     11  N   UNL d   1      -0.265   3.694  -0.451  0.00  0.00    -0.269 N 
ATOM     12  HN  UNL d   1       0.674   3.768  -0.841  1.00  0.00     0.185 HD
BRANCH   8  13
ATOM     13  C   UNL d   1      -2.829   2.414   1.661  0.00  0.00     0.056 A 
ATOM     14  C   UNL d   1      -2.293   1.495   2.574  0.00  0.00     0.032 A 
ATOM     15  C   UNL d   1      -3.114   0.893   3.532  0.00  0.00     0.020 A 
ATOM     16  C   UNL d   1      -4.467   1.222   3.592  0.00  0.00     0.006 A 
ATOM     17  C   UNL d   1      -5.003   2.162   2.711  0.00  0.00     0.020 A 
ATOM     18  I   UNL d   1      -5.684   0.319   5.012  0.00  0.00    -0.045 I 
ATOM     19  C   UNL d   1      -4.183   2.769   1.754  0.00  0.00     0.032 A 
ENDBRANCH   8  13
ENDBRANCH   1   7
BRANCH   2  20
ATOM     20  C   UNL d   1       2.315   1.635  -0.126  0.00  0.00    -0.006 A 
ATOM     21  C   UNL d   1       3.337   1.362   0.798  0.00  0.00     0.014 A 
ATOM     22  C   UNL d   1       4.530   2.091   0.785  0.00  0.00     0.001 A 
ATOM     23  C   UNL d   1       4.697   3.138  -0.116  0.00  0.00     0.000 A 
ATOM     24  C   UNL d   1       3.678   3.446  -1.014  0.00  0.00     0.001 A 
ATOM     25  C   UNL d   1       2.504   2.687  -1.031  0.00  0.00     0.014 A 
ENDBRANCH   2  20
BRANCH   3  26
ATOM     26  C   UNL d   1       2.057  -1.548  -0.260  0.00  0.00     0.057 A 
ATOM     27  C   UNL d   1       1.862  -2.815   0.324  0.00  0.00     0.031 A 
ATOM     28  C   UNL d   1       2.873  -3.776   0.285  0.00  0.00     0.002 A 
ATOM     29  C   UNL d   1       4.074  -3.495  -0.359  0.00  0.00     0.000 A 
ATOM     30  C   UNL d   1       4.258  -2.260  -0.981  0.00  0.00     0.002 A 
ATOM     31  C   UNL d   1       3.251  -1.290  -0.940  0.00  0.00     0.031 A 
ENDBRANCH   3  26
TORSDOF 4
