REMARK  2 active torsions:
REMARK  status: ('A' for Active; 'I' for Inactive)
REMARK    1  A    between atoms: C_5  and  N_1 
REMARK    2  A    between atoms: C_6  and  C_5 
ROOT
ATOM      1  N   UNL d   1       0.410  -0.798   0.068  0.00  0.00    -0.288 N 
ATOM      2  C   UNL d   1       0.399  -0.027   1.197  0.00  0.00     0.177 A 
ATOM      3  C   UNL d   1       0.505   0.003  -1.045  0.00  0.00     0.244 A 
ATOM      4  N   UNL d   1       0.535   1.295   0.830  0.00  0.00    -0.358 N 
ATOM      5  S   UNL d   1       0.233  -0.467   2.786  0.00  0.00    -0.041 SA
ATOM      6  C   UNL d   1       0.611   1.452  -0.595  0.00  0.00     0.225 A 
ATOM      7  O   UNL d   1       0.481  -0.353  -2.215  0.00  0.00    -0.271 OA
ATOM      8  H   UNL d   1       0.536   2.048   1.508  0.00  0.00     0.162 HD
ENDROOT
BRANCH   1   9
ATOM      9  C   UNL d   1       0.273  -2.244  -0.030  0.00  0.00     0.180 C 
BRANCH   9  10
ATOM     10  C   UNL d   1       1.617  -2.907   0.084  0.00  0.00     0.001 A 
ATOM     11  S   UNL d   1       2.524  -3.274  -1.326  0.00  0.00    -0.105 SA
ATOM     12  C   UNL d   1       3.787  -3.977  -0.414  0.00  0.00     0.050 A 
ATOM     13  C   UNL d   1       3.530  -3.940   0.937  0.00  0.00     0.008 A 
ATOM     14  C   UNL d   1       2.274  -3.332   1.224  0.00  0.00     0.017 A 
ENDBRANCH   9  10
ENDBRANCH   1   9
TORSDOF 2
