REMARK  0 active torsions:
REMARK  status: ('A' for Active; 'I' for Inactive)
ROOT
ATOM      1  C   UNL d   1      -0.083  -1.036  -0.001  0.00  0.00     0.134 A 
ATOM      2  C   UNL d   1      -0.337   0.327   0.000  0.00  0.00     0.090 A 
ATOM      3  N   UNL d   1       0.672   1.234   0.001  0.00  0.00    -0.351 N 
ATOM      4  HN  UNL d   1       0.512   2.241   0.001  1.00  0.00     0.166 HD
ATOM      5  C   UNL d   1      -1.747   0.503  -0.000  0.00  0.00     0.024 A 
ATOM      6  N   UNL d   1      -1.283  -1.686  -0.001  0.00  0.00    -0.340 N 
ATOM      7  N   UNL d   1       1.130  -1.617  -0.001  0.00  0.00    -0.339 N 
ATOM      8  HN  UNL d   1       1.278  -2.626  -0.001  1.00  0.00     0.167 HD
ATOM      9  C   UNL d   1      -2.321  -0.776  -0.001  0.00  0.00     0.046 A 
ATOM     10  C   UNL d   1       1.901   0.688   0.000  0.00  0.00     0.060 A 
ATOM     11  C   UNL d   1       2.129  -0.711  -0.000  0.00  0.00     0.061 A 
ATOM     12  C   UNL d   1       2.996   1.541   0.001  0.00  0.00     0.039 A 
ATOM     13  C   UNL d   1       3.441  -1.167  -0.000  0.00  0.00     0.039 A 
ATOM     14  C   UNL d   1       4.328   1.079   0.000  0.00  0.00    -0.054 A 
ATOM     15  C   UNL d   1       4.555  -0.302  -0.000  0.00  0.00    -0.054 A 
ATOM     16  C   UNL d   1      -2.593   1.629   0.000  0.00  0.00     0.058 A 
ATOM     17  C   UNL d   1      -3.707  -0.982  -0.002  0.00  0.00     0.033 A 
ATOM     18  C   UNL d   1      -3.972   1.428  -0.000  0.00  0.00     0.117 A 
ATOM     19  C   UNL d   1      -4.525   0.152  -0.002  0.00  0.00     0.044 A 
ATOM     20  F   UNL d   1      -4.786   2.492  -0.000  0.00  0.00    -0.206 F 
ATOM     21  C   UNL d   1       5.404   2.131   0.000  0.00  0.00     0.049 C 
ATOM     22  C   UNL d   1       5.913  -0.949  -0.000  0.00  0.00     0.049 C 
ATOM     23  H   UNL d   1      -1.378  -2.690  -0.002  0.00  0.00     0.167 HD
ENDROOT
TORSDOF 0
