REMARK  2 active torsions:
REMARK  status: ('A' for Active; 'I' for Inactive)
REMARK    1  A    between atoms: C_4  and  C_3 
REMARK    2  A    between atoms: C_15  and  N_14 
ROOT
ATOM      1  N   UNL d   1       1.457  -0.463  -0.019  0.00  0.00    -0.320 N 
ATOM      2  HN  UNL d   1       2.416  -0.810  -0.022  1.00  0.00     0.169 HD
ATOM      3  C   UNL d   1       1.092   0.870   0.031  0.00  0.00     0.127 A 
ATOM      4  C   UNL d   1       0.382  -1.213  -0.064  0.00  0.00     0.167 A 
ATOM      5  N   UNL d   1      -0.204   1.193   0.070  0.00  0.00    -0.309 N 
ATOM      6  HN  UNL d   1      -0.599   2.130   0.144  1.00  0.00     0.176 HD
ATOM      7  S   UNL d   1      -1.048  -0.246  -0.027  0.00  0.00     0.024 SA
ATOM      8  N   UNL d   1       0.351  -2.566  -0.162  0.00  0.00    -0.335 N 
ATOM      9  H   UNL d   1      -0.522  -3.029  -0.374  0.00  0.00     0.168 HD
ENDROOT
BRANCH   3  10
ATOM     10  C   UNL d   1       2.155   1.873   0.046  0.00  0.00     0.049 A 
ATOM     11  C   UNL d   1       3.551   1.639  -0.073  0.00  0.00     0.037 A 
ATOM     12  N   UNL d   1       4.245   2.788  -0.011  0.00  0.00    -0.305 N 
ATOM     13  C   UNL d   1       4.273   0.352  -0.252  0.00  0.00     0.070 C 
ATOM     14  N   UNL d   1       3.302   3.732   0.135  0.00  0.00    -0.311 N 
ATOM     15  HN  UNL d   1       5.256   2.914  -0.064  1.00  0.00     0.186 HD
ATOM     16  C   UNL d   1       2.034   3.239   0.166  0.00  0.00     0.124 A 
ATOM     17  H   UNL d   1       3.601   4.699   0.209  0.00  0.00     0.186 HD
ENDBRANCH   3  10
BRANCH   8  18
ATOM     18  C   UNL d   1       1.377  -3.430   0.265  0.00  0.00     0.034 A 
ATOM     19  C   UNL d   1       2.265  -3.093   1.296  0.00  0.00     0.029 A 
ATOM     20  C   UNL d   1       3.290  -3.961   1.679  0.00  0.00     0.002 A 
ATOM     21  C   UNL d   1       3.462  -5.169   1.011  0.00  0.00     0.000 A 
ATOM     22  C   UNL d   1       2.606  -5.510  -0.034  0.00  0.00     0.002 A 
ATOM     23  C   UNL d   1       1.567  -4.648  -0.400  0.00  0.00     0.029 A 
ENDBRANCH   8  18
TORSDOF 2
