REMARK  6 active torsions:
REMARK  status: ('A' for Active; 'I' for Inactive)
REMARK    1  A    between atoms: C_11  and  N_1 
REMARK    2  A    between atoms: C_2  and  C_11 
REMARK    3  A    between atoms: S_14  and  C_4 
REMARK    4  A    between atoms: C_17  and  S_14 
REMARK    5  A    between atoms: C_15  and  C_17 
REMARK    6  A    between atoms: O_19  and  C_15 
ROOT
ATOM      1  C   UNL d   1      -0.324  -3.784   1.053  0.00  0.00     0.118 A 
ATOM      2  N   UNL d   1       0.430  -4.017   2.183  0.00  0.00    -0.318 N 
ATOM      3  C   UNL d   1      -0.350  -4.803   2.988  0.00  0.00     0.162 A 
ATOM      4  N   UNL d   1      -1.489  -4.396   1.198  0.00  0.00    -0.285 N 
ATOM      5  HN  UNL d   1      -2.253  -4.386   0.522  1.00  0.00     0.188 HD
ATOM      6  N   UNL d   1      -1.498  -5.046   2.405  0.00  0.00    -0.278 N 
ATOM      7  HN  UNL d   1      -2.258  -5.615   2.779  1.00  0.00     0.189 HD
ATOM      8  C   UNL d   1       1.801  -3.654   2.432  0.00  0.00     0.160 C 
ENDROOT
BRANCH   1   9
ATOM      9  C   UNL d   1       0.137  -3.097  -0.193  0.00  0.00     0.207 C 
BRANCH   9  10
ATOM     10  N   UNL d   1       0.100  -1.638  -0.104  0.00  0.00    -0.338 N 
ATOM     11  C   UNL d   1      -1.063  -0.886  -0.052  0.00  0.00     0.046 A 
ATOM     12  C   UNL d   1      -0.684   0.455   0.019  0.00  0.00     0.003 A 
ATOM     13  C   UNL d   1      -2.416  -1.268  -0.059  0.00  0.00     0.030 A 
ATOM     14  C   UNL d   1      -1.686   1.448   0.086  0.00  0.00     0.014 A 
ATOM     15  C   UNL d   1       0.743   0.503  -0.017  0.00  0.00     0.003 A 
ATOM     16  C   UNL d   1      -3.032   1.075   0.077  0.00  0.00     0.001 A 
ATOM     17  C   UNL d   1      -3.389  -0.267   0.007  0.00  0.00     0.002 A 
ATOM     18  C   UNL d   1       1.208  -0.805  -0.173  0.00  0.00     0.046 A 
ATOM     19  C   UNL d   1       1.675   1.562   0.034  0.00  0.00     0.014 A 
ATOM     20  C   UNL d   1       2.577  -1.074  -0.358  0.00  0.00     0.030 A 
ATOM     21  C   UNL d   1       3.480  -0.006  -0.310  0.00  0.00     0.002 A 
ATOM     22  C   UNL d   1       3.039   1.294  -0.098  0.00  0.00     0.001 A 
ENDBRANCH   9  10
ENDBRANCH   1   9
BRANCH   3  23
ATOM     23  S   UNL d   1       0.192  -5.525   4.460  0.00  0.00    -0.082 SA
BRANCH  23  24
ATOM     24  C   UNL d   1      -0.410  -7.221   4.215  0.00  0.00     0.192 C 
BRANCH  24  25
ATOM     25  C   UNL d   1       0.311  -7.879   3.057  0.00  0.00     0.149 C 
ATOM     26  O   UNL d   1       1.381  -8.468   3.159  0.00  0.00    -0.649 OA
BRANCH  25  27
ATOM     27  O   UNL d   1      -0.315  -7.729   1.864  0.00  0.00    -0.776 OA
ATOM     28  H   UNL d   1      -1.109  -7.147   1.886  0.00  0.00     0.167 HD
ENDBRANCH  25  27
ENDBRANCH  24  25
ENDBRANCH  23  24
ENDBRANCH   3  23
TORSDOF 6
