REMARK  5 active torsions:
REMARK  status: ('A' for Active; 'I' for Inactive)
REMARK    1  A    between atoms: N_4  and  N_1 
REMARK    2  A    between atoms: C_6  and  C_2 
REMARK    3  A    between atoms: S_3  and  N_4 
REMARK    4  A    between atoms: C_12  and  S_3 
REMARK    5  A    between atoms: O_22  and  C_9 
ROOT
ATOM      1  N   UNL d   1       2.076  -0.143   0.434  0.00  0.00    -0.241 N 
ATOM      2  C   UNL d   1       1.824  -1.506  -0.034  0.00  0.00     0.220 C 
ATOM      3  C   UNL d   1       1.131   0.863   0.297  0.00  0.00     0.272 C 
ATOM      4  N   UNL d   1       0.477  -1.887   0.395  0.00  0.00    -0.265 NA
ATOM      5  C   UNL d   1      -0.260   0.423   0.076  0.00  0.00     0.054 A 
ATOM      6  C   UNL d   1      -0.534  -0.949   0.139  0.00  0.00     0.026 A 
ATOM      7  O   UNL d   1       1.422   2.052   0.415  0.00  0.00    -0.266 OA
ATOM      8  C   UNL d   1      -1.279   1.366  -0.097  0.00  0.00     0.019 A 
ATOM      9  C   UNL d   1      -1.874  -1.352   0.118  0.00  0.00     0.024 A 
ATOM     10  C   UNL d   1      -2.604   0.941  -0.162  0.00  0.00     0.001 A 
ATOM     11  C   UNL d   1      -2.902  -0.415  -0.042  0.00  0.00     0.002 A 
ATOM     12  H   UNL d   1       0.222  -2.827   0.105  0.00  0.00     0.130 HD
ENDROOT
BRANCH   1  13
ATOM     13  N   UNL d   1       3.485   0.351   0.625  0.00  0.00    -0.119 NA
ATOM     14  H   UNL d   1       3.434   1.352   0.888  0.00  0.00     0.166 HD
BRANCH  13  15
ATOM     15  S   UNL d   1       4.542   0.284  -0.730  0.00  0.00     0.258 S 
ATOM     16  O   UNL d   1       4.682  -1.090  -1.157  0.00  0.00    -0.204 OA
ATOM     17  O   UNL d   1       4.116   1.312  -1.652  0.00  0.00    -0.204 OA
BRANCH  15  18
ATOM     18  C   UNL d   1       6.057   0.806   0.033  0.00  0.00     0.076 A 
ATOM     19  C   UNL d   1       6.934  -0.145   0.571  0.00  0.00     0.025 A 
ATOM     20  C   UNL d   1       8.124   0.277   1.161  0.00  0.00     0.008 A 
ATOM     21  C   UNL d   1       8.451   1.642   1.218  0.00  0.00    -0.062 A 
ATOM     22  C   UNL d   1       7.567   2.581   0.671  0.00  0.00     0.008 A 
ATOM     23  C   UNL d   1       9.749   2.079   1.835  0.00  0.00     0.048 C 
ATOM     24  C   UNL d   1       6.373   2.167   0.074  0.00  0.00     0.025 A 
ENDBRANCH  15  18
ENDBRANCH  13  15
ENDBRANCH   1  13
BRANCH   2  25
ATOM     25  C   UNL d   1       2.771  -2.578   0.486  0.00  0.00     0.017 A 
ATOM     26  C   UNL d   1       3.391  -2.559   1.748  0.00  0.00     0.097 A 
ATOM     27  C   UNL d   1       4.322  -3.550   2.102  0.00  0.00     0.069 A 
ATOM     28 CL   UNL d   1       5.184  -3.476   3.598  0.00  0.00    -0.081 Cl
ATOM     29  C   UNL d   1       4.602  -4.603   1.235  0.00  0.00     0.050 A 
ATOM     30  C   UNL d   1       3.944  -4.671   0.015  0.00  0.00     0.036 A 
ATOM     31  C   UNL d   1       3.040  -3.677  -0.361  0.00  0.00     0.037 A 
ATOM     32 CL   UNL d   1       4.253  -5.985  -1.052  0.00  0.00    -0.084 Cl
BRANCH  26  33
ATOM     33  O   UNL d   1       3.124  -1.582   2.670  0.00  0.00    -0.358 OA
ATOM     34  H   UNL d   1       2.696  -0.830   2.221  0.00  0.00     0.217 HD
ENDBRANCH  26  33
ENDBRANCH   2  25
TORSDOF 5
