REMARK  1 active torsions:
REMARK  status: ('A' for Active; 'I' for Inactive)
REMARK    1  A    between atoms: C_4  and  C_1 
ROOT
ATOM      1  C   UNL d   1      -2.411  -0.141  -0.071  0.00  0.00     0.043 A 
ATOM      2  N   UNL d   1      -1.597   0.972  -0.048  0.00  0.00    -0.355 N 
ATOM      3  C   UNL d   1      -1.567  -1.237  -0.013  0.00  0.00     0.044 A 
ATOM      4  C   UNL d   1      -0.268   0.613  -0.025  0.00  0.00     0.043 A 
ATOM      5  C   UNL d   1      -0.223  -0.778  -0.001  0.00  0.00    -0.007 A 
ATOM      6  C   UNL d   1       0.886   1.405  -0.026  0.00  0.00     0.030 A 
ATOM      7  C   UNL d   1       1.030  -1.419   0.019  0.00  0.00     0.014 A 
ATOM      8  C   UNL d   1       2.121   0.747  -0.012  0.00  0.00     0.002 A 
ATOM      9  C   UNL d   1       2.195  -0.645   0.009  0.00  0.00     0.001 A 
ATOM     10  H   UNL d   1      -1.923   1.927  -0.050  0.00  0.00     0.166 HD
ENDROOT
BRANCH   1  11
ATOM     11  C   UNL d   1      -3.872  -0.082  -0.149  0.00  0.00    -0.008 A 
ATOM     12  C   UNL d   1      -4.649  -1.079   0.462  0.00  0.00     0.040 A 
ATOM     13  C   UNL d   1      -6.040  -1.066   0.343  0.00  0.00     0.073 A 
ATOM     14 CL   UNL d   1      -6.965  -2.312   1.090  0.00  0.00    -0.081 Cl
ATOM     15  C   UNL d   1      -6.664  -0.057  -0.384  0.00  0.00     0.138 A 
ATOM     16  C   UNL d   1      -5.913   0.945  -0.988  0.00  0.00     0.045 A 
ATOM     17  F   UNL d   1      -7.998  -0.035  -0.523  0.00  0.00    -0.204 F 
ATOM     18  C   UNL d   1      -4.520   0.933  -0.871  0.00  0.00     0.017 A 
ENDBRANCH   1  11
TORSDOF 1
