REMARK  7 active torsions:
REMARK  status: ('A' for Active; 'I' for Inactive)
REMARK    1  A    between atoms: N_2  and  C_1 
REMARK    2  A    between atoms: N_4  and  C_1 
REMARK    3  A    between atoms: C_3  and  C_5 
REMARK    4  A    between atoms: C_10  and  N_4 
REMARK    5  A    between atoms: N_7  and  C_15 
REMARK    6  A    between atoms: C_9  and  C_8 
REMARK    7  A    between atoms: C_15  and  C_9 
ROOT
ATOM      1  N   UNL d   1      -0.011  -1.111   0.535  0.00  0.00    -0.353 N 
ATOM      2  C   UNL d   1      -0.691  -2.078  -0.369  0.00  0.00     0.088 C 
ATOM      3  C   UNL d   1       0.417  -1.692   1.807  0.00  0.00     0.125 C 
ATOM      4  C   UNL d   1      -1.950  -2.592   0.371  0.00  0.00     0.025 C 
ATOM      5  C   UNL d   1      -0.782  -2.173   2.603  0.00  0.00     0.020 C 
ATOM      6  C   UNL d   1      -1.644  -3.123   1.779  0.00  0.00     0.004 C 
ENDROOT
BRANCH   1   7
ATOM      7  C   UNL d   1       0.753  -0.033   0.110  0.00  0.00     0.174 C 
ATOM      8  S   UNL d   1       2.172  -0.164  -0.772  0.00  0.00    -0.041 SA
BRANCH   7   9
ATOM      9  N   UNL d   1       0.431   1.185   0.675  0.00  0.00    -0.333 N 
ATOM     10  H   UNL d   1       1.195   1.850   0.678  0.00  0.00     0.168 HD
BRANCH   9  11
ATOM     11  C   UNL d   1      -0.763   1.572   1.315  0.00  0.00     0.035 A 
ATOM     12  C   UNL d   1      -0.701   2.549   2.310  0.00  0.00     0.045 A 
ATOM     13  C   UNL d   1      -1.863   2.923   3.016  0.00  0.00     0.050 A 
ATOM     14  C   UNL d   1      -3.096   2.337   2.681  0.00  0.00     0.016 A 
ATOM     15  C   UNL d   1      -3.172   1.413   1.649  0.00  0.00     0.003 A 
ATOM     16  C   UNL d   1      -2.012   1.042   0.975  0.00  0.00     0.029 A 
BRANCH  13  17
ATOM     17  C   UNL d   1      -1.801   3.910   4.153  0.00  0.00     0.417 C 
ATOM     18  F   UNL d   1      -0.575   4.480   4.314  0.00  0.00    -0.166 F 
ATOM     19  F   UNL d   1      -2.676   4.941   3.998  0.00  0.00    -0.166 F 
ATOM     20  F   UNL d   1      -2.107   3.336   5.350  0.00  0.00    -0.166 F 
ENDBRANCH  13  17
ENDBRANCH   9  11
ENDBRANCH   7   9
ENDBRANCH   1   7
BRANCH   2  21
ATOM     21  C   UNL d   1      -1.020  -1.478  -1.755  0.00  0.00     0.055 C 
BRANCH  21  22
ATOM     22  C   UNL d   1      -1.791  -2.383  -2.724  0.00  0.00     0.274 C 
BRANCH  22  23
ATOM     23  N   UNL d   1      -2.034  -1.696  -4.008  0.00  0.00     0.092 N 
ATOM     24  C   UNL d   1      -0.809  -1.450  -4.805  0.00  0.00     0.298 C 
ATOM     25  C   UNL d   1      -0.229  -2.716  -5.453  0.00  0.00     0.198 C 
ATOM     26  O   UNL d   1      -1.199  -3.349  -6.296  0.00  0.00    -0.388 OA
ATOM     27  C   UNL d   1      -2.383  -3.673  -5.556  0.00  0.00     0.198 C 
ATOM     28  C   UNL d   1      -2.985  -2.437  -4.866  0.00  0.00     0.298 C 
ENDBRANCH  22  23
ENDBRANCH  21  22
ENDBRANCH   2  21
TORSDOF 7
