REMARK  2 active torsions:
REMARK  status: ('A' for Active; 'I' for Inactive)
REMARK       I    between atoms: C_9  and  N_12 
REMARK       I    between atoms: N_14  and  C_9 
REMARK    1  A    between atoms: N_12  and  C_10 
REMARK    2  A    between atoms: C_16  and  N_14 
ROOT
ATOM      1  C   UNL d   1      -5.054  -0.581  -0.067  0.00  0.00     0.325 C 
ATOM      2  N   UNL d   1      -3.829  -1.230   0.005  0.00  0.00    -0.309 N 
ATOM      3  N   UNL d   1      -4.909   0.798  -0.103  0.00  0.00    -0.309 N 
ATOM      4  O   UNL d   1      -6.130  -1.162  -0.134  0.00  0.00    -0.247 OA
ATOM      5  H   UNL d   1      -3.010  -0.651   0.113  0.00  0.00     0.170 HD
ATOM      6  H   UNL d   1      -3.977   1.171  -0.038  0.00  0.00     0.170 HD
ENDROOT
BRANCH   2   7
ATOM      7  C   UNL d   1      -3.608  -2.623  -0.167  0.00  0.00     0.038 A 
ATOM      8  C   UNL d   1      -4.665  -3.538  -0.354  0.00  0.00     0.062 A 
ATOM      9  C   UNL d   1      -4.318  -4.878  -0.649  0.00  0.00     0.069 A 
ATOM     10  C   UNL d   1      -2.883  -5.304  -0.718  0.00  0.00     0.067 A 
ATOM     11  N   UNL d   1      -5.180  -5.876  -0.903  0.00  0.00    -0.310 N 
ATOM     12  N   UNL d   1      -2.728  -6.599  -1.033  0.00  0.00    -0.310 N 
ATOM     13  C   UNL d   1      -1.846  -4.376  -0.468  0.00  0.00     0.035 A 
ATOM     14  S   UNL d   1      -4.259  -7.218  -1.232  0.00  0.00     0.068 SA
ATOM     15  HN  UNL d   1      -1.847  -7.103  -1.132  1.00  0.00     0.176 HD
ATOM     16  C   UNL d   1      -2.250  -3.050  -0.199  0.00  0.00     0.032 A 
ATOM     17  HN  UNL d   1      -6.199  -5.821  -0.895  1.00  0.00     0.176 HD
ENDBRANCH   2   7
BRANCH   3  18
ATOM     18  C   UNL d   1      -5.943   1.740  -0.334  0.00  0.00     0.036 A 
ATOM     19  C   UNL d   1      -7.294   1.399  -0.467  0.00  0.00     0.029 A 
ATOM     20  C   UNL d   1      -8.257   2.372  -0.754  0.00  0.00     0.002 A 
ATOM     21  C   UNL d   1      -7.881   3.701  -0.905  0.00  0.00     0.000 A 
ATOM     22  C   UNL d   1      -6.543   4.060  -0.755  0.00  0.00     0.002 A 
ATOM     23  C   UNL d   1      -5.581   3.085  -0.467  0.00  0.00     0.029 A 
ENDBRANCH   3  18
TORSDOF 2
