REMARK  5 active torsions:
REMARK  status: ('A' for Active; 'I' for Inactive)
REMARK    1  A    between atoms: C_11  and  C_1 
REMARK    2  A    between atoms: C_12  and  C_4 
REMARK    3  A    between atoms: S_10  and  C_7 
REMARK    4  A    between atoms: C_15  and  S_10 
REMARK    5  A    between atoms: C_14  and  C_15 
ROOT
ATOM      1  C   UNL d   1      -0.254  -1.352   0.147  0.00  0.00     0.086 A 
ATOM      2  N   UNL d   1      -1.234  -0.442   0.357  0.00  0.00    -0.296 N 
ATOM      3  HN  UNL d   1      -2.185  -0.754   0.551  1.00  0.00     0.187 HD
ATOM      4  C   UNL d   1       1.034  -0.891  -0.157  0.00  0.00     0.073 A 
ATOM      5  N   UNL d   1       1.326   0.444  -0.190  0.00  0.00    -0.333 N 
ATOM      6  HN  UNL d   1       2.269   0.781  -0.382  1.00  0.00     0.168 HD
ATOM      7  C   UNL d   1       0.307   1.290   0.043  0.00  0.00     0.160 A 
ATOM      8  N   UNL d   1      -0.949   0.890   0.309  0.00  0.00    -0.279 N 
ATOM      9  HN  UNL d   1      -1.683   1.579   0.474  1.00  0.00     0.189 HD
ENDROOT
BRANCH   1  10
ATOM     10  C   UNL d   1      -0.697  -2.751   0.305  0.00  0.00    -0.006 A 
ATOM     11  C   UNL d   1      -1.919  -3.173  -0.255  0.00  0.00     0.014 A 
ATOM     12  C   UNL d   1      -2.357  -4.496  -0.139  0.00  0.00     0.001 A 
ATOM     13  C   UNL d   1      -1.581  -5.428   0.541  0.00  0.00     0.000 A 
ATOM     14  C   UNL d   1      -0.382  -5.032   1.127  0.00  0.00     0.001 A 
ATOM     15  C   UNL d   1       0.044  -3.704   1.027  0.00  0.00     0.014 A 
ENDBRANCH   1  10
BRANCH   4  16
ATOM     16  C   UNL d   1       2.207  -1.753  -0.448  0.00  0.00    -0.007 A 
ATOM     17  C   UNL d   1       2.124  -2.905  -1.254  0.00  0.00     0.014 A 
ATOM     18  C   UNL d   1       3.226  -3.747  -1.441  0.00  0.00     0.001 A 
ATOM     19  C   UNL d   1       4.452  -3.429  -0.867  0.00  0.00     0.000 A 
ATOM     20  C   UNL d   1       4.580  -2.266  -0.114  0.00  0.00     0.001 A 
ATOM     21  C   UNL d   1       3.471  -1.440   0.092  0.00  0.00     0.014 A 
ENDBRANCH   4  16
BRANCH   7  22
ATOM     22  S   UNL d   1       0.627   3.033   0.147  0.00  0.00    -0.085 SA
BRANCH  22  23
ATOM     23  C   UNL d   1       2.170   3.138  -0.796  0.00  0.00     0.160 C 
BRANCH  23  24
ATOM     24  C   UNL d   1       2.014   2.696  -2.240  0.00  0.00     0.132 C 
ATOM     25  O   UNL d   1       0.943   2.720  -2.852  0.00  0.00    -0.298 OA
ATOM     26  C   UNL d   1       3.284   2.291  -2.940  0.00  0.00     0.091 C 
ENDBRANCH  23  24
ENDBRANCH  22  23
ENDBRANCH   7  22
TORSDOF 5
