REMARK  2 active torsions:
REMARK  status: ('A' for Active; 'I' for Inactive)
REMARK    1  A    between atoms: N_11  and  N_3 
REMARK    2  A    between atoms: C_14  and  N_11 
ROOT
ATOM      1  C   UNL d   1       0.440   0.521  -0.069  0.00  0.00     0.051 A 
ATOM      2  C   UNL d   1       0.916  -0.783   0.071  0.00  0.00     0.090 A 
ATOM      3  N   UNL d   1       2.713   1.177  -0.069  0.00  0.00    -0.235 N 
ATOM      4  C   UNL d   1       1.390   1.620  -0.145  0.00  0.00     0.135 A 
ATOM      5  N   UNL d   1       2.214  -1.175   0.204  0.00  0.00    -0.344 N 
ATOM      6  HN  UNL d   1       2.510  -2.143   0.333  1.00  0.00     0.167 HD
ATOM      7  S   UNL d   1      -0.359  -1.947   0.090  0.00  0.00    -0.075 SA
ATOM      8  C   UNL d   1      -0.973   0.530  -0.088  0.00  0.00    -0.028 A 
ATOM      9  C   UNL d   1      -1.498  -0.731  -0.026  0.00  0.00    -0.008 A 
ATOM     10  C   UNL d   1       3.030  -0.166   0.145  0.00  0.00     0.209 A 
ATOM     11  N   UNL d   1       0.956   2.832  -0.252  0.00  0.00    -0.383 N 
ATOM     12  HN  UNL d   1      -0.019   3.131  -0.271  1.00  0.00     0.157 HD
ATOM     13  C   UNL d   1      -2.043   1.555  -0.154  0.00  0.00     0.041 C 
ATOM     14  C   UNL d   1      -2.978  -0.769  -0.059  0.00  0.00     0.047 C 
ATOM     15  C   UNL d   1      -3.311   0.727   0.233  0.00  0.00     0.010 C 
ATOM     16  H   UNL d   1       1.784   3.435  -0.316  0.00  0.00     0.157 HD
ENDROOT
BRANCH   3  17
ATOM     17  N   UNL d   1       3.715   2.160  -0.006  0.00  0.00    -0.292 N 
ATOM     18  H   UNL d   1       3.767   2.596   0.916  0.00  0.00     0.187 HD
BRANCH  17  19
ATOM     19  C   UNL d   1       4.999   2.010  -0.589  0.00  0.00     0.048 A 
ATOM     20  C   UNL d   1       5.221   1.207  -1.716  0.00  0.00     0.031 A 
ATOM     21  C   UNL d   1       6.514   1.004  -2.203  0.00  0.00     0.002 A 
ATOM     22  C   UNL d   1       7.595   1.643  -1.601  0.00  0.00     0.000 A 
ATOM     23  C   UNL d   1       7.379   2.512  -0.534  0.00  0.00     0.002 A 
ATOM     24  C   UNL d   1       6.086   2.704  -0.041  0.00  0.00     0.031 A 
ENDBRANCH  17  19
ENDBRANCH   3  17
TORSDOF 2
