REMARK  1 active torsions:
REMARK  status: ('A' for Active; 'I' for Inactive)
REMARK    1  A    between atoms: C_6  and  C_1 
ROOT
ATOM      1  C   UNL d   1      -2.498   0.028  -0.035  0.00  0.00     0.048 A 
ATOM      2  C   UNL d   1      -1.684   1.096  -0.028  0.00  0.00     0.060 A 
ATOM      3  C   UNL d   1      -1.631  -1.181  -0.010  0.00  0.00     0.195 A 
ATOM      4  C   UNL d   1      -0.291   0.682  -0.014  0.00  0.00     0.001 A 
ATOM      5  C   UNL d   1      -0.249  -0.706  -0.003  0.00  0.00     0.027 A 
ATOM      6  O   UNL d   1      -1.980  -2.343   0.007  0.00  0.00    -0.287 OA
ATOM      7 CL   UNL d   1      -2.146   2.734  -0.030  0.00  0.00    -0.082 Cl
ATOM      8  C   UNL d   1       0.892   1.405  -0.011  0.00  0.00     0.014 A 
ATOM      9  C   UNL d   1       0.930  -1.429   0.012  0.00  0.00     0.016 A 
ATOM     10  C   UNL d   1       2.123  -0.704   0.014  0.00  0.00     0.001 A 
ATOM     11  C   UNL d   1       2.104   0.702   0.003  0.00  0.00     0.001 A 
ENDROOT
BRANCH   1  12
ATOM     12  C   UNL d   1      -3.955   0.025  -0.048  0.00  0.00    -0.020 A 
ATOM     13  C   UNL d   1      -4.654   0.052  -1.261  0.00  0.00     0.012 A 
ATOM     14  C   UNL d   1      -6.048   0.137  -1.269  0.00  0.00     0.001 A 
ATOM     15  C   UNL d   1      -6.751   0.193  -0.066  0.00  0.00     0.000 A 
ATOM     16  C   UNL d   1      -6.063   0.149   1.145  0.00  0.00     0.001 A 
ATOM     17  C   UNL d   1      -4.669   0.065   1.155  0.00  0.00     0.012 A 
ENDBRANCH   1  12
TORSDOF 1
