REMARK  3 active torsions:
REMARK  status: ('A' for Active; 'I' for Inactive)
REMARK    1  A    between atoms: C_15  and  C_4 
REMARK    2  A    between atoms: N_12  and  C_10 
REMARK    3  A    between atoms: C_11  and  C_16 
ROOT
ATOM      1  N   UNL d   1       0.073   0.654  -0.065  0.00  0.00    -0.219 N 
ATOM      2  N   UNL d   1      -1.112   1.351  -0.055  0.00  0.00    -0.276 N 
ATOM      3  HN  UNL d   1      -1.148   2.370  -0.092  1.00  0.00     0.189 HD
ATOM      4  C   UNL d   1       1.366   1.156  -0.074  0.00  0.00     0.154 A 
ATOM      5  N   UNL d   1       2.211   0.136  -0.146  0.00  0.00    -0.282 N 
ATOM      6  HN  UNL d   1       3.226   0.211  -0.207  1.00  0.00     0.188 HD
ATOM      7  C   UNL d   1       0.225  -0.717  -0.062  0.00  0.00     0.143 A 
ATOM      8  N   UNL d   1       1.497  -1.034  -0.125  0.00  0.00    -0.282 N 
ATOM      9  HN  UNL d   1       1.883  -1.978  -0.152  1.00  0.00     0.188 HD
ATOM     10  C   UNL d   1      -2.194   0.612   0.006  0.00  0.00     0.118 A 
ATOM     11  C   UNL d   1      -0.936  -1.502  -0.014  0.00  0.00     0.056 A 
ATOM     12  C   UNL d   1      -2.126  -0.892   0.016  0.00  0.00     0.053 A 
ENDROOT
BRANCH   4  13
ATOM     13  C   UNL d   1       1.763   2.566  -0.017  0.00  0.00     0.011 A 
ATOM     14  C   UNL d   1       0.986   3.543   0.617  0.00  0.00     0.016 A 
ATOM     15  C   UNL d   1       1.418   4.873   0.682  0.00  0.00     0.017 A 
ATOM     16  C   UNL d   1       2.641   5.256   0.115  0.00  0.00     0.048 A 
ATOM     17  C   UNL d   1       3.427   4.280  -0.511  0.00  0.00     0.017 A 
ATOM     18  C   UNL d   1       2.994   2.951  -0.571  0.00  0.00     0.016 A 
BRANCH  16  19
ATOM     19  C   UNL d   1       3.116   6.686   0.175  0.00  0.00     0.417 C 
ATOM     20  F   UNL d   1       2.245   7.524   0.805  0.00  0.00    -0.166 F 
ATOM     21  F   UNL d   1       4.301   6.818   0.834  0.00  0.00    -0.166 F 
ATOM     22  F   UNL d   1       3.315   7.221  -1.062  0.00  0.00    -0.166 F 
ENDBRANCH  16  19
ENDBRANCH   4  13
BRANCH  10  23
ATOM     23  N   UNL d   1      -3.434   1.239   0.053  0.00  0.00    -0.366 N 
ATOM     24  C   UNL d   1      -4.601   0.672   0.730  0.00  0.00     0.124 C 
ATOM     25  C   UNL d   1      -5.070   1.623   1.829  0.00  0.00     0.020 C 
ATOM     26  C   UNL d   1      -5.371   3.006   1.262  0.00  0.00     0.003 C 
ATOM     27  C   UNL d   1      -4.162   3.551   0.504  0.00  0.00     0.020 C 
ATOM     28  C   UNL d   1      -3.659   2.561  -0.545  0.00  0.00     0.124 C 
ENDBRANCH  10  23
TORSDOF 3
