REMARK  3 active torsions:
REMARK  status: ('A' for Active; 'I' for Inactive)
REMARK       I    between atoms: N_2  and  C_1 
REMARK       I    between atoms: N_4  and  C_1 
REMARK    1  A    between atoms: C_5  and  N_3 
REMARK    2  A    between atoms: C_11  and  N_4 
REMARK    3  A    between atoms: O_16  and  C_13 
ROOT
ATOM      1  C   UNL d   1       1.257   0.121   0.197  0.00  0.00     0.323 C 
ATOM      2  N   UNL d   1       0.647   1.368   0.405  0.00  0.00    -0.331 N 
ATOM      3  N   UNL d   1      -0.829   3.837   0.282  0.00  0.00    -0.376 N 
ATOM      4  N   UNL d   1       0.854  -0.849   1.091  0.00  0.00    -0.309 N 
ATOM      5  O   UNL d   1       2.080  -0.052  -0.694  0.00  0.00    -0.247 OA
ATOM      6  C   UNL d   1       1.012   2.423  -0.560  0.00  0.00     0.147 C 
ATOM      7  C   UNL d   1      -0.726   1.476   0.928  0.00  0.00     0.147 C 
ATOM      8  C   UNL d   1       0.589   3.847  -0.132  0.00  0.00     0.143 C 
ATOM      9  C   UNL d   1      -1.089   2.898   1.380  0.00  0.00     0.143 C 
ATOM     10  H   UNL d   1       0.497  -0.499   1.964  0.00  0.00     0.170 HD
ENDROOT
BRANCH   4  11
ATOM     11  C   UNL d   1       1.132  -2.229   1.057  0.00  0.00     0.037 A 
ATOM     12  C   UNL d   1       1.728  -2.882  -0.023  0.00  0.00     0.053 A 
ATOM     13  C   UNL d   1       1.968  -4.258   0.040  0.00  0.00     0.036 A 
ATOM     14 CL   UNL d   1       2.719  -5.058  -1.288  0.00  0.00    -0.084 Cl
ATOM     15  C   UNL d   1       1.605  -4.996   1.164  0.00  0.00     0.024 A 
ATOM     16  C   UNL d   1       0.990  -4.356   2.238  0.00  0.00     0.004 A 
ATOM     17  C   UNL d   1       0.753  -2.979   2.181  0.00  0.00     0.029 A 
ENDBRANCH   4  11
BRANCH   3  18
ATOM     18  C   UNL d   1      -1.588   5.002   0.174  0.00  0.00     0.064 A 
ATOM     19  C   UNL d   1      -1.760   5.690  -1.050  0.00  0.00     0.094 A 
ATOM     20  C   UNL d   1      -2.625   6.789  -1.163  0.00  0.00     0.039 A 
ATOM     21  C   UNL d   1      -3.351   7.229  -0.061  0.00  0.00     0.003 A 
ATOM     22  C   UNL d   1      -3.178   6.600   1.164  0.00  0.00     0.002 A 
ATOM     23  C   UNL d   1      -2.307   5.510   1.275  0.00  0.00     0.032 A 
BRANCH  19  24
ATOM     24  O   UNL d   1      -1.074   5.375  -2.199  0.00  0.00    -0.354 OA
ATOM     25  C   UNL d   1      -1.492   4.139  -2.773  0.00  0.00     0.210 C 
ENDBRANCH  19  24
ENDBRANCH   3  18
TORSDOF 3
