REMARK  5 active torsions:
REMARK  status: ('A' for Active; 'I' for Inactive)
REMARK    1  A    between atoms: N_6  and  C_1 
REMARK    2  A    between atoms: C_8  and  N_2 
REMARK    3  A    between atoms: C_9  and  N_6 
REMARK    4  A    between atoms: C_11  and  C_7 
REMARK    5  A    between atoms: O_15  and  C_11 
ROOT
ATOM      1  C   UNL d   1      -0.425  -1.081   0.037  0.00  0.00     0.130 A 
ATOM      2  N   UNL d   1       0.898  -0.680   0.232  0.00  0.00    -0.240 N 
ATOM      3  N   UNL d   1       0.978   0.663   0.467  0.00  0.00    -0.297 N 
ATOM      4  HN  UNL d   1       1.802   1.199   0.739  1.00  0.00     0.187 HD
ATOM      5  C   UNL d   1      -1.176   0.075   0.050  0.00  0.00     0.076 A 
ATOM      6  C   UNL d   1      -0.260   1.120   0.261  0.00  0.00     0.026 A 
ATOM      7  C   UNL d   1      -0.539   2.576   0.268  0.00  0.00     0.070 C 
ENDROOT
BRANCH   1   8
ATOM      8  N   UNL d   1      -0.813  -2.387  -0.064  0.00  0.00    -0.340 N 
ATOM      9  H   UNL d   1      -0.648  -2.961   0.778  0.00  0.00     0.167 HD
BRANCH   8  10
ATOM     10  C   UNL d   1      -1.945  -2.838  -0.794  0.00  0.00     0.050 A 
ATOM     11  C   UNL d   1      -2.639  -4.020  -0.449  0.00  0.00     0.064 A 
ATOM     12  C   UNL d   1      -3.774  -4.418  -1.182  0.00  0.00     0.020 A 
ATOM     13  C   UNL d   1      -4.179  -3.695  -2.306  0.00  0.00     0.001 A 
ATOM     14  C   UNL d   1      -3.461  -2.572  -2.697  0.00  0.00     0.002 A 
ATOM     15  C   UNL d   1      -2.358  -2.155  -1.953  0.00  0.00     0.030 A 
BRANCH  11  16
ATOM     16  C   UNL d   1      -2.192  -4.827   0.716  0.00  0.00     0.178 C 
ATOM     17  O   UNL d   1      -1.633  -4.337   1.683  0.00  0.00    -0.646 OA
BRANCH  16  18
ATOM     18  O   UNL d   1      -2.389  -6.156   0.580  0.00  0.00    -0.773 OA
ATOM     19  H   UNL d   1      -2.628  -6.450  -0.319  0.00  0.00     0.167 HD
ENDBRANCH  16  18
ENDBRANCH  11  16
ENDBRANCH   8  10
ENDBRANCH   1   8
BRANCH   2  20
ATOM     20  C   UNL d   1       2.097  -1.441   0.111  0.00  0.00     0.060 A 
ATOM     21  C   UNL d   1       2.138  -2.606  -0.666  0.00  0.00     0.055 A 
ATOM     22  C   UNL d   1       3.340  -3.301  -0.809  0.00  0.00     0.036 A 
ATOM     23 CL   UNL d   1       3.397  -4.701  -1.810  0.00  0.00    -0.084 Cl
ATOM     24  C   UNL d   1       4.497  -2.860  -0.171  0.00  0.00     0.024 A 
ATOM     25  C   UNL d   1       4.461  -1.700   0.602  0.00  0.00     0.004 A 
ATOM     26  C   UNL d   1       3.270  -0.981   0.729  0.00  0.00     0.032 A 
ENDBRANCH   2  20
TORSDOF 5
