REMARK  4 active torsions:
REMARK  status: ('A' for Active; 'I' for Inactive)
REMARK    1  A    between atoms: N_2  and  S_1 
REMARK    2  A    between atoms: C_4  and  S_1 
REMARK    3  A    between atoms: C_10  and  N_2 
REMARK    4  A    between atoms: N_3  and  C_7 
ROOT
ATOM      1  C   UNL d   1       1.527  -1.596   5.093  0.00  0.00     0.030 A 
ATOM      2  C   UNL d   1       0.887  -0.141   2.744  0.00  0.00     0.042 A 
ATOM      3  C   UNL d   1       0.215  -1.183   4.813  0.00  0.00     0.031 A 
ATOM      4  C   UNL d   1       2.506  -1.254   4.148  0.00  0.00     0.031 A 
ATOM      5  C   UNL d   1      -0.105  -0.450   3.663  0.00  0.00     0.032 A 
ATOM      6  C   UNL d   1       2.194  -0.552   2.979  0.00  0.00     0.032 A 
ENDROOT
BRANCH   2   7
ATOM      7  N   UNL d   1       0.562   0.633   1.597  0.00  0.00    -0.281 N 
ATOM      8  H   UNL d   1       0.872   0.287   0.691  0.00  0.00     0.179 HD
BRANCH   7   9
ATOM      9  S   UNL d   1       0.634   2.322   1.708  0.00  0.00     0.263 S 
ATOM     10  O   UNL d   1      -0.216   2.761   2.791  0.00  0.00    -0.200 OA
ATOM     11  O   UNL d   1       0.475   2.828   0.364  0.00  0.00    -0.200 OA
BRANCH   9  12
ATOM     12  C   UNL d   1       2.331   2.618   2.169  0.00  0.00     0.080 A 
ATOM     13  C   UNL d   1       3.349   2.269   1.270  0.00  0.00     0.028 A 
ATOM     14  C   UNL d   1       4.681   2.378   1.670  0.00  0.00     0.044 A 
ATOM     15  C   UNL d   1       4.978   2.864   2.941  0.00  0.00     0.116 A 
ATOM     16  C   UNL d   1       3.970   3.259   3.817  0.00  0.00     0.044 A 
ATOM     17  F   UNL d   1       6.257   2.943   3.331  0.00  0.00    -0.206 F 
ATOM     18  C   UNL d   1       2.634   3.137   3.432  0.00  0.00     0.028 A 
ENDBRANCH   9  12
ENDBRANCH   7   9
ENDBRANCH   2   7
BRANCH   1  19
ATOM     19  N   UNL d   1       1.857  -2.272   6.250  0.00  0.00    -0.381 N 
ATOM     20  C   UNL d   1       1.079  -2.138   7.481  0.00  0.00     0.123 C 
ATOM     21  C   UNL d   1       2.038  -1.834   8.634  0.00  0.00     0.020 C 
ATOM     22  C   UNL d   1       3.158  -2.869   8.730  0.00  0.00     0.003 C 
ATOM     23  C   UNL d   1       3.865  -3.059   7.387  0.00  0.00     0.020 C 
ATOM     24  C   UNL d   1       2.866  -3.334   6.264  0.00  0.00     0.123 C 
ENDBRANCH   1  19
TORSDOF 4
