REMARK  3 active torsions:
REMARK  status: ('A' for Active; 'I' for Inactive)
REMARK    1  A    between atoms: C_3  and  C_1 
REMARK       I    between atoms: N_12  and  C_3 
REMARK    2  A    between atoms: C_5  and  C_17 
REMARK    3  A    between atoms: C_17  and  N_12 
ROOT
ATOM      1  C   UNL d   1      -1.143  -2.772  -0.326  0.00  0.00     0.256 C 
ATOM      2  N   UNL d   1      -0.247  -3.699   0.219  0.00  0.00    -0.347 N 
ATOM      3  O   UNL d   1      -2.131  -3.098  -0.982  0.00  0.00    -0.267 OA
ATOM      4  C   UNL d   1       1.142  -3.372   0.523  0.00  0.00     0.153 C 
ENDROOT
BRANCH   1   5
ATOM      5  C   UNL d   1      -0.918  -1.322  -0.199  0.00  0.00     0.061 A 
ATOM      6  C   UNL d   1      -0.739  -0.659   1.039  0.00  0.00     0.082 A 
ATOM      7  N   UNL d   1      -0.677  -1.202   2.270  0.00  0.00    -0.310 N 
ATOM      8  C   UNL d   1      -0.606   0.850   1.071  0.00  0.00     0.068 A 
ATOM      9  S   UNL d   1      -0.440   0.045   3.337  0.00  0.00     0.068 SA
ATOM     10  HN  UNL d   1      -0.760  -2.192   2.502  1.00  0.00     0.176 HD
ATOM     11  N   UNL d   1      -0.416   1.341   2.303  0.00  0.00    -0.310 N 
ATOM     12  HN  UNL d   1      -0.282   2.320   2.556  1.00  0.00     0.176 HD
ATOM     13  C   UNL d   1      -0.689   1.621  -0.115  0.00  0.00     0.032 A 
ATOM     14  C   UNL d   1      -0.911   0.911  -1.305  0.00  0.00     0.003 A 
ATOM     15  C   UNL d   1      -1.026  -0.496  -1.347  0.00  0.00     0.019 A 
ENDBRANCH   1   5
BRANCH   2  16
ATOM     16  C   UNL d   1      -0.528  -5.115  -0.027  0.00  0.00     0.171 C 
BRANCH  16  17
ATOM     17  C   UNL d   1      -0.758  -5.906   1.235  0.00  0.00     0.002 A 
ATOM     18  S   UNL d   1      -0.715  -7.617   1.117  0.00  0.00    -0.092 SA
ATOM     19  C   UNL d   1      -0.968  -7.836   2.801  0.00  0.00     0.015 A 
ATOM     20  C   UNL d   1      -0.996  -9.063   3.497  0.00  0.00     0.019 A 
ATOM     21  C   UNL d   1      -1.151  -6.616   3.451  0.00  0.00    -0.018 A 
ATOM     22  C   UNL d   1      -1.191  -9.052   4.880  0.00  0.00     0.001 A 
ATOM     23  C   UNL d   1      -1.387  -7.855   5.551  0.00  0.00     0.001 A 
ATOM     24  C   UNL d   1      -1.381  -6.639   4.851  0.00  0.00     0.013 A 
ATOM     25  C   UNL d   1      -1.050  -5.512   2.528  0.00  0.00     0.029 A 
ENDBRANCH  16  17
ENDBRANCH   2  16
TORSDOF 3
