REMARK  8 active torsions:
REMARK  status: ('A' for Active; 'I' for Inactive)
REMARK    1  A    between atoms: N_2  and  S_1 
REMARK    2  A    between atoms: C_5  and  S_1 
REMARK    3  A    between atoms: N_3  and  N_2 
REMARK    4  A    between atoms: C_4  and  N_3 
REMARK    5  A    between atoms: C_17  and  N_9 
REMARK    6  A    between atoms: C_15  and  C_17 
REMARK    7  A    between atoms: C_18  and  C_15 
REMARK    8  A    between atoms: O_16  and  C_18 
ROOT
ATOM      1  N   UNL d   1       0.132  -0.837   1.153  0.00  0.00    -0.221 N 
ATOM      2  H   UNL d   1      -0.619  -0.415   1.706  0.00  0.00     0.200 HD
ENDROOT
BRANCH   1   3
ATOM      3  S   UNL d   1       0.265  -0.368  -0.453  0.00  0.00     0.276 S 
ATOM      4  O   UNL d   1       1.609  -0.666  -0.903  0.00  0.00    -0.199 OA
ATOM      5  O   UNL d   1      -0.307   0.951  -0.579  0.00  0.00    -0.199 OA
BRANCH   3   6
ATOM      6  C   UNL d   1      -0.846  -1.518  -1.228  0.00  0.00     0.081 A 
ATOM      7  C   UNL d   1      -2.223  -1.300  -1.156  0.00  0.00     0.026 A 
ATOM      8  C   UNL d   1      -3.095  -2.205  -1.764  0.00  0.00     0.008 A 
ATOM      9  C   UNL d   1      -2.598  -3.330  -2.439  0.00  0.00    -0.062 A 
ATOM     10  C   UNL d   1      -1.214  -3.527  -2.515  0.00  0.00     0.008 A 
ATOM     11  C   UNL d   1      -3.543  -4.281  -3.112  0.00  0.00     0.048 C 
ATOM     12  C   UNL d   1      -0.340  -2.614  -1.926  0.00  0.00     0.026 A 
ENDBRANCH   3   6
ENDBRANCH   1   3
BRANCH   1  13
ATOM     13  N   UNL d   1       0.926  -1.905   1.714  0.00  0.00    -0.267 N 
ATOM     14  H   UNL d   1       1.716  -2.252   1.164  0.00  0.00     0.190 HD
BRANCH  13  15
ATOM     15  C   UNL d   1       0.535  -2.521   2.875  0.00  0.00     0.186 C 
ATOM     16  S   UNL d   1      -0.961  -2.330   3.601  0.00  0.00    -0.040 SA
ATOM     17  N   UNL d   1       1.442  -3.346   3.474  0.00  0.00    -0.366 N 
ATOM     18  H   UNL d   1       1.088  -3.777   4.322  0.00  0.00     0.161 HD
BRANCH  17  19
ATOM     19  C   UNL d   1       2.888  -3.244   3.358  0.00  0.00     0.124 C 
BRANCH  19  20
ATOM     20  C   UNL d   1       3.527  -4.485   2.750  0.00  0.00     0.046 C 
BRANCH  20  21
ATOM     21  C   UNL d   1       3.060  -4.781   1.332  0.00  0.00     0.168 C 
BRANCH  21  22
ATOM     22  O   UNL d   1       3.217  -3.614   0.526  0.00  0.00    -0.396 OA
ATOM     23  C   UNL d   1       2.971  -3.904  -0.845  0.00  0.00     0.201 C 
ENDBRANCH  21  22
ENDBRANCH  20  21
ENDBRANCH  19  20
ENDBRANCH  17  19
ENDBRANCH  13  15
ENDBRANCH   1  13
TORSDOF 8
