REMARK  2 active torsions:
REMARK  status: ('A' for Active; 'I' for Inactive)
REMARK    1  A    between atoms: C_3  and  C_1 
REMARK    2  A    between atoms: S_15  and  C_6 
ROOT
ATOM      1  C   UNL d   1      -1.825   0.680  -0.011  0.00  0.00     0.106 A 
ATOM      2  N   UNL d   1      -1.875  -0.695  -0.017  0.00  0.00    -0.324 N 
ATOM      3  N   UNL d   1      -0.558   1.047   0.026  0.00  0.00    -0.286 N 
ATOM      4  HN  UNL d   1      -0.215   2.008   0.034  1.00  0.00     0.188 HD
ATOM      5  C   UNL d   1      -0.582  -1.118   0.029  0.00  0.00     0.157 A 
ATOM      6  N   UNL d   1       0.223  -0.086   0.053  0.00  0.00    -0.279 N 
ATOM      7  HN  UNL d   1       1.242  -0.116   0.086  1.00  0.00     0.189 HD
ATOM      8  H   UNL d   1      -2.703  -1.268  -0.042  0.00  0.00     0.169 HD
ENDROOT
BRANCH   1   9
ATOM      9  C   UNL d   1      -3.033   1.580  -0.038  0.00  0.00     0.021 C 
ATOM     10  C   UNL d   1      -3.927   1.334   1.204  0.00  0.00     0.022 C 
ATOM     11  C   UNL d   1      -5.160   2.256   1.181  0.00  0.00    -0.013 C 
ATOM     12  C   UNL d   1      -4.700   3.723   1.178  0.00  0.00     0.009 C 
ATOM     13  C   UNL d   1      -5.975   1.981  -0.094  0.00  0.00     0.009 C 
ATOM     14  C   UNL d   1      -3.836   3.999  -0.062  0.00  0.00    -0.013 C 
ATOM     15  C   UNL d   1      -2.606   3.076  -0.036  0.00  0.00     0.022 C 
ATOM     16  C   UNL d   1      -4.654   3.713  -1.331  0.00  0.00     0.009 C 
ATOM     17  C   UNL d   1      -5.113   2.246  -1.339  0.00  0.00    -0.013 C 
ATOM     18  C   UNL d   1      -3.881   1.324  -1.311  0.00  0.00     0.022 C 
ENDBRANCH   1   9
BRANCH   5  19
ATOM     19  S   UNL d   1      -0.133  -2.779   0.052  0.00  0.00    -0.106 SA
ATOM     20  H   UNL d   1      -1.336  -3.363   0.006  0.00  0.00     0.110 HD
ENDBRANCH   5  19
TORSDOF 2
