REMARK  1 active torsions:
REMARK  status: ('A' for Active; 'I' for Inactive)
REMARK    1  A    between atoms: N_7  and  C_4 
ROOT
ATOM      1  C   UNL d   1       1.945   1.810   0.824  0.00  0.00     0.138 A 
ATOM      2  N   UNL d   1       3.171   1.306   0.578  0.00  0.00    -0.175 N 
ATOM      3  HN  UNL d   1       4.008   1.882   0.666  1.00  0.00     0.186 HD
ATOM      4  C   UNL d   1       3.246   0.014   0.212  0.00  0.00     0.686 A 
ATOM      5  N   UNL d   1       1.884   3.172   1.123  0.00  0.00    -0.318 N 
ATOM      6  N   UNL d   1      -0.426   3.077   1.367  0.00  0.00    -0.323 N 
ATOM      7  C   UNL d   1       0.720   3.828   1.373  0.00  0.00     0.178 A 
ATOM      8  C   UNL d   1      -0.499   1.725   1.100  0.00  0.00     0.118 A 
ATOM      9  C   UNL d   1       0.782   1.077   0.776  0.00  0.00     0.063 A 
ATOM     10  N   UNL d   1       2.147  -0.760   0.093  0.00  0.00    -0.200 N 
ATOM     11  HN  UNL d   1       2.223  -1.727  -0.223  1.00  0.00     0.183 HD
ATOM     12  C   UNL d   1       0.945  -0.230   0.399  0.00  0.00     0.124 A 
ATOM     13  S   UNL d   1      -1.993   0.974   1.168  0.00  0.00    -0.059 SA
ATOM     14  S   UNL d   1       0.678   5.460   1.675  0.00  0.00    -0.040 SA
ATOM     15  H   UNL d   1       2.758   3.683   1.117  0.00  0.00     0.170 HD
ATOM     16  H   UNL d   1      -1.293   3.561   1.573  0.00  0.00     0.169 HD
ENDROOT
BRANCH   4  17
ATOM     17  N   UNL d   1       4.473  -0.581  -0.039  0.00  0.00    -0.182 N 
ATOM     18  C   UNL d   1       5.809  -0.217   0.197  0.00  0.00     0.058 A 
ATOM     19  C   UNL d   1       6.698  -1.196  -0.267  0.00  0.00    -0.029 A 
ATOM     20  C   UNL d   1       6.306   0.897   0.851  0.00  0.00     0.031 A 
ATOM     21  C   UNL d   1       8.070  -1.099  -0.090  0.00  0.00     0.009 A 
ATOM     22  C   UNL d   1       5.934  -2.334  -0.855  0.00  0.00     0.061 C 
ATOM     23  C   UNL d   1       8.566   0.026   0.564  0.00  0.00     0.001 A 
ATOM     24  C   UNL d   1       7.690   1.019   1.029  0.00  0.00     0.002 A 
ATOM     25  C   UNL d   1       4.514  -1.748  -0.928  0.00  0.00     0.152 C 
ENDBRANCH   4  17
TORSDOF 1
