REMARK  9 active torsions:
REMARK  status: ('A' for Active; 'I' for Inactive)
REMARK       I    between atoms: N_3  and  C_1 
REMARK    1  A    between atoms: C_5  and  C_1 
REMARK    2  A    between atoms: C_8  and  C_2 
REMARK       I    between atoms: C_7  and  N_3 
REMARK    3  A    between atoms: C_6  and  C_4 
REMARK       I    between atoms: N_14  and  C_7 
REMARK    4  A    between atoms: O_26  and  C_8 
REMARK    5  A    between atoms: C_12  and  O_19 
REMARK    6  A    between atoms: C_24  and  N_14 
REMARK    7  A    between atoms: O_29  and  C_16 
REMARK    8  A    between atoms: O_30  and  C_17 
REMARK    9  A    between atoms: O_19  and  C_25 
ROOT
ATOM      1  C   UNL d   1       3.240   1.377  -0.715  0.00  0.00     0.036 C 
ATOM      2  C   UNL d   1       4.742  -0.954  -0.312  0.00  0.00     0.077 C 
ATOM      3  C   UNL d   1       3.017   0.247  -1.505  0.00  0.00     0.032 C 
ATOM      4  C   UNL d   1       4.288   1.381   0.205  0.00  0.00     0.032 C 
ATOM      5  C   UNL d   1       3.788  -0.899  -1.331  0.00  0.00     0.039 C 
ATOM      6  C   UNL d   1       5.031   0.206   0.417  0.00  0.00     0.039 C 
ENDROOT
BRANCH   1   7
ATOM      7  N   UNL d   1       2.348   2.461  -0.848  0.00  0.00    -0.309 N 
ATOM      8  C   UNL d   1       1.207   2.473  -0.081  0.00  0.00     0.327 C 
ATOM      9  N   UNL d   1       0.362   3.546  -0.239  0.00  0.00    -0.275 N 
ATOM     10  O   UNL d   1       0.890   1.605   0.739  0.00  0.00    -0.247 OA
ATOM     11  C   UNL d   1       0.563   4.753  -0.897  0.00  0.00     0.265 C 
ATOM     12  H   UNL d   1      -0.446   3.478   0.369  0.00  0.00     0.173 HD
ATOM     13  O   UNL d   1       1.582   5.023  -1.522  0.00  0.00    -0.267 OA
ATOM     14  H   UNL d   1       2.748   3.390  -0.952  0.00  0.00     0.170 HD
BRANCH  11  15
ATOM     15  C   UNL d   1      -0.527   5.751  -0.720  0.00  0.00     0.099 A 
ATOM     16  C   UNL d   1      -1.016   6.059   0.565  0.00  0.00     0.086 A 
ATOM     17  C   UNL d   1      -2.097   6.936   0.712  0.00  0.00     0.038 A 
ATOM     18  C   UNL d   1      -2.696   7.513  -0.405  0.00  0.00     0.005 A 
ATOM     19  C   UNL d   1      -2.211   7.224  -1.679  0.00  0.00     0.038 A 
ATOM     20  C   UNL d   1      -1.110   6.366  -1.850  0.00  0.00     0.086 A 
BRANCH  16  21
ATOM     21  O   UNL d   1      -0.610   5.434   1.719  0.00  0.00    -0.355 OA
ATOM     22  C   UNL d   1       0.738   5.715   2.100  0.00  0.00     0.210 C 
ENDBRANCH  16  21
BRANCH  20  23
ATOM     23  O   UNL d   1      -0.613   6.041  -3.085  0.00  0.00    -0.355 OA
ATOM     24  C   UNL d   1      -0.936   6.921  -4.162  0.00  0.00     0.210 C 
ENDBRANCH  20  23
ENDBRANCH  11  15
ENDBRANCH   1   7
BRANCH   2  25
ATOM     25  O   UNL d   1       5.457  -2.093  -0.009  0.00  0.00    -0.294 OA
BRANCH  25  26
ATOM     26  C   UNL d   1       4.776  -3.311   0.013  0.00  0.00     0.148 A 
ATOM     27  N   UNL d   1       3.431  -3.340   0.075  0.00  0.00    -0.346 N 
ATOM     28  C   UNL d   1       2.825  -4.547   0.020  0.00  0.00     0.108 A 
ATOM     29  HN  UNL d   1       2.889  -2.481   0.161  1.00  0.00     0.167 HD
ATOM     30  C   UNL d   1       3.496  -5.763  -0.083  0.00  0.00     0.070 A 
ATOM     31  C   UNL d   1       4.895  -5.735  -0.104  0.00  0.00     0.069 A 
ATOM     32  C   UNL d   1       5.536  -4.471  -0.037  0.00  0.00     0.073 A 
BRANCH  30  33
ATOM     33  C   UNL d   1       2.662  -6.984  -0.098  0.00  0.00     0.295 C 
ATOM     34  O   UNL d   1       2.906  -7.995   0.528  0.00  0.00    -0.259 OA
BRANCH  33  35
ATOM     35  O   UNL d   1       1.569  -6.749  -0.871  0.00  0.00    -0.322 OA
ATOM     36  C   UNL d   1       0.575  -7.778  -0.865  0.00  0.00     0.213 C 
ENDBRANCH  33  35
ENDBRANCH  30  33
BRANCH  31  37
ATOM     37  C   UNL d   1       5.783  -6.943  -0.243  0.00  0.00     0.418 C 
ATOM     38  F   UNL d   1       5.168  -8.122  -0.496  0.00  0.00    -0.166 F 
ATOM     39  F   UNL d   1       6.662  -6.780  -1.277  0.00  0.00    -0.166 F 
ATOM     40  F   UNL d   1       6.559  -7.137   0.858  0.00  0.00    -0.166 F 
ENDBRANCH  31  37
ENDBRANCH  25  26
ENDBRANCH   2  25
TORSDOF 9
