REMARK  4 active torsions:
REMARK  status: ('A' for Active; 'I' for Inactive)
REMARK    1  A    between atoms: C_8  and  N_1 
REMARK    2  A    between atoms: C_9  and  N_5 
REMARK    3  A    between atoms: C_10  and  C_8 
REMARK    4  A    between atoms: C_11  and  C_9 
ROOT
ATOM      1  N   UNL d   1       0.776   0.970  -0.359  0.00  0.00    -0.341 N 
ATOM      2  C   UNL d   1       1.565   0.005   0.259  0.00  0.00     0.139 C 
ATOM      3  S   UNL d   1       0.954  -1.612  -0.008  0.00  0.00    -0.070 SA
ATOM      4  C   UNL d   1      -0.585   1.069   0.140  0.00  0.00     0.400 C 
ATOM      5  N   UNL d   1      -1.331  -0.123  -0.238  0.00  0.00     0.115 N 
ATOM      6  C   UNL d   1      -0.759  -1.304   0.411  0.00  0.00     0.355 C 
ATOM      7  S   UNL d   1       2.992   0.260   1.101  0.00  0.00    -0.053 SA
ENDROOT
BRANCH   1   8
ATOM      8  C   UNL d   1       1.364   2.215  -0.880  0.00  0.00     0.126 C 
BRANCH   8   9
ATOM      9  C   UNL d   1       2.383   1.988  -2.005  0.00  0.00     0.015 C 
ATOM     10  C   UNL d   1       1.795   1.240  -3.195  0.00  0.00     0.006 C 
ENDBRANCH   8   9
ENDBRANCH   1   8
BRANCH   5  11
ATOM     11  C   UNL d   1      -2.751  -0.023   0.163  0.00  0.00     0.275 C 
BRANCH  11  12
ATOM     12  C   UNL d   1      -3.559   1.121  -0.465  0.00  0.00     0.026 C 
ATOM     13  C   UNL d   1      -3.583   1.087  -1.984  0.00  0.00     0.007 C 
ENDBRANCH  11  12
ENDBRANCH   5  11
TORSDOF 4
