REMARK  4 active torsions:
REMARK  status: ('A' for Active; 'I' for Inactive)
REMARK       I    between atoms: N_2  and  C_1 
REMARK    1  A    between atoms: C_3  and  C_1 
REMARK    2  A    between atoms: C_4  and  N_2 
REMARK    3  A    between atoms: N_6  and  C_4 
REMARK    4  A    between atoms: C_10  and  N_6 
ROOT
ATOM      1  C   UNL d   1       0.929  -1.086   2.140  0.00  0.00     0.174 C 
ATOM      2  S   UNL d   1       0.161  -1.183   3.612  0.00  0.00    -0.041 SA
ENDROOT
BRANCH   1   3
ATOM      3  N   UNL d   1       0.340  -0.971   0.899  0.00  0.00    -0.300 N 
ATOM      4  C   UNL d   1      -0.974  -0.683   0.538  0.00  0.00     0.259 C 
ATOM      5  O   UNL d   1      -1.781  -0.017   1.166  0.00  0.00    -0.267 OA
ATOM      6  H   UNL d   1       0.888  -1.422   0.181  0.00  0.00     0.171 HD
BRANCH   4   7
ATOM      7  C   UNL d   1      -1.276  -1.039  -0.875  0.00  0.00     0.054 A 
ATOM      8  C   UNL d   1      -1.111  -2.337  -1.376  0.00  0.00     0.051 A 
ATOM      9  C   UNL d   1      -1.230  -2.574  -2.747  0.00  0.00     0.048 A 
ATOM     10 CL   UNL d   1      -0.748  -3.682  -0.357  0.00  0.00    -0.083 Cl
ATOM     11  C   UNL d   1      -1.525  -1.518  -3.610  0.00  0.00     0.035 A 
ATOM     12  C   UNL d   1      -1.745  -0.235  -3.112  0.00  0.00     0.025 A 
ATOM     13 CL   UNL d   1      -1.588  -1.800  -5.305  0.00  0.00    -0.084 Cl
ATOM     14  C   UNL d   1      -1.628   0.006  -1.741  0.00  0.00     0.020 A 
ENDBRANCH   4   7
ENDBRANCH   1   3
BRANCH   1  15
ATOM     15  N   UNL d   1       2.311  -1.136   2.113  0.00  0.00    -0.362 N 
ATOM     16  H   UNL d   1       2.710  -1.195   3.044  0.00  0.00     0.162 HD
BRANCH  15  17
ATOM     17  C   UNL d   1       3.147  -0.493   1.098  0.00  0.00     0.085 C 
ATOM     18  C   UNL d   1       4.530  -1.146   0.971  0.00  0.00     0.034 C 
ATOM     19  C   UNL d   1       5.365  -0.502  -0.168  0.00  0.00    -0.045 C 
ATOM     20  C   UNL d   1       6.794  -1.076  -0.148  0.00  0.00     0.015 C 
ATOM     21  C   UNL d   1       4.756  -0.838  -1.547  0.00  0.00     0.015 C 
ATOM     22  C   UNL d   1       5.436   1.034   0.037  0.00  0.00     0.013 C 
ATOM     23  C   UNL d   1       4.059   1.692   0.243  0.00  0.00    -0.016 C 
ATOM     24  C   UNL d   1       3.295   1.006   1.382  0.00  0.00     0.029 C 
ATOM     25  C   UNL d   1       4.199   3.189   0.508  0.00  0.00     0.010 C 
ENDBRANCH  15  17
ENDBRANCH   1  15
TORSDOF 4
