REMARK  2 active torsions:
REMARK  status: ('A' for Active; 'I' for Inactive)
REMARK    1  A    between atoms: C_7  and  N_1 
REMARK    2  A    between atoms: C_2  and  C_8 
ROOT
ATOM      1  C   UNL d   1       2.130  -1.481  -0.045  0.00  0.00     0.039 A 
ATOM      2  C   UNL d   1       4.471  -3.056  -0.174  0.00  0.00     0.048 A 
ATOM      3  C   UNL d   1       2.158  -2.648  -0.817  0.00  0.00     0.031 A 
ATOM      4  C   UNL d   1       3.272  -1.117   0.675  0.00  0.00     0.031 A 
ATOM      5  C   UNL d   1       4.438  -1.888   0.599  0.00  0.00     0.018 A 
ATOM      6  C   UNL d   1       3.313  -3.439  -0.866  0.00  0.00     0.018 A 
ENDROOT
BRANCH   1   7
ATOM      7  N   UNL d   1       0.951  -0.662  -0.004  0.00  0.00    -0.320 N 
ATOM      8  C   UNL d   1      -0.373  -1.110   0.003  0.00  0.00     0.013 A 
ATOM      9  C   UNL d   1      -1.211  -0.002   0.012  0.00  0.00     0.027 A 
ATOM     10  C   UNL d   1      -0.836  -2.525   0.095  0.00  0.00     0.068 C 
ATOM     11  C   UNL d   1      -0.405   1.141   0.041  0.00  0.00     0.027 A 
ATOM     12  C   UNL d   1       0.914   0.741   0.013  0.00  0.00     0.013 A 
ATOM     13  C   UNL d   1       2.086   1.663  -0.083  0.00  0.00     0.068 C 
ENDBRANCH   1   7
BRANCH   2  14
ATOM     14  C   UNL d   1       5.718  -3.903  -0.267  0.00  0.00     0.417 C 
ATOM     15  F   UNL d   1       6.793  -3.360   0.369  0.00  0.00    -0.166 F 
ATOM     16  F   UNL d   1       5.549  -5.140   0.279  0.00  0.00    -0.166 F 
ATOM     17  F   UNL d   1       6.114  -4.112  -1.552  0.00  0.00    -0.166 F 
ENDBRANCH   2  14
TORSDOF 2
