REMARK  2 active torsions:
REMARK  status: ('A' for Active; 'I' for Inactive)
REMARK    1  A    between atoms: C_6  and  N_1 
REMARK    2  A    between atoms: O_18  and  C_15 
ROOT
ATOM      1  N   UNL d   1      -2.378  -0.792   0.066  0.00  0.00    -0.241 N 
ATOM      2  C   UNL d   1      -1.360  -1.324   0.840  0.00  0.00     0.284 A 
ATOM      3  C   UNL d   1      -1.897   0.248  -0.711  0.00  0.00     0.284 A 
ATOM      4  C   UNL d   1      -0.156  -0.564   0.532  0.00  0.00     0.134 A 
ATOM      5  C   UNL d   1      -0.476   0.380  -0.399  0.00  0.00     0.134 A 
ATOM      6  N   UNL d   1       1.082  -0.746   1.036  0.00  0.00    -0.358 N 
ATOM      7  HN  UNL d   1       1.310  -1.460   1.728  1.00  0.00     0.165 HD
ATOM      8  N   UNL d   1       0.407   1.256  -0.920  0.00  0.00    -0.358 N 
ATOM      9  HN  UNL d   1       0.159   1.963  -1.613  1.00  0.00     0.165 HD
ATOM     10  O   UNL d   1      -1.356  -2.264   1.618  0.00  0.00    -0.265 OA
ATOM     11  O   UNL d   1      -2.467   0.981  -1.500  0.00  0.00    -0.265 OA
ATOM     12  C   UNL d   1       1.663   1.098  -0.424  0.00  0.00     0.105 A 
ATOM     13  C   UNL d   1       1.992   0.122   0.524  0.00  0.00     0.105 A 
ENDROOT
BRANCH   1  14
ATOM     14  C   UNL d   1      -3.719  -1.283   0.045  0.00  0.00     0.046 A 
ATOM     15  C   UNL d   1      -4.198  -2.134   1.054  0.00  0.00     0.033 A 
ATOM     16  C   UNL d   1      -5.493  -2.669   1.015  0.00  0.00     0.039 A 
ATOM     17  C   UNL d   1      -6.341  -2.371  -0.045  0.00  0.00     0.068 A 
ATOM     18  C   UNL d   1      -5.904  -1.490  -1.029  0.00  0.00     0.039 A 
ATOM     19  C   UNL d   1      -4.610  -0.953  -0.987  0.00  0.00     0.033 A 
BRANCH  17  20
ATOM     20  O   UNL d   1      -7.609  -2.857  -0.203  0.00  0.00    -0.356 OA
ATOM     21  C   UNL d   1      -7.865  -4.111   0.423  0.00  0.00     0.210 C 
ENDBRANCH  17  20
ENDBRANCH   1  14
TORSDOF 2
