REMARK  2 active torsions:
REMARK  status: ('A' for Active; 'I' for Inactive)
REMARK    1  A    between atoms: N_5  and  C_1 
REMARK       I    between atoms: C_2  and  N_5 
REMARK       I    between atoms: N_8  and  C_2 
REMARK    2  A    between atoms: C_12  and  N_8 
ROOT
ATOM      1  C   UNL d   1      -0.153  -3.822   0.762  0.00  0.00     0.325 C 
ATOM      2  N   UNL d   1       0.369  -5.073   0.849  0.00  0.00    -0.307 N 
ATOM      3  N   UNL d   1      -1.426  -3.708   0.269  0.00  0.00    -0.309 N 
ATOM      4  O   UNL d   1       0.604  -2.875   0.972  0.00  0.00    -0.247 OA
ATOM      5  H   UNL d   1       1.383  -5.023   0.846  0.00  0.00     0.170 HD
ATOM      6  H   UNL d   1      -1.700  -4.459  -0.353  0.00  0.00     0.170 HD
ENDROOT
BRANCH   2   7
ATOM      7  C   UNL d   1      -0.130  -6.249   1.411  0.00  0.00     0.054 A 
ATOM      8  C   UNL d   1      -1.387  -6.565   2.072  0.00  0.00     0.008 A 
ATOM      9  C   UNL d   1      -1.349  -7.859   2.621  0.00  0.00     0.017 A 
ATOM     10  C   UNL d   1      -2.576  -5.825   2.317  0.00  0.00     0.015 A 
ATOM     11  C   UNL d   1      -2.410  -8.397   3.381  0.00  0.00     0.020 A 
ATOM     12  S   UNL d   1       0.122  -8.672   2.270  0.00  0.00    -0.099 SA
ATOM     13  C   UNL d   1      -3.558  -7.638   3.582  0.00  0.00     0.001 A 
ATOM     14  C   UNL d   1      -3.646  -6.366   3.046  0.00  0.00     0.001 A 
ATOM     15  C   UNL d   1       0.737  -7.326   1.448  0.00  0.00     0.081 A 
ENDBRANCH   2   7
BRANCH   3  16
ATOM     16  C   UNL d   1      -2.093  -2.469   0.152  0.00  0.00     0.039 A 
ATOM     17  C   UNL d   1      -2.957  -2.253  -0.925  0.00  0.00     0.069 A 
ATOM     18  C   UNL d   1      -3.568  -1.004  -1.098  0.00  0.00     0.104 A 
ATOM     19  O   UNL d   1      -4.258  -0.846  -2.277  0.00  0.00    -0.348 OA
ATOM     20  C   UNL d   1      -3.428  -0.009  -0.118  0.00  0.00     0.102 A 
ATOM     21  C   UNL d   1      -4.098   0.464  -2.836  0.00  0.00     0.178 C 
ATOM     22  C   UNL d   1      -5.139   1.419  -2.276  0.00  0.00     0.053 C 
ATOM     23  C   UNL d   1      -5.305   1.243  -0.777  0.00  0.00     0.178 C 
ATOM     24  O   UNL d   1      -4.037   1.220  -0.123  0.00  0.00    -0.348 OA
ATOM     25  C   UNL d   1      -2.580  -0.233   0.965  0.00  0.00     0.042 A 
ATOM     26  C   UNL d   1      -1.910  -1.450   1.094  0.00  0.00     0.032 A 
ENDBRANCH   3  16
TORSDOF 2
