REMARK  12 active torsions:
REMARK  status: ('A' for Active; 'I' for Inactive)
REMARK    1  A    between atoms: N_9  and  C_1 
REMARK    2  A    between atoms: N_10  and  C_1 
REMARK    3  A    between atoms: O_17  and  C_2 
REMARK    4  A    between atoms: O_18  and  C_3 
REMARK    5  A    between atoms: O_19  and  C_5 
REMARK    6  A    between atoms: O_20  and  C_6 
REMARK    7  A    between atoms: C_21  and  N_9 
REMARK    8  A    between atoms: C_22  and  N_10 
REMARK    9  A    between atoms: C_13  and  C_23 
REMARK   10  A    between atoms: C_14  and  C_24 
REMARK   11  A    between atoms: C_23  and  C_21 
REMARK   12  A    between atoms: C_24  and  C_22 
ROOT
ATOM      1  C   UNL d   1       0.927   0.232   0.058  0.00  0.00     0.167 C 
ATOM      2  S   UNL d   1       0.087   1.657  -0.201  0.00  0.00    -0.041 SA
ENDROOT
BRANCH   1   3
ATOM      3  N   UNL d   1       0.343  -1.019   0.149  0.00  0.00    -0.367 N 
ATOM      4  H   UNL d   1       0.954  -1.798   0.344  0.00  0.00     0.161 HD
BRANCH   3   5
ATOM      5  C   UNL d   1      -0.994  -1.367  -0.335  0.00  0.00     0.126 C 
BRANCH   5   6
ATOM      6  C   UNL d   1      -1.763  -2.298   0.607  0.00  0.00     0.058 C 
BRANCH   6   7
ATOM      7  C   UNL d   1      -3.112  -2.630   0.005  0.00  0.00    -0.054 A 
ATOM      8  C   UNL d   1      -3.258  -3.730  -0.857  0.00  0.00     0.046 A 
ATOM      9  C   UNL d   1      -4.465  -3.975  -1.533  0.00  0.00     0.102 A 
ATOM     10  C   UNL d   1      -5.551  -3.112  -1.314  0.00  0.00     0.101 A 
ATOM     11  C   UNL d   1      -5.404  -2.017  -0.455  0.00  0.00     0.040 A 
ATOM     12  C   UNL d   1      -4.199  -1.775   0.204  0.00  0.00     0.010 A 
BRANCH   9  13
ATOM     13  O   UNL d   1      -4.628  -4.993  -2.437  0.00  0.00    -0.353 OA
ATOM     14  C   UNL d   1      -3.513  -5.829  -2.716  0.00  0.00     0.210 C 
ENDBRANCH   9  13
BRANCH  10  15
ATOM     15  O   UNL d   1      -6.787  -3.160  -1.912  0.00  0.00    -0.353 OA
ATOM     16  C   UNL d   1      -7.286  -4.445  -2.257  0.00  0.00     0.210 C 
ENDBRANCH  10  15
ENDBRANCH   6   7
ENDBRANCH   5   6
ENDBRANCH   3   5
ENDBRANCH   1   3
BRANCH   1  17
ATOM     17  N   UNL d   1       2.300   0.157   0.215  0.00  0.00    -0.367 N 
ATOM     18  H   UNL d   1       2.712  -0.756   0.336  0.00  0.00     0.161 HD
BRANCH  17  19
ATOM     19  C   UNL d   1       3.178   1.315   0.398  0.00  0.00     0.126 C 
BRANCH  19  20
ATOM     20  C   UNL d   1       4.665   0.977   0.292  0.00  0.00     0.058 C 
BRANCH  20  21
ATOM     21  C   UNL d   1       5.513   2.165   0.686  0.00  0.00    -0.054 A 
ATOM     22  C   UNL d   1       5.884   2.355   2.028  0.00  0.00     0.046 A 
ATOM     23  C   UNL d   1       6.601   3.488   2.441  0.00  0.00     0.102 A 
ATOM     24  C   UNL d   1       6.972   4.441   1.477  0.00  0.00     0.101 A 
ATOM     25  C   UNL d   1       6.588   4.262   0.142  0.00  0.00     0.040 A 
ATOM     26  C   UNL d   1       5.867   3.133  -0.256  0.00  0.00     0.010 A 
BRANCH  23  27
ATOM     27  O   UNL d   1       6.929   3.739   3.748  0.00  0.00    -0.353 OA
ATOM     28  C   UNL d   1       6.497   2.817   4.738  0.00  0.00     0.210 C 
ENDBRANCH  23  27
BRANCH  24  29
ATOM     29  O   UNL d   1       7.646   5.618   1.689  0.00  0.00    -0.353 OA
ATOM     30  C   UNL d   1       8.612   5.622   2.733  0.00  0.00     0.210 C 
ENDBRANCH  24  29
ENDBRANCH  20  21
ENDBRANCH  19  20
ENDBRANCH  17  19
ENDBRANCH   1  17
TORSDOF 12
