REMARK  4 active torsions:
REMARK  status: ('A' for Active; 'I' for Inactive)
REMARK    1  A    between atoms: C_8  and  N_1 
REMARK    2  A    between atoms: N_4  and  C_9 
REMARK    3  A    between atoms: S_7  and  C_5 
REMARK    4  A    between atoms: C_12  and  S_7 
ROOT
ATOM      1  N   UNL d   1       0.039   0.865  -0.062  0.00  0.00    -0.251 N 
ATOM      2  C   UNL d   1      -1.105   0.130   0.139  0.00  0.00     0.232 A 
ATOM      3  C   UNL d   1       1.145   0.049  -0.185  0.00  0.00     0.245 A 
ATOM      4  C   UNL d   1       0.700  -1.393  -0.210  0.00  0.00     0.155 A 
ATOM      5  C   UNL d   1      -0.791  -1.328   0.043  0.00  0.00     0.129 A 
ATOM      6  O   UNL d   1      -2.246   0.524   0.344  0.00  0.00    -0.273 OA
ATOM      7  O   UNL d   1       2.324   0.382  -0.215  0.00  0.00    -0.271 OA
ENDROOT
BRANCH   1   8
ATOM      8  C   UNL d   1       0.089   2.291  -0.100  0.00  0.00     0.045 A 
ATOM      9  C   UNL d   1      -0.919   3.080   0.482  0.00  0.00     0.032 A 
ATOM     10  C   UNL d   1      -0.872   4.480   0.437  0.00  0.00     0.038 A 
ATOM     11  C   UNL d   1       0.188   5.115  -0.213  0.00  0.00     0.103 A 
ATOM     12  C   UNL d   1       1.196   4.358  -0.815  0.00  0.00     0.038 A 
ATOM     13  C   UNL d   1       1.143   2.959  -0.749  0.00  0.00     0.032 A 
BRANCH  11  14
ATOM     14  N   UNL d   1       0.244   6.580  -0.264  0.00  0.00    -0.116 N 
ATOM     15  O   UNL d   1       1.190   7.100  -0.871  0.00  0.00    -0.532 OA
ATOM     16  O   UNL d   1      -0.659   7.211   0.305  0.00  0.00    -0.532 OA
ENDBRANCH  11  14
ENDBRANCH   1   8
BRANCH   4  17
ATOM     17  S   UNL d   1       1.130  -2.102  -1.842  0.00  0.00    -0.097 SA
BRANCH  17  18
ATOM     18  C   UNL d   1       0.695  -3.811  -1.587  0.00  0.00     0.070 A 
ATOM     19  N   UNL d   1       0.082  -4.149  -0.430  0.00  0.00    -0.361 N 
ATOM     20  C   UNL d   1      -0.254  -5.448  -0.268  0.00  0.00     0.089 A 
ATOM     21  HN  UNL d   1      -0.118  -3.454   0.289  1.00  0.00     0.165 HD
ATOM     22  C   UNL d   1      -0.007  -6.433  -1.208  0.00  0.00     0.017 A 
ATOM     23  C   UNL d   1       0.620  -6.065  -2.391  0.00  0.00     0.004 A 
ATOM     24  C   UNL d   1       0.977  -4.733  -2.587  0.00  0.00     0.037 A 
ENDBRANCH  17  18
ENDBRANCH   4  17
TORSDOF 4
