REMARK  6 active torsions:
REMARK  status: ('A' for Active; 'I' for Inactive)
REMARK    1  A    between atoms: C_11  and  C_1 
REMARK    2  A    between atoms: C_2  and  N_4 
REMARK       I    between atoms: C_3  and  N_10 
REMARK       I    between atoms: N_4  and  C_3 
REMARK    3  A    between atoms: N_10  and  C_23 
REMARK    4  A    between atoms: S_14  and  C_11 
REMARK    5  A    between atoms: C_24  and  S_14 
REMARK    6  A    between atoms: C_23  and  C_24 
ROOT
ATOM      1  C   UNL d   1      -4.412   7.100   0.036  0.00  0.00     0.320 C 
ATOM      2  N   UNL d   1      -4.492   8.384   0.545  0.00  0.00    -0.308 N 
ATOM      3  O   UNL d   1      -5.350   6.390  -0.292  0.00  0.00    -0.247 OA
ATOM      4  N   UNL d   1      -3.102   6.687  -0.072  0.00  0.00    -0.342 N 
ATOM      5  H   UNL d   1      -3.698   8.947   0.299  0.00  0.00     0.170 HD
ATOM      6  H   UNL d   1      -2.356   7.354   0.062  0.00  0.00     0.164 HD
ENDROOT
BRANCH   4   7
ATOM      7  C   UNL d   1      -2.739   5.393  -0.624  0.00  0.00     0.134 C 
BRANCH   7   8
ATOM      8  C   UNL d   1      -2.235   5.481  -2.067  0.00  0.00     0.094 C 
BRANCH   8   9
ATOM      9  S   UNL d   1      -0.725   6.513  -2.160  0.00  0.00    -0.163 SA
BRANCH   9  10
ATOM     10  C   UNL d   1      -0.346   6.297  -3.932  0.00  0.00     0.116 C 
BRANCH  10  11
ATOM     11  C   UNL d   1       0.809   7.177  -4.353  0.00  0.00    -0.005 A 
ATOM     12  C   UNL d   1       2.138   6.708  -4.342  0.00  0.00     0.042 A 
ATOM     13 CL   UNL d   1       2.541   5.091  -3.874  0.00  0.00    -0.084 Cl
ATOM     14  C   UNL d   1       3.205   7.540  -4.709  0.00  0.00     0.024 A 
ATOM     15  C   UNL d   1       2.972   8.857  -5.088  0.00  0.00     0.003 A 
ATOM     16  C   UNL d   1       1.671   9.347  -5.096  0.00  0.00     0.024 A 
ATOM     17  C   UNL d   1       0.601   8.518  -4.731  0.00  0.00     0.042 A 
ATOM     18 CL   UNL d   1      -0.976   9.232  -4.765  0.00  0.00    -0.084 Cl
ENDBRANCH  10  11
ENDBRANCH   9  10
ENDBRANCH   8   9
ENDBRANCH   7   8
ENDBRANCH   4   7
BRANCH   2  19
ATOM     19  C   UNL d   1      -5.728   9.059   0.712  0.00  0.00     0.048 A 
ATOM     20  C   UNL d   1      -6.793   8.473   1.433  0.00  0.00    -0.035 A 
ATOM     21  C   UNL d   1      -8.047   9.111   1.452  0.00  0.00     0.009 A 
ATOM     22  C   UNL d   1      -6.662   7.213   2.249  0.00  0.00     0.050 C 
ATOM     23  C   UNL d   1      -8.232  10.336   0.824  0.00  0.00     0.001 A 
ATOM     24  C   UNL d   1      -7.155  10.960   0.204  0.00  0.00     0.009 A 
ATOM     25  C   UNL d   1      -5.888  10.349   0.156  0.00  0.00    -0.035 A 
ATOM     26  C   UNL d   1      -4.810  11.117  -0.563  0.00  0.00     0.050 C 
ENDBRANCH   2  19
TORSDOF 6
