REMARK  4 active torsions:
REMARK  status: ('A' for Active; 'I' for Inactive)
REMARK    1  A    between atoms: N_12  and  C_3 
REMARK    2  A    between atoms: N_9  and  C_4 
REMARK    3  A    between atoms: C_14  and  N_9 
REMARK    4  A    between atoms: C_13  and  C_14 
ROOT
ATOM      1  N   UNL d   1       1.074   1.062  -0.412  0.00  0.00    -0.324 N 
ATOM      2  HN  UNL d   1       1.939   1.538  -0.667  1.00  0.00     0.169 HD
ATOM      3  C   UNL d   1       0.946  -0.261  -0.541  0.00  0.00     0.156 A 
ATOM      4  C   UNL d   1       0.020   1.742   0.066  0.00  0.00     0.084 A 
ATOM      5  N   UNL d   1      -0.139  -0.963  -0.209  0.00  0.00    -0.337 N 
ATOM      6  HN  UNL d   1      -0.172  -1.977  -0.313  1.00  0.00     0.168 HD
ATOM      7  C   UNL d   1      -1.146   1.103   0.430  0.00  0.00     0.067 A 
ATOM      8  C   UNL d   1      -1.186  -0.269   0.268  0.00  0.00     0.011 A 
ATOM      9  C   UNL d   1      -2.399  -1.058   0.655  0.00  0.00     0.068 C 
ENDROOT
BRANCH   4  10
ATOM     10  N   UNL d   1       0.224   3.105   0.243  0.00  0.00    -0.275 NA
ATOM     11  H   UNL d   1       1.104   3.334  -0.216  0.00  0.00     0.129 HD
BRANCH  10  12
ATOM     12  C   UNL d   1      -0.861   4.022  -0.061  0.00  0.00     0.133 C 
BRANCH  12  13
ATOM     13  C   UNL d   1      -0.409   5.447   0.120  0.00  0.00    -0.029 A 
ATOM     14  C   UNL d   1      -0.569   6.386  -0.894  0.00  0.00     0.096 A 
ATOM     15  N   UNL d   1      -0.234   7.692  -0.784  0.00  0.00    -0.375 N 
ATOM     16  C   UNL d   1       0.287   8.088   0.397  0.00  0.00     0.087 A 
ATOM     17  HN  UNL d   1      -0.369   8.346  -1.555  1.00  0.00     0.164 HD
ATOM     18  C   UNL d   1       0.488   7.239   1.471  0.00  0.00     0.018 A 
ATOM     19  C   UNL d   1       0.133   5.901   1.328  0.00  0.00     0.011 A 
ENDBRANCH  12  13
ENDBRANCH  10  12
ENDBRANCH   4  10
BRANCH   3  20
ATOM     20  N   UNL d   1       2.041  -0.975  -0.991  0.00  0.00    -0.274 NA
ATOM     21  H   UNL d   1       2.883  -0.457  -0.781  0.00  0.00     0.127 HD
ATOM     22  H   UNL d   1       1.982  -1.921  -0.640  0.00  0.00     0.127 HD
ENDBRANCH   3  20
TORSDOF 4
