REMARK  6 active torsions:
REMARK  status: ('A' for Active; 'I' for Inactive)
REMARK       I    between atoms: C_2  and  N_1 
REMARK    1  A    between atoms: C_3  and  N_1 
REMARK    2  A    between atoms: C_5  and  C_2 
REMARK    3  A    between atoms: N_7  and  C_3 
REMARK       I    between atoms: C_4  and  N_6 
REMARK    4  A    between atoms: C_9  and  C_4 
REMARK    5  A    between atoms: N_6  and  N_7 
REMARK    6  A    between atoms: N_12  and  C_10 
ROOT
ATOM      1  C   UNL d   1       5.597   1.807   1.758  0.00  0.00     0.270 C 
ATOM      2  N   UNL d   1       4.862   0.860   1.084  0.00  0.00    -0.264 N 
ATOM      3  O   UNL d   1       6.802   1.972   1.611  0.00  0.00    -0.266 OA
ATOM      4  H   UNL d   1       3.975   0.533   1.476  0.00  0.00     0.190 HD
ENDROOT
BRANCH   2   5
ATOM      5  N   UNL d   1       5.453   0.070   0.109  0.00  0.00    -0.273 N 
ATOM      6  H   UNL d   1       6.450   0.256  -0.035  0.00  0.00     0.189 HD
BRANCH   5   7
ATOM      7  C   UNL d   1       4.756  -0.466  -0.927  0.00  0.00     0.193 C 
ATOM      8  S   UNL d   1       5.582  -0.935  -2.307  0.00  0.00    -0.039 SA
BRANCH   7   9
ATOM      9  N   UNL d   1       3.392  -0.660  -0.905  0.00  0.00    -0.299 N 
ATOM     10  C   UNL d   1       2.401  -0.480   0.058  0.00  0.00     0.253 C 
ATOM     11  O   UNL d   1       2.608  -0.134   1.216  0.00  0.00    -0.268 OA
ATOM     12  H   UNL d   1       3.086  -1.076  -1.770  0.00  0.00     0.171 HD
BRANCH  10  13
ATOM     13  C   UNL d   1       0.987  -0.818  -0.355  0.00  0.00     0.002 C 
ATOM     14  C   UNL d   1       0.560  -0.826  -1.633  0.00  0.00    -0.019 C 
ATOM     15  C   UNL d   1      -0.833  -1.175  -2.075  0.00  0.00     0.036 C 
ATOM     16  C   UNL d   1       0.045  -1.056   0.803  0.00  0.00     0.054 C 
ENDBRANCH  10  13
ENDBRANCH   7   9
ENDBRANCH   5   7
ENDBRANCH   2   5
BRANCH   1  17
ATOM     17  C   UNL d   1       4.804   2.639   2.705  0.00  0.00     0.033 A 
ATOM     18  C   UNL d   1       5.392   3.092   3.881  0.00  0.00     0.019 A 
ATOM     19  C   UNL d   1       4.664   3.914   4.758  0.00  0.00     0.030 A 
ATOM     20  C   UNL d   1       3.346   4.326   4.490  0.00  0.00     0.029 A 
ATOM     21  C   UNL d   1       2.787   3.853   3.289  0.00  0.00     0.030 A 
ATOM     22  C   UNL d   1       3.495   3.022   2.410  0.00  0.00     0.019 A 
BRANCH  20  23
ATOM     23  N   UNL d   1       2.647   5.177   5.329  0.00  0.00    -0.390 N 
ATOM     24  C   UNL d   1       1.192   5.126   5.451  0.00  0.00     0.149 C 
ATOM     25  C   UNL d   1       3.312   6.052   6.289  0.00  0.00     0.149 C 
ENDBRANCH  20  23
ENDBRANCH   1  17
TORSDOF 6
