REMARK  9 active torsions:
REMARK  status: ('A' for Active; 'I' for Inactive)
REMARK    1  A    between atoms: C_5  and  C_1 
REMARK    2  A    between atoms: C_2  and  O_8 
REMARK    3  A    between atoms: C_3  and  C_2 
REMARK    4  A    between atoms: O_16  and  C_4 
REMARK    5  A    between atoms: O_8  and  C_5 
REMARK    6  A    between atoms: C_12  and  C_5 
REMARK    7  A    between atoms: O_17  and  C_6 
REMARK    8  A    between atoms: O_18  and  C_7 
REMARK    9  A    between atoms: C_19  and  C_12 
ROOT
ATOM      1  C   UNL d   1      -1.709  -0.888   1.047  0.00  0.00     0.294 C 
ATOM      2  O   UNL d   1      -1.589  -0.537  -0.120  0.00  0.00    -0.259 OA
ENDROOT
BRANCH   1   3
ATOM      3  O   UNL d   1      -2.333  -2.018   1.460  0.00  0.00    -0.303 OA
BRANCH   3   4
ATOM      4  C   UNL d   1      -2.775  -2.917   0.404  0.00  0.00     0.243 C 
BRANCH   4   5
ATOM      5  C   UNL d   1      -4.074  -2.435  -0.265  0.00  0.00     0.414 C 
ATOM      6  F   UNL d   1      -4.516  -1.263   0.247  0.00  0.00    -0.168 F 
ATOM      7  F   UNL d   1      -5.087  -3.326  -0.114  0.00  0.00    -0.168 F 
ATOM      8  F   UNL d   1      -3.906  -2.264  -1.597  0.00  0.00    -0.168 F 
ENDBRANCH   4   5
BRANCH   4   9
ATOM      9  C   UNL d   1      -2.997  -4.313   1.016  0.00  0.00     0.080 C 
BRANCH   9  10
ATOM     10  C   UNL d   1      -1.754  -4.925   1.619  0.00  0.00    -0.055 A 
ATOM     11  C   UNL d   1      -1.397  -4.627   2.942  0.00  0.00     0.007 A 
ATOM     12  C   UNL d   1      -0.261  -5.195   3.517  0.00  0.00     0.001 A 
ATOM     13  C   UNL d   1       0.529  -6.072   2.777  0.00  0.00     0.000 A 
ATOM     14  C   UNL d   1       0.184  -6.376   1.461  0.00  0.00     0.001 A 
ATOM     15  C   UNL d   1      -0.949  -5.803   0.881  0.00  0.00     0.007 A 
ENDBRANCH   9  10
ENDBRANCH   4   9
ENDBRANCH   3   4
ENDBRANCH   1   3
BRANCH   1  16
ATOM     16  C   UNL d   1      -1.102  -0.158   2.201  0.00  0.00     0.045 A 
ATOM     17  C   UNL d   1      -0.201   0.890   1.944  0.00  0.00     0.057 A 
ATOM     18  C   UNL d   1       0.484   1.535   2.990  0.00  0.00     0.105 A 
ATOM     19  C   UNL d   1       0.252   1.137   4.324  0.00  0.00     0.135 A 
ATOM     20  C   UNL d   1      -0.738   0.163   4.579  0.00  0.00     0.105 A 
ATOM     21  C   UNL d   1      -1.376  -0.502   3.524  0.00  0.00     0.057 A 
BRANCH  18  22
ATOM     22  O   UNL d   1       1.378   2.552   2.782  0.00  0.00    -0.353 OA
ATOM     23  C   UNL d   1       1.612   3.011   1.459  0.00  0.00     0.210 C 
ENDBRANCH  18  22
BRANCH  19  24
ATOM     24  O   UNL d   1       0.911   1.591   5.438  0.00  0.00    -0.351 OA
ATOM     25  C   UNL d   1       2.058   2.417   5.324  0.00  0.00     0.210 C 
ENDBRANCH  19  24
BRANCH  20  26
ATOM     26  O   UNL d   1      -1.143  -0.270   5.821  0.00  0.00    -0.353 OA
ATOM     27  C   UNL d   1      -1.195   0.729   6.839  0.00  0.00     0.210 C 
ENDBRANCH  20  26
ENDBRANCH   1  16
TORSDOF 9
