REMARK  6 active torsions:
REMARK  status: ('A' for Active; 'I' for Inactive)
REMARK    1  A    between atoms: C_18  and  N_1 
REMARK    2  A    between atoms: C_3  and  N_13 
REMARK    3  A    between atoms: C_20  and  N_4 
REMARK    4  A    between atoms: S_16  and  C_7 
REMARK       I    between atoms: N_13  and  C_17 
REMARK    5  A    between atoms: C_25  and  S_16 
REMARK    6  A    between atoms: C_17  and  C_25 
ROOT
ATOM      1  S   UNL d   1      -2.685  -0.949   1.224  0.00  0.00    -0.083 SA
ENDROOT
BRANCH   1   2
ATOM      2  C   UNL d   1      -1.104  -0.934   0.511  0.00  0.00     0.168 C 
ATOM      3  N   UNL d   1      -0.104   0.019   0.699  0.00  0.00    -0.273 N 
ATOM      4  C   UNL d   1       0.928  -0.460  -0.114  0.00  0.00     0.163 C 
ATOM      5  N   UNL d   1       0.623  -1.656  -0.579  0.00  0.00    -0.281 N 
ATOM      6  C   UNL d   1       2.114   0.235  -0.517  0.00  0.00     0.120 A 
ATOM      7  N   UNL d   1      -0.657  -1.940  -0.207  0.00  0.00    -0.278 N 
ATOM      8  HN  UNL d   1       1.237  -2.262  -1.123  1.00  0.00     0.188 HD
ATOM      9  HN  UNL d   1      -1.176  -2.786  -0.443  1.00  0.00     0.189 HD
ATOM     10  O   UNL d   1       2.172   1.597  -0.671  0.00  0.00    -0.319 OA
ATOM     11  C   UNL d   1       3.356  -0.292  -0.835  0.00  0.00     0.043 A 
ATOM     12  C   UNL d   1       3.438   1.925  -1.029  0.00  0.00     0.142 A 
ATOM     13  C   UNL d   1       4.210   0.797  -1.139  0.00  0.00     0.027 A 
BRANCH   3  14
ATOM     14  C   UNL d   1      -0.080   1.186   1.534  0.00  0.00     0.043 A 
ATOM     15  C   UNL d   1      -1.241   1.910   1.831  0.00  0.00     0.030 A 
ATOM     16  C   UNL d   1      -1.184   3.048   2.646  0.00  0.00     0.002 A 
ATOM     17  C   UNL d   1       0.032   3.493   3.154  0.00  0.00     0.000 A 
ATOM     18  C   UNL d   1       1.194   2.788   2.868  0.00  0.00     0.002 A 
ATOM     19  C   UNL d   1       1.136   1.633   2.082  0.00  0.00     0.030 A 
ENDBRANCH   3  14
ENDBRANCH   1   2
BRANCH   1  20
ATOM     20  C   UNL d   1      -3.599  -1.924  -0.012  0.00  0.00     0.185 C 
BRANCH  20  21
ATOM     21  C   UNL d   1      -5.093  -1.613   0.030  0.00  0.00     0.233 C 
ATOM     22  N   UNL d   1      -5.855  -2.657  -0.486  0.00  0.00    -0.311 N 
ATOM     23  H   UNL d   1      -5.411  -3.554  -0.651  0.00  0.00     0.170 HD
ATOM     24  O   UNL d   1      -5.556  -0.570   0.484  0.00  0.00    -0.272 OA
BRANCH  22  25
ATOM     25  C   UNL d   1      -7.246  -2.637  -0.384  0.00  0.00     0.132 C 
ATOM     26  N   UNL d   1      -8.022  -3.764  -0.114  0.00  0.00    -0.240 N 
ATOM     27  N   UNL d   1      -9.351  -3.492  -0.246  0.00  0.00    -0.297 N 
ATOM     28  C   UNL d   1      -9.407  -2.163  -0.354  0.00  0.00     0.026 C 
ATOM     29  HN  UNL d   1     -10.126  -4.154  -0.260  1.00  0.00     0.187 HD
ATOM     30  C   UNL d   1      -8.131  -1.590  -0.497  0.00  0.00     0.076 C 
ATOM     31  C   UNL d   1     -10.716  -1.460  -0.305  0.00  0.00     0.070 C 
BRANCH  26  32
ATOM     32  C   UNL d   1      -7.595  -5.034   0.378  0.00  0.00     0.058 A 
ATOM     33  C   UNL d   1      -6.398  -5.161   1.110  0.00  0.00     0.031 A 
ATOM     34  C   UNL d   1      -5.987  -6.410   1.578  0.00  0.00     0.002 A 
ATOM     35  C   UNL d   1      -6.765  -7.524   1.339  0.00  0.00     0.000 A 
ATOM     36  C   UNL d   1      -7.979  -7.405   0.648  0.00  0.00     0.002 A 
ATOM     37  C   UNL d   1      -8.397  -6.156   0.180  0.00  0.00     0.031 A 
ENDBRANCH  26  32
ENDBRANCH  22  25
ENDBRANCH  20  21
ENDBRANCH   1  20
TORSDOF 6
