REMARK  1 active torsions:
REMARK  status: ('A' for Active; 'I' for Inactive)
REMARK       I    between atoms: N_2  and  C_1 
REMARK    1  A    between atoms: C_4  and  N_2 
ROOT
ATOM      1  C   UNL d   1       0.915  -0.757   2.460  0.00  0.00     0.034 A 
ATOM      2  C   UNL d   1       2.327  -1.298   4.825  0.00  0.00     0.006 A 
ATOM      3  I   UNL d   1       3.372  -1.706   6.573  0.00  0.00    -0.045 I 
ATOM      4  C   UNL d   1       0.534  -1.815   3.288  0.00  0.00     0.031 A 
ATOM      5  C   UNL d   1       2.018   0.026   2.830  0.00  0.00     0.031 A 
ATOM      6  C   UNL d   1       2.720  -0.239   4.010  0.00  0.00     0.020 A 
ATOM      7  C   UNL d   1       1.237  -2.088   4.467  0.00  0.00     0.020 A 
ENDROOT
BRANCH   1   8
ATOM      8  N   UNL d   1       0.270  -0.437   1.248  0.00  0.00    -0.328 N 
ATOM      9  C   UNL d   1      -0.892  -0.995   0.749  0.00  0.00     0.218 C 
ATOM     10  O   UNL d   1      -1.634  -1.785   1.325  0.00  0.00    -0.274 OA
ATOM     11  C   UNL d   1      -1.226  -0.511  -0.641  0.00  0.00     0.117 C 
ATOM     12  H   UNL d   1       0.689   0.308   0.706  0.00  0.00     0.169 HD
ENDBRANCH   1   8
TORSDOF 1
