REMARK  4 active torsions:
REMARK  status: ('A' for Active; 'I' for Inactive)
REMARK    1  A    between atoms: C_8  and  C_1 
REMARK    2  A    between atoms: N_12  and  C_2 
REMARK       I    between atoms: N_14  and  C_8 
REMARK    3  A    between atoms: C_15  and  C_10 
REMARK    4  A    between atoms: N_16  and  N_14 
ROOT
ATOM      1  C   UNL d   1       2.364   0.147   0.020  0.00  0.00     0.173 A 
ATOM      2  C   UNL d   1       1.612   1.307   0.028  0.00  0.00     0.081 A 
ATOM      3  C   UNL d   1       0.237   0.929   0.049  0.00  0.00     0.051 A 
ATOM      4  C   UNL d   1       0.249  -0.469   0.055  0.00  0.00     0.162 A 
ATOM      5  O   UNL d   1       1.528  -0.936   0.052  0.00  0.00    -0.285 OA
ATOM      6  N   UNL d   1      -0.803  -1.305   0.044  0.00  0.00    -0.335 N 
ATOM      7  HN  UNL d   1      -0.703  -2.320   0.062  1.00  0.00     0.168 HD
ATOM      8  C   UNL d   1      -1.027   1.560   0.050  0.00  0.00    -0.043 A 
ATOM      9  C   UNL d   1      -2.003  -0.688   0.007  0.00  0.00     0.044 A 
ATOM     10  C   UNL d   1      -2.144   0.703   0.037  0.00  0.00     0.038 A 
ATOM     11  C   UNL d   1      -1.292   3.038   0.037  0.00  0.00     0.049 C 
ENDROOT
BRANCH   1  12
ATOM     12  C   UNL d   1       3.793  -0.081  -0.027  0.00  0.00     0.291 C 
ATOM     13  O   UNL d   1       4.638   0.813  -0.091  0.00  0.00    -0.264 OA
ATOM     14  N   UNL d   1       4.150  -1.430  -0.006  0.00  0.00    -0.288 N 
ATOM     15  H   UNL d   1       3.415  -2.123   0.132  0.00  0.00     0.183 HD
BRANCH  14  16
ATOM     16  N   UNL d   1       5.509  -1.821   0.024  0.00  0.00    -0.247 NA
ATOM     17  H   UNL d   1       6.071  -0.958   0.043  0.00  0.00     0.143 HD
ATOM     18  H   UNL d   1       5.734  -2.254  -0.875  0.00  0.00     0.143 HD
ENDBRANCH  14  16
ENDBRANCH   1  12
BRANCH   2  19
ATOM     19  N   UNL d   1       2.126   2.554   0.004  0.00  0.00    -0.396 N 
ATOM     20  H   UNL d   1       3.135   2.710  -0.017  0.00  0.00     0.156 HD
ATOM     21  H   UNL d   1       1.580   3.404   0.042  0.00  0.00     0.156 HD
ENDBRANCH   2  19
BRANCH   9  22
ATOM     22  C   UNL d   1      -3.181  -1.577  -0.106  0.00  0.00    -0.009 A 
ATOM     23  C   UNL d   1      -3.224  -2.822   0.546  0.00  0.00     0.013 A 
ATOM     24  C   UNL d   1      -4.335  -3.665   0.430  0.00  0.00     0.001 A 
ATOM     25  C   UNL d   1      -5.427  -3.282  -0.345  0.00  0.00     0.000 A 
ATOM     26  C   UNL d   1      -5.408  -2.058  -1.007  0.00  0.00     0.001 A 
ATOM     27  C   UNL d   1      -4.297  -1.218  -0.889  0.00  0.00     0.013 A 
ENDBRANCH   9  22
TORSDOF 4
