REMARK  7 active torsions:
REMARK  status: ('A' for Active; 'I' for Inactive)
REMARK    1  A    between atoms: C_9  and  C_3 
REMARK    2  A    between atoms: S_10  and  C_7 
REMARK    3  A    between atoms: C_15  and  C_9 
REMARK    4  A    between atoms: C_14  and  S_10 
REMARK    5  A    between atoms: C_11  and  C_14 
REMARK    6  A    between atoms: O_17  and  C_11 
REMARK    7  A    between atoms: C_23  and  O_17 
ROOT
ATOM      1  N   UNL d   1      -0.626   1.450   0.080  0.00  0.00    -0.301 N 
ATOM      2  HN  UNL d   1      -1.067   2.370   0.072  1.00  0.00     0.171 HD
ATOM      3  C   UNL d   1      -0.625  -1.095   0.057  0.00  0.00     0.098 A 
ATOM      4  C   UNL d   1      -1.330   0.265   0.199  0.00  0.00     0.271 A 
ATOM      5  N   UNL d   1       0.673  -1.162  -0.057  0.00  0.00    -0.297 N 
ATOM      6  HN  UNL d   1       1.181  -2.042  -0.144  1.00  0.00     0.187 HD
ATOM      7  C   UNL d   1       0.649   1.272  -0.021  0.00  0.00     0.162 A 
ATOM      8  N   UNL d   1       1.285   0.055  -0.048  0.00  0.00    -0.279 N 
ATOM      9  O   UNL d   1      -2.533   0.242   0.434  0.00  0.00    -0.266 OA
ATOM     10  H   UNL d   1       2.300   0.079  -0.138  0.00  0.00     0.189 HD
ENDROOT
BRANCH   3  11
ATOM     11  C   UNL d   1      -1.474  -2.341   0.020  0.00  0.00     0.103 C 
BRANCH  11  12
ATOM     12  C   UNL d   1      -1.886  -2.701  -1.389  0.00  0.00    -0.052 A 
ATOM     13  C   UNL d   1      -1.051  -3.489  -2.195  0.00  0.00     0.009 A 
ATOM     14  C   UNL d   1      -1.397  -3.764  -3.520  0.00  0.00     0.024 A 
ATOM     15  C   UNL d   1      -2.580  -3.249  -4.047  0.00  0.00     0.034 A 
ATOM     16  C   UNL d   1      -3.428  -2.481  -3.254  0.00  0.00     0.024 A 
ATOM     17 CL   UNL d   1      -2.985  -3.550  -5.692  0.00  0.00    -0.084 Cl
ATOM     18  C   UNL d   1      -3.083  -2.207  -1.928  0.00  0.00     0.009 A 
ENDBRANCH  11  12
ENDBRANCH   3  11
BRANCH   7  19
ATOM     19  S   UNL d   1       1.732   2.641  -0.182  0.00  0.00    -0.083 SA
BRANCH  19  20
ATOM     20  C   UNL d   1       0.846   3.890   0.792  0.00  0.00     0.193 C 
BRANCH  20  21
ATOM     21  C   UNL d   1       0.549   3.435   2.205  0.00  0.00     0.268 C 
ATOM     22  O   UNL d   1       0.901   2.383   2.721  0.00  0.00    -0.264 OA
BRANCH  21  23
ATOM     23  O   UNL d   1      -0.231   4.380   2.810  0.00  0.00    -0.321 OA
BRANCH  23  24
ATOM     24  C   UNL d   1      -0.959   3.928   3.959  0.00  0.00     0.174 C 
ATOM     25  C   UNL d   1      -2.291   3.385   3.474  0.00  0.00     0.034 C 
ENDBRANCH  23  24
ENDBRANCH  21  23
ENDBRANCH  20  21
ENDBRANCH  19  20
ENDBRANCH   7  19
TORSDOF 7
