REMARK  2 active torsions:
REMARK  status: ('A' for Active; 'I' for Inactive)
REMARK    1  A    between atoms: C_4  and  C_1 
REMARK       I    between atoms: N_9  and  C_4 
REMARK    2  A    between atoms: C_12  and  N_9 
ROOT
ATOM      1  C   UNL d   1       4.942  -1.603   1.974  0.00  0.00     0.264 C 
ATOM      2  N   UNL d   1       4.859  -1.635   0.591  0.00  0.00    -0.322 N 
ATOM      3  O   UNL d   1       4.558  -2.543   2.671  0.00  0.00    -0.267 OA
ATOM      4  H   UNL d   1       4.902  -0.707   0.183  0.00  0.00     0.169 HD
ENDROOT
BRANCH   2   5
ATOM      5  C   UNL d   1       3.951  -2.483  -0.060  0.00  0.00     0.035 C 
ATOM      6  C   UNL d   1       2.741  -1.935  -0.470  0.00  0.00     0.043 C 
ATOM      7  C   UNL d   1       1.954  -2.611  -1.404  0.00  0.00    -0.007 C 
ATOM      8  C   UNL d   1       0.756  -2.053  -1.851  0.00  0.00     0.015 C 
ATOM      9  C   UNL d   1       2.398  -3.820  -1.970  0.00  0.00     0.042 C 
ATOM     10  C   UNL d   1       0.120  -2.611  -2.948  0.00  0.00     0.025 C 
ATOM     11  C   UNL d   1       0.699  -3.722  -3.547  0.00  0.00     0.005 C 
ATOM     12  N   UNL d   1       1.777  -4.363  -3.032  0.00  0.00    -0.359 N 
ATOM     13  C   UNL d   1       0.256  -4.140  -4.917  0.00  0.00     0.068 C 
ATOM     14  HN  UNL d   1       2.109  -5.237  -3.440  1.00  0.00     0.166 HD
ATOM     15  C   UNL d   1       3.548  -4.407  -1.444  0.00  0.00     0.033 C 
ATOM     16  C   UNL d   1       4.334  -3.746  -0.487  0.00  0.00     0.032 C 
ENDBRANCH   2   5
BRANCH   1  17
ATOM     17  C   UNL d   1       5.460  -0.351   2.519  0.00  0.00     0.096 A 
ATOM     18  S   UNL d   1       5.142  -0.007   4.170  0.00  0.00    -0.082 SA
ATOM     19  C   UNL d   1       6.037   1.457   4.142  0.00  0.00     0.017 A 
ATOM     20  C   UNL d   1       6.267   2.322   5.229  0.00  0.00     0.020 A 
ATOM     21  C   UNL d   1       6.554   1.717   2.873  0.00  0.00     0.004 A 
ATOM     22  C   UNL d   1       7.071   3.447   5.042  0.00  0.00     0.001 A 
ATOM     23  C   UNL d   1       7.612   3.726   3.796  0.00  0.00     0.001 A 
ATOM     24  C   UNL d   1       7.348   2.885   2.711  0.00  0.00     0.014 A 
ATOM     25  C   UNL d   1       6.168   0.689   1.937  0.00  0.00     0.068 A 
ATOM     26 CL   UNL d   1       6.630   0.797   0.279  0.00  0.00    -0.082 Cl
ENDBRANCH   1  17
TORSDOF 2
