REMARK  3 active torsions:
REMARK  status: ('A' for Active; 'I' for Inactive)
REMARK    1  A    between atoms: C_4  and  C_1 
REMARK       I    between atoms: N_7  and  C_4 
REMARK    2  A    between atoms: C_9  and  N_7 
REMARK    3  A    between atoms: N_8  and  C_10 
ROOT
ATOM      1  C   UNL d   1      -0.574  -4.285  -0.201  0.00  0.00     0.056 A 
ATOM      2  C   UNL d   1      -1.322  -3.464  -1.086  0.00  0.00     0.037 A 
ATOM      3  C   UNL d   1      -1.189  -5.310   0.529  0.00  0.00     0.031 A 
ATOM      4  C   UNL d   1      -2.703  -3.707  -1.170  0.00  0.00     0.026 A 
ATOM      5  C   UNL d   1      -2.561  -5.520   0.425  0.00  0.00     0.002 A 
ATOM      6  C   UNL d   1      -3.316  -4.718  -0.421  0.00  0.00     0.002 A 
ENDROOT
BRANCH   1   7
ATOM      7  N   UNL d   1       0.792  -3.975   0.001  0.00  0.00    -0.321 N 
ATOM      8  C   UNL d   1       1.769  -4.881   0.345  0.00  0.00     0.258 C 
ATOM      9  O   UNL d   1       1.611  -6.094   0.348  0.00  0.00    -0.267 OA
ATOM     10  H   UNL d   1       1.048  -3.047  -0.305  0.00  0.00     0.169 HD
BRANCH   8  11
ATOM     11  C   UNL d   1       3.089  -4.329   0.660  0.00  0.00     0.063 A 
ATOM     12  C   UNL d   1       3.409  -3.055   1.084  0.00  0.00     0.091 A 
ATOM     13  S   UNL d   1       5.056  -2.848   1.463  0.00  0.00    -0.065 SA
ATOM     14 CL   UNL d   1       2.376  -1.697   1.326  0.00  0.00    -0.075 Cl
ATOM     15  C   UNL d   1       5.390  -4.454   1.062  0.00  0.00     0.077 A 
ATOM     16  C   UNL d   1       4.287  -5.140   0.630  0.00  0.00     0.050 A 
ATOM     17 CL   UNL d   1       6.982  -5.072   1.230  0.00  0.00    -0.076 Cl
ENDBRANCH   8  11
ENDBRANCH   1   7
BRANCH   2  18
ATOM     18  N   UNL d   1      -0.676  -2.456  -1.834  0.00  0.00    -0.281 NA
ATOM     19  C   UNL d   1      -1.496  -1.351  -2.357  0.00  0.00     0.096 C 
ATOM     20  C   UNL d   1      -0.575  -0.179  -2.700  0.00  0.00     0.015 C 
ATOM     21  C   UNL d   1       0.559  -0.594  -3.641  0.00  0.00     0.002 C 
ATOM     22  C   UNL d   1       1.271  -1.854  -3.150  0.00  0.00     0.015 C 
ATOM     23  C   UNL d   1       0.268  -2.969  -2.850  0.00  0.00     0.096 C 
ENDBRANCH   2  18
TORSDOF 3
