REMARK  2 active torsions:
REMARK  status: ('A' for Active; 'I' for Inactive)
REMARK       I    between atoms: C_2  and  N_1 
REMARK    1  A    between atoms: C_8  and  C_2 
REMARK    2  A    between atoms: N_9  and  C_8 
ROOT
ATOM      1  N   UNL d   1       0.078  -1.521   0.216  0.00  0.00    -0.279 N 
ATOM      2  C   UNL d   1      -0.005  -2.640   1.072  0.00  0.00     0.257 C 
ATOM      3  S   UNL d   1       0.104   1.525  -0.546  0.00  0.00    -0.086 SA
ATOM      4  C   UNL d   1      -1.102  -0.976  -0.403  0.00  0.00     0.059 A 
ATOM      5  C   UNL d   1       1.352  -0.957  -0.167  0.00  0.00     0.059 A 
ATOM      6  C   UNL d   1      -1.220   0.370  -0.771  0.00  0.00     0.033 A 
ATOM      7  C   UNL d   1       1.478   0.394  -0.546  0.00  0.00     0.033 A 
ATOM      8  O   UNL d   1       0.763  -3.609   1.030  0.00  0.00    -0.271 OA
ATOM      9  C   UNL d   1       2.536  -1.719  -0.124  0.00  0.00     0.031 A 
ATOM     10  C   UNL d   1      -2.173  -1.836  -0.722  0.00  0.00     0.031 A 
ATOM     11  C   UNL d   1      -2.420   0.856  -1.317  0.00  0.00     0.021 A 
ATOM     12  C   UNL d   1       2.737   0.941  -0.852  0.00  0.00     0.021 A 
ATOM     13  C   UNL d   1      -3.358  -1.354  -1.289  0.00  0.00     0.002 A 
ATOM     14  C   UNL d   1       3.787  -1.170  -0.431  0.00  0.00     0.002 A 
ATOM     15  C   UNL d   1       3.891   0.163  -0.789  0.00  0.00     0.002 A 
ATOM     16  C   UNL d   1      -3.491  -0.000  -1.561  0.00  0.00     0.002 A 
ENDROOT
BRANCH   2  17
ATOM     17  C   UNL d   1      -1.043  -2.503   2.233  0.00  0.00     0.375 C 
BRANCH  17  18
ATOM     18  N   UNL d   1      -1.387  -3.827   2.803  0.00  0.00     0.101 N 
ATOM     19  C   UNL d   1      -2.133  -3.767   4.075  0.00  0.00     0.299 C 
ATOM     20  C   UNL d   1      -3.649  -3.514   3.951  0.00  0.00     0.198 C 
ATOM     21  O   UNL d   1      -4.274  -4.346   2.964  0.00  0.00    -0.388 OA
ATOM     22  C   UNL d   1      -3.597  -4.239   1.709  0.00  0.00     0.198 C 
ATOM     23  C   UNL d   1      -2.135  -4.676   1.857  0.00  0.00     0.299 C 
ENDBRANCH  17  18
ENDBRANCH   2  17
TORSDOF 2
