REMARK  2 active torsions:
REMARK  status: ('A' for Active; 'I' for Inactive)
REMARK    1  A    between atoms: C_2  and  N_1 
REMARK    2  A    between atoms: N_4  and  C_3 
ROOT
ATOM      1  C   UNL d   1       0.110  -1.570   3.012  0.00  0.00     0.129 A 
ATOM      2  C   UNL d   1       0.827  -0.605   2.269  0.00  0.00     0.063 A 
ATOM      3  C   UNL d   1      -1.158  -2.056   2.632  0.00  0.00     0.038 A 
ATOM      4  C   UNL d   1       0.158  -0.144   1.115  0.00  0.00     0.032 A 
ATOM      5  C   UNL d   1      -1.765  -1.572   1.481  0.00  0.00     0.003 A 
ATOM      6  C   UNL d   1      -1.108  -0.610   0.726  0.00  0.00     0.002 A 
ENDROOT
BRANCH   2   7
ATOM      7  N   UNL d   1       2.097  -0.134   2.539  0.00  0.00    -0.375 N 
ATOM      8  C   UNL d   1       2.499   1.268   2.303  0.00  0.00     0.149 C 
ATOM      9  C   UNL d   1       3.820   1.309   1.514  0.00  0.00     0.187 C 
ATOM     10  O   UNL d   1       4.852   0.549   2.164  0.00  0.00    -0.388 OA
ATOM     11  C   UNL d   1       4.445  -0.820   2.315  0.00  0.00     0.187 C 
ATOM     12  C   UNL d   1       3.164  -0.942   3.157  0.00  0.00     0.149 C 
ENDBRANCH   2   7
BRANCH   1  13
ATOM     13  N   UNL d   1       0.606  -2.086   4.272  0.00  0.00    -0.113 N 
ATOM     14  O   UNL d   1       0.731  -1.290   5.214  0.00  0.00    -0.532 OA
ATOM     15  O   UNL d   1       0.832  -3.303   4.328  0.00  0.00    -0.532 OA
ENDBRANCH   1  13
TORSDOF 2
