REMARK  5 active torsions:
REMARK  status: ('A' for Active; 'I' for Inactive)
REMARK    1  A    between atoms: C_2  and  C_1 
REMARK    2  A    between atoms: C_7  and  C_2 
REMARK    3  A    between atoms: C_10  and  C_9 
REMARK       I    between atoms: N_14  and  C_10 
REMARK       I    between atoms: C_11  and  N_13 
REMARK    4  A    between atoms: C_12  and  C_11 
REMARK    5  A    between atoms: N_13  and  N_14 
ROOT
ATOM      1  C   UNL d   1      -3.824   1.106   0.111  0.00  0.00     0.031 A 
ATOM      2  C   UNL d   1      -4.244   0.337   1.220  0.00  0.00     0.047 A 
ATOM      3  C   UNL d   1      -4.682   1.232  -1.006  0.00  0.00     0.016 A 
ATOM      4  C   UNL d   1      -5.547  -0.205   1.204  0.00  0.00     0.018 A 
ATOM      5  C   UNL d   1      -5.972   0.701  -0.986  0.00  0.00     0.001 A 
ATOM      6  C   UNL d   1      -6.411  -0.006   0.125  0.00  0.00     0.001 A 
ENDROOT
BRANCH   2   7
ATOM      7  C   UNL d   1      -3.466   0.023   2.471  0.00  0.00     0.271 C 
ATOM      8  N   UNL d   1      -2.549   0.942   2.938  0.00  0.00    -0.263 N 
ATOM      9  H   UNL d   1      -2.092   1.584   2.286  0.00  0.00     0.190 HD
ATOM     10  O   UNL d   1      -3.704  -1.016   3.091  0.00  0.00    -0.266 OA
BRANCH   8  11
ATOM     11  N   UNL d   1      -1.724   0.576   4.016  0.00  0.00    -0.263 N 
ATOM     12  C   UNL d   1      -0.708   1.451   4.352  0.00  0.00     0.271 C 
ATOM     13  O   UNL d   1      -0.503   2.491   3.728  0.00  0.00    -0.266 OA
ATOM     14  H   UNL d   1      -1.839  -0.371   4.364  0.00  0.00     0.190 HD
BRANCH  12  15
ATOM     15  C   UNL d   1       0.130   1.129   5.532  0.00  0.00     0.049 A 
ATOM     16  C   UNL d   1       1.203   1.970   5.819  0.00  0.00     0.104 A 
ATOM     17  N   UNL d   1       1.992   1.855   6.918  0.00  0.00    -0.374 N 
ATOM     18  C   UNL d   1       1.693   0.857   7.774  0.00  0.00     0.087 A 
ATOM     19  HN  UNL d   1       2.771   2.492   7.088  1.00  0.00     0.164 HD
ATOM     20  C   UNL d   1       0.660  -0.044   7.570  0.00  0.00     0.018 A 
ATOM     21  C   UNL d   1      -0.132   0.091   6.428  0.00  0.00     0.020 A 
ENDBRANCH  12  15
ENDBRANCH   8  11
ENDBRANCH   2   7
BRANCH   1  22
ATOM     22  C   UNL d   1      -2.507   1.790   0.054  0.00  0.00     0.194 C 
ATOM     23  O   UNL d   1      -1.581   1.256   0.655  0.00  0.00    -0.287 OA
BRANCH  22  24
ATOM     24  C   UNL d   1      -2.244   3.099  -0.647  0.00  0.00     0.028 C 
ATOM     25  C   UNL d   1      -0.971   3.287  -1.262  0.00  0.00    -0.041 C 
ATOM     26  C   UNL d   1      -0.630   4.559  -1.794  0.00  0.00    -0.049 C 
ATOM     27  C   UNL d   1       0.071   2.186  -1.312  0.00  0.00     0.050 C 
ATOM     28  C   UNL d   1       0.780   4.871  -2.257  0.00  0.00     0.049 C 
ATOM     29  C   UNL d   1      -1.615   5.573  -1.890  0.00  0.00    -0.049 C 
ATOM     30  C   UNL d   1      -2.910   5.352  -1.364  0.00  0.00    -0.049 C 
ATOM     31  C   UNL d   1      -1.239   6.898  -2.524  0.00  0.00     0.049 C 
ATOM     32  C   UNL d   1      -3.181   4.168  -0.625  0.00  0.00    -0.041 C 
ATOM     33  C   UNL d   1      -3.980   6.406  -1.557  0.00  0.00     0.049 C 
ATOM     34  C   UNL d   1      -4.451   4.126   0.196  0.00  0.00     0.050 C 
ENDBRANCH  22  24
ENDBRANCH   1  22
TORSDOF 5
