REMARK  13 active torsions:
REMARK  status: ('A' for Active; 'I' for Inactive)
REMARK    1  A    between atoms: C_4  and  S_1 
REMARK    2  A    between atoms: N_5  and  S_1 
REMARK       I    between atoms: N_2  and  C_3 
REMARK    3  A    between atoms: C_9  and  N_2 
REMARK    4  A    between atoms: C_11  and  N_2 
REMARK    5  A    between atoms: C_3  and  C_8 
REMARK    6  A    between atoms: C_25  and  N_5 
REMARK    7  A    between atoms: C_26  and  N_5 
REMARK    8  A    between atoms: C_15  and  C_9 
REMARK    9  A    between atoms: O_23  and  C_10 
REMARK   10  A    between atoms: C_22  and  C_11 
REMARK   11  A    between atoms: O_24  and  C_13 
REMARK   12  A    between atoms: C_31  and  C_25 
REMARK   13  A    between atoms: C_32  and  C_26 
ROOT
ATOM      1  N   UNL d   1      -0.736  -3.400   5.767  0.00  0.00    -0.340 N 
ATOM      2  C   UNL d   1      -0.669  -3.608   4.384  0.00  0.00     0.254 C 
ATOM      3  O   UNL d   1      -0.844  -4.709   3.865  0.00  0.00    -0.267 OA
ENDROOT
BRANCH   1   4
ATOM      4  C   UNL d   1      -1.021  -4.564   6.612  0.00  0.00     0.165 C 
BRANCH   4   5
ATOM      5  C   UNL d   1       0.108  -4.970   7.544  0.00  0.00    -0.037 A 
ATOM      6  C   UNL d   1       1.460  -4.950   7.157  0.00  0.00     0.048 A 
ATOM      7  C   UNL d   1       2.483  -5.369   8.034  0.00  0.00     0.102 A 
ATOM      8  C   UNL d   1       2.152  -5.788   9.332  0.00  0.00     0.101 A 
ATOM      9  C   UNL d   1       0.802  -5.859   9.694  0.00  0.00     0.040 A 
ATOM     10  C   UNL d   1      -0.207  -5.464   8.814  0.00  0.00     0.012 A 
BRANCH   7  11
ATOM     11  O   UNL d   1       3.804  -5.336   7.665  0.00  0.00    -0.353 OA
ATOM     12  C   UNL d   1       4.078  -5.700   6.316  0.00  0.00     0.210 C 
ENDBRANCH   7  11
BRANCH   8  13
ATOM     13  O   UNL d   1       2.982  -6.189  10.345  0.00  0.00    -0.353 OA
ATOM     14  C   UNL d   1       4.378  -5.959  10.223  0.00  0.00     0.210 C 
ENDBRANCH   8  13
ENDBRANCH   4   5
ENDBRANCH   1   4
BRANCH   1  15
ATOM     15  C   UNL d   1      -0.718  -2.096   6.442  0.00  0.00     0.165 C 
BRANCH  15  16
ATOM     16  C   UNL d   1      -1.983  -1.265   6.386  0.00  0.00    -0.040 A 
ATOM     17  C   UNL d   1      -3.181  -1.687   5.795  0.00  0.00     0.009 A 
ATOM     18  C   UNL d   1      -4.317  -0.870   5.827  0.00  0.00     0.001 A 
ATOM     19  C   UNL d   1      -4.274   0.376   6.452  0.00  0.00     0.000 A 
ATOM     20  C   UNL d   1      -3.090   0.815   7.034  0.00  0.00     0.001 A 
ATOM     21  C   UNL d   1      -1.956   0.003   6.998  0.00  0.00     0.009 A 
ENDBRANCH  15  16
ENDBRANCH   1  15
BRANCH   2  22
ATOM     22  C   UNL d   1      -0.408  -2.479   3.458  0.00  0.00     0.032 A 
ATOM     23  C   UNL d   1       0.702  -1.647   3.617  0.00  0.00     0.018 A 
ATOM     24  C   UNL d   1       0.932  -0.602   2.722  0.00  0.00     0.026 A 
ATOM     25  C   UNL d   1       0.069  -0.404   1.641  0.00  0.00     0.074 A 
ATOM     26  C   UNL d   1      -0.998  -1.287   1.424  0.00  0.00     0.026 A 
ATOM     27  C   UNL d   1      -1.234  -2.323   2.332  0.00  0.00     0.018 A 
BRANCH  25  28
ATOM     28  S   UNL d   1       0.431   0.876   0.452  0.00  0.00     0.243 S 
ATOM     29  O   UNL d   1      -0.433   0.656  -0.683  0.00  0.00    -0.206 OA
ATOM     30  O   UNL d   1       1.872   0.902   0.288  0.00  0.00    -0.206 OA
BRANCH  28  31
ATOM     31  N   UNL d   1      -0.053   2.322   1.294  0.00  0.00    -0.206 NA
BRANCH  31  32
ATOM     32  C   UNL d   1       1.099   2.954   2.028  0.00  0.00     0.107 C 
BRANCH  32  33
ATOM     33  C   UNL d   1       0.773   4.185   2.876  0.00  0.00     0.011 C 
ATOM     34  C   UNL d   1      -0.280   3.947   3.942  0.00  0.00     0.006 C 
ENDBRANCH  32  33
ENDBRANCH  31  32
BRANCH  31  35
ATOM     35  C   UNL d   1      -0.873   3.271   0.481  0.00  0.00     0.107 C 
BRANCH  35  36
ATOM     36  C   UNL d   1      -2.315   2.801   0.262  0.00  0.00     0.011 C 
ATOM     37  C   UNL d   1      -3.057   2.440   1.539  0.00  0.00     0.006 C 
ENDBRANCH  35  36
ENDBRANCH  31  35
ENDBRANCH  28  31
ENDBRANCH  25  28
ENDBRANCH   2  22
TORSDOF 13
