REMARK  5 active torsions:
REMARK  status: ('A' for Active; 'I' for Inactive)
REMARK    1  A    between atoms: C_9  and  C_3 
REMARK    2  A    between atoms: C_18  and  C_6 
REMARK    3  A    between atoms: C_16  and  C_9 
REMARK    4  A    between atoms: C_10  and  S_13 
REMARK    5  A    between atoms: S_13  and  C_16 
ROOT
ATOM      1  C   UNL d   1      -0.138  -0.744  -0.085  0.00  0.00    -0.042 A 
ATOM      2  C   UNL d   1       0.716   0.370  -0.002  0.00  0.00    -0.043 A 
ATOM      3  C   UNL d   1       1.831  -2.247  -0.012  0.00  0.00     0.017 A 
ATOM      4  C   UNL d   1       0.441  -2.036  -0.044  0.00  0.00     0.024 A 
ATOM      5  C   UNL d   1       2.110   0.145  -0.011  0.00  0.00     0.016 A 
ATOM      6  C   UNL d   1       2.692  -1.135  -0.051  0.00  0.00    -0.044 A 
ATOM      7  C   UNL d   1      -1.664  -0.605  -0.155  0.00  0.00    -0.020 C 
ATOM      8  C   UNL d   1       0.197   1.813   0.068  0.00  0.00    -0.020 C 
ATOM      9  C   UNL d   1      -2.110   0.852  -0.427  0.00  0.00     0.015 C 
ATOM     10  C   UNL d   1      -1.317   1.867   0.374  0.00  0.00     0.015 C 
ATOM     11  C   UNL d   1       0.497   2.510  -1.278  0.00  0.00     0.020 C 
ATOM     12  C   UNL d   1      -2.268  -1.101   1.177  0.00  0.00     0.020 C 
ATOM     13  C   UNL d   1      -2.251  -1.452  -1.309  0.00  0.00     0.020 C 
ATOM     14  C   UNL d   1       0.886   2.619   1.197  0.00  0.00     0.020 C 
ENDROOT
BRANCH   3  15
ATOM     15  C   UNL d   1       2.364  -3.646   0.131  0.00  0.00     0.169 C 
ATOM     16  O   UNL d   1       3.383  -3.824   0.800  0.00  0.00    -0.291 OA
BRANCH  15  17
ATOM     17  C   UNL d   1       1.668  -4.777  -0.623  0.00  0.00     0.164 C 
BRANCH  17  18
ATOM     18  S   UNL d   1       1.902  -6.398   0.187  0.00  0.00    -0.104 SA
BRANCH  18  19
ATOM     19  C   UNL d   1       1.265  -6.013   1.807  0.00  0.00     0.069 A 
ATOM     20  N   UNL d   1       0.250  -5.118   1.886  0.00  0.00    -0.361 N 
ATOM     21  C   UNL d   1      -0.179  -4.795   3.122  0.00  0.00     0.089 A 
ATOM     22  HN  UNL d   1      -0.169  -4.710   1.050  1.00  0.00     0.165 HD
ATOM     23  C   UNL d   1       0.344  -5.325   4.290  0.00  0.00     0.017 A 
ATOM     24  C   UNL d   1       1.362  -6.266   4.185  0.00  0.00     0.004 A 
ATOM     25  C   UNL d   1       1.828  -6.623   2.922  0.00  0.00     0.037 A 
ENDBRANCH  18  19
ENDBRANCH  17  18
ENDBRANCH  15  17
ENDBRANCH   3  15
BRANCH   6  26
ATOM     26  C   UNL d   1       4.204  -1.281  -0.079  0.00  0.00     0.035 C 
ATOM     27  C   UNL d   1       4.983  -0.135  -0.726  0.00  0.00     0.010 C 
ENDBRANCH   6  26
TORSDOF 5
