REMARK  5 active torsions:
REMARK  status: ('A' for Active; 'I' for Inactive)
REMARK    1  A    between atoms: C_8  and  C_1 
REMARK    2  A    between atoms: C_9  and  C_2 
REMARK    3  A    between atoms: C_10  and  N_3 
REMARK    4  A    between atoms: O_15  and  C_8 
REMARK    5  A    between atoms: O_16  and  C_9 
ROOT
ATOM      1  C   UNL d   1      -0.286  -1.374   0.014  0.00  0.00     0.167 A 
ATOM      2  C   UNL d   1       0.940  -0.715   0.008  0.00  0.00     0.160 A 
ATOM      3  N   UNL d   1      -1.214  -0.354  -0.139  0.00  0.00    -0.234 N 
ATOM      4  N   UNL d   1      -0.567   0.820  -0.353  0.00  0.00    -0.234 N 
ATOM      5  HN  UNL d   1      -1.009   1.706  -0.600  1.00  0.00     0.209 HD
ATOM      6  N   UNL d   1       0.724   0.625  -0.188  0.00  0.00    -0.278 N 
ATOM      7  HN  UNL d   1       1.443   1.349  -0.204  1.00  0.00     0.189 HD
ENDROOT
BRANCH   3   8
ATOM      8  C   UNL d   1      -2.634  -0.341  -0.057  0.00  0.00     0.060 A 
ATOM      9  C   UNL d   1      -3.343  -1.286   0.693  0.00  0.00     0.055 A 
ATOM     10  C   UNL d   1      -4.737  -1.205   0.761  0.00  0.00     0.036 A 
ATOM     11 CL   UNL d   1      -5.610  -2.346   1.712  0.00  0.00    -0.084 Cl
ATOM     12  C   UNL d   1      -5.431  -0.201   0.088  0.00  0.00     0.024 A 
ATOM     13  C   UNL d   1      -4.729   0.749  -0.648  0.00  0.00     0.004 A 
ATOM     14  C   UNL d   1      -3.336   0.690  -0.708  0.00  0.00     0.032 A 
ENDBRANCH   3   8
BRANCH   1  15
ATOM     15  C   UNL d   1      -0.595  -2.770   0.021  0.00  0.00     0.314 C 
ATOM     16  O   UNL d   1      -1.523  -3.286  -0.588  0.00  0.00    -0.257 OA
BRANCH  15  17
ATOM     17  O   UNL d   1       0.260  -3.450   0.827  0.00  0.00    -0.321 OA
ATOM     18  C   UNL d   1       0.099  -4.870   0.789  0.00  0.00     0.213 C 
ENDBRANCH  15  17
ENDBRANCH   1  15
BRANCH   2  19
ATOM     19  C   UNL d   1       2.299  -1.242   0.069  0.00  0.00     0.313 C 
ATOM     20  O   UNL d   1       2.591  -2.431   0.016  0.00  0.00    -0.257 OA
BRANCH  19  21
ATOM     21  O   UNL d   1       3.221  -0.237   0.158  0.00  0.00    -0.321 OA
ATOM     22  C   UNL d   1       4.583  -0.661   0.182  0.00  0.00     0.213 C 
ENDBRANCH  19  21
ENDBRANCH   2  19
TORSDOF 5
