REMARK  5 active torsions:
REMARK  status: ('A' for Active; 'I' for Inactive)
REMARK    1  A    between atoms: N_3  and  C_1 
REMARK    2  A    between atoms: C_2  and  C_14 
REMARK       I    between atoms: C_6  and  N_3 
REMARK    3  A    between atoms: C_17  and  C_6 
REMARK    4  A    between atoms: S_13  and  C_17 
REMARK    5  A    between atoms: C_14  and  S_13 
ROOT
ATOM      1  N   UNL d   1       2.720  -0.812   0.012  0.00  0.00    -0.326 N 
ATOM      2  C   UNL d   1       3.877  -0.101   0.315  0.00  0.00     0.231 C 
ATOM      3  O   UNL d   1       3.901   1.054   0.752  0.00  0.00    -0.272 OA
ATOM      4  H   UNL d   1       2.804  -1.820   0.021  0.00  0.00     0.169 HD
ENDROOT
BRANCH   2   5
ATOM      5  C   UNL d   1       5.166  -0.887   0.148  0.00  0.00     0.177 C 
BRANCH   5   6
ATOM      6  S   UNL d   1       5.484  -1.373  -1.587  0.00  0.00    -0.155 SA
BRANCH   6   7
ATOM      7  C   UNL d   1       5.736   0.271  -2.343  0.00  0.00     0.116 C 
BRANCH   7   8
ATOM      8  C   UNL d   1       5.914   0.211  -3.848  0.00  0.00    -0.005 A 
ATOM      9  C   UNL d   1       4.806   0.185  -4.722  0.00  0.00     0.042 A 
ATOM     10 CL   UNL d   1       3.179   0.089  -4.157  0.00  0.00    -0.084 Cl
ATOM     11  C   UNL d   1       4.967   0.222  -6.115  0.00  0.00     0.024 A 
ATOM     12  C   UNL d   1       6.237   0.256  -6.674  0.00  0.00     0.003 A 
ATOM     13  C   UNL d   1       7.347   0.235  -5.838  0.00  0.00     0.024 A 
ATOM     14  C   UNL d   1       7.191   0.208  -4.442  0.00  0.00     0.042 A 
ATOM     15 CL   UNL d   1       8.644   0.170  -3.504  0.00  0.00    -0.084 Cl
ENDBRANCH   7   8
ENDBRANCH   6   7
ENDBRANCH   5   6
ENDBRANCH   2   5
BRANCH   1  16
ATOM     16  C   UNL d   1       1.407  -0.280   0.099  0.00  0.00     0.046 A 
ATOM     17  C   UNL d   1       1.032   0.910  -0.562  0.00  0.00    -0.034 A 
ATOM     18  C   UNL d   1      -0.307   1.343  -0.505  0.00  0.00     0.015 A 
ATOM     19  C   UNL d   1       1.935   1.755  -1.414  0.00  0.00     0.050 C 
ATOM     20  C   UNL d   1      -1.282   0.626   0.185  0.00  0.00    -0.061 A 
ATOM     21  C   UNL d   1      -0.909  -0.551   0.830  0.00  0.00     0.015 A 
ATOM     22  C   UNL d   1      -2.689   1.138   0.241  0.00  0.00     0.048 C 
ATOM     23  C   UNL d   1       0.424  -1.008   0.812  0.00  0.00    -0.034 A 
ATOM     24  C   UNL d   1       0.726  -2.240   1.624  0.00  0.00     0.050 C 
ENDBRANCH   1  16
TORSDOF 5
