REMARK  5 active torsions:
REMARK  status: ('A' for Active; 'I' for Inactive)
REMARK    1  A    between atoms: C_9  and  C_3 
REMARK    2  A    between atoms: C_22  and  C_6 
REMARK    3  A    between atoms: C_13  and  C_9 
REMARK    4  A    between atoms: S_12  and  C_13 
REMARK    5  A    between atoms: C_15  and  S_12 
ROOT
ATOM      1  C   UNL d   1       0.803   0.369  -0.090  0.00  0.00    -0.042 C 
ATOM      2  C   UNL d   1      -0.061  -0.739  -0.022  0.00  0.00    -0.043 C 
ATOM      3  C   UNL d   1       2.759  -1.151  -0.153  0.00  0.00     0.017 C 
ATOM      4  C   UNL d   1       2.195   0.136  -0.228  0.00  0.00     0.024 C 
ATOM      5  C   UNL d   1       0.517  -2.015   0.136  0.00  0.00     0.016 C 
ATOM      6  C   UNL d   1       1.909  -2.232   0.136  0.00  0.00    -0.044 C 
ATOM      7  C   UNL d   1       0.282   1.811  -0.011  0.00  0.00    -0.020 C 
ATOM      8  C   UNL d   1      -1.589  -0.609  -0.088  0.00  0.00    -0.020 C 
ATOM      9  C   UNL d   1      -2.037   0.840  -0.394  0.00  0.00     0.015 C 
ATOM     10  C   UNL d   1      -1.216   1.861   0.374  0.00  0.00     0.015 C 
ATOM     11  C   UNL d   1       0.503   2.520  -1.363  0.00  0.00     0.020 C 
ATOM     12  C   UNL d   1       1.032   2.598   1.091  0.00  0.00     0.020 C 
ATOM     13  C   UNL d   1      -2.216  -1.074   1.245  0.00  0.00     0.020 C 
ATOM     14  C   UNL d   1      -2.159  -1.489  -1.227  0.00  0.00     0.020 C 
ENDROOT
BRANCH   3  15
ATOM     15  C   UNL d   1       4.224  -1.362  -0.436  0.00  0.00     0.169 C 
ATOM     16  O   UNL d   1       4.614  -2.469  -0.814  0.00  0.00    -0.291 OA
BRANCH  15  17
ATOM     17  C   UNL d   1       5.216  -0.213  -0.388  0.00  0.00     0.163 C 
BRANCH  17  18
ATOM     18  S   UNL d   1       5.424   0.419   1.302  0.00  0.00    -0.122 SA
BRANCH  18  19
ATOM     19  C   UNL d   1       6.964   1.329   1.215  0.00  0.00     0.001 A 
ATOM     20  C   UNL d   1       7.602   1.723   0.030  0.00  0.00     0.020 A 
ATOM     21  C   UNL d   1       8.809   2.432   0.072  0.00  0.00     0.025 A 
ATOM     22  C   UNL d   1       9.384   2.763   1.296  0.00  0.00     0.034 A 
ATOM     23  C   UNL d   1       8.760   2.391   2.482  0.00  0.00     0.025 A 
ATOM     24 CL   UNL d   1      10.864   3.638   1.343  0.00  0.00    -0.084 Cl
ATOM     25  C   UNL d   1       7.557   1.679   2.438  0.00  0.00     0.020 A 
ENDBRANCH  18  19
ENDBRANCH  17  18
ENDBRANCH  15  17
ENDBRANCH   3  15
BRANCH   6  26
ATOM     26  C   UNL d   1       2.395  -3.614   0.519  0.00  0.00     0.035 C 
ATOM     27  C   UNL d   1       2.326  -4.633  -0.607  0.00  0.00     0.010 C 
ENDBRANCH   6  26
TORSDOF 5
