REMARK  6 active torsions:
REMARK  status: ('A' for Active; 'I' for Inactive)
REMARK    1  A    between atoms: C_12  and  N_4 
REMARK    2  A    between atoms: C_11  and  C_12 
REMARK       I    between atoms: N_19  and  C_11 
REMARK    3  A    between atoms: N_14  and  N_19 
REMARK    4  A    between atoms: O_28  and  C_16 
REMARK    5  A    between atoms: O_30  and  C_20 
REMARK    6  A    between atoms: C_25  and  C_24 
ROOT
ATOM      1  C   UNL d   1       5.465   1.275  -0.171  0.00  0.00     0.254 C 
ATOM      2  N   UNL d   1       6.286   1.112   0.934  0.00  0.00    -0.269 N 
ATOM      3  O   UNL d   1       5.700   0.849  -1.303  0.00  0.00    -0.270 OA
ATOM      4  H   UNL d   1       5.966   1.351   1.869  0.00  0.00     0.190 HD
ENDROOT
BRANCH   1   5
ATOM      5  C   UNL d   1       4.175   2.016   0.125  0.00  0.00     0.237 C 
BRANCH   5   6
ATOM      6  N   UNL d   1       3.052   1.104   0.207  0.00  0.00    -0.301 N 
ATOM      7  C   UNL d   1       2.576   0.728   1.464  0.00  0.00     0.262 C 
ATOM      8  C   UNL d   1       1.280   0.066   1.425  0.00  0.00     0.073 A 
ATOM      9  O   UNL d   1       3.184   0.967   2.504  0.00  0.00    -0.267 OA
ATOM     10  C   UNL d   1       0.711  -0.143   0.185  0.00  0.00     0.091 A 
ATOM     11  C   UNL d   1       0.455  -0.444   2.481  0.00  0.00    -0.026 A 
ATOM     12  N   UNL d   1       1.275   0.112  -1.024  0.00  0.00    -0.346 N 
ATOM     13  S   UNL d   1      -0.868  -0.775   0.295  0.00  0.00    -0.075 SA
ATOM     14  C   UNL d   1       2.416   0.715  -0.959  0.00  0.00     0.187 C 
ATOM     15  HN  UNL d   1       0.837  -0.150  -1.907  1.00  0.00     0.167 HD
ATOM     16  C   UNL d   1      -0.763  -0.878   1.986  0.00  0.00    -0.008 A 
ATOM     17  C   UNL d   1      -1.869  -1.455   2.811  0.00  0.00     0.051 C 
ATOM     18  C   UNL d   1      -1.270  -2.143   4.053  0.00  0.00    -0.014 C 
ATOM     19  C   UNL d   1      -0.332  -1.159   4.792  0.00  0.00     0.009 C 
ATOM     20  C   UNL d   1      -0.564  -3.450   3.671  0.00  0.00     0.010 C 
ATOM     21  C   UNL d   1       0.820  -0.599   3.932  0.00  0.00     0.041 C 
ENDBRANCH   5   6
ENDBRANCH   1   5
BRANCH   2  22
ATOM     22  N   UNL d   1       7.506   0.535   0.762  0.00  0.00    -0.308 N 
ATOM     23  C   UNL d   1       8.226   0.371   1.823  0.00  0.00     0.118 C 
ATOM     24  HN  UNL d   1       7.837   0.246  -0.159  1.00  0.00     0.186 HD
BRANCH  23  25
ATOM     25  C   UNL d   1       9.571  -0.237   1.741  0.00  0.00    -0.017 A 
ATOM     26  C   UNL d   1      10.319  -0.411   2.906  0.00  0.00     0.052 A 
ATOM     27  C   UNL d   1      11.602  -0.977   2.855  0.00  0.00     0.102 A 
ATOM     28  C   UNL d   1      12.121  -1.367   1.612  0.00  0.00     0.099 A 
ATOM     29  C   UNL d   1      11.369  -1.195   0.445  0.00  0.00     0.040 A 
ATOM     30  C   UNL d   1      10.096  -0.632   0.509  0.00  0.00     0.016 A 
BRANCH  27  31
ATOM     31  O   UNL d   1      12.187  -1.073   4.089  0.00  0.00    -0.353 OA
ATOM     32  C   UNL d   1      13.497  -1.614   4.175  0.00  0.00     0.210 C 
ENDBRANCH  27  31
BRANCH  28  33
ATOM     33  O   UNL d   1      13.366  -1.920   1.499  0.00  0.00    -0.358 OA
ATOM     34  H   UNL d   1      13.551  -2.103   0.562  0.00  0.00     0.217 HD
ENDBRANCH  28  33
ENDBRANCH  23  25
ENDBRANCH   2  22
TORSDOF 6
