REMARK  0 active torsions:
REMARK  status: ('A' for Active; 'I' for Inactive)
ROOT
ATOM      1  C   UNL d   1      -2.019   1.057  -0.004  0.00  0.00    -0.016 A 
ATOM      2  C   UNL d   1      -2.712   2.219   0.001  0.00  0.00     0.131 C 
ATOM      3  C   UNL d   1      -0.565   0.816  -0.005  0.00  0.00    -0.021 A 
ATOM      4  C   UNL d   1      -2.095   3.500   0.004  0.00  0.00     0.111 C 
ATOM      5  C   UNL d   1      -4.140   2.202   0.001  0.00  0.00     0.111 C 
ATOM      6  N   UNL d   1      -1.597   4.549   0.005  0.00  0.00    -0.191 NA
ATOM      7  N   UNL d   1      -5.300   2.164   0.001  0.00  0.00    -0.191 NA
ATOM      8  C   UNL d   1      -2.685  -0.316  -0.014  0.00  0.00     0.046 A 
ATOM      9  C   UNL d   1      -0.327  -0.562   0.004  0.00  0.00    -0.047 A 
ATOM     10  C   UNL d   1      -1.579  -1.373   0.025  0.00  0.00     0.044 A 
ATOM     11  C   UNL d   1       0.517   1.689  -0.015  0.00  0.00     0.012 A 
ATOM     12  C   UNL d   1       0.962  -1.085   0.003  0.00  0.00     0.008 A 
ATOM     13  C   UNL d   1       1.820   1.174  -0.015  0.00  0.00     0.001 A 
ATOM     14  C   UNL d   1       2.042  -0.206  -0.007  0.00  0.00     0.001 A 
ENDROOT
TORSDOF 0
