REMARK  4 active torsions:
REMARK  status: ('A' for Active; 'I' for Inactive)
REMARK    1  A    between atoms: C_6  and  C_1 
REMARK    2  A    between atoms: C_8  and  N_2 
REMARK    3  A    between atoms: C_9  and  C_4 
REMARK       I    between atoms: N_7  and  C_6 
REMARK    4  A    between atoms: C_12  and  N_7 
ROOT
ATOM      1  C   UNL d   1      -0.228   1.076  -0.002  0.00  0.00     0.057 C 
ATOM      2  N   UNL d   1       0.909  -0.885   0.182  0.00  0.00    -0.314 N 
ATOM      3  C   UNL d   1       1.016   0.502   0.255  0.00  0.00     0.029 C 
ATOM      4  C   UNL d   1      -0.451  -1.216   0.072  0.00  0.00     0.051 C 
ATOM      5  C   UNL d   1      -1.139  -0.016  -0.075  0.00  0.00     0.050 C 
ATOM      6  C   UNL d   1       2.295   1.199   0.617  0.00  0.00     0.070 C 
ENDROOT
BRANCH   1   7
ATOM      7  C   UNL d   1      -0.464   2.533  -0.119  0.00  0.00     0.258 C 
ATOM      8  N   UNL d   1      -1.793   2.904  -0.247  0.00  0.00    -0.323 N 
ATOM      9  H   UNL d   1      -2.473   2.161  -0.278  0.00  0.00     0.169 HD
ATOM     10  O   UNL d   1       0.477   3.319  -0.103  0.00  0.00    -0.267 OA
BRANCH   8  11
ATOM     11  C   UNL d   1      -2.314   4.219  -0.294  0.00  0.00     0.035 A 
ATOM     12  C   UNL d   1      -1.532   5.377  -0.232  0.00  0.00     0.029 A 
ATOM     13  C   UNL d   1      -2.128   6.644  -0.243  0.00  0.00     0.002 A 
ATOM     14  C   UNL d   1      -3.511   6.770  -0.317  0.00  0.00     0.000 A 
ATOM     15  C   UNL d   1      -4.304   5.627  -0.395  0.00  0.00     0.002 A 
ATOM     16  C   UNL d   1      -3.706   4.356  -0.386  0.00  0.00     0.029 A 
ENDBRANCH   8  11
ENDBRANCH   1   7
BRANCH   2  17
ATOM     17  C   UNL d   1       2.016  -1.789   0.141  0.00  0.00     0.039 A 
ATOM     18  C   UNL d   1       2.004  -2.987   0.864  0.00  0.00     0.030 A 
ATOM     19  C   UNL d   1       2.982  -3.955   0.625  0.00  0.00     0.002 A 
ATOM     20  C   UNL d   1       3.999  -3.711  -0.298  0.00  0.00     0.000 A 
ATOM     21  C   UNL d   1       4.058  -2.487  -0.963  0.00  0.00     0.002 A 
ATOM     22  C   UNL d   1       3.070  -1.525  -0.746  0.00  0.00     0.030 A 
ENDBRANCH   2  17
BRANCH   4  23
ATOM     23  C   UNL d   1      -1.029  -2.577   0.050  0.00  0.00    -0.009 A 
ATOM     24  C   UNL d   1      -0.467  -3.618  -0.703  0.00  0.00     0.014 A 
ATOM     25  C   UNL d   1      -0.900  -4.937  -0.540  0.00  0.00     0.001 A 
ATOM     26  C   UNL d   1      -1.969  -5.220   0.305  0.00  0.00     0.000 A 
ATOM     27  C   UNL d   1      -2.618  -4.180   0.966  0.00  0.00     0.001 A 
ATOM     28  C   UNL d   1      -2.148  -2.868   0.844  0.00  0.00     0.014 A 
ENDBRANCH   4  23
TORSDOF 4
