REMARK  6 active torsions:
REMARK  status: ('A' for Active; 'I' for Inactive)
REMARK    1  A    between atoms: C_16  and  N_3 
REMARK    2  A    between atoms: C_14  and  C_4 
REMARK    3  A    between atoms: C_12  and  C_5 
REMARK    4  A    between atoms: N_6  and  C_9 
REMARK       I    between atoms: C_8  and  N_17 
REMARK    5  A    between atoms: C_21  and  C_8 
REMARK    6  A    between atoms: N_17  and  N_10 
ROOT
ATOM      1  N   UNL d   1       0.909  -0.583   0.122  0.00  0.00    -0.292 N 
ATOM      2  HN  UNL d   1       1.731  -1.176   0.237  1.00  0.00     0.187 HD
ATOM      3  N   UNL d   1      -0.384  -0.985  -0.003  0.00  0.00    -0.266 N 
ATOM      4  C   UNL d   1      -0.460   1.231  -0.025  0.00  0.00     0.027 A 
ATOM      5  C   UNL d   1       0.879   0.758   0.062  0.00  0.00     0.072 A 
ATOM      6  C   UNL d   1      -1.230   0.092  -0.108  0.00  0.00     0.132 A 
ENDROOT
BRANCH   4   7
ATOM      7  C   UNL d   1      -0.947   2.589  -0.028  0.00  0.00     0.122 C 
ATOM      8  N   UNL d   1      -2.043   2.864  -0.652  0.00  0.00    -0.308 N 
ATOM      9  HN  UNL d   1      -2.597   2.143  -1.113  1.00  0.00     0.186 HD
BRANCH   8  10
ATOM     10  N   UNL d   1      -2.419   4.180  -0.658  0.00  0.00    -0.266 N 
ATOM     11  C   UNL d   1      -3.557   4.545  -1.360  0.00  0.00     0.270 C 
ATOM     12  O   UNL d   1      -4.274   3.770  -1.987  0.00  0.00    -0.266 OA
ATOM     13  H   UNL d   1      -1.919   4.844  -0.080  0.00  0.00     0.190 HD
BRANCH  11  14
ATOM     14  C   UNL d   1      -3.934   5.984  -1.314  0.00  0.00     0.036 A 
ATOM     15  C   UNL d   1      -3.001   7.010  -1.151  0.00  0.00     0.034 A 
ATOM     16  C   UNL d   1      -3.471   8.314  -1.141  0.00  0.00     0.088 A 
ATOM     17  N   UNL d   1      -4.772   8.645  -1.278  0.00  0.00    -0.375 N 
ATOM     18  C   UNL d   1      -5.650   7.635  -1.453  0.00  0.00     0.088 A 
ATOM     19  HN  UNL d   1      -5.079   9.617  -1.250  1.00  0.00     0.164 HD
ATOM     20  C   UNL d   1      -5.283   6.304  -1.481  0.00  0.00     0.034 A 
ENDBRANCH  11  14
ENDBRANCH   8  10
ENDBRANCH   4   7
BRANCH   5  21
ATOM     21  C   UNL d   1       2.117   1.548   0.090  0.00  0.00    -0.007 A 
ATOM     22  C   UNL d   1       3.238   1.094   0.803  0.00  0.00     0.016 A 
ATOM     23  C   UNL d   1       4.395   1.877   0.893  0.00  0.00     0.037 A 
ATOM     24  C   UNL d   1       4.434   3.128   0.265  0.00  0.00     0.102 A 
ATOM     25  C   UNL d   1       3.343   3.578  -0.486  0.00  0.00     0.037 A 
ATOM     26  C   UNL d   1       2.202   2.777  -0.587  0.00  0.00     0.016 A 
BRANCH  24  27
ATOM     27  N   UNL d   1       5.620   3.983   0.396  0.00  0.00    -0.116 N 
ATOM     28  O   UNL d   1       6.580   3.542   1.046  0.00  0.00    -0.532 OA
ATOM     29  O   UNL d   1       5.586   5.100  -0.138  0.00  0.00    -0.532 OA
ENDBRANCH  24  27
ENDBRANCH   5  21
BRANCH   3  30
ATOM     30  C   UNL d   1      -0.734  -2.367   0.005  0.00  0.00     0.056 A 
ATOM     31  C   UNL d   1       0.266  -3.338   0.168  0.00  0.00     0.031 A 
ATOM     32  C   UNL d   1      -0.066  -4.696   0.179  0.00  0.00     0.002 A 
ATOM     33  C   UNL d   1      -1.393  -5.095   0.026  0.00  0.00     0.000 A 
ATOM     34  C   UNL d   1      -2.391  -4.137  -0.136  0.00  0.00     0.002 A 
ATOM     35  C   UNL d   1      -2.067  -2.777  -0.146  0.00  0.00     0.031 A 
ENDBRANCH   3  30
TORSDOF 6
