REMARK  8 active torsions:
REMARK  status: ('A' for Active; 'I' for Inactive)
REMARK    1  A    between atoms: N_3  and  C_1 
REMARK    2  A    between atoms: C_9  and  C_2 
REMARK    3  A    between atoms: C_5  and  N_3 
REMARK    4  A    between atoms: N_8  and  C_5 
REMARK    5  A    between atoms: C_16  and  C_7 
REMARK    6  A    between atoms: O_19  and  C_9 
REMARK    7  A    between atoms: C_17  and  N_10 
REMARK    8  A    between atoms: C_24  and  O_19 
ROOT
ATOM      1  C   UNL d   1       0.069   1.315   0.317  0.00  0.00     0.093 C 
ATOM      2  C   UNL d   1       1.026   0.519  -0.279  0.00  0.00     0.074 C 
ATOM      3  S   UNL d   1      -1.190   0.387   1.019  0.00  0.00    -0.071 SA
ATOM      4  C   UNL d   1       0.805  -0.870   0.064  0.00  0.00     0.040 C 
ATOM      5  C   UNL d   1      -0.428  -1.093   0.640  0.00  0.00     0.018 C 
ENDROOT
BRANCH   1   6
ATOM      6  N   UNL d   1      -0.198   2.669   0.462  0.00  0.00    -0.327 N 
ATOM      7  H   UNL d   1      -1.192   2.848   0.358  0.00  0.00     0.169 HD
BRANCH   6   8
ATOM      8  C   UNL d   1       0.603   3.687   0.017  0.00  0.00     0.174 C 
ATOM      9  S   UNL d   1       0.090   4.519  -1.351  0.00  0.00    -0.041 SA
BRANCH   8  10
ATOM     10  N   UNL d   1       1.614   4.110   0.890  0.00  0.00    -0.355 N 
ATOM     11  C   UNL d   1       1.956   3.394   2.138  0.00  0.00     0.145 C 
ATOM     12  C   UNL d   1       2.514   4.291   3.276  0.00  0.00     0.143 C 
ATOM     13  N   UNL d   1       3.576   5.197   2.780  0.00  0.00    -0.378 N 
ATOM     14  C   UNL d   1       3.108   6.017   1.648  0.00  0.00     0.143 C 
ATOM     15  C   UNL d   1       2.612   5.126   0.493  0.00  0.00     0.145 C 
BRANCH  13  16
ATOM     16  C   UNL d   1       4.429   5.778   3.728  0.00  0.00     0.030 A 
ATOM     17  C   UNL d   1       4.771   7.144   3.726  0.00  0.00     0.029 A 
ATOM     18  C   UNL d   1       5.707   7.684   4.622  0.00  0.00     0.002 A 
ATOM     19  C   UNL d   1       6.331   6.869   5.556  0.00  0.00     0.000 A 
ATOM     20  C   UNL d   1       6.008   5.516   5.594  0.00  0.00     0.002 A 
ATOM     21  C   UNL d   1       5.077   4.988   4.695  0.00  0.00     0.029 A 
ENDBRANCH  13  16
ENDBRANCH   8  10
ENDBRANCH   6   8
ENDBRANCH   1   6
BRANCH   2  22
ATOM     22  C   UNL d   1       2.014   0.872  -1.288  0.00  0.00     0.296 C 
ATOM     23  O   UNL d   1       3.152   0.417  -1.296  0.00  0.00    -0.259 OA
BRANCH  22  24
ATOM     24  O   UNL d   1       1.405   1.432  -2.373  0.00  0.00    -0.318 OA
BRANCH  24  25
ATOM     25  C   UNL d   1       1.759   0.861  -3.643  0.00  0.00     0.174 C 
ATOM     26  C   UNL d   1       2.725   1.739  -4.407  0.00  0.00     0.034 C 
ENDBRANCH  24  25
ENDBRANCH  22  24
ENDBRANCH   2  22
BRANCH   5  27
ATOM     27  C   UNL d   1      -1.098  -2.378   0.878  0.00  0.00    -0.019 A 
ATOM     28  C   UNL d   1      -2.383  -2.623   0.367  0.00  0.00     0.013 A 
ATOM     29  C   UNL d   1      -2.982  -3.879   0.507  0.00  0.00     0.001 A 
ATOM     30  C   UNL d   1      -2.303  -4.904   1.161  0.00  0.00     0.000 A 
ATOM     31  C   UNL d   1      -1.029  -4.674   1.677  0.00  0.00     0.001 A 
ATOM     32  C   UNL d   1      -0.427  -3.419   1.533  0.00  0.00     0.013 A 
ENDBRANCH   5  27
TORSDOF 8
