REMARK  5 active torsions:
REMARK  status: ('A' for Active; 'I' for Inactive)
REMARK    1  A    between atoms: C_7  and  C_1 
REMARK    2  A    between atoms: N_2  and  C_6 
REMARK    3  A    between atoms: S_8  and  C_3 
REMARK    4  A    between atoms: C_5  and  S_8 
REMARK    5  A    between atoms: O_18  and  C_7 
ROOT
ATOM      1  C   UNL d   1       1.454  -0.127  -0.011  0.00  0.00     0.057 A 
ATOM      2  C   UNL d   1       0.659  -1.291   0.007  0.00  0.00     0.023 A 
ATOM      3  C   UNL d   1       0.842   1.142   0.046  0.00  0.00     0.055 A 
ATOM      4  C   UNL d   1      -0.552   1.249   0.107  0.00  0.00     0.104 A 
ATOM      5  C   UNL d   1      -0.738  -1.158   0.060  0.00  0.00     0.022 A 
ATOM      6  C   UNL d   1      -1.348   0.099   0.103  0.00  0.00     0.037 A 
ENDROOT
BRANCH   2   7
ATOM      7  S   UNL d   1       1.307  -2.954   0.129  0.00  0.00    -0.082 SA
BRANCH   7   8
ATOM      8  C   UNL d   1       1.370  -3.482  -1.555  0.00  0.00     0.046 A 
ATOM      9  S   UNL d   1       1.175  -2.474  -2.926  0.00  0.00    -0.095 SA
ATOM     10  C   UNL d   1       1.595  -3.731  -4.004  0.00  0.00     0.051 A 
ATOM     11  C   UNL d   1       1.827  -4.915  -3.344  0.00  0.00     0.009 A 
ATOM     12  C   UNL d   1       1.678  -4.775  -1.933  0.00  0.00     0.027 A 
ENDBRANCH   7   8
ENDBRANCH   2   7
BRANCH   1  13
ATOM     13  C   UNL d   1       2.940  -0.106  -0.014  0.00  0.00     0.177 C 
ATOM     14  O   UNL d   1       3.572   0.720   0.624  0.00  0.00    -0.646 OA
BRANCH  13  15
ATOM     15  O   UNL d   1       3.526  -0.974  -0.859  0.00  0.00    -0.773 OA
ATOM     16  H   UNL d   1       2.918  -1.560  -1.344  0.00  0.00     0.167 HD
ENDBRANCH  13  15
ENDBRANCH   1  13
BRANCH   4  17
ATOM     17  N   UNL d   1      -1.182   2.574   0.196  0.00  0.00    -0.116 N 
ATOM     18  O   UNL d   1      -0.440   3.564   0.206  0.00  0.00    -0.532 OA
ATOM     19  O   UNL d   1      -2.418   2.617   0.254  0.00  0.00    -0.532 OA
ENDBRANCH   4  17
TORSDOF 5
