REMARK  7 active torsions:
REMARK  status: ('A' for Active; 'I' for Inactive)
REMARK    1  A    between atoms: N_6  and  C_1 
REMARK    2  A    between atoms: N_8  and  C_1 
REMARK       I    between atoms: C_4  and  N_7 
REMARK    3  A    between atoms: C_15  and  C_4 
REMARK    4  A    between atoms: C_5  and  O_11 
REMARK    5  A    between atoms: N_7  and  N_6 
REMARK    6  A    between atoms: C_16  and  N_8 
REMARK    7  A    between atoms: O_11  and  C_15 
ROOT
ATOM      1  C   UNL d   1       0.285  -3.165   2.024  0.00  0.00     0.260 C 
ATOM      2  N   UNL d   1       1.099  -2.284   1.352  0.00  0.00    -0.266 N 
ATOM      3  O   UNL d   1      -0.941  -3.058   1.952  0.00  0.00    -0.269 OA
ATOM      4  H   UNL d   1       0.668  -1.467   0.925  0.00  0.00     0.190 HD
ENDROOT
BRANCH   1   5
ATOM      5  C   UNL d   1       0.951  -4.300   2.788  0.00  0.00     0.280 C 
BRANCH   5   6
ATOM      6  O   UNL d   1       1.777  -3.724   3.787  0.00  0.00    -0.341 OA
BRANCH   6   7
ATOM      7  C   UNL d   1       2.586  -4.550   4.505  0.00  0.00     0.076 A 
ATOM      8  C   UNL d   1       3.356  -3.932   5.480  0.00  0.00    -0.018 A 
ATOM      9  C   UNL d   1       4.229  -4.662   6.292  0.00  0.00    -0.043 A 
ATOM     10  C   UNL d   1       3.373  -2.474   5.820  0.00  0.00     0.042 A 
ATOM     11  C   UNL d   1       4.926  -3.781   7.277  0.00  0.00     0.040 A 
ATOM     12  C   UNL d   1       4.362  -6.039   6.139  0.00  0.00    -0.055 A 
ATOM     13  C   UNL d   1       4.383  -2.379   6.970  0.00  0.00     0.009 A 
ATOM     14  C   UNL d   1       3.589  -6.665   5.155  0.00  0.00     0.010 A 
ATOM     15  C   UNL d   1       5.297  -6.830   7.004  0.00  0.00     0.049 C 
ATOM     16  C   UNL d   1       2.703  -5.929   4.345  0.00  0.00     0.038 A 
ENDBRANCH   6   7
ENDBRANCH   5   6
ENDBRANCH   1   5
BRANCH   2  17
ATOM     17  N   UNL d   1       2.495  -2.357   1.346  0.00  0.00    -0.274 N 
ATOM     18  H   UNL d   1       2.920  -3.273   1.273  0.00  0.00     0.189 HD
BRANCH  17  19
ATOM     19  C   UNL d   1       3.277  -1.213   1.313  0.00  0.00     0.186 C 
ATOM     20  S   UNL d   1       2.690   0.321   1.640  0.00  0.00    -0.040 SA
BRANCH  19  21
ATOM     21  N   UNL d   1       4.575  -1.512   0.927  0.00  0.00    -0.361 N 
ATOM     22  H   UNL d   1       4.768  -2.486   0.746  0.00  0.00     0.162 HD
BRANCH  21  23
ATOM     23  C   UNL d   1       5.496  -0.570   0.274  0.00  0.00     0.083 C 
ATOM     24  C   UNL d   1       5.241  -0.556  -1.243  0.00  0.00     0.025 C 
ATOM     25  C   UNL d   1       5.757  -1.815  -1.943  0.00  0.00     0.002 C 
ATOM     26  C   UNL d   1       7.228  -2.066  -1.630  0.00  0.00     0.000 C 
ATOM     27  C   UNL d   1       7.474  -2.143  -0.127  0.00  0.00     0.002 C 
ATOM     28  C   UNL d   1       6.958  -0.901   0.596  0.00  0.00     0.025 C 
ENDBRANCH  21  23
ENDBRANCH  19  21
ENDBRANCH  17  19
ENDBRANCH   2  17
TORSDOF 7
