REMARK  4 active torsions:
REMARK  status: ('A' for Active; 'I' for Inactive)
REMARK    1  A    between atoms: C_2  and  C_1 
REMARK    2  A    between atoms: N_3  and  C_1 
REMARK    3  A    between atoms: C_6  and  N_3 
REMARK    4  A    between atoms: O_9  and  N_4 
ROOT
ATOM      1  C   UNL d   1       0.892   0.252  -2.483  0.00  0.00     0.063 C 
ATOM      2  C   UNL d   1       2.404   0.142  -2.775  0.00  0.00     0.044 C 
ATOM      3  C   UNL d   1       0.580   1.755  -2.355  0.00  0.00     0.044 C 
ENDROOT
BRANCH   1   4
ATOM      4  C   UNL d   1       0.593  -0.558  -1.197  0.00  0.00     0.033 C 
ATOM      5  N   UNL d   1       0.130   0.058  -0.144  0.00  0.00    -0.275 N 
ATOM      6  HN  UNL d   1      -0.039   1.063  -0.097  1.00  0.00     0.193 HD
ATOM      7  C   UNL d   1       0.861  -2.052  -1.209  0.00  0.00     0.068 C 
BRANCH   5   8
ATOM      8  O   UNL d   1      -0.106  -0.830   0.910  0.00  0.00    -0.290 OA
ATOM      9  H   UNL d   1      -0.555  -0.265   1.567  0.00  0.00     0.244 HD
ENDBRANCH   5   8
ENDBRANCH   1   4
BRANCH   1  10
ATOM     10  N   UNL d   1       0.165  -0.309  -3.647  0.00  0.00    -0.376 N 
ATOM     11  H   UNL d   1       0.694  -1.001  -4.172  0.00  0.00     0.160 HD
BRANCH  10  12
ATOM     12  C   UNL d   1      -1.207  -0.488  -3.764  0.00  0.00     0.030 A 
ATOM     13  C   UNL d   1      -2.151  -0.092  -2.811  0.00  0.00     0.052 A 
ATOM     14  C   UNL d   1      -3.522  -0.246  -3.040  0.00  0.00     0.036 A 
ATOM     15 CL   UNL d   1      -4.647   0.231  -1.826  0.00  0.00    -0.084 Cl
ATOM     16  C   UNL d   1      -3.989  -0.776  -4.238  0.00  0.00     0.024 A 
ATOM     17  C   UNL d   1      -3.072  -1.147  -5.215  0.00  0.00     0.004 A 
ATOM     18  C   UNL d   1      -1.701  -0.998  -4.978  0.00  0.00     0.029 A 
ENDBRANCH  10  12
ENDBRANCH   1  10
TORSDOF 4
