REMARK  3 active torsions:
REMARK  status: ('A' for Active; 'I' for Inactive)
REMARK    1  A    between atoms: C_2  and  C_1 
REMARK       I    between atoms: N_4  and  C_2 
REMARK    2  A    between atoms: C_8  and  C_14 
REMARK    3  A    between atoms: C_10  and  C_8 
ROOT
ATOM      1  C   UNL d   1      -1.412  -2.879   0.103  0.00  0.00     0.256 C 
ATOM      2  N   UNL d   1      -2.532  -3.714   0.052  0.00  0.00    -0.348 N 
ATOM      3  O   UNL d   1      -0.532  -3.012   0.952  0.00  0.00    -0.267 OA
ATOM      4  C   UNL d   1      -2.796  -4.602   1.183  0.00  0.00     0.127 C 
ATOM      5  C   UNL d   1      -3.498  -3.771  -1.045  0.00  0.00     0.127 C 
ATOM      6  C   UNL d   1      -4.010  -6.184  -0.377  0.00  0.00     0.064 C 
ATOM      7  C   UNL d   1      -2.954  -6.049   0.723  0.00  0.00     0.032 C 
ATOM      8  C   UNL d   1      -3.711  -5.205  -1.518  0.00  0.00     0.032 C 
ENDROOT
BRANCH   1   9
ATOM      9  C   UNL d   1      -1.294  -1.750  -0.858  0.00  0.00     0.066 A 
ATOM     10  C   UNL d   1      -0.085  -1.436  -1.461  0.00  0.00     0.092 A 
ATOM     11  O   UNL d   1       1.088  -2.132  -1.321  0.00  0.00    -0.339 OA
ATOM     12  C   UNL d   1       0.036  -0.330  -2.290  0.00  0.00    -0.021 A 
ATOM     13  C   UNL d   1       2.062  -1.461  -2.165  0.00  0.00     0.064 C 
ATOM     14  C   UNL d   1       2.440  -2.424  -3.295  0.00  0.00     0.046 C 
ATOM     15  C   UNL d   1       3.291  -1.159  -1.302  0.00  0.00     0.046 C 
ATOM     16  C   UNL d   1       1.442  -0.162  -2.720  0.00  0.00     0.079 C 
ATOM     17  C   UNL d   1      -1.047   0.489  -2.570  0.00  0.00     0.010 A 
ATOM     18  C   UNL d   1      -2.271   0.193  -1.973  0.00  0.00     0.002 A 
ATOM     19  C   UNL d   1      -2.387  -0.899  -1.100  0.00  0.00     0.020 A 
ENDBRANCH   1   9
BRANCH   6  20
ATOM     20  C   UNL d   1      -5.415  -5.988   0.204  0.00  0.00     0.163 C 
ATOM     21  O   UNL d   1      -5.959  -4.889   0.272  0.00  0.00    -0.292 OA
BRANCH  20  22
ATOM     22  C   UNL d   1      -6.149  -7.158   0.767  0.00  0.00     0.010 A 
ATOM     23  C   UNL d   1      -7.016  -6.940   1.850  0.00  0.00     0.017 A 
ATOM     24  C   UNL d   1      -7.796  -7.988   2.346  0.00  0.00     0.025 A 
ATOM     25  C   UNL d   1      -7.713  -9.247   1.758  0.00  0.00     0.034 A 
ATOM     26  C   UNL d   1      -6.842  -9.475   0.696  0.00  0.00     0.025 A 
ATOM     27 CL   UNL d   1      -8.717 -10.526   2.322  0.00  0.00    -0.084 Cl
ATOM     28  C   UNL d   1      -6.056  -8.428   0.199  0.00  0.00     0.017 A 
ENDBRANCH  20  22
ENDBRANCH   6  20
TORSDOF 3
