REMARK  4 active torsions:
REMARK  status: ('A' for Active; 'I' for Inactive)
REMARK       I    between atoms: N_3  and  C_1 
REMARK       I    between atoms: N_4  and  C_1 
REMARK    1  A    between atoms: C_2  and  C_5 
REMARK    2  A    between atoms: C_10  and  N_4 
REMARK    3  A    between atoms: C_7  and  N_6 
REMARK    4  A    between atoms: O_24  and  C_17 
ROOT
ATOM      1  C   UNL d   1       0.869  -0.314  -0.203  0.00  0.00     0.323 C 
ATOM      2  N   UNL d   1       0.343  -1.598  -0.030  0.00  0.00    -0.332 N 
ATOM      3  N   UNL d   1       1.810   0.071   0.721  0.00  0.00    -0.306 N 
ATOM      4  N   UNL d   1      -1.856  -3.550   0.465  0.00  0.00    -0.366 N 
ATOM      5  O   UNL d   1       0.542   0.389  -1.156  0.00  0.00    -0.247 OA
ATOM      6  C   UNL d   1      -0.535  -2.115  -1.097  0.00  0.00     0.147 C 
ATOM      7  C   UNL d   1      -1.922  -2.580  -0.631  0.00  0.00     0.144 C 
ATOM      8  C   UNL d   1      -0.236  -2.740   2.158  0.00  0.00     0.040 C 
ATOM      9  C   UNL d   1       0.732  -2.591   0.985  0.00  0.00     0.129 C 
ATOM     10  C   UNL d   1      -1.702  -2.990   1.804  0.00  0.00     0.126 C 
ATOM     11  H   UNL d   1       2.224  -0.642   1.295  0.00  0.00     0.171 HD
ENDROOT
BRANCH   3  12
ATOM     12  C   UNL d   1       2.611   1.231   0.627  0.00  0.00     0.069 A 
ATOM     13  C   UNL d   1       3.966   1.140   0.998  0.00  0.00     0.095 A 
ATOM     14  C   UNL d   1       4.745   2.293   1.091  0.00  0.00     0.039 A 
ATOM     15  C   UNL d   1       4.197   3.535   0.772  0.00  0.00     0.003 A 
ATOM     16  C   UNL d   1       2.872   3.619   0.342  0.00  0.00     0.002 A 
ATOM     17  C   UNL d   1       2.081   2.470   0.261  0.00  0.00     0.032 A 
BRANCH  13  18
ATOM     18  O   UNL d   1       4.584  -0.049   1.298  0.00  0.00    -0.354 OA
ATOM     19  C   UNL d   1       4.538  -0.997   0.223  0.00  0.00     0.210 C 
ENDBRANCH  13  18
ENDBRANCH   3  12
BRANCH   4  20
ATOM     20  C   UNL d   1      -1.955  -4.912   0.288  0.00  0.00     0.102 A 
ATOM     21  N   UNL d   1      -2.331  -5.670   1.339  0.00  0.00    -0.352 N 
ATOM     22  C   UNL d   1      -2.509  -7.007   1.168  0.00  0.00     0.106 A 
ATOM     23  HN  UNL d   1      -2.480  -5.244   2.253  1.00  0.00     0.166 HD
ATOM     24  C   UNL d   1      -2.283  -7.673  -0.021  0.00  0.00     0.063 A 
ATOM     25  C   UNL d   1      -1.839  -6.904  -1.092  0.00  0.00     0.021 A 
ATOM     26  C   UNL d   1      -1.687  -5.523  -0.937  0.00  0.00     0.049 A 
BRANCH  24  27
ATOM     27  C   UNL d   1      -2.502  -9.147  -0.143  0.00  0.00     0.418 C 
ATOM     28  F   UNL d   1      -3.024  -9.718   0.977  0.00  0.00    -0.166 F 
ATOM     29  F   UNL d   1      -3.356  -9.464  -1.155  0.00  0.00    -0.166 F 
ATOM     30  F   UNL d   1      -1.349  -9.824  -0.404  0.00  0.00    -0.166 F 
ENDBRANCH  24  27
ENDBRANCH   4  20
TORSDOF 4
