REMARK  5 active torsions:
REMARK  status: ('A' for Active; 'I' for Inactive)
REMARK    1  A    between atoms: N_2  and  C_1 
REMARK    2  A    between atoms: N_5  and  C_3 
REMARK    3  A    between atoms: C_4  and  C_7 
REMARK    4  A    between atoms: C_8  and  C_12 
REMARK    5  A    between atoms: C_17  and  C_8 
ROOT
ATOM      1  N   UNL d   1       0.909  -2.663   0.160  0.00  0.00    -0.379 N 
ATOM      2  C   UNL d   1       1.675  -5.413   0.691  0.00  0.00     0.064 C 
ATOM      3  C   UNL d   1       1.112  -3.570  -0.983  0.00  0.00     0.123 C 
ATOM      4  C   UNL d   1       1.801  -2.939   1.296  0.00  0.00     0.123 C 
ATOM      5  C   UNL d   1       0.871  -5.013  -0.552  0.00  0.00     0.032 C 
ATOM      6  C   UNL d   1       1.527  -4.362   1.799  0.00  0.00     0.032 C 
ENDROOT
BRANCH   1   7
ATOM      7  C   UNL d   1       0.564  -1.336  -0.126  0.00  0.00     0.063 A 
ATOM      8  C   UNL d   1      -0.187  -0.506   0.731  0.00  0.00     0.130 A 
ATOM      9  C   UNL d   1      -0.700   0.746   0.329  0.00  0.00     0.054 A 
ATOM     10  C   UNL d   1      -0.464   1.218  -0.967  0.00  0.00     0.050 A 
ATOM     11  C   UNL d   1       0.362   0.464  -1.802  0.00  0.00     0.018 A 
ATOM     12  C   UNL d   1       0.868  -0.774  -1.383  0.00  0.00     0.032 A 
BRANCH   8  13
ATOM     13  N   UNL d   1      -0.542  -0.924   2.075  0.00  0.00    -0.113 N 
ATOM     14  O   UNL d   1      -1.294  -1.900   2.207  0.00  0.00    -0.532 OA
ATOM     15  O   UNL d   1      -0.102  -0.230   3.003  0.00  0.00    -0.532 OA
ENDBRANCH   8  13
BRANCH  10  16
ATOM     16  C   UNL d   1      -1.111   2.478  -1.487  0.00  0.00     0.417 C 
ATOM     17  F   UNL d   1      -1.932   3.078  -0.583  0.00  0.00    -0.166 F 
ATOM     18  F   UNL d   1      -0.202   3.418  -1.859  0.00  0.00    -0.166 F 
ATOM     19  F   UNL d   1      -1.879   2.240  -2.587  0.00  0.00    -0.166 F 
ENDBRANCH  10  16
ENDBRANCH   1   7
BRANCH   2  20
ATOM     20  C   UNL d   1       3.148  -5.653   0.351  0.00  0.00     0.163 C 
ATOM     21  O   UNL d   1       3.689  -5.098  -0.604  0.00  0.00    -0.292 OA
BRANCH  20  22
ATOM     22  C   UNL d   1       3.971  -6.567   1.207  0.00  0.00     0.010 A 
ATOM     23  C   UNL d   1       3.449  -7.261   2.305  0.00  0.00     0.015 A 
ATOM     24  C   UNL d   1       4.268  -8.110   3.055  0.00  0.00     0.001 A 
ATOM     25  C   UNL d   1       5.611  -8.268   2.719  0.00  0.00     0.000 A 
ATOM     26  C   UNL d   1       6.140  -7.578   1.631  0.00  0.00     0.001 A 
ATOM     27  C   UNL d   1       5.325  -6.733   0.878  0.00  0.00     0.015 A 
ENDBRANCH  20  22
ENDBRANCH   2  20
TORSDOF 5
