REMARK  10 active torsions:
REMARK  status: ('A' for Active; 'I' for Inactive)
REMARK    1  A    between atoms: O_13  and  C_1 
REMARK    2  A    between atoms: O_15  and  C_2 
REMARK    3  A    between atoms: O_16  and  C_3 
REMARK    4  A    between atoms: C_4  and  C_14 
REMARK       I    between atoms: N_8  and  C_4 
REMARK    5  A    between atoms: C_5  and  C_12 
REMARK    6  A    between atoms: O_18  and  C_5 
REMARK    7  A    between atoms: C_12  and  N_8 
REMARK    8  A    between atoms: C_17  and  C_9 
REMARK    9  A    between atoms: C_14  and  C_17 
REMARK   10  A    between atoms: C_19  and  O_18 
ROOT
ATOM      1  C   UNL d   1       1.458  -0.700   0.247  0.00  0.00     0.135 A 
ATOM      2  C   UNL d   1       0.933   0.481   0.813  0.00  0.00     0.104 A 
ATOM      3  C   UNL d   1       0.612  -1.521  -0.515  0.00  0.00     0.104 A 
ATOM      4  C   UNL d   1      -0.442   0.740   0.735  0.00  0.00     0.047 A 
ATOM      5  C   UNL d   1      -0.748  -1.202  -0.644  0.00  0.00     0.047 A 
ATOM      6  C   UNL d   1      -1.300  -0.099   0.011  0.00  0.00    -0.052 A 
ENDROOT
BRANCH   6   7
ATOM      7  C   UNL d   1      -2.756   0.281  -0.118  0.00  0.00     0.048 C 
BRANCH   7   8
ATOM      8  C   UNL d   1      -3.760  -0.859  -0.273  0.00  0.00     0.107 C 
BRANCH   8   9
ATOM      9  C   UNL d   1      -3.730  -1.946   0.780  0.00  0.00     0.218 C 
ATOM     10  N   UNL d   1      -3.449  -1.564   2.063  0.00  0.00    -0.352 N 
ATOM     11  H   UNL d   1      -3.080  -0.643   2.266  0.00  0.00     0.162 HD
ATOM     12  O   UNL d   1      -4.040  -3.105   0.501  0.00  0.00    -0.274 OA
BRANCH  10  13
ATOM     13  C   UNL d   1      -3.444  -2.526   3.157  0.00  0.00     0.233 C 
BRANCH  13  14
ATOM     14  C   UNL d   1      -3.202  -1.880   4.514  0.00  0.00     0.276 C 
ATOM     15  O   UNL d   1      -3.256  -2.480   5.579  0.00  0.00    -0.263 OA
BRANCH  14  16
ATOM     16  O   UNL d   1      -2.972  -0.538   4.378  0.00  0.00    -0.321 OA
BRANCH  16  17
ATOM     17  C   UNL d   1      -3.138   0.238   5.571  0.00  0.00     0.174 C 
ATOM     18  C   UNL d   1      -4.606   0.610   5.678  0.00  0.00     0.034 C 
ENDBRANCH  16  17
ENDBRANCH  14  16
ENDBRANCH  13  14
ENDBRANCH  10  13
ENDBRANCH   8   9
ENDBRANCH   7   8
ENDBRANCH   6   7
BRANCH   3  19
ATOM     19  O   UNL d   1       0.982  -2.602  -1.274  0.00  0.00    -0.353 OA
ATOM     20  C   UNL d   1       1.911  -3.497  -0.678  0.00  0.00     0.210 C 
ENDBRANCH   3  19
BRANCH   2  21
ATOM     21  O   UNL d   1       1.820   1.357   1.393  0.00  0.00    -0.353 OA
ATOM     22  C   UNL d   1       1.401   2.712   1.505  0.00  0.00     0.210 C 
ENDBRANCH   2  21
BRANCH   1  23
ATOM     23  O   UNL d   1       2.804  -0.970   0.267  0.00  0.00    -0.351 OA
ATOM     24  C   UNL d   1       3.369  -1.078   1.574  0.00  0.00     0.210 C 
ENDBRANCH   1  23
TORSDOF 10
