REMARK  2 active torsions:
REMARK  status: ('A' for Active; 'I' for Inactive)
REMARK    1  A    between atoms: N_2  and  C_1 
REMARK    2  A    between atoms: C_11  and  C_4 
ROOT
ATOM      1  C   UNL d   1      -2.731  -1.659  -0.037  0.00  0.00     0.115 C 
ATOM      2  C   UNL d   1      -1.418  -1.721   0.209  0.00  0.00     0.049 C 
ATOM      3  C   UNL d   1      -3.466  -0.410  -0.393  0.00  0.00     0.218 C 
ATOM      4  O   UNL d   1      -2.753   0.790   0.007  0.00  0.00    -0.334 OA
ATOM      5  C   UNL d   1      -0.652  -0.471   0.089  0.00  0.00     0.011 A 
ATOM      6  C   UNL d   1      -1.383   0.728   0.017  0.00  0.00     0.081 A 
ATOM      7  C   UNL d   1       0.774  -0.436   0.060  0.00  0.00    -0.013 A 
ATOM      8  C   UNL d   1      -0.733   1.957  -0.013  0.00  0.00     0.038 A 
ATOM      9  C   UNL d   1       1.419   0.828  -0.002  0.00  0.00    -0.025 A 
ATOM     10  C   UNL d   1       0.658   2.004  -0.024  0.00  0.00     0.015 A 
ATOM     11  C   UNL d   1       1.607  -1.583   0.072  0.00  0.00     0.013 A 
ATOM     12  C   UNL d   1       2.821   0.906  -0.044  0.00  0.00     0.012 A 
ATOM     13  C   UNL d   1       3.000  -1.489   0.028  0.00  0.00     0.001 A 
ATOM     14  C   UNL d   1       3.607  -0.243  -0.029  0.00  0.00     0.001 A 
ENDROOT
BRANCH   3  15
ATOM     15  C   UNL d   1      -4.854  -0.258   0.211  0.00  0.00    -0.023 A 
ATOM     16  C   UNL d   1      -5.053  -0.239   1.601  0.00  0.00     0.010 A 
ATOM     17  C   UNL d   1      -6.341  -0.151   2.131  0.00  0.00     0.001 A 
ATOM     18  C   UNL d   1      -7.444  -0.070   1.280  0.00  0.00     0.000 A 
ATOM     19  C   UNL d   1      -7.260  -0.066  -0.100  0.00  0.00     0.001 A 
ATOM     20  C   UNL d   1      -5.974  -0.155  -0.632  0.00  0.00     0.010 A 
ENDBRANCH   3  15
BRANCH   1  21
ATOM     21  N   UNL d   1      -3.460  -2.906  -0.076  0.00  0.00    -0.117 N 
ATOM     22  O   UNL d   1      -3.083  -3.822   0.669  0.00  0.00    -0.532 OA
ATOM     23  O   UNL d   1      -4.393  -2.994  -0.884  0.00  0.00    -0.532 OA
ENDBRANCH   1  21
TORSDOF 2
