REMARK  2 active torsions:
REMARK  status: ('A' for Active; 'I' for Inactive)
REMARK    1  A    between atoms: C_7  and  C_1 
REMARK    2  A    between atoms: C_5  and  C_2 
ROOT
ATOM      1  C   UNL d   1       2.410   0.039   0.054  0.00  0.00     0.056 C 
ATOM      2  C   UNL d   1       2.829  -1.056  -0.619  0.00  0.00     0.042 C 
ATOM      3  C   UNL d   1       1.190   0.039   0.807  0.00  0.00     0.100 C 
ATOM      4  N   UNL d   1       0.187   0.072   1.394  0.00  0.00    -0.191 NA
ENDROOT
BRANCH   1   5
ATOM      5  C   UNL d   1       3.196   1.308   0.026  0.00  0.00    -0.015 A 
ATOM      6  C   UNL d   1       2.522   2.542   0.069  0.00  0.00     0.013 A 
ATOM      7  C   UNL d   1       3.220   3.753   0.099  0.00  0.00     0.007 A 
ATOM      8  C   UNL d   1       4.615   3.765   0.079  0.00  0.00    -0.062 A 
ATOM      9  C   UNL d   1       5.300   2.548   0.022  0.00  0.00     0.007 A 
ATOM     10  C   UNL d   1       5.347   5.072   0.137  0.00  0.00     0.048 C 
ATOM     11  C   UNL d   1       4.599   1.333   0.003  0.00  0.00     0.013 A 
ENDBRANCH   1   5
BRANCH   2  12
ATOM     12  C   UNL d   1       2.100  -2.285  -0.703  0.00  0.00     0.006 A 
ATOM     13  S   UNL d   1       2.958  -3.782  -0.708  0.00  0.00    -0.102 SA
ATOM     14  C   UNL d   1       1.521  -4.702  -0.798  0.00  0.00     0.050 A 
ATOM     15  C   UNL d   1       0.404  -3.905  -0.861  0.00  0.00     0.008 A 
ATOM     16  C   UNL d   1       0.740  -2.521  -0.835  0.00  0.00     0.019 A 
ENDBRANCH   2  12
TORSDOF 2
