REMARK  6 active torsions:
REMARK  status: ('A' for Active; 'I' for Inactive)
REMARK    1  A    between atoms: C_14  and  N_2 
REMARK    2  A    between atoms: N_13  and  C_4 
REMARK    3  A    between atoms: S_15  and  C_11 
REMARK    4  A    between atoms: C_18  and  N_13 
REMARK    5  A    between atoms: C_19  and  S_15 
REMARK    6  A    between atoms: C_17  and  C_19 
ROOT
ATOM      1  C   UNL d   1      -0.152  -0.718   0.035  0.00  0.00     0.144 A 
ATOM      2  N   UNL d   1      -1.480  -1.138   0.019  0.00  0.00    -0.239 N 
ATOM      3  C   UNL d   1      -0.170   0.666   0.035  0.00  0.00     0.071 A 
ATOM      4  C   UNL d   1       1.060   1.333   0.028  0.00  0.00     0.123 A 
ATOM      5  N   UNL d   1       0.959  -1.478   0.025  0.00  0.00    -0.321 N 
ATOM      6  HN  UNL d   1       0.940  -2.498   0.015  1.00  0.00     0.169 HD
ATOM      7  N   UNL d   1      -2.333  -0.066  -0.022  0.00  0.00    -0.302 N 
ATOM      8  HN  UNL d   1      -3.352  -0.080  -0.057  1.00  0.00     0.186 HD
ATOM      9  N   UNL d   1       2.185   0.574   0.013  0.00  0.00    -0.322 N 
ATOM     10  HN  UNL d   1       3.102   1.020  -0.012  1.00  0.00     0.169 HD
ATOM     11  C   UNL d   1       2.089  -0.766   0.031  0.00  0.00     0.147 A 
ATOM     12  C   UNL d   1      -1.532   0.999  -0.006  0.00  0.00     0.127 A 
ENDROOT
BRANCH   4  13
ATOM     13  N   UNL d   1       1.169   2.728   0.055  0.00  0.00    -0.342 N 
ATOM     14  H   UNL d   1       0.360   3.231   0.388  0.00  0.00     0.167 HD
BRANCH  13  15
ATOM     15  C   UNL d   1       2.156   3.529  -0.545  0.00  0.00     0.033 A 
ATOM     16  C   UNL d   1       2.910   3.089  -1.641  0.00  0.00     0.029 A 
ATOM     17  C   UNL d   1       3.914   3.886  -2.194  0.00  0.00     0.002 A 
ATOM     18  C   UNL d   1       4.200   5.128  -1.634  0.00  0.00     0.000 A 
ATOM     19  C   UNL d   1       3.473   5.575  -0.534  0.00  0.00     0.002 A 
ATOM     20  C   UNL d   1       2.454   4.782   0.004  0.00  0.00     0.029 A 
ENDBRANCH  13  15
ENDBRANCH   4  13
BRANCH  11  21
ATOM     21  S   UNL d   1       3.597  -1.708  -0.019  0.00  0.00    -0.086 SA
BRANCH  21  22
ATOM     22  C   UNL d   1       4.717  -0.543   0.802  0.00  0.00     0.160 C 
BRANCH  22  23
ATOM     23  C   UNL d   1       4.297  -0.217   2.224  0.00  0.00     0.132 C 
ATOM     24  O   UNL d   1       3.648  -0.983   2.938  0.00  0.00    -0.298 OA
ATOM     25  C   UNL d   1       4.804   1.092   2.773  0.00  0.00     0.091 C 
ENDBRANCH  22  23
ENDBRANCH  21  22
ENDBRANCH  11  21
BRANCH   2  26
ATOM     26  C   UNL d   1      -2.004  -2.468   0.029  0.00  0.00     0.058 A 
ATOM     27  C   UNL d   1      -1.174  -3.589   0.154  0.00  0.00     0.031 A 
ATOM     28  C   UNL d   1      -1.716  -4.877   0.158  0.00  0.00     0.002 A 
ATOM     29  C   UNL d   1      -3.092  -5.060   0.036  0.00  0.00     0.000 A 
ATOM     30  C   UNL d   1      -3.928  -3.952  -0.088  0.00  0.00     0.002 A 
ATOM     31  C   UNL d   1      -3.391  -2.663  -0.090  0.00  0.00     0.031 A 
ENDBRANCH   2  26
TORSDOF 6
