REMARK  6 active torsions:
REMARK  status: ('A' for Active; 'I' for Inactive)
REMARK    1  A    between atoms: N_2  and  C_1 
REMARK    2  A    between atoms: C_4  and  C_5 
REMARK    3  A    between atoms: C_17  and  N_8 
REMARK    4  A    between atoms: N_13  and  C_12 
REMARK    5  A    between atoms: C_24  and  N_13 
REMARK    6  A    between atoms: C_25  and  N_13 
ROOT
ATOM      1  N   UNL d   1      -2.027   2.240  -0.723  0.00  0.00    -0.297 N 
ATOM      2  HN  UNL d   1      -2.847   2.805  -0.945  1.00  0.00     0.187 HD
ATOM      3  N   UNL d   1      -0.976   2.703  -0.227  0.00  0.00    -0.300 N 
ATOM      4  HN  UNL d   1      -0.166   2.153   0.057  1.00  0.00     0.187 HD
ENDROOT
BRANCH   1   5
ATOM      5  C   UNL d   1      -1.950   0.849  -0.942  0.00  0.00     0.091 A 
ATOM      6  C   UNL d   1      -2.812  -0.022  -0.247  0.00  0.00     0.064 A 
ATOM      7  C   UNL d   1      -2.888  -1.387  -0.567  0.00  0.00     0.042 A 
ATOM      8 CL   UNL d   1      -3.849   0.560   1.011  0.00  0.00    -0.082 Cl
ATOM      9  C   UNL d   1      -2.102  -1.920  -1.595  0.00  0.00     0.051 A 
ATOM     10  C   UNL d   1      -1.207  -1.072  -2.262  0.00  0.00     0.042 A 
ATOM     11  C   UNL d   1      -1.138   0.292  -1.946  0.00  0.00     0.064 A 
ATOM     12 CL   UNL d   1      -0.058   1.260  -2.893  0.00  0.00    -0.082 Cl
BRANCH   9  13
ATOM     13  C   UNL d   1      -2.228  -3.363  -2.021  0.00  0.00     0.417 C 
ATOM     14  F   UNL d   1      -3.176  -4.052  -1.330  0.00  0.00    -0.166 F 
ATOM     15  F   UNL d   1      -2.564  -3.479  -3.335  0.00  0.00    -0.166 F 
ATOM     16  F   UNL d   1      -1.067  -4.054  -1.865  0.00  0.00    -0.166 F 
ENDBRANCH   9  13
ENDBRANCH   1   5
BRANCH   3  17
ATOM     17  C   UNL d   1      -1.087   4.105  -0.122  0.00  0.00     0.048 A 
ATOM     18  C   UNL d   1      -2.038   4.701   0.710  0.00  0.00     0.033 A 
ATOM     19  C   UNL d   1      -2.139   6.095   0.795  0.00  0.00     0.031 A 
ATOM     20  C   UNL d   1      -1.285   6.951   0.083  0.00  0.00     0.030 A 
ATOM     21  C   UNL d   1      -0.326   6.333  -0.734  0.00  0.00     0.031 A 
ATOM     22  C   UNL d   1      -0.229   4.936  -0.840  0.00  0.00     0.033 A 
BRANCH  20  23
ATOM     23  N   UNL d   1      -1.381   8.331   0.211  0.00  0.00    -0.382 N 
BRANCH  23  24
ATOM     24  C   UNL d   1      -2.699   8.967   0.310  0.00  0.00     0.118 C 
ATOM     25  C   UNL d   1      -2.974   9.449   1.726  0.00  0.00     0.026 C 
ENDBRANCH  23  24
BRANCH  23  26
ATOM     26  C   UNL d   1      -0.217   9.206   0.044  0.00  0.00     0.118 C 
ATOM     27  C   UNL d   1       0.784   9.006   1.175  0.00  0.00     0.026 C 
ENDBRANCH  23  26
ENDBRANCH  20  23
ENDBRANCH   3  17
TORSDOF 6
