REMARK  5 active torsions:
REMARK  status: ('A' for Active; 'I' for Inactive)
REMARK       I    between atoms: C_2  and  N_1 
REMARK    1  A    between atoms: C_5  and  N_1 
REMARK    2  A    between atoms: C_7  and  N_1 
REMARK    3  A    between atoms: C_6  and  C_2 
REMARK    4  A    between atoms: C_3  and  C_5 
REMARK    5  A    between atoms: C_14  and  C_7 
ROOT
ATOM      1  N   UNL d   1       0.838  -0.133  -0.376  0.00  0.00    -0.339 N 
ATOM      2  C   UNL d   1       0.044  -1.188  -0.835  0.00  0.00     0.254 C 
ATOM      3  O   UNL d   1      -1.183  -1.136  -0.894  0.00  0.00    -0.267 OA
ENDROOT
BRANCH   1   4
ATOM      4  C   UNL d   1       0.164   1.106   0.001  0.00  0.00     0.172 C 
BRANCH   4   5
ATOM      5  C   UNL d   1      -0.117   1.146   1.473  0.00  0.00     0.000 A 
ATOM      6  S   UNL d   1       0.666   2.297   2.475  0.00  0.00    -0.105 SA
ATOM      7  C   UNL d   1      -0.241   1.822   3.844  0.00  0.00     0.050 A 
ATOM      8  C   UNL d   1      -1.102   0.787   3.559  0.00  0.00     0.008 A 
ATOM      9  C   UNL d   1      -1.026   0.392   2.193  0.00  0.00     0.017 A 
ENDBRANCH   4   5
ENDBRANCH   1   4
BRANCH   1  10
ATOM     10  C   UNL d   1       2.303  -0.150  -0.271  0.00  0.00     0.165 C 
BRANCH  10  11
ATOM     11  C   UNL d   1       3.009  -0.365  -1.594  0.00  0.00    -0.040 A 
ATOM     12  C   UNL d   1       2.528   0.206  -2.782  0.00  0.00     0.010 A 
ATOM     13  C   UNL d   1       3.108  -0.118  -4.010  0.00  0.00     0.024 A 
ATOM     14  C   UNL d   1       4.197  -0.984  -4.054  0.00  0.00     0.034 A 
ATOM     15  C   UNL d   1       4.734  -1.502  -2.878  0.00  0.00     0.024 A 
ATOM     16 CL   UNL d   1       4.872  -1.433  -5.571  0.00  0.00    -0.084 Cl
ATOM     17  C   UNL d   1       4.148  -1.185  -1.650  0.00  0.00     0.010 A 
ENDBRANCH  10  11
ENDBRANCH   1  10
BRANCH   2  18
ATOM     18  C   UNL d   1       0.681  -2.409  -1.382  0.00  0.00     0.032 A 
ATOM     19  C   UNL d   1       1.440  -3.270  -0.585  0.00  0.00     0.018 A 
ATOM     20  C   UNL d   1       2.064  -4.376  -1.170  0.00  0.00     0.025 A 
ATOM     21  C   UNL d   1       1.907  -4.627  -2.536  0.00  0.00     0.034 A 
ATOM     22  C   UNL d   1       1.113  -3.795  -3.324  0.00  0.00     0.025 A 
ATOM     23 CL   UNL d   1       2.698  -5.976  -3.253  0.00  0.00    -0.084 Cl
ATOM     24  C   UNL d   1       0.490  -2.688  -2.742  0.00  0.00     0.018 A 
ENDBRANCH   2  18
TORSDOF 5
