REMARK  2 active torsions:
REMARK  status: ('A' for Active; 'I' for Inactive)
REMARK    1  A    between atoms: C_10  and  C_3 
REMARK    2  A    between atoms: C_9  and  C_5 
ROOT
ATOM      1  N   UNL d   1      -0.446   1.601  -0.799  0.00  0.00    -0.358 N 
ATOM      2  HN  UNL d   1      -0.267   2.164  -1.631  1.00  0.00     0.166 HD
ATOM      3  C   UNL d   1      -1.585   1.718  -0.183  0.00  0.00     0.021 C 
ATOM      4  S   UNL d   1      -1.187  -1.508  -0.436  0.00  0.00    -0.118 SA
ATOM      5  C   UNL d   1      -2.358  -0.555   0.633  0.00  0.00     0.091 C 
ATOM      6  C   UNL d   1      -1.964   0.872   1.020  0.00  0.00     0.078 C 
ATOM      7  C   UNL d   1       0.547   0.713  -0.340  0.00  0.00     0.049 A 
ATOM      8  C   UNL d   1       0.360  -0.670  -0.146  0.00  0.00     0.028 A 
ATOM      9  C   UNL d   1       1.822   1.254  -0.125  0.00  0.00     0.031 A 
ATOM     10  C   UNL d   1       1.447  -1.472   0.234  0.00  0.00     0.021 A 
ATOM     11  C   UNL d   1       2.705  -0.915   0.446  0.00  0.00     0.002 A 
ATOM     12  C   UNL d   1       2.895   0.452   0.271  0.00  0.00     0.002 A 
ENDROOT
BRANCH   5  13
ATOM     13  C   UNL d   1      -3.781  -0.645   0.080  0.00  0.00    -0.044 A 
ATOM     14  C   UNL d   1      -4.062  -0.478  -1.288  0.00  0.00     0.010 A 
ATOM     15  C   UNL d   1      -5.350  -0.686  -1.786  0.00  0.00     0.024 A 
ATOM     16  C   UNL d   1      -6.378  -1.038  -0.918  0.00  0.00     0.034 A 
ATOM     17  C   UNL d   1      -6.138  -1.142   0.449  0.00  0.00     0.024 A 
ATOM     18 CL   UNL d   1      -7.948  -1.369  -1.540  0.00  0.00    -0.084 Cl
ATOM     19  C   UNL d   1      -4.848  -0.935   0.948  0.00  0.00     0.010 A 
ENDBRANCH   5  13
BRANCH   3  20
ATOM     20  C   UNL d   1      -2.556   2.739  -0.684  0.00  0.00    -0.014 A 
ATOM     21  C   UNL d   1      -2.579   3.043  -2.051  0.00  0.00     0.013 A 
ATOM     22  C   UNL d   1      -3.433   4.036  -2.538  0.00  0.00     0.001 A 
ATOM     23  C   UNL d   1      -4.259   4.737  -1.661  0.00  0.00     0.000 A 
ATOM     24  C   UNL d   1      -4.244   4.438  -0.300  0.00  0.00     0.001 A 
ATOM     25  C   UNL d   1      -3.394   3.444   0.189  0.00  0.00     0.013 A 
ENDBRANCH   3  20
TORSDOF 2
