REMARK  4 active torsions:
REMARK  status: ('A' for Active; 'I' for Inactive)
REMARK    1  A    between atoms: C_2  and  C_1 
REMARK    2  A    between atoms: C_9  and  C_1 
REMARK    3  A    between atoms: O_8  and  N_4 
REMARK    4  A    between atoms: O_12  and  C_7 
ROOT
ATOM      1  C   UNL d   1       0.700  -1.255  -0.275  0.00  0.00     0.027 C 
ATOM      2  C   UNL d   1       1.426   0.064   0.151  0.00  0.00     0.023 C 
ATOM      3  N   UNL d   1       2.524   0.015   0.849  0.00  0.00    -0.276 N 
ATOM      4  HN  UNL d   1       2.962  -0.856   1.151  1.00  0.00     0.193 HD
ATOM      5  C   UNL d   1       0.583  -1.155  -1.826  0.00  0.00     0.020 C 
ATOM      6  C   UNL d   1       0.785   1.374  -0.314  0.00  0.00     0.056 C 
ATOM      7  C   UNL d   1      -0.091   0.126  -2.326  0.00  0.00     0.002 C 
ATOM      8  C   UNL d   1       0.639   1.368  -1.828  0.00  0.00     0.006 C 
ENDROOT
BRANCH   1   9
ATOM      9  C   UNL d   1       1.458  -2.534   0.186  0.00  0.00    -0.041 A 
ATOM     10  C   UNL d   1       1.682  -2.752   1.566  0.00  0.00     0.045 A 
ATOM     11  C   UNL d   1       2.237  -3.939   2.048  0.00  0.00     0.068 A 
ATOM     12  C   UNL d   1       2.605  -4.931   1.143  0.00  0.00     0.037 A 
ATOM     13  C   UNL d   1       2.425  -4.736  -0.224  0.00  0.00     0.003 A 
ATOM     14  C   UNL d   1       1.857  -3.550  -0.699  0.00  0.00     0.008 A 
BRANCH  11  15
ATOM     15  O   UNL d   1       2.447  -4.249   3.364  0.00  0.00    -0.356 OA
ATOM     16  C   UNL d   1       2.057  -3.272   4.321  0.00  0.00     0.210 C 
ENDBRANCH  11  15
ENDBRANCH   1   9
BRANCH   1  17
ATOM     17  C   UNL d   1      -0.717  -1.284   0.393  0.00  0.00     0.016 C 
ATOM     18  C   UNL d   1      -1.607  -2.458  -0.013  0.00  0.00     0.006 C 
ENDBRANCH   1  17
BRANCH   3  19
ATOM     19  O   UNL d   1       3.040   1.280   1.141  0.00  0.00    -0.290 OA
ATOM     20  H   UNL d   1       3.864   1.064   1.615  0.00  0.00     0.244 HD
ENDBRANCH   3  19
TORSDOF 4
