REMARK  8 active torsions:
REMARK  status: ('A' for Active; 'I' for Inactive)
REMARK    1  A    between atoms: C_1  and  O_5 
REMARK    2  A    between atoms: S_2  and  O_5 
REMARK    3  A    between atoms: C_14  and  S_2 
REMARK    4  A    between atoms: C_3  and  O_10 
REMARK    5  A    between atoms: C_7  and  O_23 
REMARK    6  A    between atoms: C_12  and  O_10 
REMARK    7  A    between atoms: C_20  and  C_11 
REMARK    8  A    between atoms: C_19  and  C_12 
ROOT
ATOM      1  C   UNL d   1      -1.286   1.683  -0.285  0.00  0.00     0.208 C 
ATOM      2  C   UNL d   1      -2.609   0.866  -0.165  0.00  0.00     0.220 C 
ATOM      3  C   UNL d   1      -0.123   0.819   0.286  0.00  0.00     0.189 C 
ATOM      4  O   UNL d   1       1.139   1.435   0.076  0.00  0.00    -0.346 OA
ATOM      5  C   UNL d   1      -2.424  -0.579  -0.724  0.00  0.00     0.291 C 
ATOM      6  C   UNL d   1      -0.107  -0.536  -0.401  0.00  0.00     0.180 C 
ATOM      7  O   UNL d   1      -1.311  -1.241  -0.134  0.00  0.00    -0.348 OA
ATOM      8  C   UNL d   1       2.255   0.673   0.539  0.00  0.00     0.295 C 
ATOM      9  O   UNL d   1       2.299  -0.608  -0.101  0.00  0.00    -0.354 OA
ATOM     10  C   UNL d   1       1.091  -1.341   0.073  0.00  0.00     0.206 C 
ENDROOT
BRANCH   1  11
ATOM     11  O   UNL d   1      -1.364   2.921   0.465  0.00  0.00    -0.261 OA
BRANCH  11  12
ATOM     12  S   UNL d   1      -0.457   4.190  -0.050  0.00  0.00     0.298 S 
ATOM     13  O   UNL d   1       0.934   3.943   0.254  0.00  0.00    -0.193 OA
ATOM     14  O   UNL d   1      -0.876   4.526  -1.399  0.00  0.00    -0.193 OA
BRANCH  12  15
ATOM     15  C   UNL d   1      -0.883   5.593   0.965  0.00  0.00     0.086 A 
ATOM     16  C   UNL d   1       0.156   6.388   1.475  0.00  0.00     0.026 A 
ATOM     17  C   UNL d   1      -0.138   7.553   2.180  0.00  0.00     0.008 A 
ATOM     18  C   UNL d   1      -1.468   7.934   2.382  0.00  0.00    -0.062 A 
ATOM     19  C   UNL d   1      -2.499   7.120   1.885  0.00  0.00     0.008 A 
ATOM     20  C   UNL d   1      -1.760   9.227   3.089  0.00  0.00     0.048 C 
ATOM     21  C   UNL d   1      -2.213   5.943   1.180  0.00  0.00     0.026 A 
ENDBRANCH  12  15
ENDBRANCH  11  12
ENDBRANCH   1  11
BRANCH   2  22
ATOM     22  O   UNL d   1      -3.741   1.407  -0.901  0.00  0.00    -0.304 OA
BRANCH  22  23
ATOM     23  C   UNL d   1      -4.652   2.135  -0.217  0.00  0.00     0.293 C 
ATOM     24  O   UNL d   1      -4.441   2.763   0.806  0.00  0.00    -0.259 OA
BRANCH  23  25
ATOM     25  C   UNL d   1      -6.002   1.996  -0.834  0.00  0.00     0.039 A 
ATOM     26  C   UNL d   1      -6.883   3.083  -0.787  0.00  0.00     0.017 A 
ATOM     27  C   UNL d   1      -8.198   2.947  -1.249  0.00  0.00     0.001 A 
ATOM     28  C   UNL d   1      -8.643   1.720  -1.738  0.00  0.00     0.000 A 
ATOM     29  C   UNL d   1      -7.774   0.631  -1.785  0.00  0.00     0.001 A 
ATOM     30  C   UNL d   1      -6.453   0.768  -1.341  0.00  0.00     0.017 A 
ENDBRANCH  23  25
ENDBRANCH  22  23
ENDBRANCH   2  22
BRANCH   5  31
ATOM     31  O   UNL d   1      -2.320  -0.548  -2.154  0.00  0.00    -0.363 OA
ATOM     32  C   UNL d   1      -2.095  -1.833  -2.724  0.00  0.00     0.204 C 
ENDBRANCH   5  31
BRANCH   8  33
ATOM     33  C   UNL d   1       2.403   0.587   2.056  0.00  0.00    -0.004 A 
ATOM     34  C   UNL d   1       3.013  -0.530   2.655  0.00  0.00     0.012 A 
ATOM     35  C   UNL d   1       3.141  -0.625   4.041  0.00  0.00     0.001 A 
ATOM     36  C   UNL d   1       2.692   0.413   4.852  0.00  0.00     0.000 A 
ATOM     37  C   UNL d   1       2.131   1.551   4.275  0.00  0.00     0.001 A 
ATOM     38  C   UNL d   1       1.996   1.642   2.887  0.00  0.00     0.012 A 
ENDBRANCH   8  33
TORSDOF 8
