REMARK  1 active torsions:
REMARK  status: ('A' for Active; 'I' for Inactive)
REMARK       I    between atoms: C_5  and  N_6 
REMARK    1  A    between atoms: N_6  and  C_8 
ROOT
ATOM      1  C   UNL d   1      -0.036   0.464  -0.044  0.00  0.00     0.016 A 
ATOM      2  C   UNL d   1      -0.490  -0.863  -0.031  0.00  0.00    -0.042 A 
ATOM      3  C   UNL d   1       1.417   0.769  -0.140  0.00  0.00     0.160 C 
ATOM      4  C   UNL d   1      -0.950   1.519   0.004  0.00  0.00     0.018 A 
ATOM      5  C   UNL d   1      -1.877  -1.105  -0.018  0.00  0.00     0.037 A 
ATOM      6  C   UNL d   1      -2.801  -0.049   0.007  0.00  0.00     0.035 A 
ATOM      7  O   UNL d   1       1.818   1.929  -0.105  0.00  0.00    -0.292 OA
ATOM      8  C   UNL d   1      -2.324   1.262   0.032  0.00  0.00     0.030 A 
ATOM      9  C   UNL d   1       0.472  -2.022  -0.087  0.00  0.00     0.040 C 
ATOM     10  C   UNL d   1       2.356  -0.390  -0.367  0.00  0.00     0.084 C 
ATOM     11  C   UNL d   1       1.874  -1.628   0.370  0.00  0.00     0.012 C 
ENDROOT
BRANCH   6  12
ATOM     12  N   UNL d   1      -4.174  -0.382  -0.009  0.00  0.00    -0.328 N 
ATOM     13  C   UNL d   1      -5.247   0.494  -0.014  0.00  0.00     0.218 C 
ATOM     14  O   UNL d   1      -5.197   1.718   0.019  0.00  0.00    -0.274 OA
ATOM     15  C   UNL d   1      -6.585  -0.202  -0.072  0.00  0.00     0.117 C 
ATOM     16  H   UNL d   1      -4.389  -1.370  -0.035  0.00  0.00     0.169 HD
ENDBRANCH   6  12
TORSDOF 1
