REMARK  8 active torsions:
REMARK  status: ('A' for Active; 'I' for Inactive)
REMARK    1  A    between atoms: C_3  and  C_14 
REMARK    2  A    between atoms: C_4  and  C_15 
REMARK    3  A    between atoms: C_8  and  C_5 
REMARK    4  A    between atoms: O_13  and  C_6 
REMARK    5  A    between atoms: O_12  and  C_7 
REMARK    6  A    between atoms: O_22  and  C_8 
REMARK    7  A    between atoms: C_14  and  O_12 
REMARK    8  A    between atoms: C_15  and  O_13 
ROOT
ATOM      1  N   UNL d   1      -1.263   0.011  -0.087  0.00  0.00    -0.318 N 
ATOM      2  HN  UNL d   1      -2.281  -0.012  -0.137  1.00  0.00     0.170 HD
ATOM      3  C   UNL d   1       1.507   0.058   0.014  0.00  0.00     0.047 A 
ATOM      4  C   UNL d   1      -0.543  -1.123  -0.062  0.00  0.00     0.145 A 
ATOM      5  C   UNL d   1      -0.595   1.179  -0.043  0.00  0.00     0.145 A 
ATOM      6  C   UNL d   1       0.786   1.256   0.011  0.00  0.00     0.074 A 
ATOM      7  C   UNL d   1       0.832  -1.160   0.006  0.00  0.00     0.074 A 
ENDROOT
BRANCH   4   8
ATOM      8  O   UNL d   1      -1.200  -2.333  -0.107  0.00  0.00    -0.327 OA
BRANCH   8   9
ATOM      9  C   UNL d   1      -2.540  -2.221  -0.614  0.00  0.00     0.294 C 
BRANCH   9  10
ATOM     10  C   UNL d   1      -3.587  -1.792   0.410  0.00  0.00     0.408 C 
ATOM     11  F   UNL d   1      -3.088  -1.619   1.653  0.00  0.00    -0.169 F 
ATOM     12  F   UNL d   1      -4.211  -0.650   0.042  0.00  0.00    -0.169 F 
ATOM     13  F   UNL d   1      -4.552  -2.744   0.507  0.00  0.00    -0.169 F 
ENDBRANCH   9  10
ENDBRANCH   8   9
ENDBRANCH   4   8
BRANCH   5  14
ATOM     14  O   UNL d   1      -1.425   2.259  -0.015  0.00  0.00    -0.327 OA
BRANCH  14  15
ATOM     15  C   UNL d   1      -0.958   3.429  -0.691  0.00  0.00     0.294 C 
BRANCH  15  16
ATOM     16  C   UNL d   1      -2.122   4.247  -1.246  0.00  0.00     0.408 C 
ATOM     17  F   UNL d   1      -3.328   3.705  -0.986  0.00  0.00    -0.169 F 
ATOM     18  F   UNL d   1      -2.116   5.500  -0.729  0.00  0.00    -0.169 F 
ATOM     19  F   UNL d   1      -2.013   4.372  -2.592  0.00  0.00    -0.169 F 
ENDBRANCH  15  16
ENDBRANCH  14  15
ENDBRANCH   5  14
BRANCH   3  20
ATOM     20  C   UNL d   1       2.988   0.033   0.017  0.00  0.00     0.293 C 
ATOM     21  O   UNL d   1       3.645  -0.929   0.380  0.00  0.00    -0.259 OA
BRANCH  20  22
ATOM     22  O   UNL d   1       3.470   1.185  -0.509  0.00  0.00    -0.323 OA
ATOM     23  C   UNL d   1       4.893   1.207  -0.643  0.00  0.00     0.213 C 
ENDBRANCH  20  22
ENDBRANCH   3  20
TORSDOF 8
