REMARK  7 active torsions:
REMARK  status: ('A' for Active; 'I' for Inactive)
REMARK       I    between atoms: N_4  and  C_1 
REMARK    1  A    between atoms: C_17  and  C_1 
REMARK       I    between atoms: C_2  and  N_3 
REMARK    2  A    between atoms: N_3  and  C_10 
REMARK    3  A    between atoms: C_11  and  N_4 
REMARK    4  A    between atoms: C_5  and  C_18 
REMARK    5  A    between atoms: O_12  and  C_5 
REMARK    6  A    between atoms: S_9  and  C_17 
REMARK    7  A    between atoms: C_18  and  S_9 
ROOT
ATOM      1  C   UNL d   1       2.074   3.466  -3.682  0.00  0.00     0.034 A 
ATOM      2  C   UNL d   1       0.838   1.855  -1.716  0.00  0.00     0.034 A 
ATOM      3  C   UNL d   1       2.472   2.143  -3.497  0.00  0.00     0.032 A 
ATOM      4  C   UNL d   1       0.427   3.173  -1.915  0.00  0.00     0.032 A 
ATOM      5  C   UNL d   1       1.041   3.971  -2.887  0.00  0.00     0.032 A 
ATOM      6  C   UNL d   1       1.868   1.348  -2.514  0.00  0.00     0.032 A 
ENDROOT
BRANCH   2   7
ATOM      7  N   UNL d   1       0.301   1.014  -0.720  0.00  0.00    -0.327 N 
ATOM      8  C   UNL d   1      -0.866   1.226  -0.012  0.00  0.00     0.231 C 
ATOM      9  O   UNL d   1      -1.709   2.089  -0.266  0.00  0.00    -0.272 OA
ATOM     10  H   UNL d   1       0.793   0.141  -0.567  0.00  0.00     0.169 HD
BRANCH   8  11
ATOM     11  C   UNL d   1      -1.085   0.256   1.143  0.00  0.00     0.177 C 
BRANCH  11  12
ATOM     12  S   UNL d   1      -1.150   1.123   2.749  0.00  0.00    -0.149 SA
BRANCH  12  13
ATOM     13  C   UNL d   1      -2.547   2.278   2.517  0.00  0.00     0.184 C 
BRANCH  13  14
ATOM     14  C   UNL d   1      -3.819   1.595   2.066  0.00  0.00     0.149 C 
ATOM     15  O   UNL d   1      -4.610   1.053   2.826  0.00  0.00    -0.649 OA
BRANCH  14  16
ATOM     16  O   UNL d   1      -4.014   1.608   0.727  0.00  0.00    -0.776 OA
ATOM     17  H   UNL d   1      -3.277   2.029   0.217  0.00  0.00     0.167 HD
ENDBRANCH  14  16
ENDBRANCH  13  14
ENDBRANCH  12  13
ENDBRANCH  11  12
ENDBRANCH   8  11
ENDBRANCH   2   7
BRANCH   1  18
ATOM     18  N   UNL d   1       2.662   4.351  -4.609  0.00  0.00    -0.328 N 
ATOM     19  C   UNL d   1       3.715   4.094  -5.466  0.00  0.00     0.218 C 
ATOM     20  O   UNL d   1       4.303   3.026  -5.607  0.00  0.00    -0.274 OA
ATOM     21  C   UNL d   1       4.141   5.306  -6.259  0.00  0.00     0.117 C 
ATOM     22  H   UNL d   1       2.280   5.289  -4.622  0.00  0.00     0.169 HD
ENDBRANCH   1  18
TORSDOF 7
