REMARK  3 active torsions:
REMARK  status: ('A' for Active; 'I' for Inactive)
REMARK    1  A    between atoms: C_3  and  C_1 
REMARK       I    between atoms: N_5  and  C_3 
REMARK    2  A    between atoms: C_18  and  N_5 
REMARK    3  A    between atoms: C_8  and  C_18 
ROOT
ATOM      1  C   UNL d   1       0.377   1.655   0.098  0.00  0.00     0.069 A 
ATOM      2  C   UNL d   1      -0.601   0.653   0.024  0.00  0.00     0.096 A 
ATOM      3  C   UNL d   1      -0.212  -0.705  -0.042  0.00  0.00     0.003 A 
ATOM      4  C   UNL d   1       1.736   1.266   0.071  0.00  0.00     0.062 A 
ATOM      5  O   UNL d   1      -1.928   0.997   0.026  0.00  0.00    -0.325 OA
ATOM      6  C   UNL d   1       1.144  -1.058  -0.077  0.00  0.00     0.054 A 
ATOM      7  C   UNL d   1       2.104  -0.067  -0.021  0.00  0.00     0.118 A 
ATOM      8  O   UNL d   1      -2.511  -1.303   0.286  0.00  0.00    -0.362 OA
ATOM      9  C   UNL d   1      -2.784  -0.078  -0.380  0.00  0.00     0.345 C 
ATOM     10  C   UNL d   1      -1.242  -1.793  -0.117  0.00  0.00     0.212 C 
ATOM     11  F   UNL d   1       3.401  -0.396  -0.061  0.00  0.00    -0.206 F 
ENDROOT
BRANCH   1  12
ATOM     12  C   UNL d   1       0.167   3.130   0.171  0.00  0.00     0.254 C 
ATOM     13  N   UNL d   1      -1.092   3.718   0.189  0.00  0.00    -0.351 N 
ATOM     14  H   UNL d   1      -1.951   3.180   0.174  0.00  0.00     0.163 HD
ATOM     15  O   UNL d   1       1.170   3.846   0.205  0.00  0.00    -0.268 OA
BRANCH  13  16
ATOM     16  C   UNL d   1      -1.088   5.166   0.208  0.00  0.00     0.187 C 
BRANCH  16  17
ATOM     17  C   UNL d   1      -2.382   5.886   0.248  0.00  0.00     0.070 A 
ATOM     18  O   UNL d   1      -3.565   5.211   0.264  0.00  0.00    -0.325 OA
ATOM     19  C   UNL d   1      -4.547   6.161   0.306  0.00  0.00     0.142 A 
ATOM     20  C   UNL d   1      -4.011   7.428   0.313  0.00  0.00     0.027 A 
ATOM     21  C   UNL d   1      -2.615   7.251   0.276  0.00  0.00     0.036 A 
ENDBRANCH  16  17
ENDBRANCH  13  16
ENDBRANCH   1  12
TORSDOF 3
