REMARK  2 active torsions:
REMARK  status: ('A' for Active; 'I' for Inactive)
REMARK    1  A    between atoms: C_6  and  C_1 
REMARK    2  A    between atoms: C_7  and  C_2 
ROOT
ATOM      1  C   UNL d   1       1.208  -0.173   0.027  0.00  0.00    -0.044 A 
ATOM      2  C   UNL d   1      -1.137  -0.405  -0.015  0.00  0.00    -0.044 A 
ATOM      3  C   UNL d   1       0.629   1.043   0.017  0.00  0.00     0.009 A 
ATOM      4  C   UNL d   1      -0.808   0.900   0.000  0.00  0.00     0.009 A 
ATOM      5  C   UNL d   1       0.129  -1.231  -0.005  0.00  0.00     0.078 A 
ENDROOT
BRANCH   1   6
ATOM      6  C   UNL d   1       2.644  -0.466   0.053  0.00  0.00    -0.030 A 
ATOM      7  C   UNL d   1       3.549   0.436   0.634  0.00  0.00     0.012 A 
ATOM      8  C   UNL d   1       4.918   0.156   0.683  0.00  0.00     0.001 A 
ATOM      9  C   UNL d   1       5.404  -1.035   0.151  0.00  0.00     0.000 A 
ATOM     10  C   UNL d   1       4.521  -1.944  -0.427  0.00  0.00     0.001 A 
ATOM     11  C   UNL d   1       3.151  -1.664  -0.470  0.00  0.00     0.012 A 
ENDBRANCH   1   6
BRANCH   2  12
ATOM     12  C   UNL d   1      -2.490  -0.973  -0.013  0.00  0.00    -0.030 A 
ATOM     13  C   UNL d   1      -3.576  -0.248  -0.529  0.00  0.00     0.012 A 
ATOM     14  C   UNL d   1      -4.866  -0.786  -0.537  0.00  0.00     0.001 A 
ATOM     15  C   UNL d   1      -5.092  -2.061  -0.028  0.00  0.00     0.000 A 
ATOM     16  C   UNL d   1      -4.027  -2.798   0.484  0.00  0.00     0.001 A 
ATOM     17  C   UNL d   1      -2.736  -2.260   0.486  0.00  0.00     0.012 A 
ENDBRANCH   2  12
TORSDOF 2
