REMARK  4 active torsions:
REMARK  status: ('A' for Active; 'I' for Inactive)
REMARK    1  A    between atoms: C_6  and  C_1 
REMARK    2  A    between atoms: C_5  and  C_2 
REMARK       I    between atoms: N_9  and  C_5 
REMARK    3  A    between atoms: C_15  and  N_9 
REMARK    4  A    between atoms: N_10  and  C_11 
ROOT
ATOM      1  C   UNL d   1       0.978  -3.276  -0.363  0.00  0.00     0.261 C 
ATOM      2  N   UNL d   1      -0.120  -3.540   0.432  0.00  0.00    -0.323 N 
ATOM      3  O   UNL d   1       0.932  -2.919  -1.537  0.00  0.00    -0.267 OA
ATOM      4  H   UNL d   1       0.051  -4.020   1.308  0.00  0.00     0.169 HD
ENDROOT
BRANCH   1   5
ATOM      5  C   UNL d   1       2.254  -3.616   0.238  0.00  0.00     0.093 A 
ATOM      6  C   UNL d   1       3.178  -2.903   1.083  0.00  0.00     0.086 A 
ATOM      7  N   UNL d   1       4.283  -3.662   1.262  0.00  0.00    -0.259 N 
ATOM      8  O   UNL d   1       4.109  -4.821   0.567  0.00  0.00    -0.241 OA
ATOM      9  HN  UNL d   1       5.100  -3.411   1.818  1.00  0.00     0.195 HD
ATOM     10  C   UNL d   1       2.916  -4.788  -0.074  0.00  0.00     0.090 A 
ATOM     11  C   UNL d   1       2.660  -5.938  -0.955  0.00  0.00     0.080 C 
BRANCH   6  12
ATOM     12  C   UNL d   1       3.221  -1.557   1.687  0.00  0.00     0.037 A 
ATOM     13  C   UNL d   1       3.733  -1.392   3.003  0.00  0.00     0.048 A 
ATOM     14 CL   UNL d   1       3.873  -2.705   4.134  0.00  0.00    -0.083 Cl
ATOM     15  C   UNL d   1       4.142  -0.140   3.483  0.00  0.00     0.025 A 
ATOM     16  C   UNL d   1       3.995   0.994   2.700  0.00  0.00     0.003 A 
ATOM     17  C   UNL d   1       3.397   0.877   1.448  0.00  0.00     0.025 A 
ATOM     18  C   UNL d   1       3.024  -0.380   0.939  0.00  0.00     0.048 A 
ATOM     19 CL   UNL d   1       2.394  -0.349  -0.667  0.00  0.00    -0.083 Cl
ENDBRANCH   6  12
ENDBRANCH   1   5
BRANCH   2  20
ATOM     20  C   UNL d   1      -1.482  -3.322   0.092  0.00  0.00     0.035 A 
ATOM     21  C   UNL d   1      -2.465  -3.866   0.915  0.00  0.00     0.032 A 
ATOM     22  C   UNL d   1      -3.835  -3.636   0.660  0.00  0.00     0.031 A 
ATOM     23  C   UNL d   1      -4.295  -2.823  -0.391  0.00  0.00     0.030 A 
ATOM     24  C   UNL d   1      -3.281  -2.337  -1.232  0.00  0.00     0.031 A 
ATOM     25  C   UNL d   1      -1.909  -2.581  -1.003  0.00  0.00     0.032 A 
BRANCH  23  26
ATOM     26  N   UNL d   1      -5.658  -2.590  -0.614  0.00  0.00    -0.381 N 
ATOM     27  C   UNL d   1      -6.107  -1.682  -1.687  0.00  0.00     0.123 C 
ATOM     28  C   UNL d   1      -7.467  -2.146  -2.219  0.00  0.00     0.020 C 
ATOM     29  C   UNL d   1      -8.504  -2.287  -1.110  0.00  0.00     0.003 C 
ATOM     30  C   UNL d   1      -7.962  -3.121   0.045  0.00  0.00     0.020 C 
ATOM     31  C   UNL d   1      -6.601  -2.611   0.522  0.00  0.00     0.123 C 
ENDBRANCH  23  26
ENDBRANCH   2  20
TORSDOF 4
