REMARK  6 active torsions:
REMARK  status: ('A' for Active; 'I' for Inactive)
REMARK    1  A    between atoms: N_2  and  C_1 
REMARK    2  A    between atoms: C_3  and  N_2 
REMARK    3  A    between atoms: C_15  and  N_8 
REMARK    4  A    between atoms: C_13  and  C_15 
REMARK    5  A    between atoms: C_16  and  C_13 
REMARK    6  A    between atoms: O_14  and  C_16 
ROOT
ATOM      1  N   UNL d   1       0.554  -1.066  -0.542  0.00  0.00    -0.332 N 
ATOM      2  H   UNL d   1       0.878  -1.946  -0.145  0.00  0.00     0.168 HD
ENDROOT
BRANCH   1   3
ATOM      3  C   UNL d   1       1.140   0.051  -0.015  0.00  0.00     0.172 C 
ATOM      4  S   UNL d   1       0.343   1.356   0.662  0.00  0.00    -0.041 SA
ATOM      5  N   UNL d   1       2.505   0.063  -0.014  0.00  0.00    -0.367 N 
ATOM      6  H   UNL d   1       2.896   0.916   0.372  0.00  0.00     0.161 HD
BRANCH   5   7
ATOM      7  C   UNL d   1       3.372  -0.706  -0.903  0.00  0.00     0.124 C 
BRANCH   7   8
ATOM      8  C   UNL d   1       3.288  -0.199  -2.345  0.00  0.00     0.046 C 
BRANCH   8   9
ATOM      9  C   UNL d   1       4.340  -0.832  -3.243  0.00  0.00     0.165 C 
BRANCH   9  10
ATOM     10  O   UNL d   1       4.199  -2.245  -3.237  0.00  0.00    -0.401 OA
ATOM     11  H   UNL d   1       4.849  -2.600  -3.869  0.00  0.00     0.209 HD
ENDBRANCH   9  10
ENDBRANCH   8   9
ENDBRANCH   7   8
ENDBRANCH   5   7
ENDBRANCH   1   3
BRANCH   1  12
ATOM     12  C   UNL d   1      -0.625  -1.135  -1.317  0.00  0.00     0.056 A 
ATOM     13  C   UNL d   1      -1.416  -2.294  -1.312  0.00  0.00     0.062 A 
ATOM     14  C   UNL d   1      -2.517  -2.412  -2.164  0.00  0.00     0.045 A 
ATOM     15 CL   UNL d   1      -1.074  -3.601  -0.231  0.00  0.00    -0.082 Cl
ATOM     16  C   UNL d   1      -2.813  -1.377  -3.048  0.00  0.00     0.012 A 
ATOM     17  C   UNL d   1      -2.039  -0.219  -3.067  0.00  0.00     0.021 A 
ATOM     18 BR   UNL d   1      -4.255  -1.555  -4.258  0.00  0.00    -0.051 Br
ATOM     19  C   UNL d   1      -0.953  -0.096  -2.201  0.00  0.00     0.032 A 
ENDBRANCH   1  12
TORSDOF 6
