REMARK  13 active torsions:
REMARK  status: ('A' for Active; 'I' for Inactive)
REMARK    1  A    between atoms: C_2  and  C_1 
REMARK    2  A    between atoms: C_4  and  C_1 
REMARK    3  A    between atoms: C_1  and  O_5 
REMARK    4  A    between atoms: C_2  and  O_6 
REMARK    5  A    between atoms: C_3  and  C_2 
REMARK    6  A    between atoms: C_13  and  C_3 
REMARK    7  A    between atoms: C_3  and  O_7 
REMARK    8  A    between atoms: C_8  and  O_5 
REMARK    9  A    between atoms: C_9  and  O_6 
REMARK   10  A    between atoms: C_10  and  O_7 
REMARK   11  A    between atoms: C_11  and  O_15 
REMARK   12  A    between atoms: O_15  and  C_13 
REMARK   13  A    between atoms: K_24  and  K_24 
ROOT
ATOM      1  K   UNL d   2       1.238   1.551   1.869  0.00  0.00     0.000 K 
ENDROOT
TORSDOF 13
