REMARK  5 active torsions:
REMARK  status: ('A' for Active; 'I' for Inactive)
REMARK    1  A    between atoms: C_13  and  N_1 
REMARK    2  A    between atoms: C_18  and  N_2 
REMARK    3  A    between atoms: C_5  and  C_17 
REMARK    4  A    between atoms: C_14  and  C_13 
REMARK       I    between atoms: N_19  and  C_14 
REMARK    5  A    between atoms: N_15  and  N_19 
ROOT
ATOM      1  C   UNL d   1       1.668  -2.456   2.902  0.00  0.00     0.249 C 
ATOM      2  N   UNL d   1       2.674  -1.490   2.980  0.00  0.00    -0.269 N 
ATOM      3  O   UNL d   1       1.764  -3.593   3.379  0.00  0.00    -0.270 OA
ATOM      4  H   UNL d   1       2.491  -0.546   2.654  0.00  0.00     0.190 HD
ENDROOT
BRANCH   2   5
ATOM      5  N   UNL d   1       3.798  -1.714   3.759  0.00  0.00    -0.308 N 
ATOM      6  C   UNL d   1       4.739  -0.824   3.675  0.00  0.00     0.122 C 
ATOM      7  HN  UNL d   1       3.880  -2.531   4.364  1.00  0.00     0.186 HD
BRANCH   6   8
ATOM      8  C   UNL d   1       5.928  -0.903   4.510  0.00  0.00     0.022 A 
ATOM      9  C   UNL d   1       6.188  -1.806   5.527  0.00  0.00     0.131 A 
ATOM     10  N   UNL d   1       7.431  -1.512   6.047  0.00  0.00    -0.267 N 
ATOM     11  N   UNL d   1       7.947  -0.401   5.464  0.00  0.00    -0.298 N 
ATOM     12  C   UNL d   1       7.079  -0.069   4.507  0.00  0.00     0.035 A 
ATOM     13  HN  UNL d   1       8.815   0.078   5.705  1.00  0.00     0.187 HD
ATOM     14  C   UNL d   1       7.417   1.069   3.613  0.00  0.00     0.070 C 
BRANCH  10  15
ATOM     15  C   UNL d   1       8.184  -2.221   7.026  0.00  0.00     0.056 A 
ATOM     16  C   UNL d   1       7.784  -3.484   7.473  0.00  0.00     0.031 A 
ATOM     17  C   UNL d   1       8.577  -4.189   8.389  0.00  0.00     0.002 A 
ATOM     18  C   UNL d   1       9.759  -3.627   8.874  0.00  0.00     0.000 A 
ATOM     19  C   UNL d   1      10.157  -2.364   8.445  0.00  0.00     0.002 A 
ATOM     20  C   UNL d   1       9.378  -1.663   7.522  0.00  0.00     0.031 A 
ENDBRANCH  10  15
ENDBRANCH   6   8
ENDBRANCH   2   5
BRANCH   1  21
ATOM     21  C   UNL d   1       0.420  -2.028   2.093  0.00  0.00     0.206 C 
BRANCH  21  22
ATOM     22  N   UNL d   1      -0.702  -1.448   2.897  0.00  0.00    -0.239 NA
ATOM     23  C   UNL d   1      -1.260  -2.394   3.803  0.00  0.00     0.033 A 
ATOM     24  C   UNL d   1      -1.003  -2.339   5.186  0.00  0.00     0.027 A 
ATOM     25  C   UNL d   1      -2.189  -3.333   3.319  0.00  0.00     0.025 A 
ATOM     26  C   UNL d   1      -1.667  -3.214   6.055  0.00  0.00     0.021 A 
ATOM     27  S   UNL d   1       0.171  -1.169   5.872  0.00  0.00    -0.087 SA
ATOM     28  C   UNL d   1      -2.602  -4.127   5.562  0.00  0.00     0.001 A 
ATOM     29  C   UNL d   1      -2.861  -4.188   4.195  0.00  0.00     0.002 A 
ATOM     30  C   UNL d   1       0.110   0.115   4.633  0.00  0.00     0.027 A 
ATOM     31  C   UNL d   1      -0.375  -0.137   3.337  0.00  0.00     0.033 A 
ATOM     32  C   UNL d   1       0.542   1.402   4.966  0.00  0.00     0.021 A 
ATOM     33  C   UNL d   1      -0.577   0.938   2.458  0.00  0.00     0.025 A 
ATOM     34  C   UNL d   1      -0.213   2.232   2.825  0.00  0.00     0.002 A 
ATOM     35  C   UNL d   1       0.387   2.455   4.062  0.00  0.00     0.001 A 
ENDBRANCH  21  22
ENDBRANCH   1  21
TORSDOF 5
