REMARK  4 active torsions:
REMARK  status: ('A' for Active; 'I' for Inactive)
REMARK    1  A    between atoms: C_10  and  N_1 
REMARK    2  A    between atoms: C_7  and  C_2 
REMARK    3  A    between atoms: N_9  and  C_8 
REMARK    4  A    between atoms: O_16  and  C_13 
ROOT
ATOM      1  N   UNL d   1       0.135  -0.702   0.997  0.00  0.00    -0.225 N 
ATOM      2  C   UNL d   1       1.068  -0.750  -0.046  0.00  0.00     0.139 A 
ATOM      3  N   UNL d   1      -0.731   0.190  -0.762  0.00  0.00    -0.007 NA
ATOM      4  N   UNL d   1      -0.989  -0.120   0.496  0.00  0.00     0.001 NA
ATOM      5  N   UNL d   1       0.530  -0.190  -1.113  0.00  0.00    -0.270 N 
ATOM      6  HN  UNL d   1       0.972  -0.066  -2.023  1.00  0.00     0.185 HD
ENDROOT
BRANCH   1   7
ATOM      7  C   UNL d   1       0.168  -1.137   2.359  0.00  0.00     0.056 A 
ATOM      8  C   UNL d   1       1.321  -1.642   2.969  0.00  0.00     0.034 A 
ATOM      9  C   UNL d   1       1.291  -2.113   4.289  0.00  0.00     0.039 A 
ATOM     10  C   UNL d   1       0.110  -2.086   5.024  0.00  0.00     0.068 A 
ATOM     11  C   UNL d   1      -1.035  -1.545   4.440  0.00  0.00     0.039 A 
ATOM     12  C   UNL d   1      -1.010  -1.070   3.123  0.00  0.00     0.034 A 
BRANCH  10  13
ATOM     13  O   UNL d   1      -0.048  -2.550   6.300  0.00  0.00    -0.356 OA
ATOM     14  C   UNL d   1       1.077  -3.196   6.886  0.00  0.00     0.210 C 
ENDBRANCH  10  13
ENDBRANCH   1   7
BRANCH   2  15
ATOM     15  C   UNL d   1       2.373  -1.273   0.102  0.00  0.00     0.068 C 
ATOM     16  C   UNL d   1       2.648  -2.559  -0.166  0.00  0.00     0.089 C 
BRANCH  16  17
ATOM     17  N   UNL d   1       3.839  -3.248   0.027  0.00  0.00    -0.390 N 
ATOM     18  C   UNL d   1       4.017  -4.638  -0.433  0.00  0.00     0.122 C 
ATOM     19  C   UNL d   1       4.512  -5.514   0.719  0.00  0.00     0.020 C 
ATOM     20  C   UNL d   1       5.766  -4.934   1.371  0.00  0.00     0.003 C 
ATOM     21  C   UNL d   1       5.542  -3.479   1.770  0.00  0.00     0.020 C 
ATOM     22  C   UNL d   1       5.066  -2.653   0.577  0.00  0.00     0.122 C 
ENDBRANCH  16  17
ENDBRANCH   2  15
TORSDOF 4
