REMARK  9 active torsions:
REMARK  status: ('A' for Active; 'I' for Inactive)
REMARK    1  A    between atoms: C_11  and  C_1 
REMARK    2  A    between atoms: N_12  and  C_2 
REMARK    3  A    between atoms: C_14  and  C_4 
REMARK    4  A    between atoms: C_7  and  S_16 
REMARK    5  A    between atoms: C_19  and  C_11 
REMARK       I    between atoms: C_17  and  N_12 
REMARK    6  A    between atoms: C_34  and  C_15 
REMARK    7  A    between atoms: S_16  and  C_24 
REMARK    8  A    between atoms: C_24  and  C_17 
REMARK    9  A    between atoms: O_33  and  C_30 
ROOT
ATOM      1  N   UNL d   1      -0.134   2.734  -0.228  0.00  0.00    -0.320 N 
ATOM      2  C   UNL d   1       0.736   3.794  -0.455  0.00  0.00     0.232 C 
ATOM      3  O   UNL d   1       1.828   3.737  -1.019  0.00  0.00    -0.272 OA
ATOM      4  H   UNL d   1      -1.038   2.939   0.196  0.00  0.00     0.169 HD
ENDROOT
BRANCH   2   5
ATOM      5  C   UNL d   1       0.207   5.154  -0.021  0.00  0.00     0.185 C 
BRANCH   5   6
ATOM      6  S   UNL d   1      -0.301   5.157   1.721  0.00  0.00    -0.083 SA
BRANCH   6   7
ATOM      7  C   UNL d   1      -0.553   6.854   1.966  0.00  0.00     0.163 A 
ATOM      8  N   UNL d   1      -0.623   7.449   3.197  0.00  0.00    -0.315 N 
ATOM      9  C   UNL d   1      -0.768   8.806   2.957  0.00  0.00     0.134 A 
ATOM     10  C   UNL d   1      -0.597   6.793   4.477  0.00  0.00     0.160 C 
ATOM     11  N   UNL d   1      -0.847   8.976   1.648  0.00  0.00    -0.283 N 
ATOM     12  N   UNL d   1      -0.697   7.761   1.028  0.00  0.00    -0.278 N 
ATOM     13  HN  UNL d   1      -0.997   9.867   1.175  1.00  0.00     0.188 HD
ATOM     14  HN  UNL d   1      -0.696   7.593   0.022  1.00  0.00     0.189 HD
BRANCH   9  15
ATOM     15  C   UNL d   1      -0.871   9.878   3.955  0.00  0.00     0.010 A 
ATOM     16  C   UNL d   1      -1.732  10.965   3.718  0.00  0.00     0.027 A 
ATOM     17  C   UNL d   1      -1.892  12.000   4.660  0.00  0.00    -0.025 A 
ATOM     18  C   UNL d   1      -2.754  13.090   4.427  0.00  0.00     0.012 A 
ATOM     19  C   UNL d   1      -1.172  11.947   5.874  0.00  0.00    -0.026 A 
ATOM     20  C   UNL d   1      -2.910  14.093   5.388  0.00  0.00     0.001 A 
ATOM     21  C   UNL d   1      -2.213  14.024   6.591  0.00  0.00     0.001 A 
ATOM     22  C   UNL d   1      -1.347  12.958   6.832  0.00  0.00     0.012 A 
ATOM     23  C   UNL d   1      -0.284  10.886   6.094  0.00  0.00     0.013 A 
ATOM     24  C   UNL d   1      -0.124   9.877   5.138  0.00  0.00     0.016 A 
ENDBRANCH   9  15
ENDBRANCH   6   7
ENDBRANCH   5   6
ENDBRANCH   2   5
BRANCH   1  25
ATOM     25  C   UNL d   1       0.069   1.401  -0.579  0.00  0.00     0.091 A 
ATOM     26  C   UNL d   1      -0.818   0.344  -0.414  0.00  0.00     0.050 A 
ATOM     27  C   UNL d   1      -0.278  -0.860  -1.001  0.00  0.00     0.033 A 
ATOM     28  C   UNL d   1       1.009  -0.711  -1.463  0.00  0.00    -0.015 A 
ATOM     29  S   UNL d   1       1.543   0.890  -1.262  0.00  0.00    -0.076 SA
BRANCH  26  30
ATOM     30  C   UNL d   1      -2.134   0.466   0.228  0.00  0.00     0.195 C 
ATOM     31  O   UNL d   1      -2.693   1.548   0.386  0.00  0.00    -0.287 OA
BRANCH  30  32
ATOM     32  C   UNL d   1      -2.799  -0.779   0.713  0.00  0.00     0.015 A 
ATOM     33  C   UNL d   1      -4.145  -1.012   0.413  0.00  0.00     0.018 A 
ATOM     34  C   UNL d   1      -4.756  -2.212   0.809  0.00  0.00     0.037 A 
ATOM     35  C   UNL d   1      -4.026  -3.172   1.514  0.00  0.00     0.068 A 
ATOM     36  C   UNL d   1      -2.688  -2.924   1.829  0.00  0.00     0.037 A 
ATOM     37  C   UNL d   1      -2.080  -1.726   1.453  0.00  0.00     0.018 A 
BRANCH  35  38
ATOM     38  O   UNL d   1      -4.486  -4.395   1.913  0.00  0.00    -0.356 OA
ATOM     39  C   UNL d   1      -5.890  -4.507   2.110  0.00  0.00     0.210 C 
ENDBRANCH  35  38
ENDBRANCH  30  32
ENDBRANCH  26  30
BRANCH  28  40
ATOM     40  C   UNL d   1       1.898  -1.744  -2.085  0.00  0.00     0.042 C 
ATOM     41  C   UNL d   1       2.702  -2.501  -1.038  0.00  0.00     0.010 C 
ENDBRANCH  28  40
ENDBRANCH   1  25
TORSDOF 9
