REMARK  7 active torsions:
REMARK  status: ('A' for Active; 'I' for Inactive)
REMARK    1  A    between atoms: C_1  and  O_12 
REMARK    2  A    between atoms: C_2  and  O_11 
REMARK    3  A    between atoms: C_4  and  O_9 
REMARK    4  A    between atoms: C_8  and  C_17 
REMARK    5  A    between atoms: C_13  and  O_9 
REMARK    6  A    between atoms: C_14  and  O_11 
REMARK    7  A    between atoms: C_15  and  O_12 
ROOT
ATOM      1  C   UNL d   1      -1.340   1.519  -0.035  0.00  0.00     0.198 C 
ATOM      2  C   UNL d   1      -2.650   0.700   0.145  0.00  0.00     0.219 C 
ATOM      3  C   UNL d   1      -0.068   0.729   0.330  0.00  0.00     0.188 C 
ATOM      4  C   UNL d   1      -2.512  -0.775  -0.295  0.00  0.00     0.302 C 
ATOM      5  O   UNL d   1       1.113   1.376  -0.162  0.00  0.00    -0.346 OA
ATOM      6  O   UNL d   1      -1.310  -1.355   0.232  0.00  0.00    -0.348 OA
ATOM      7  C   UNL d   1      -0.144  -0.683  -0.231  0.00  0.00     0.180 C 
ATOM      8  C   UNL d   1       2.288   0.656   0.241  0.00  0.00     0.295 C 
ATOM      9  O   UNL d   1       2.274  -0.704  -0.201  0.00  0.00    -0.354 OA
ATOM     10  C   UNL d   1       1.115  -1.400   0.250  0.00  0.00     0.206 C 
ENDROOT
BRANCH   8  11
ATOM     11  C   UNL d   1       3.491   1.335  -0.379  0.00  0.00    -0.004 A 
ATOM     12  C   UNL d   1       4.513   1.852   0.432  0.00  0.00     0.012 A 
ATOM     13  C   UNL d   1       5.622   2.485  -0.135  0.00  0.00     0.001 A 
ATOM     14  C   UNL d   1       5.725   2.608  -1.519  0.00  0.00     0.000 A 
ATOM     15  C   UNL d   1       4.723   2.095  -2.339  0.00  0.00     0.001 A 
ATOM     16  C   UNL d   1       3.613   1.462  -1.773  0.00  0.00     0.012 A 
ENDBRANCH   8  11
BRANCH   1  17
ATOM     17  O   UNL d   1      -1.400   2.771   0.726  0.00  0.00    -0.311 OA
BRANCH  17  18
ATOM     18  C   UNL d   1      -1.443   2.676   2.081  0.00  0.00     0.255 C 
ATOM     19  O   UNL d   1      -1.483   1.639   2.723  0.00  0.00    -0.266 OA
ATOM     20  C   UNL d   1      -1.366   4.017   2.730  0.00  0.00     0.126 C 
ENDBRANCH  17  18
ENDBRANCH   1  17
BRANCH   2  21
ATOM     21  O   UNL d   1      -3.822   1.359  -0.444  0.00  0.00    -0.308 OA
BRANCH  21  22
ATOM     22  C   UNL d   1      -3.861   1.484  -1.793  0.00  0.00     0.255 C 
ATOM     23  O   UNL d   1      -2.950   1.144  -2.542  0.00  0.00    -0.266 OA
ATOM     24  C   UNL d   1      -5.145   2.078  -2.295  0.00  0.00     0.126 C 
ENDBRANCH  21  22
ENDBRANCH   2  21
BRANCH   4  25
ATOM     25  O   UNL d   1      -3.636  -1.505   0.262  0.00  0.00    -0.287 OA
BRANCH  25  26
ATOM     26  C   UNL d   1      -4.522  -2.045  -0.609  0.00  0.00     0.257 C 
ATOM     27  O   UNL d   1      -4.441  -1.964  -1.831  0.00  0.00    -0.266 OA
ATOM     28  C   UNL d   1      -5.649  -2.762   0.075  0.00  0.00     0.126 C 
ENDBRANCH  25  26
ENDBRANCH   4  25
TORSDOF 7
