REMARK  2 active torsions:
REMARK  status: ('A' for Active; 'I' for Inactive)
REMARK    1  A    between atoms: C_3  and  C_1 
REMARK    2  A    between atoms: C_6  and  C_2 
REMARK       I    between atoms: N_8  and  C_3 
ROOT
ATOM      1  C   UNL d   1       0.193   0.621   0.020  0.00  0.00     0.118 C 
ATOM      2  C   UNL d   1       1.127  -0.363  -0.010  0.00  0.00    -0.025 C 
ATOM      3  C   UNL d   1      -1.193   0.305   0.169  0.00  0.00     0.105 C 
ATOM      4  N   UNL d   1      -2.334   0.119   0.288  0.00  0.00    -0.191 NA
ATOM      5  C   UNL d   1       2.623  -0.228  -0.160  0.00  0.00     0.050 C 
ENDROOT
BRANCH   1   6
ATOM      6  C   UNL d   1       0.538   2.082  -0.085  0.00  0.00     0.260 C 
ATOM      7  O   UNL d   1       1.680   2.522  -0.149  0.00  0.00    -0.267 OA
ATOM      8  N   UNL d   1      -0.500   2.970  -0.105  0.00  0.00    -0.365 N 
ATOM      9  H   UNL d   1      -1.482   2.734  -0.043  0.00  0.00     0.159 HD
ATOM     10  H   UNL d   1      -0.261   3.952  -0.176  0.00  0.00     0.159 HD
ENDBRANCH   1   6
BRANCH   2  11
ATOM     11  C   UNL d   1       0.720  -1.786   0.085  0.00  0.00    -0.029 A 
ATOM     12  C   UNL d   1       0.415  -2.504  -1.078  0.00  0.00     0.012 A 
ATOM     13  C   UNL d   1       0.049  -3.849  -0.999  0.00  0.00     0.001 A 
ATOM     14  C   UNL d   1      -0.015  -4.482   0.241  0.00  0.00     0.000 A 
ATOM     15  C   UNL d   1       0.280  -3.771   1.404  0.00  0.00     0.001 A 
ATOM     16  C   UNL d   1       0.645  -2.425   1.329  0.00  0.00     0.012 A 
ENDBRANCH   2  11
TORSDOF 2
