REMARK  3 active torsions:
REMARK  status: ('A' for Active; 'I' for Inactive)
REMARK    1  A    between atoms: N_7  and  C_3 
REMARK    2  A    between atoms: C_18  and  C_6 
REMARK    3  A    between atoms: C_19  and  N_8 
ROOT
ATOM      1  C   UNL d   1       1.253   0.619   1.062  0.00  0.00     0.038 A 
ATOM      2  C   UNL d   1       0.762  -0.650   0.806  0.00  0.00     0.089 A 
ATOM      3  C   UNL d   1       1.523   1.427  -0.066  0.00  0.00     0.096 A 
ATOM      4  C   UNL d   1       1.440   0.800   2.478  0.00  0.00     0.037 A 
ATOM      5  S   UNL d   1       0.535  -1.571   2.215  0.00  0.00    -0.071 SA
ATOM      6  C   UNL d   1       1.082  -0.301   3.236  0.00  0.00     0.018 A 
ATOM      7  N   UNL d   1       1.269   0.909  -1.293  0.00  0.00    -0.342 N 
ATOM      8  HN  UNL d   1       1.453   1.458  -2.132  1.00  0.00     0.167 HD
ATOM      9  N   UNL d   1       0.494  -1.180  -0.398  0.00  0.00    -0.346 N 
ATOM     10  HN  UNL d   1       0.121  -2.118  -0.537  1.00  0.00     0.167 HD
ATOM     11  C   UNL d   1       0.775  -0.335  -1.390  0.00  0.00     0.182 A 
ENDROOT
BRANCH   3  12
ATOM     12  N   UNL d   1       2.173   2.656   0.046  0.00  0.00    -0.266 NA
ATOM     13  C   UNL d   1       2.865   3.095  -1.185  0.00  0.00     0.116 C 
ATOM     14  C   UNL d   1       3.850   4.239  -0.843  0.00  0.00     0.138 C 
ATOM     15  N   UNL d   1       3.152   5.333  -0.139  0.00  0.00    -0.379 N 
ATOM     16  C   UNL d   1       2.336   4.915   1.015  0.00  0.00     0.138 C 
ATOM     17  C   UNL d   1       1.381   3.755   0.639  0.00  0.00     0.116 C 
BRANCH  15  18
ATOM     18  C   UNL d   1       3.144   6.618  -0.646  0.00  0.00     0.030 A 
ATOM     19  C   UNL d   1       4.282   7.163  -1.272  0.00  0.00     0.029 A 
ATOM     20  C   UNL d   1       4.287   8.461  -1.785  0.00  0.00     0.002 A 
ATOM     21  C   UNL d   1       3.152   9.258  -1.683  0.00  0.00     0.000 A 
ATOM     22  C   UNL d   1       2.015   8.748  -1.071  0.00  0.00     0.002 A 
ATOM     23  C   UNL d   1       2.015   7.446  -0.560  0.00  0.00     0.029 A 
ENDBRANCH  15  18
ENDBRANCH   3  12
BRANCH   6  24
ATOM     24  C   UNL d   1       1.167  -0.494   4.695  0.00  0.00    -0.019 A 
ATOM     25  C   UNL d   1       0.262  -1.312   5.391  0.00  0.00     0.013 A 
ATOM     26  C   UNL d   1       0.380  -1.510   6.770  0.00  0.00     0.001 A 
ATOM     27  C   UNL d   1       1.400  -0.882   7.480  0.00  0.00     0.000 A 
ATOM     28  C   UNL d   1       2.295  -0.051   6.813  0.00  0.00     0.001 A 
ATOM     29  C   UNL d   1       2.179   0.143   5.433  0.00  0.00     0.013 A 
ENDBRANCH   6  24
TORSDOF 3
