REMARK  7 active torsions:
REMARK  status: ('A' for Active; 'I' for Inactive)
REMARK    1  A    between atoms: C_6  and  C_1 
REMARK    2  A    between atoms: N_12  and  C_2 
REMARK    3  A    between atoms: C_17  and  N_3 
REMARK    4  A    between atoms: N_7  and  C_19 
REMARK    5  A    between atoms: C_9  and  C_13 
REMARK    6  A    between atoms: C_10  and  C_14 
REMARK       I    between atoms: C_11  and  N_12 
REMARK       I    between atoms: N_18  and  C_11 
REMARK    7  A    between atoms: C_16  and  N_18 
ROOT
ATOM      1  C   UNL d   1      -2.204  -2.664   0.099  0.00  0.00     0.325 C 
ATOM      2  N   UNL d   1      -0.841  -2.439  -0.030  0.00  0.00    -0.305 N 
ATOM      3  N   UNL d   1      -2.607  -3.801  -0.575  0.00  0.00    -0.309 N 
ATOM      4  O   UNL d   1      -2.946  -1.925   0.731  0.00  0.00    -0.247 OA
ATOM      5  H   UNL d   1      -0.254  -3.225  -0.269  0.00  0.00     0.171 HD
ATOM      6  H   UNL d   1      -1.912  -4.507  -0.757  0.00  0.00     0.170 HD
ENDROOT
BRANCH   2   7
ATOM      7  C   UNL d   1      -0.206  -1.307   0.464  0.00  0.00     0.087 C 
ATOM      8  C   UNL d   1      -0.698  -0.035   0.697  0.00  0.00     0.168 C 
ATOM      9  N   UNL d   1       0.288   0.625   1.401  0.00  0.00    -0.250 N 
ATOM     10  N   UNL d   1       1.489   0.011   1.229  0.00  0.00    -0.302 N 
ATOM     11  C   UNL d   1       1.171  -1.184   0.734  0.00  0.00     0.139 C 
ATOM     12  HN  UNL d   1       2.418   0.379   1.433  1.00  0.00     0.186 HD
BRANCH   8  13
ATOM     13  C   UNL d   1      -1.883   0.683   0.195  0.00  0.00     0.436 C 
ATOM     14  F   UNL d   1      -2.393   0.123  -0.935  0.00  0.00    -0.164 F 
ATOM     15  F   UNL d   1      -2.893   0.780   1.090  0.00  0.00    -0.164 F 
ATOM     16  F   UNL d   1      -1.563   1.961  -0.160  0.00  0.00    -0.164 F 
ENDBRANCH   8  13
BRANCH   9  17
ATOM     17  C   UNL d   1       0.204   1.768   2.249  0.00  0.00     0.057 A 
ATOM     18  C   UNL d   1      -0.982   2.083   2.926  0.00  0.00     0.034 A 
ATOM     19  C   UNL d   1      -1.044   3.208   3.757  0.00  0.00     0.038 A 
ATOM     20  C   UNL d   1       0.089   4.015   3.917  0.00  0.00     0.103 A 
ATOM     21  C   UNL d   1       1.290   3.685   3.278  0.00  0.00     0.038 A 
ATOM     22  C   UNL d   1       1.349   2.554   2.457  0.00  0.00     0.034 A 
BRANCH  20  23
ATOM     23  N   UNL d   1       0.018   5.208   4.770  0.00  0.00    -0.116 N 
ATOM     24  O   UNL d   1       1.039   5.903   4.873  0.00  0.00    -0.532 OA
ATOM     25  O   UNL d   1      -1.058   5.451   5.334  0.00  0.00    -0.532 OA
ENDBRANCH  20  23
ENDBRANCH   9  17
ENDBRANCH   2   7
BRANCH   3  26
ATOM     26  C   UNL d   1      -3.934  -4.098  -0.962  0.00  0.00     0.037 A 
ATOM     27  C   UNL d   1      -4.953  -3.142  -0.960  0.00  0.00     0.045 A 
ATOM     28  C   UNL d   1      -6.219  -3.426  -1.492  0.00  0.00     0.050 A 
ATOM     29  C   UNL d   1      -6.477  -4.713  -1.986  0.00  0.00     0.032 A 
ATOM     30  C   UNL d   1      -5.473  -5.693  -1.989  0.00  0.00     0.050 A 
ATOM     31  C   UNL d   1      -4.203  -5.373  -1.471  0.00  0.00     0.045 A 
BRANCH  28  32
ATOM     32  C   UNL d   1      -7.250  -2.324  -1.580  0.00  0.00     0.417 C 
ATOM     33  F   UNL d   1      -8.350  -2.676  -2.302  0.00  0.00    -0.166 F 
ATOM     34  F   UNL d   1      -7.709  -1.930  -0.362  0.00  0.00    -0.166 F 
ATOM     35  F   UNL d   1      -6.757  -1.206  -2.181  0.00  0.00    -0.166 F 
ENDBRANCH  28  32
BRANCH  30  36
ATOM     36  C   UNL d   1      -5.724  -7.060  -2.580  0.00  0.00     0.417 C 
ATOM     37  F   UNL d   1      -6.928  -7.170  -3.205  0.00  0.00    -0.166 F 
ATOM     38  F   UNL d   1      -4.788  -7.395  -3.512  0.00  0.00    -0.166 F 
ATOM     39  F   UNL d   1      -5.691  -8.048  -1.645  0.00  0.00    -0.166 F 
ENDBRANCH  30  36
ENDBRANCH   3  26
TORSDOF 7
