REMARK  6 active torsions:
REMARK  status: ('A' for Active; 'I' for Inactive)
REMARK    1  A    between atoms: C_5  and  C_1 
REMARK    2  A    between atoms: N_3  and  C_2 
REMARK       I    between atoms: C_7  and  N_3 
REMARK    3  A    between atoms: C_9  and  C_5 
REMARK    4  A    between atoms: C_10  and  C_7 
REMARK    5  A    between atoms: C_25  and  C_8 
REMARK    6  A    between atoms: O_24  and  C_18 
ROOT
ATOM      1  C   UNL d   1       1.446   0.464   0.427  0.00  0.00     0.050 A 
ATOM      2  C   UNL d   1       0.241   1.070   0.083  0.00  0.00     0.091 A 
ATOM      3  S   UNL d   1      -0.951  -0.079  -0.318  0.00  0.00    -0.076 SA
ATOM      4  C   UNL d   1       1.366  -0.961   0.260  0.00  0.00     0.033 A 
ATOM      5  C   UNL d   1       0.096  -1.392  -0.048  0.00  0.00    -0.015 A 
ENDROOT
BRANCH   2   6
ATOM      6  N   UNL d   1      -0.052   2.429  -0.015  0.00  0.00    -0.316 N 
ATOM      7  C   UNL d   1      -1.323   2.979   0.079  0.00  0.00     0.256 C 
ATOM      8  O   UNL d   1      -2.359   2.384   0.356  0.00  0.00    -0.267 OA
ATOM      9  H   UNL d   1       0.741   3.053  -0.070  0.00  0.00     0.169 HD
BRANCH   7  10
ATOM     10  C   UNL d   1      -1.429   4.449  -0.164  0.00  0.00     0.032 A 
ATOM     11  C   UNL d   1      -2.644   4.929  -0.686  0.00  0.00     0.020 A 
ATOM     12  C   UNL d   1      -2.812   6.285  -0.968  0.00  0.00     0.043 A 
ATOM     13  C   UNL d   1      -1.768   7.166  -0.719  0.00  0.00     0.116 A 
ATOM     14  C   UNL d   1      -0.569   6.716  -0.172  0.00  0.00     0.043 A 
ATOM     15  F   UNL d   1      -1.918   8.466  -1.000  0.00  0.00    -0.206 F 
ATOM     16  C   UNL d   1      -0.397   5.357   0.115  0.00  0.00     0.020 A 
ENDBRANCH   7  10
ENDBRANCH   2   6
BRANCH   1  17
ATOM     17  C   UNL d   1       2.652   1.122   0.940  0.00  0.00     0.195 C 
ATOM     18  O   UNL d   1       3.774   0.746   0.625  0.00  0.00    -0.287 OA
BRANCH  17  19
ATOM     19  C   UNL d   1       2.511   2.248   1.911  0.00  0.00     0.015 A 
ATOM     20  C   UNL d   1       3.537   3.197   1.995  0.00  0.00     0.018 A 
ATOM     21  C   UNL d   1       3.405   4.309   2.837  0.00  0.00     0.037 A 
ATOM     22  C   UNL d   1       2.252   4.474   3.606  0.00  0.00     0.068 A 
ATOM     23  C   UNL d   1       1.250   3.504   3.553  0.00  0.00     0.037 A 
ATOM     24  C   UNL d   1       1.387   2.384   2.733  0.00  0.00     0.018 A 
BRANCH  22  25
ATOM     25  O   UNL d   1       1.979   5.513   4.448  0.00  0.00    -0.356 OA
ATOM     26  C   UNL d   1       2.959   6.534   4.564  0.00  0.00     0.210 C 
ENDBRANCH  22  25
ENDBRANCH  17  19
ENDBRANCH   1  17
BRANCH   5  27
ATOM     27  C   UNL d   1      -0.414  -2.797  -0.126  0.00  0.00     0.042 C 
ATOM     28  C   UNL d   1      -0.848  -3.290   1.250  0.00  0.00     0.010 C 
ENDBRANCH   5  27
TORSDOF 6
