REMARK  3 active torsions:
REMARK  status: ('A' for Active; 'I' for Inactive)
REMARK    1  A    between atoms: N_2  and  C_1 
REMARK    2  A    between atoms: N_4  and  C_1 
REMARK    3  A    between atoms: C_6  and  N_2 
ROOT
ATOM      1  C   UNL d   1       2.953   2.482  -3.330  0.00  0.00    -0.054 A 
ATOM      2  C   UNL d   1       1.247   2.048  -1.642  0.00  0.00     0.034 A 
ATOM      3  C   UNL d   1       2.284   1.603  -2.465  0.00  0.00     0.036 A 
ATOM      4  C   UNL d   1       2.575   3.838  -3.355  0.00  0.00    -0.056 A 
ATOM      5  C   UNL d   1       1.477   4.256  -2.586  0.00  0.00     0.009 A 
ATOM      6  C   UNL d   1       0.803   3.362  -1.752  0.00  0.00     0.030 A 
ATOM      7  C   UNL d   1       4.082   1.959  -4.174  0.00  0.00     0.049 C 
ATOM      8  C   UNL d   1       3.337   4.847  -4.167  0.00  0.00     0.049 C 
ENDROOT
BRANCH   2   9
ATOM      9  N   UNL d   1       0.620   1.213  -0.691  0.00  0.00    -0.333 N 
ATOM     10  H   UNL d   1      -0.352   1.414  -0.495  0.00  0.00     0.168 HD
BRANCH   9  11
ATOM     11  C   UNL d   1       1.084   0.053  -0.129  0.00  0.00     0.173 C 
ATOM     12  S   UNL d   1      -0.074  -1.067   0.353  0.00  0.00    -0.041 SA
BRANCH  11  13
ATOM     13  N   UNL d   1       2.450  -0.080   0.087  0.00  0.00    -0.367 N 
ATOM     14  C   UNL d   1       3.270   1.066   0.481  0.00  0.00     0.151 C 
ATOM     15  C   UNL d   1       3.098  -1.375   0.261  0.00  0.00     0.151 C 
ENDBRANCH  11  13
ENDBRANCH   9  11
ENDBRANCH   2   9
TORSDOF 3
