REMARK  1 active torsions:
REMARK  status: ('A' for Active; 'I' for Inactive)
REMARK    1  A    between atoms: C_16  and  C_7 
ROOT
ATOM      1  C   UNL d   1      -0.024  -1.325  -0.063  0.00  0.00     0.066 A 
ATOM      2  C   UNL d   1      -2.048   0.631  -0.055  0.00  0.00     0.162 C 
ATOM      3  C   UNL d   1      -2.418  -0.659  -0.071  0.00  0.00     0.074 C 
ATOM      4  C   UNL d   1       0.278  -0.019  -0.051  0.00  0.00     0.104 A 
ATOM      5  C   UNL d   1       1.024  -2.358  -0.187  0.00  0.00     0.298 A 
ATOM      6  C   UNL d   1      -3.855  -0.961  -0.177  0.00  0.00     0.258 C 
ATOM      7  C   UNL d   1      -1.449  -1.805   0.046  0.00  0.00     0.103 C 
ATOM      8  O   UNL d   1      -0.693   0.976   0.015  0.00  0.00    -0.291 OA
ATOM      9  N   UNL d   1      -2.941   1.678  -0.067  0.00  0.00    -0.326 N 
ATOM     10  HN  UNL d   1      -2.621   2.646  -0.088  1.00  0.00     0.169 HD
ATOM     11  N   UNL d   1      -4.680   0.114  -0.060  0.00  0.00    -0.313 N 
ATOM     12  C   UNL d   1       1.674   0.416  -0.060  0.00  0.00     0.033 A 
ATOM     13  O   UNL d   1       2.339  -1.932  -0.101  0.00  0.00    -0.274 OA
ATOM     14  C   UNL d   1      -4.200   1.390  -0.049  0.00  0.00     0.081 C 
ATOM     15  C   UNL d   1       2.665  -0.565  -0.054  0.00  0.00     0.092 A 
ATOM     16  O   UNL d   1       0.750  -3.541  -0.363  0.00  0.00    -0.259 OA
ATOM     17  O   UNL d   1      -4.286  -2.089  -0.376  0.00  0.00    -0.267 OA
ATOM     18  C   UNL d   1       2.077   1.754  -0.042  0.00  0.00     0.017 A 
ATOM     19  C   UNL d   1      -5.241   2.474  -0.015  0.00  0.00     0.089 C 
ATOM     20  C   UNL d   1       4.024  -0.253  -0.019  0.00  0.00     0.038 A 
ATOM     21  C   UNL d   1       3.439   2.085  -0.013  0.00  0.00     0.001 A 
ATOM     22  C   UNL d   1       4.411   1.082   0.003  0.00  0.00     0.003 A 
ATOM     23  H   UNL d   1      -5.669  -0.083  -0.115  0.00  0.00     0.170 HD
ENDROOT
BRANCH   7  24
ATOM     24  C   UNL d   1      -1.672  -2.554   1.364  0.00  0.00    -0.044 A 
ATOM     25  C   UNL d   1      -2.033  -3.910   1.341  0.00  0.00     0.010 A 
ATOM     26  C   UNL d   1      -2.266  -4.603   2.531  0.00  0.00     0.024 A 
ATOM     27  C   UNL d   1      -2.138  -3.945   3.751  0.00  0.00     0.034 A 
ATOM     28  C   UNL d   1      -1.770  -2.603   3.795  0.00  0.00     0.024 A 
ATOM     29 CL   UNL d   1      -2.444  -4.793   5.216  0.00  0.00    -0.084 Cl
ATOM     30  C   UNL d   1      -1.535  -1.909   2.607  0.00  0.00     0.010 A 
ENDBRANCH   7  24
TORSDOF 1
