REMARK  11 active torsions:
REMARK  status: ('A' for Active; 'I' for Inactive)
REMARK    1  A    between atoms: C_4  and  S_1 
REMARK    2  A    between atoms: N_5  and  S_1 
REMARK    3  A    between atoms: C_2  and  N_11 
REMARK    4  A    between atoms: N_12  and  C_2 
REMARK    5  A    between atoms: C_3  and  C_14 
REMARK       I    between atoms: N_6  and  C_3 
REMARK    6  A    between atoms: C_26  and  N_5 
REMARK    7  A    between atoms: C_27  and  N_5 
REMARK    8  A    between atoms: N_11  and  N_6 
REMARK    9  A    between atoms: C_15  and  N_12 
REMARK   10  A    between atoms: C_29  and  C_26 
REMARK   11  A    between atoms: C_28  and  C_27 
ROOT
ATOM      1  C   UNL d   1      -0.864   1.523  -5.561  0.00  0.00     0.270 C 
ATOM      2  N   UNL d   1      -0.207   2.546  -6.207  0.00  0.00    -0.264 N 
ATOM      3  O   UNL d   1      -1.673   0.824  -6.176  0.00  0.00    -0.266 OA
ATOM      4  H   UNL d   1      -0.406   2.647  -7.199  0.00  0.00     0.190 HD
ENDROOT
BRANCH   1   5
ATOM      5  C   UNL d   1      -0.545   1.166  -4.153  0.00  0.00     0.033 C 
ATOM      6  C   UNL d   1      -0.383   2.116  -3.141  0.00  0.00     0.018 C 
ATOM      7  C   UNL d   1       0.128   1.733  -1.902  0.00  0.00     0.026 C 
ATOM      8  C   UNL d   1       0.404   0.383  -1.657  0.00  0.00     0.074 C 
ATOM      9  C   UNL d   1       0.082  -0.592  -2.601  0.00  0.00     0.026 C 
ATOM     10  C   UNL d   1      -0.387  -0.197  -3.854  0.00  0.00     0.018 C 
BRANCH   8  11
ATOM     11  S   UNL d   1       1.137  -0.095  -0.110  0.00  0.00     0.243 S 
ATOM     12  O   UNL d   1       0.463  -1.305   0.307  0.00  0.00    -0.206 OA
ATOM     13  O   UNL d   1       1.171   1.073   0.742  0.00  0.00    -0.206 OA
BRANCH  11  14
ATOM     14  N   UNL d   1       2.792  -0.469  -0.528  0.00  0.00    -0.206 NA
BRANCH  14  15
ATOM     15  C   UNL d   1       3.486   0.678  -1.220  0.00  0.00     0.107 C 
BRANCH  15  16
ATOM     16  C   UNL d   1       4.931   0.410  -1.655  0.00  0.00     0.011 C 
ATOM     17  C   UNL d   1       5.104  -0.815  -2.537  0.00  0.00     0.006 C 
ENDBRANCH  15  16
ENDBRANCH  14  15
BRANCH  14  18
ATOM     18  C   UNL d   1       3.564  -0.970   0.663  0.00  0.00     0.107 C 
BRANCH  18  19
ATOM     19  C   UNL d   1       3.171  -2.379   1.106  0.00  0.00     0.011 C 
ATOM     20  C   UNL d   1       3.227  -3.406  -0.014  0.00  0.00     0.006 C 
ENDBRANCH  18  19
ENDBRANCH  14  18
ENDBRANCH  11  14
ENDBRANCH   8  11
ENDBRANCH   1   5
BRANCH   2  21
ATOM     21  N   UNL d   1       0.666   3.480  -5.642  0.00  0.00    -0.273 N 
ATOM     22  H   UNL d   1       0.642   3.659  -4.652  0.00  0.00     0.189 HD
BRANCH  21  23
ATOM     23  C   UNL d   1       1.696   4.053  -6.333  0.00  0.00     0.191 C 
ATOM     24  S   UNL d   1       2.470   3.364  -7.644  0.00  0.00    -0.039 SA
BRANCH  23  25
ATOM     25  N   UNL d   1       2.142   5.263  -5.862  0.00  0.00    -0.332 N 
ATOM     26  H   UNL d   1       3.059   5.513  -6.225  0.00  0.00     0.168 HD
BRANCH  25  27
ATOM     27  C   UNL d   1       1.392   6.351  -5.343  0.00  0.00     0.036 A 
ATOM     28  C   UNL d   1      -0.000   6.356  -5.203  0.00  0.00     0.055 A 
ATOM     29  C   UNL d   1      -0.679   7.523  -4.814  0.00  0.00     0.058 A 
ATOM     30 CL   UNL d   1      -2.402   7.443  -4.694  0.00  0.00    -0.082 Cl
ATOM     31  C   UNL d   1       0.030   8.700  -4.568  0.00  0.00     0.055 A 
ATOM     32  C   UNL d   1       1.421   8.697  -4.685  0.00  0.00     0.028 A 
ATOM     33 CL   UNL d   1      -0.744  10.185  -4.149  0.00  0.00    -0.083 Cl
ATOM     34  C   UNL d   1       2.094   7.531  -5.068  0.00  0.00     0.031 A 
ENDBRANCH  25  27
ENDBRANCH  23  25
ENDBRANCH  21  23
ENDBRANCH   2  21
TORSDOF 11
