REMARK  1 active torsions:
REMARK  status: ('A' for Active; 'I' for Inactive)
REMARK    1  A    between atoms: S_9  and  C_2 
ROOT
ATOM      1  S   UNL d   1       1.699  -1.490  -0.006  0.00  0.00    -0.045 SA
ATOM      2  C   UNL d   1       2.422   0.064  -0.003  0.00  0.00     0.111 A 
ATOM      3  N   UNL d   1       1.609   1.097  -0.002  0.00  0.00    -0.343 N 
ATOM      4  HN  UNL d   1       1.894   2.076  -0.002  1.00  0.00     0.167 HD
ATOM      5  C   UNL d   1       0.167  -0.748  -0.003  0.00  0.00     0.103 A 
ATOM      6  C   UNL d   1       0.305   0.638  -0.002  0.00  0.00     0.067 A 
ATOM      7  N   UNL d   1      -0.983  -1.454  -0.003  0.00  0.00    -0.358 N 
ATOM      8  HN  UNL d   1      -1.016  -2.473  -0.004  1.00  0.00     0.166 HD
ATOM      9  C   UNL d   1      -0.877   1.398   0.000  0.00  0.00     0.034 A 
ATOM     10  C   UNL d   1      -2.086  -0.673  -0.000  0.00  0.00     0.089 A 
ATOM     11  C   UNL d   1      -2.094   0.716   0.002  0.00  0.00     0.019 A 
ENDROOT
BRANCH   2  12
ATOM     12  S   UNL d   1       4.156   0.282  -0.000  0.00  0.00    -0.118 SA
ATOM     13  H   UNL d   1       4.479  -1.018   0.001  0.00  0.00     0.109 HD
ENDBRANCH   2  12
TORSDOF 1
