REMARK  8 active torsions:
REMARK  status: ('A' for Active; 'I' for Inactive)
REMARK    1  A    between atoms: C_4  and  C_1 
REMARK    2  A    between atoms: N_5  and  C_2 
REMARK    3  A    between atoms: C_11  and  C_4 
REMARK       I    between atoms: C_8  and  N_5 
REMARK    4  A    between atoms: C_28  and  C_7 
REMARK    5  A    between atoms: C_20  and  C_8 
REMARK    6  A    between atoms: C_12  and  O_14 
REMARK    7  A    between atoms: O_14  and  C_20 
REMARK    8  A    between atoms: O_27  and  C_22 
ROOT
ATOM      1  C   UNL d   1       1.574   0.716   0.138  0.00  0.00     0.050 C 
ATOM      2  C   UNL d   1       0.319   1.287   0.037  0.00  0.00     0.091 C 
ATOM      3  S   UNL d   1      -0.947   0.157   0.125  0.00  0.00    -0.076 SA
ATOM      4  C   UNL d   1       1.446  -0.722   0.140  0.00  0.00     0.033 C 
ATOM      5  C   UNL d   1       0.139  -1.157   0.070  0.00  0.00    -0.015 C 
ENDROOT
BRANCH   2   6
ATOM      6  N   UNL d   1      -0.130   2.579  -0.068  0.00  0.00    -0.319 N 
ATOM      7  C   UNL d   1       0.228   3.481  -1.030  0.00  0.00     0.246 C 
ATOM      8  O   UNL d   1      -0.308   4.591  -1.021  0.00  0.00    -0.271 OA
ATOM      9  H   UNL d   1      -1.031   2.792   0.338  0.00  0.00     0.169 HD
BRANCH   7  10
ATOM     10  C   UNL d   1       1.162   3.097  -2.176  0.00  0.00     0.278 C 
BRANCH  10  11
ATOM     11  O   UNL d   1       0.427   2.335  -3.135  0.00  0.00    -0.340 OA
BRANCH  11  12
ATOM     12  C   UNL d   1       1.104   1.900  -4.245  0.00  0.00     0.091 A 
ATOM     13  C   UNL d   1       0.562   0.810  -4.949  0.00  0.00     0.069 A 
ATOM     14  C   UNL d   1       1.192   0.308  -6.093  0.00  0.00     0.050 A 
ATOM     15 CL   UNL d   1      -0.887   0.030  -4.419  0.00  0.00    -0.081 Cl
ATOM     16  C   UNL d   1       2.364   0.904  -6.546  0.00  0.00     0.035 A 
ATOM     17  C   UNL d   1       2.902   1.999  -5.875  0.00  0.00     0.026 A 
ATOM     18 CL   UNL d   1       3.157   0.287  -7.942  0.00  0.00    -0.084 Cl
ATOM     19  C   UNL d   1       2.271   2.499  -4.731  0.00  0.00     0.040 A 
ENDBRANCH  11  12
ENDBRANCH  10  11
ENDBRANCH   7  10
ENDBRANCH   2   6
BRANCH   1  20
ATOM     20  C   UNL d   1       2.830   1.455   0.304  0.00  0.00     0.195 C 
ATOM     21  O   UNL d   1       2.878   2.600   0.756  0.00  0.00    -0.287 OA
BRANCH  20  22
ATOM     22  C   UNL d   1       4.096   0.811  -0.114  0.00  0.00     0.015 A 
ATOM     23  C   UNL d   1       5.224   0.890   0.709  0.00  0.00     0.018 A 
ATOM     24  C   UNL d   1       6.416   0.263   0.326  0.00  0.00     0.037 A 
ATOM     25  C   UNL d   1       6.486  -0.425  -0.888  0.00  0.00     0.068 A 
ATOM     26  C   UNL d   1       5.365  -0.472  -1.721  0.00  0.00     0.037 A 
ATOM     27  C   UNL d   1       4.174   0.149  -1.344  0.00  0.00     0.018 A 
BRANCH  25  28
ATOM     28  O   UNL d   1       7.574  -1.083  -1.387  0.00  0.00    -0.356 OA
ATOM     29  C   UNL d   1       8.743  -1.112  -0.579  0.00  0.00     0.210 C 
ENDBRANCH  25  28
ENDBRANCH  20  22
ENDBRANCH   1  20
BRANCH   5  30
ATOM     30  C   UNL d   1      -0.361  -2.566   0.003  0.00  0.00     0.042 C 
ATOM     31  C   UNL d   1      -0.412  -3.073  -1.432  0.00  0.00     0.010 C 
ENDBRANCH   5  30
TORSDOF 8
