REMARK  3 active torsions:
REMARK  status: ('A' for Active; 'I' for Inactive)
REMARK    1  A    between atoms: C_2  and  C_1 
REMARK       I    between atoms: N_11  and  C_2 
REMARK    2  A    between atoms: C_20  and  C_5 
REMARK    3  A    between atoms: C_6  and  N_13 
ROOT
ATOM      1  C   UNL d   1       0.207  -2.410   0.491  0.00  0.00     0.258 C 
ATOM      2  N   UNL d   1      -0.722  -3.438   0.301  0.00  0.00    -0.345 N 
ATOM      3  N   UNL d   1      -2.995  -5.301  -0.013  0.00  0.00    -0.397 N 
ATOM      4  O   UNL d   1       0.463  -1.603  -0.395  0.00  0.00    -0.267 OA
ATOM      5  C   UNL d   1      -1.422  -3.518  -0.980  0.00  0.00     0.145 C 
ATOM      6  C   UNL d   1      -0.723  -4.705   1.028  0.00  0.00     0.145 C 
ATOM      7  C   UNL d   1      -2.149  -5.289   1.188  0.00  0.00     0.137 C 
ATOM      8  C   UNL d   1      -2.853  -4.047  -0.785  0.00  0.00     0.137 C 
ENDROOT
BRANCH   1   9
ATOM      9  C   UNL d   1       0.835  -2.298   1.798  0.00  0.00     0.092 A 
ATOM     10  C   UNL d   1       2.190  -1.985   2.149  0.00  0.00     0.083 A 
ATOM     11  N   UNL d   1       2.317  -1.974   3.492  0.00  0.00    -0.259 N 
ATOM     12  O   UNL d   1       1.071  -2.182   4.015  0.00  0.00    -0.241 OA
ATOM     13  HN  UNL d   1       3.180  -1.837   4.018  1.00  0.00     0.195 HD
ATOM     14  C   UNL d   1       0.176  -2.337   3.015  0.00  0.00     0.090 A 
ATOM     15  C   UNL d   1      -1.228  -2.492   3.447  0.00  0.00     0.080 C 
BRANCH  10  16
ATOM     16  C   UNL d   1       3.382  -1.705   1.330  0.00  0.00    -0.006 A 
ATOM     17  C   UNL d   1       3.551  -2.201   0.032  0.00  0.00     0.014 A 
ATOM     18  C   UNL d   1       4.722  -1.926  -0.690  0.00  0.00     0.001 A 
ATOM     19  C   UNL d   1       5.738  -1.159  -0.124  0.00  0.00     0.000 A 
ATOM     20  C   UNL d   1       5.587  -0.657   1.163  0.00  0.00     0.001 A 
ATOM     21  C   UNL d   1       4.421  -0.927   1.879  0.00  0.00     0.014 A 
ENDBRANCH  10  16
ENDBRANCH   1   9
BRANCH   3  22
ATOM     22  C   UNL d   1      -3.010  -6.573  -0.764  0.00  0.00     0.147 C 
ATOM     23  C   UNL d   1      -3.938  -6.489  -1.977  0.00  0.00    -0.020 A 
ATOM     24  C   UNL d   1      -3.181  -6.568  -3.169  0.00  0.00    -0.017 A 
ATOM     25  C   UNL d   1      -5.308  -6.262  -1.994  0.00  0.00     0.010 A 
ATOM     26  C   UNL d   1      -3.799  -6.412  -4.397  0.00  0.00     0.013 A 
ATOM     27  C   UNL d   1      -1.797  -6.822  -2.825  0.00  0.00    -0.017 C 
ATOM     28  C   UNL d   1      -5.178  -6.168  -4.423  0.00  0.00     0.001 A 
ATOM     29  C   UNL d   1      -5.925  -6.097  -3.234  0.00  0.00     0.001 A 
ATOM     30  C   UNL d   1      -1.694  -6.961  -1.427  0.00  0.00    -0.020 C 
ATOM     31  C   UNL d   1      -0.668  -6.937  -3.618  0.00  0.00     0.013 C 
ATOM     32  C   UNL d   1      -0.521  -7.402  -0.834  0.00  0.00     0.010 C 
ATOM     33  C   UNL d   1       0.619  -7.506  -1.628  0.00  0.00     0.001 C 
ATOM     34  C   UNL d   1       0.552  -7.241  -3.003  0.00  0.00     0.001 C 
ENDBRANCH   3  22
TORSDOF 3
