REMARK  6 active torsions:
REMARK  status: ('A' for Active; 'I' for Inactive)
REMARK    1  A    between atoms: C_3  and  C_1 
REMARK    2  A    between atoms: C_2  and  O_4 
REMARK    3  A    between atoms: O_13  and  C_3 
REMARK    4  A    between atoms: O_4  and  C_5 
REMARK    5  A    between atoms: N_6  and  O_13 
REMARK    6  A    between atoms: C_8  and  C_12 
ROOT
ATOM      1  N   UNL d   1      -0.736   4.350   0.454  0.00  0.00    -0.268 N 
ATOM      2  HN  UNL d   1       0.233   4.616   0.629  1.00  0.00     0.194 HD
ATOM      3  C   UNL d   1      -1.698   5.177   0.190  0.00  0.00     0.128 C 
ENDROOT
BRANCH   1   4
ATOM      4  O   UNL d   1      -1.224   3.031   0.461  0.00  0.00    -0.195 OA
BRANCH   4   5
ATOM      5  C   UNL d   1      -0.808   2.396   1.600  0.00  0.00     0.319 C 
ATOM      6  O   UNL d   1      -0.287   2.897   2.586  0.00  0.00    -0.257 OA
BRANCH   5   7
ATOM      7  C   UNL d   1      -1.082   0.953   1.481  0.00  0.00     0.101 A 
ATOM      8  C   UNL d   1      -2.307   0.523   0.965  0.00  0.00     0.134 A 
ATOM      9  F   UNL d   1      -3.232   1.404   0.559  0.00  0.00    -0.205 F 
ATOM     10  C   UNL d   1      -2.618  -0.834   0.875  0.00  0.00     0.043 A 
ATOM     11  C   UNL d   1      -1.703  -1.785   1.318  0.00  0.00     0.005 A 
ATOM     12  C   UNL d   1      -0.477  -1.371   1.840  0.00  0.00     0.025 A 
ATOM     13  C   UNL d   1      -0.161  -0.007   1.920  0.00  0.00     0.053 A 
ATOM     14 CL   UNL d   1       1.408   0.388   2.529  0.00  0.00    -0.083 Cl
ENDBRANCH   5   7
ENDBRANCH   4   5
ENDBRANCH   1   4
BRANCH   3  15
ATOM     15  C   UNL d   1      -1.464   6.637   0.182  0.00  0.00     0.015 A 
ATOM     16  C   UNL d   1      -2.531   7.542   0.259  0.00  0.00     0.089 A 
ATOM     17  C   UNL d   1      -2.281   8.916   0.223  0.00  0.00     0.038 A 
ATOM     18  C   UNL d   1      -0.966   9.387   0.140  0.00  0.00     0.003 A 
ATOM     19  C   UNL d   1       0.098   8.488   0.091  0.00  0.00     0.001 A 
ATOM     20  C   UNL d   1      -0.148   7.115   0.116  0.00  0.00     0.015 A 
BRANCH  16  21
ATOM     21  O   UNL d   1      -3.834   7.130   0.262  0.00  0.00    -0.254 OA
BRANCH  21  22
ATOM     22  C   UNL d   1      -4.295   6.731   1.552  0.00  0.00     0.530 C 
ATOM     23  F   UNL d   1      -3.304   6.294   2.356  0.00  0.00    -0.144 F 
ATOM     24  F   UNL d   1      -4.931   7.759   2.151  0.00  0.00    -0.144 F 
ATOM     25  F   UNL d   1      -5.177   5.721   1.387  0.00  0.00    -0.144 F 
ENDBRANCH  21  22
ENDBRANCH  16  21
ENDBRANCH   3  15
TORSDOF 6
