REMARK  4 active torsions:
REMARK  status: ('A' for Active; 'I' for Inactive)
REMARK    1  A    between atoms: C_3  and  C_1 
REMARK    2  A    between atoms: N_6  and  C_2 
REMARK       I    between atoms: C_7  and  N_6 
REMARK       I    between atoms: N_10  and  C_7 
REMARK    3  A    between atoms: N_14  and  N_10 
REMARK    4  A    between atoms: C_13  and  N_14 
ROOT
ATOM      1  N   UNL d   1      -2.260  -1.627   0.172  0.00  0.00    -0.305 N 
ATOM      2  C   UNL d   1      -2.492  -2.896  -0.223  0.00  0.00     0.335 C 
ATOM      3  N   UNL d   1      -1.474  -3.659  -0.707  0.00  0.00    -0.267 N 
ATOM      4  O   UNL d   1      -3.609  -3.368   0.026  0.00  0.00    -0.246 OA
ATOM      5  H   UNL d   1      -3.061  -1.281   0.688  0.00  0.00     0.171 HD
ATOM      6  H   UNL d   1      -0.643  -3.306  -1.168  0.00  0.00     0.186 HD
ENDROOT
BRANCH   1   7
ATOM      7  C   UNL d   1      -1.208  -0.737   0.026  0.00  0.00     0.072 A 
ATOM      8  C   UNL d   1      -1.025   0.415   0.909  0.00  0.00     0.079 A 
ATOM      9  N   UNL d   1      -0.037   1.245   0.564  0.00  0.00    -0.324 N 
ATOM     10  S   UNL d   1       0.757   0.640  -0.751  0.00  0.00    -0.024 SA
ATOM     11  HN  UNL d   1       0.191   2.118   1.039  1.00  0.00     0.174 HD
ATOM     12  C   UNL d   1      -0.231  -0.745  -0.945  0.00  0.00     0.100 A 
BRANCH   8  13
ATOM     13  C   UNL d   1      -1.771   0.650   2.160  0.00  0.00     0.037 A 
ATOM     14  C   UNL d   1      -1.115   0.587   3.407  0.00  0.00     0.048 A 
ATOM     15 CL   UNL d   1       0.594   0.337   3.566  0.00  0.00    -0.083 Cl
ATOM     16  C   UNL d   1      -1.837   0.674   4.605  0.00  0.00     0.025 A 
ATOM     17  C   UNL d   1      -3.222   0.803   4.586  0.00  0.00     0.003 A 
ATOM     18  C   UNL d   1      -3.885   0.887   3.366  0.00  0.00     0.025 A 
ATOM     19  C   UNL d   1      -3.167   0.836   2.164  0.00  0.00     0.048 A 
ATOM     20 CL   UNL d   1      -4.094   0.990   0.708  0.00  0.00    -0.083 Cl
ENDBRANCH   8  13
ENDBRANCH   1   7
BRANCH   3  21
ATOM     21  N   UNL d   1      -1.806  -4.992  -1.022  0.00  0.00    -0.186 NA
ATOM     22  H   UNL d   1      -2.236  -5.454  -0.220  0.00  0.00     0.154 HD
BRANCH  21  23
ATOM     23  C   UNL d   1      -0.725  -5.735  -1.538  0.00  0.00     0.098 A 
ATOM     24  N   UNL d   1       0.385  -5.097  -1.983  0.00  0.00    -0.356 N 
ATOM     25  C   UNL d   1       1.339  -5.856  -2.568  0.00  0.00     0.089 A 
ATOM     26  HN  UNL d   1       0.495  -4.088  -1.881  1.00  0.00     0.166 HD
ATOM     27  C   UNL d   1       1.249  -7.226  -2.739  0.00  0.00     0.017 A 
ATOM     28  C   UNL d   1       0.105  -7.869  -2.279  0.00  0.00     0.005 A 
ATOM     29  C   UNL d   1      -0.894  -7.113  -1.679  0.00  0.00     0.044 A 
ENDBRANCH  21  23
ENDBRANCH   3  21
TORSDOF 4
