REMARK  4 active torsions:
REMARK  status: ('A' for Active; 'I' for Inactive)
REMARK    1  A    between atoms: C_6  and  C_1 
REMARK    2  A    between atoms: C_12  and  C_3 
REMARK    3  A    between atoms: C_7  and  C_4 
REMARK       I    between atoms: N_8  and  C_7 
REMARK    4  A    between atoms: C_9  and  N_8 
ROOT
ATOM      1  C   UNL d   1       0.184   1.204   0.126  0.00  0.00     0.100 A 
ATOM      2  S   UNL d   1      -0.988  -0.067   0.183  0.00  0.00    -0.079 SA
ATOM      3  C   UNL d   1       1.475   0.696   0.007  0.00  0.00    -0.003 A 
ATOM      4  C   UNL d   1       0.199  -1.287   0.179  0.00  0.00     0.074 A 
ATOM      5  C   UNL d   1       1.454  -0.742   0.026  0.00  0.00     0.038 A 
ENDROOT
BRANCH   4   6
ATOM      6  C   UNL d   1      -0.099  -2.700   0.371  0.00  0.00     0.263 C 
ATOM      7  N   UNL d   1      -1.424  -3.067   0.226  0.00  0.00    -0.321 N 
ATOM      8  H   UNL d   1      -2.037  -2.393  -0.223  0.00  0.00     0.169 HD
ATOM      9  O   UNL d   1       0.801  -3.502   0.618  0.00  0.00    -0.267 OA
BRANCH   7  10
ATOM     10  C   UNL d   1      -1.978  -4.341   0.490  0.00  0.00     0.057 A 
ATOM     11  C   UNL d   1      -3.221  -4.683  -0.072  0.00  0.00     0.062 A 
ATOM     12  C   UNL d   1      -3.796  -5.935   0.162  0.00  0.00     0.050 A 
ATOM     13 CL   UNL d   1      -4.061  -3.578  -1.105  0.00  0.00    -0.082 Cl
ATOM     14  C   UNL d   1      -3.143  -6.845   0.988  0.00  0.00     0.035 A 
ATOM     15  C   UNL d   1      -1.929  -6.515   1.579  0.00  0.00     0.026 A 
ATOM     16 CL   UNL d   1      -3.846  -8.388   1.288  0.00  0.00    -0.084 Cl
ATOM     17  C   UNL d   1      -1.347  -5.269   1.327  0.00  0.00     0.033 A 
ENDBRANCH   7  10
ENDBRANCH   4   6
BRANCH   1  18
ATOM     18  C   UNL d   1      -0.313   2.615   0.209  0.00  0.00     0.424 C 
ATOM     19  F   UNL d   1      -1.574   2.711   0.712  0.00  0.00    -0.166 F 
ATOM     20  F   UNL d   1       0.465   3.398   1.000  0.00  0.00    -0.166 F 
ATOM     21  F   UNL d   1      -0.349   3.203  -1.016  0.00  0.00    -0.166 F 
ENDBRANCH   1  18
BRANCH   3  22
ATOM     22  C   UNL d   1       2.708   1.496  -0.050  0.00  0.00    -0.025 A 
ATOM     23  C   UNL d   1       3.868   1.008   0.579  0.00  0.00     0.012 A 
ATOM     24  C   UNL d   1       5.076   1.708   0.517  0.00  0.00     0.001 A 
ATOM     25  C   UNL d   1       5.141   2.921  -0.159  0.00  0.00     0.000 A 
ATOM     26  C   UNL d   1       4.002   3.421  -0.786  0.00  0.00     0.001 A 
ATOM     27  C   UNL d   1       2.799   2.706  -0.748  0.00  0.00     0.012 A 
ENDBRANCH   3  22
TORSDOF 4
