REMARK  8 active torsions:
REMARK  status: ('A' for Active; 'I' for Inactive)
REMARK    1  A    between atoms: C_2  and  C_12 
REMARK    2  A    between atoms: O_14  and  C_2 
REMARK    3  A    between atoms: C_3  and  C_11 
REMARK    4  A    between atoms: O_13  and  C_3 
REMARK    5  A    between atoms: C_10  and  C_5 
REMARK    6  A    between atoms: C_9  and  C_6 
REMARK    7  A    between atoms: C_12  and  C_9 
REMARK    8  A    between atoms: C_11  and  C_10 
ROOT
ATOM      1  C   UNL d   1       0.934   0.099  -0.000  0.00  0.00     0.135 C 
ATOM      2  O   UNL d   1       2.096   0.168   0.397  0.00  0.00    -0.297 OA
ATOM      3  C   UNL d   1       0.240  -1.240  -0.279  0.00  0.00     0.056 C 
ATOM      4  C   UNL d   1       0.155   1.367  -0.351  0.00  0.00     0.056 C 
ATOM      5  C   UNL d   1      -1.973   0.012  -0.103  0.00  0.00     0.002 C 
ATOM      6  C   UNL d   1      -1.178  -1.222   0.304  0.00  0.00     0.012 C 
ATOM      7  C   UNL d   1      -1.232   1.283   0.293  0.00  0.00     0.012 C 
ENDROOT
BRANCH   3   8
ATOM      8  C   UNL d   1       1.056  -2.431   0.270  0.00  0.00     0.022 C 
BRANCH   8   9
ATOM      9  C   UNL d   1       0.442  -3.803  -0.011  0.00  0.00     0.110 C 
BRANCH   9  10
ATOM     10  C   UNL d   1       0.315  -4.074  -1.490  0.00  0.00     0.139 C 
ATOM     11  O   UNL d   1      -0.654  -3.757  -2.157  0.00  0.00    -0.650 OA
BRANCH  10  12
ATOM     12  O   UNL d   1       1.406  -4.666  -2.022  0.00  0.00    -0.776 OA
ATOM     13  H   UNL d   1       2.115  -4.852  -1.379  0.00  0.00     0.167 HD
ENDBRANCH  10  12
ENDBRANCH   9  10
ENDBRANCH   8   9
ENDBRANCH   3   8
BRANCH   4  14
ATOM     14  C   UNL d   1       0.141   1.574  -1.875  0.00  0.00     0.022 C 
BRANCH  14  15
ATOM     15  C   UNL d   1      -0.595   2.839  -2.308  0.00  0.00     0.110 C 
BRANCH  15  16
ATOM     16  C   UNL d   1      -0.579   2.978  -3.809  0.00  0.00     0.139 C 
ATOM     17  O   UNL d   1      -1.426   2.495  -4.544  0.00  0.00    -0.650 OA
BRANCH  16  18
ATOM     18  O   UNL d   1       0.483   3.668  -4.274  0.00  0.00    -0.776 OA
ATOM     19  H   UNL d   1       1.089   3.987  -3.580  0.00  0.00     0.167 HD
ENDBRANCH  16  18
ENDBRANCH  15  16
ENDBRANCH  14  15
ENDBRANCH   4  14
TORSDOF 8
