REMARK  4 active torsions:
REMARK  status: ('A' for Active; 'I' for Inactive)
REMARK    1  A    between atoms: N_9  and  N_1 
REMARK    2  A    between atoms: C_11  and  N_2 
REMARK    3  A    between atoms: C_7  and  C_10 
REMARK       I    between atoms: C_8  and  N_9 
REMARK       I    between atoms: N_12  and  C_8 
REMARK    4  A    between atoms: C_17  and  N_12 
ROOT
ATOM      1  C   UNL d   1       1.529   3.080  -0.939  0.00  0.00     0.317 C 
ATOM      2  N   UNL d   1       1.043   2.712   0.321  0.00  0.00    -0.149 NA
ATOM      3  N   UNL d   1       2.392   4.158  -0.853  0.00  0.00    -0.312 N 
ATOM      4  O   UNL d   1       1.182   2.522  -1.974  0.00  0.00    -0.252 OA
ATOM      5  H   UNL d   1       1.729   2.802   1.069  0.00  0.00     0.158 HD
ATOM      6  H   UNL d   1       2.673   4.437   0.074  0.00  0.00     0.170 HD
ENDROOT
BRANCH   2   7
ATOM      7  N   UNL d   1       0.328   1.469   0.441  0.00  0.00    -0.264 N 
ATOM      8  C   UNL d   1       1.101   0.362   0.760  0.00  0.00     0.253 C 
ATOM      9  C   UNL d   1       0.453  -0.952   0.364  0.00  0.00     0.236 C 
ATOM     10  O   UNL d   1       2.248   0.452   1.198  0.00  0.00    -0.270 OA
ATOM     11  N   UNL d   1      -1.004  -0.940   0.590  0.00  0.00    -0.308 N 
ATOM     12  C   UNL d   1      -1.734   0.154   0.082  0.00  0.00     0.244 C 
ATOM     13  C   UNL d   1      -0.865   1.329  -0.390  0.00  0.00     0.250 C 
ATOM     14  O   UNL d   1      -2.954   0.194  -0.070  0.00  0.00    -0.271 OA
BRANCH  11  15
ATOM     15  C   UNL d   1      -1.611  -2.203   0.900  0.00  0.00     0.037 A 
ATOM     16  C   UNL d   1      -2.772  -2.657   0.262  0.00  0.00     0.030 A 
ATOM     17  C   UNL d   1      -3.278  -3.941   0.514  0.00  0.00     0.009 A 
ATOM     18  C   UNL d   1      -2.645  -4.794   1.421  0.00  0.00    -0.062 A 
ATOM     19  C   UNL d   1      -1.519  -4.330   2.102  0.00  0.00     0.009 A 
ATOM     20  C   UNL d   1      -3.174  -6.177   1.658  0.00  0.00     0.048 C 
ATOM     21  C   UNL d   1      -1.012  -3.052   1.842  0.00  0.00     0.030 A 
ENDBRANCH  11  15
ENDBRANCH   2   7
BRANCH   3  22
ATOM     22  C   UNL d   1       2.976   4.872  -1.925  0.00  0.00     0.036 A 
ATOM     23  C   UNL d   1       2.632   4.683  -3.267  0.00  0.00     0.045 A 
ATOM     24  C   UNL d   1       3.237   5.439  -4.288  0.00  0.00     0.050 A 
ATOM     25  C   UNL d   1       4.202   6.399  -3.944  0.00  0.00     0.016 A 
ATOM     26  C   UNL d   1       4.549   6.599  -2.609  0.00  0.00     0.003 A 
ATOM     27  C   UNL d   1       3.936   5.841  -1.608  0.00  0.00     0.029 A 
BRANCH  24  28
ATOM     28  C   UNL d   1       2.857   5.244  -5.735  0.00  0.00     0.417 C 
ATOM     29  F   UNL d   1       1.958   4.242  -5.941  0.00  0.00    -0.166 F 
ATOM     30  F   UNL d   1       2.298   6.362  -6.277  0.00  0.00    -0.166 F 
ATOM     31  F   UNL d   1       3.931   4.948  -6.518  0.00  0.00    -0.166 F 
ENDBRANCH  24  28
ENDBRANCH   3  22
TORSDOF 4
