REMARK  2 active torsions:
REMARK  status: ('A' for Active; 'I' for Inactive)
REMARK    1  A    between atoms: C_4  and  C_3 
REMARK       I    between atoms: N_6  and  C_4 
REMARK    2  A    between atoms: C_7  and  N_6 
ROOT
ATOM      1  C   UNL d   1       3.353  -0.019  -0.053  0.00  0.00     0.270 C 
ATOM      2  N   UNL d   1       3.873   1.205   0.312  0.00  0.00    -0.322 N 
ATOM      3  O   UNL d   1       3.955  -1.036  -0.358  0.00  0.00    -0.266 OA
ATOM      4  H   UNL d   1       3.183   1.901   0.586  0.00  0.00     0.169 HD
ENDROOT
BRANCH   1   5
ATOM      5  C   UNL d   1       1.828  -0.050  -0.076  0.00  0.00     0.094 C 
ATOM      6  N   UNL d   1       1.177   1.052   0.163  0.00  0.00    -0.297 N 
ATOM      7  N   UNL d   1      -0.184   1.007   0.056  0.00  0.00    -0.270 N 
ATOM      8  HN  UNL d   1       1.662   1.912   0.419  1.00  0.00     0.187 HD
ATOM      9  C   UNL d   1      -0.956  -0.119  -0.092  0.00  0.00     0.236 C 
ATOM     10  H   UNL d   1      -0.677   1.896   0.069  0.00  0.00     0.190 HD
ATOM     11  O   UNL d   1      -2.174  -0.051  -0.227  0.00  0.00    -0.272 OA
ATOM     12  C   UNL d   1      -0.232  -1.430   0.029  0.00  0.00     0.111 C 
ATOM     13  C   UNL d   1       1.182  -1.341  -0.494  0.00  0.00     0.073 C 
ENDBRANCH   1   5
BRANCH   2  14
ATOM     14  C   UNL d   1       5.234   1.577   0.318  0.00  0.00     0.040 A 
ATOM     15  C   UNL d   1       6.258   0.757  -0.162  0.00  0.00     0.072 A 
ATOM     16  C   UNL d   1       7.578   1.205  -0.151  0.00  0.00     0.121 A 
ATOM     17  F   UNL d   1       8.545   0.412  -0.631  0.00  0.00    -0.206 F 
ATOM     18  C   UNL d   1       7.910   2.458   0.340  0.00  0.00     0.084 A 
ATOM     19  C   UNL d   1       6.892   3.268   0.819  0.00  0.00     0.121 A 
ATOM     20  C   UNL d   1       5.562   2.845   0.809  0.00  0.00     0.072 A 
ATOM     21  F   UNL d   1       7.190   4.482   1.299  0.00  0.00    -0.206 F 
ENDBRANCH   2  14
TORSDOF 2
