REMARK  3 active torsions:
REMARK  status: ('A' for Active; 'I' for Inactive)
REMARK    1  A    between atoms: C_12  and  N_2 
REMARK    2  A    between atoms: C_11  and  C_5 
REMARK    3  A    between atoms: C_15  and  C_8 
ROOT
ATOM      1  C   UNL d   1      -2.572   0.004   1.171  0.00  0.00     0.196 C 
ATOM      2  N   UNL d   1      -3.221   1.243   1.686  0.00  0.00    -0.265 N 
ATOM      3  N   UNL d   1      -4.580   1.123   1.574  0.00  0.00    -0.299 N 
ATOM      4  HN  UNL d   1      -5.254   1.889   1.575  1.00  0.00     0.187 HD
ATOM      5  C   UNL d   1      -3.643  -1.048   1.512  0.00  0.00     0.117 C 
ATOM      6  C   UNL d   1      -1.261  -0.271   1.903  0.00  0.00     0.199 C 
ATOM      7  C   UNL d   1      -2.115   0.172  -0.279  0.00  0.00     0.199 C 
ATOM      8  C   UNL d   1      -4.857  -0.141   1.468  0.00  0.00     0.048 C 
ATOM      9  C   UNL d   1      -0.157   0.001   0.982  0.00  0.00     0.027 A 
ATOM     10  C   UNL d   1      -0.655   0.317  -0.275  0.00  0.00     0.027 A 
ATOM     11  O   UNL d   1      -1.093  -0.663   3.044  0.00  0.00    -0.289 OA
ATOM     12  O   UNL d   1      -2.786   0.223  -1.298  0.00  0.00    -0.289 OA
ATOM     13  C   UNL d   1       1.202   0.007   1.253  0.00  0.00     0.016 A 
ATOM     14  C   UNL d   1       0.183   0.735  -1.295  0.00  0.00     0.016 A 
ATOM     15  C   UNL d   1       1.556   0.792  -1.028  0.00  0.00     0.001 A 
ATOM     16  C   UNL d   1       2.063   0.409   0.229  0.00  0.00     0.001 A 
ENDROOT
BRANCH   2  17
ATOM     17  C   UNL d   1      -2.748   2.530   1.408  0.00  0.00     0.052 A 
ATOM     18  C   UNL d   1      -3.068   3.200   0.219  0.00  0.00     0.031 A 
ATOM     19  C   UNL d   1      -2.734   4.543   0.038  0.00  0.00     0.002 A 
ATOM     20  C   UNL d   1      -2.087   5.240   1.056  0.00  0.00     0.000 A 
ATOM     21  C   UNL d   1      -1.752   4.585   2.240  0.00  0.00     0.002 A 
ATOM     22  C   UNL d   1      -2.071   3.235   2.409  0.00  0.00     0.031 A 
ENDBRANCH   2  17
BRANCH   5  23
ATOM     23  C   UNL d   1      -3.717  -2.382   0.807  0.00  0.00    -0.045 A 
ATOM     24  C   UNL d   1      -3.393  -3.538   1.548  0.00  0.00     0.010 A 
ATOM     25  C   UNL d   1      -3.665  -4.813   1.048  0.00  0.00     0.024 A 
ATOM     26  C   UNL d   1      -4.231  -4.948  -0.215  0.00  0.00     0.034 A 
ATOM     27  C   UNL d   1      -4.490  -3.823  -0.991  0.00  0.00     0.024 A 
ATOM     28 CL   UNL d   1      -4.643  -6.514  -0.799  0.00  0.00    -0.084 Cl
ATOM     29  C   UNL d   1      -4.231  -2.543  -0.486  0.00  0.00     0.010 A 
ENDBRANCH   5  23
BRANCH   8  30
ATOM     30  C   UNL d   1      -6.265  -0.594   1.392  0.00  0.00    -0.011 A 
ATOM     31  C   UNL d   1      -6.691  -1.812   1.922  0.00  0.00     0.013 A 
ATOM     32  C   UNL d   1      -8.040  -2.165   1.852  0.00  0.00     0.001 A 
ATOM     33  C   UNL d   1      -8.965  -1.298   1.269  0.00  0.00     0.000 A 
ATOM     34  C   UNL d   1      -8.546  -0.074   0.753  0.00  0.00     0.001 A 
ATOM     35  C   UNL d   1      -7.199   0.279   0.816  0.00  0.00     0.013 A 
ENDBRANCH   8  30
TORSDOF 3
