REMARK  5 active torsions:
REMARK  status: ('A' for Active; 'I' for Inactive)
REMARK    1  A    between atoms: N_2  and  S_1 
REMARK    2  A    between atoms: C_3  and  S_1 
REMARK    3  A    between atoms: C_11  and  N_2 
REMARK       I    between atoms: C_8  and  N_10 
REMARK    4  A    between atoms: O_21  and  C_9 
REMARK    5  A    between atoms: N_10  and  C_16 
ROOT
ATOM      1  S   UNL d   1       1.141  -0.011   0.076  0.00  0.00     0.263 S 
ATOM      2  O   UNL d   1       0.590  -1.250   0.577  0.00  0.00    -0.200 OA
ATOM      3  O   UNL d   1       2.574   0.184  -0.060  0.00  0.00    -0.200 OA
ENDROOT
BRANCH   1   4
ATOM      4  N   UNL d   1       0.576   1.282   1.020  0.00  0.00    -0.279 N 
ATOM      5  H   UNL d   1       1.066   2.146   0.802  0.00  0.00     0.179 HD
BRANCH   4   6
ATOM      6  C   UNL d   1      -0.830   1.363   1.241  0.00  0.00     0.058 A 
ATOM      7  C   UNL d   1      -1.441   0.604   2.232  0.00  0.00     0.120 A 
ATOM      8  N   UNL d   1      -2.777   0.571   2.442  0.00  0.00    -0.345 N 
ATOM      9  C   UNL d   1      -3.540   1.296   1.597  0.00  0.00     0.141 A 
ATOM     10  HN  UNL d   1      -3.188   0.025   3.199  1.00  0.00     0.167 HD
ATOM     11  C   UNL d   1      -3.024   2.067   0.565  0.00  0.00     0.058 A 
ATOM     12  C   UNL d   1      -1.641   2.113   0.396  0.00  0.00     0.036 A 
BRANCH   9  13
ATOM     13  O   UNL d   1      -4.913   1.289   1.730  0.00  0.00    -0.341 OA
ATOM     14  C   UNL d   1      -5.356   0.488   2.822  0.00  0.00     0.211 C 
ENDBRANCH   9  13
ENDBRANCH   4   6
ENDBRANCH   1   4
BRANCH   1  15
ATOM     15  C   UNL d   1       0.414   0.329  -1.513  0.00  0.00     0.080 A 
ATOM     16  C   UNL d   1       1.089   1.138  -2.433  0.00  0.00     0.027 A 
ATOM     17  C   UNL d   1       0.468   1.476  -3.642  0.00  0.00     0.031 A 
ATOM     18  C   UNL d   1      -0.827   1.014  -3.934  0.00  0.00     0.034 A 
ATOM     19  C   UNL d   1      -1.463   0.172  -3.018  0.00  0.00     0.031 A 
ATOM     20  C   UNL d   1      -0.843  -0.189  -1.820  0.00  0.00     0.027 A 
BRANCH  18  21
ATOM     21  N   UNL d   1      -1.418   1.440  -5.145  0.00  0.00    -0.328 N 
ATOM     22  C   UNL d   1      -2.703   1.159  -5.581  0.00  0.00     0.218 C 
ATOM     23  O   UNL d   1      -3.549   0.496  -4.991  0.00  0.00    -0.274 OA
ATOM     24  C   UNL d   1      -3.035   1.770  -6.919  0.00  0.00     0.117 C 
ATOM     25  H   UNL d   1      -0.848   2.029  -5.738  0.00  0.00     0.169 HD
ENDBRANCH  18  21
ENDBRANCH   1  15
TORSDOF 5
