REMARK  7 active torsions:
REMARK  status: ('A' for Active; 'I' for Inactive)
REMARK    1  A    between atoms: N_3  and  C_1 
REMARK    2  A    between atoms: C_7  and  C_2 
REMARK    3  A    between atoms: C_6  and  C_12 
REMARK    4  A    between atoms: O_13  and  C_7 
REMARK    5  A    between atoms: N_9  and  O_13 
REMARK    6  A    between atoms: C_14  and  C_11 
REMARK    7  A    between atoms: N_22  and  C_11 
ROOT
ATOM      1  N   UNL d   1       1.261  -3.515   0.194  0.00  0.00    -0.246 N 
ATOM      2  HN  UNL d   1       2.159  -3.086   0.415  1.00  0.00     0.196 HD
ATOM      3  C   UNL d   1       1.118  -4.784  -0.031  0.00  0.00     0.109 C 
ENDROOT
BRANCH   3   4
ATOM      4  C   UNL d   1       2.369  -5.615  -0.007  0.00  0.00     0.004 A 
ATOM      5  C   UNL d   1       3.462  -5.208   0.774  0.00  0.00     0.030 A 
ATOM      6  C   UNL d   1       4.656  -5.949   0.777  0.00  0.00     0.048 A 
ATOM      7  C   UNL d   1       4.740  -7.101  -0.020  0.00  0.00     0.016 A 
ATOM      8  C   UNL d   1       3.656  -7.507  -0.801  0.00  0.00     0.002 A 
ATOM      9  C   UNL d   1       2.471  -6.767  -0.794  0.00  0.00     0.015 A 
BRANCH   6  10
ATOM     10  C   UNL d   1       5.844  -5.520   1.604  0.00  0.00     0.417 C 
ATOM     11  F   UNL d   1       5.628  -4.395   2.339  0.00  0.00    -0.166 F 
ATOM     12  F   UNL d   1       6.224  -6.478   2.496  0.00  0.00    -0.166 F 
ATOM     13  F   UNL d   1       6.944  -5.266   0.843  0.00  0.00    -0.166 F 
ENDBRANCH   6  10
ENDBRANCH   3   4
BRANCH   3  14
ATOM     14  N   UNL d   1      -0.086  -5.401  -0.280  0.00  0.00    -0.286 NA
ATOM     15  H   UNL d   1      -0.882  -4.838  -0.007  0.00  0.00     0.125 HD
ATOM     16  H   UNL d   1      -0.161  -6.358   0.051  0.00  0.00     0.125 HD
ENDBRANCH   3  14
BRANCH   1  17
ATOM     17  O   UNL d   1       0.054  -2.781   0.106  0.00  0.00    -0.193 OA
BRANCH  17  18
ATOM     18  C   UNL d   1       0.351  -1.444   0.296  0.00  0.00     0.315 C 
ATOM     19  O   UNL d   1       1.466  -0.994   0.551  0.00  0.00    -0.257 OA
BRANCH  18  20
ATOM     20  C   UNL d   1      -0.800  -0.544   0.176  0.00  0.00     0.050 A 
ATOM     21  C   UNL d   1      -0.700   0.886   0.354  0.00  0.00     0.062 A 
ATOM     22  C   UNL d   1      -1.906   1.528   0.200  0.00  0.00     0.144 A 
ATOM     23  S   UNL d   1      -3.168   0.452  -0.163  0.00  0.00    -0.077 SA
ATOM     24  C   UNL d   1      -2.105  -0.900  -0.117  0.00  0.00     0.069 A 
BRANCH  22  25
ATOM     25  N   UNL d   1      -2.142   2.945   0.318  0.00  0.00    -0.108 N 
ATOM     26  O   UNL d   1      -1.155   3.645   0.584  0.00  0.00    -0.531 OA
ATOM     27  O   UNL d   1      -3.294   3.364   0.152  0.00  0.00    -0.531 OA
ENDBRANCH  22  25
ENDBRANCH  18  20
ENDBRANCH  17  18
ENDBRANCH   1  17
TORSDOF 7
