REMARK  2 active torsions:
REMARK  status: ('A' for Active; 'I' for Inactive)
REMARK    1  A    between atoms: C_4  and  C_1 
REMARK       I    between atoms: N_5  and  C_1 
REMARK    2  A    between atoms: C_9  and  N_5 
ROOT
ATOM      1  N   UNL d   1      -5.443  -1.242   0.129  0.00  0.00    -0.359 N 
ATOM      2  HN  UNL d   1      -5.918  -0.743  -0.623  1.00  0.00     0.166 HD
ATOM      3  C   UNL d   1      -4.098  -1.257   0.204  0.00  0.00     0.042 A 
ATOM      4  C   UNL d   1      -3.415  -1.944   1.223  0.00  0.00    -0.007 A 
ATOM      5  C   UNL d   1      -1.256  -1.233   0.336  0.00  0.00     0.035 A 
ATOM      6  C   UNL d   1      -2.012  -1.932   1.278  0.00  0.00     0.043 A 
ATOM      7  C   UNL d   1      -3.334  -0.570  -0.733  0.00  0.00     0.033 A 
ATOM      8  C   UNL d   1      -6.154  -1.907   1.076  0.00  0.00     0.005 A 
ATOM      9  C   UNL d   1      -4.168  -2.628   2.182  0.00  0.00     0.015 A 
ATOM     10  C   UNL d   1      -1.931  -0.541  -0.670  0.00  0.00     0.032 A 
ATOM     11  C   UNL d   1      -5.554  -2.609   2.112  0.00  0.00     0.025 A 
ATOM     12  C   UNL d   1      -7.650  -1.856   0.985  0.00  0.00     0.068 C 
ENDROOT
BRANCH   5  13
ATOM     13  N   UNL d   1       0.153  -1.167   0.374  0.00  0.00    -0.321 N 
ATOM     14  C   UNL d   1       0.995  -1.938   1.161  0.00  0.00     0.279 C 
ATOM     15  O   UNL d   1       0.633  -2.875   1.866  0.00  0.00    -0.265 OA
ATOM     16  H   UNL d   1       0.614  -0.515  -0.252  0.00  0.00     0.169 HD
BRANCH  14  17
ATOM     17  C   UNL d   1       2.393  -1.561   1.088  0.00  0.00     0.142 A 
ATOM     18  O   UNL d   1       2.784  -0.464   0.364  0.00  0.00    -0.317 OA
ATOM     19  C   UNL d   1       4.130  -0.349   0.522  0.00  0.00     0.143 A 
ATOM     20  C   UNL d   1       4.616  -1.359   1.320  0.00  0.00     0.027 A 
ATOM     21  C   UNL d   1       3.498  -2.141   1.683  0.00  0.00     0.045 A 
ENDBRANCH  14  17
ENDBRANCH   5  13
TORSDOF 2
