REMARK  3 active torsions:
REMARK  status: ('A' for Active; 'I' for Inactive)
REMARK       I    between atoms: N_2  and  C_1 
REMARK       I    between atoms: N_5  and  C_1 
REMARK    1  A    between atoms: C_12  and  N_5 
REMARK    2  A    between atoms: C_9  and  O_11 
REMARK    3  A    between atoms: O_11  and  C_13 
ROOT
ATOM      1  C   UNL d   1       0.918   0.315   0.297  0.00  0.00     0.328 C 
ATOM      2  N   UNL d   1       0.176   0.267   1.485  0.00  0.00    -0.293 N 
ATOM      3  C   UNL d   1      -0.839  -0.764   1.850  0.00  0.00     0.099 C 
ATOM      4  N   UNL d   1       1.389  -0.733   3.890  0.00  0.00    -0.227 NA
ATOM      5  N   UNL d   1       0.379  -0.401  -0.756  0.00  0.00    -0.306 N 
ATOM      6  C   UNL d   1       0.600   1.144   2.533  0.00  0.00     0.060 A 
ATOM      7  C   UNL d   1       0.300  -1.587   3.938  0.00  0.00     0.203 C 
ATOM      8  C   UNL d   1      -0.233  -1.972   2.575  0.00  0.00     0.122 C 
ATOM      9  C   UNL d   1       1.052   0.645   3.765  0.00  0.00     0.042 A 
ATOM     10  O   UNL d   1       1.961   0.960   0.207  0.00  0.00    -0.246 OA
ATOM     11  O   UNL d   1      -0.211  -1.983   4.981  0.00  0.00    -0.279 OA
ATOM     12  C   UNL d   1      -2.041  -0.167   2.604  0.00  0.00     0.033 C 
ATOM     13  C   UNL d   1       0.502   2.530   2.346  0.00  0.00     0.031 A 
ATOM     14  C   UNL d   1       1.352   1.506   4.813  0.00  0.00     0.026 A 
ATOM     15  C   UNL d   1       0.806   3.394   3.395  0.00  0.00     0.002 A 
ATOM     16  C   UNL d   1       1.216   2.884   4.633  0.00  0.00     0.002 A 
ATOM     17  H   UNL d   1       1.919  -0.966   3.050  0.00  0.00     0.136 HD
ATOM     18  H   UNL d   1      -0.624  -0.438  -0.739  0.00  0.00     0.171 HD
ENDROOT
BRANCH   5  19
ATOM     19  C   UNL d   1       1.006  -0.547  -2.018  0.00  0.00     0.070 A 
ATOM     20  C   UNL d   1       0.251  -0.604  -3.203  0.00  0.00     0.105 A 
ATOM     21  C   UNL d   1       0.905  -0.606  -4.445  0.00  0.00     0.039 A 
ATOM     22  C   UNL d   1       2.297  -0.613  -4.524  0.00  0.00     0.003 A 
ATOM     23  C   UNL d   1       3.050  -0.627  -3.359  0.00  0.00     0.002 A 
ATOM     24  C   UNL d   1       2.410  -0.602  -2.117  0.00  0.00     0.032 A 
BRANCH  20  25
ATOM     25  O   UNL d   1      -1.104  -0.465  -3.311  0.00  0.00    -0.253 OA
BRANCH  25  26
ATOM     26  C   UNL d   1      -1.940  -1.298  -2.530  0.00  0.00     0.530 C 
ATOM     27  F   UNL d   1      -1.273  -2.218  -1.804  0.00  0.00    -0.144 F 
ATOM     28  F   UNL d   1      -2.630  -0.517  -1.667  0.00  0.00    -0.144 F 
ATOM     29  F   UNL d   1      -2.818  -1.934  -3.331  0.00  0.00    -0.144 F 
ENDBRANCH  25  26
ENDBRANCH  20  25
ENDBRANCH   5  19
TORSDOF 3
