REMARK  0 active torsions:
REMARK  status: ('A' for Active; 'I' for Inactive)
ROOT
ATOM      1  N   UNL d   1      -1.516   0.641   0.038  0.00  0.00    -0.046 N 
ATOM      2  C   UNL d   1      -1.514  -0.737  -0.017  0.00  0.00     0.709 A 
ATOM      3  C   UNL d   1      -0.379   1.446   0.079  0.00  0.00     0.290 A 
ATOM      4  C   UNL d   1       0.908   0.682   0.046  0.00  0.00     0.036 A 
ATOM      5  N   UNL d   1      -0.321  -1.396  -0.035  0.00  0.00    -0.189 N 
ATOM      6  C   UNL d   1       0.883  -0.671  -0.001  0.00  0.00     0.040 A 
ATOM      7  N   UNL d   1      -2.752  -1.176  -0.047  0.00  0.00    -0.184 N 
ATOM      8  HN  UNL d   1      -3.082  -2.140  -0.088  1.00  0.00     0.185 HD
ATOM      9  N   UNL d   1      -2.792   1.111   0.045  0.00  0.00    -0.272 N 
ATOM     10  HN  UNL d   1      -3.126   2.074   0.082  1.00  0.00     0.189 HD
ATOM     11  C   UNL d   1      -3.488  -0.026  -0.008  0.00  0.00     0.216 A 
ATOM     12  O   UNL d   1      -0.455   2.668   0.133  0.00  0.00    -0.265 OA
ATOM     13  C   UNL d   1       2.163   1.511   0.048  0.00  0.00     0.046 C 
ATOM     14  C   UNL d   1      -0.379  -2.857  -0.101  0.00  0.00     0.175 C 
ATOM     15  C   UNL d   1       2.187  -1.454  -0.020  0.00  0.00     0.058 C 
ATOM     16  C   UNL d   1       3.400   0.712  -0.361  0.00  0.00     0.005 C 
ATOM     17  C   UNL d   1       3.419  -0.629   0.354  0.00  0.00     0.006 C 
ENDROOT
TORSDOF 0
