REMARK  6 active torsions:
REMARK  status: ('A' for Active; 'I' for Inactive)
REMARK    1  A    between atoms: C_4  and  C_1 
REMARK    2  A    between atoms: N_2  and  C_3 
REMARK       I    between atoms: N_6  and  C_4 
REMARK    3  A    between atoms: C_5  and  N_7 
REMARK    4  A    between atoms: N_9  and  C_5 
REMARK    5  A    between atoms: N_7  and  N_6 
REMARK    6  A    between atoms: C_14  and  N_9 
ROOT
ATOM      1  C   UNL d   1       2.461  -0.217  -0.217  0.00  0.00     0.272 C 
ATOM      2  N   UNL d   1       3.096  -1.403  -0.510  0.00  0.00    -0.264 N 
ATOM      3  O   UNL d   1       1.509  -0.167   0.561  0.00  0.00    -0.266 OA
ATOM      4  H   UNL d   1       3.836  -1.513  -1.211  0.00  0.00     0.190 HD
ENDROOT
BRANCH   2   5
ATOM      5  N   UNL d   1       2.530  -2.607  -0.022  0.00  0.00    -0.273 N 
ATOM      6  H   UNL d   1       1.653  -2.469   0.484  0.00  0.00     0.189 HD
BRANCH   5   7
ATOM      7  C   UNL d   1       2.688  -3.777  -0.720  0.00  0.00     0.191 C 
ATOM      8  S   UNL d   1       3.640  -3.947  -2.093  0.00  0.00    -0.039 SA
BRANCH   7   9
ATOM      9  N   UNL d   1       2.012  -4.885  -0.296  0.00  0.00    -0.332 N 
ATOM     10  H   UNL d   1       2.023  -5.623  -0.994  0.00  0.00     0.168 HD
BRANCH   9  11
ATOM     11  C   UNL d   1       1.533  -5.278   0.971  0.00  0.00     0.035 A 
ATOM     12  C   UNL d   1       1.780  -4.587   2.157  0.00  0.00     0.053 A 
ATOM     13  C   UNL d   1       1.363  -5.128   3.378  0.00  0.00     0.036 A 
ATOM     14 CL   UNL d   1       1.703  -4.284   4.841  0.00  0.00    -0.084 Cl
ATOM     15  C   UNL d   1       0.705  -6.353   3.433  0.00  0.00     0.024 A 
ATOM     16  C   UNL d   1       0.445  -7.045   2.254  0.00  0.00     0.004 A 
ATOM     17  C   UNL d   1       0.857  -6.508   1.032  0.00  0.00     0.029 A 
ENDBRANCH   9  11
ENDBRANCH   7   9
ENDBRANCH   5   7
ENDBRANCH   2   5
BRANCH   1  18
ATOM     18  C   UNL d   1       2.878   1.022  -0.949  0.00  0.00     0.067 A 
ATOM     19  C   UNL d   1       4.166   1.375  -1.364  0.00  0.00     0.118 A 
ATOM     20  C   UNL d   1       4.415   2.559  -2.083  0.00  0.00     0.037 A 
ATOM     21  C   UNL d   1       3.363   3.420  -2.384  0.00  0.00     0.009 A 
ATOM     22  C   UNL d   1       2.069   3.122  -1.950  0.00  0.00    -0.061 A 
ATOM     23  C   UNL d   1       1.839   1.934  -1.233  0.00  0.00     0.026 A 
ATOM     24  C   UNL d   1       0.943   4.065  -2.264  0.00  0.00     0.048 C 
BRANCH  19  25
ATOM     25  N   UNL d   1       5.327   0.578  -1.043  0.00  0.00    -0.115 N 
ATOM     26  O   UNL d   1       5.383  -0.554  -1.542  0.00  0.00    -0.532 OA
ATOM     27  O   UNL d   1       6.204   1.108  -0.352  0.00  0.00    -0.532 OA
ENDBRANCH  19  25
ENDBRANCH   1  18
TORSDOF 6
