REMARK  3 active torsions:
REMARK  status: ('A' for Active; 'I' for Inactive)
REMARK    1  A    between atoms: C_3  and  C_1 
REMARK    2  A    between atoms: C_12  and  C_2 
REMARK    3  A    between atoms: C_15  and  C_6 
ROOT
ATOM      1  C   UNL d   1       0.227  -2.748   0.072  0.00  0.00     0.179 A 
ATOM      2  C   UNL d   1       1.076  -4.651   0.553  0.00  0.00     0.175 A 
ATOM      3  O   UNL d   1       1.243  -3.314   0.803  0.00  0.00    -0.272 OA
ATOM      4  N   UNL d   1      -0.485  -3.662  -0.562  0.00  0.00    -0.277 N 
ATOM      5  HN  UNL d   1      -1.303  -3.495  -1.148  1.00  0.00     0.189 HD
ATOM      6  N   UNL d   1       0.086  -4.885  -0.281  0.00  0.00    -0.277 N 
ATOM      7  HN  UNL d   1      -0.202  -5.792  -0.648  1.00  0.00     0.189 HD
ENDROOT
BRANCH   1   8
ATOM      8  C   UNL d   1      -0.053  -1.298   0.020  0.00  0.00     0.077 A 
ATOM      9  C   UNL d   1       0.795  -0.184   0.293  0.00  0.00     0.086 A 
ATOM     10  N   UNL d   1       0.098   0.957   0.118  0.00  0.00    -0.259 N 
ATOM     11  O   UNL d   1      -1.185   0.594  -0.232  0.00  0.00    -0.241 OA
ATOM     12  HN  UNL d   1       0.453   1.908   0.224  1.00  0.00     0.195 HD
ATOM     13  C   UNL d   1      -1.275  -0.757  -0.306  0.00  0.00     0.089 A 
ATOM     14  C   UNL d   1      -2.597  -1.320  -0.637  0.00  0.00     0.080 C 
BRANCH   9  15
ATOM     15  C   UNL d   1       2.222  -0.153   0.625  0.00  0.00     0.054 A 
ATOM     16  C   UNL d   1       2.792   0.722   1.569  0.00  0.00     0.049 A 
ATOM     17 CL   UNL d   1       1.873   1.875   2.478  0.00  0.00    -0.083 Cl
ATOM     18  C   UNL d   1       4.168   0.677   1.851  0.00  0.00     0.025 A 
ATOM     19  C   UNL d   1       4.998  -0.248   1.219  0.00  0.00     0.005 A 
ATOM     20  C   UNL d   1       4.456  -1.107   0.272  0.00  0.00     0.043 A 
ATOM     21  C   UNL d   1       3.099  -1.032  -0.035  0.00  0.00     0.130 A 
ATOM     22  F   UNL d   1       2.651  -1.838  -1.011  0.00  0.00    -0.205 F 
ENDBRANCH   9  15
ENDBRANCH   1   8
BRANCH   2  23
ATOM     23  C   UNL d   1       1.918  -5.566   1.315  0.00  0.00     0.028 A 
ATOM     24  C   UNL d   1       2.399  -6.796   0.781  0.00  0.00    -0.011 A 
ATOM     25  C   UNL d   1       3.129  -7.662   1.637  0.00  0.00    -0.025 A 
ATOM     26  C   UNL d   1       2.209  -7.222  -0.558  0.00  0.00     0.013 A 
ATOM     27  C   UNL d   1       3.610  -8.892   1.157  0.00  0.00     0.012 A 
ATOM     28  C   UNL d   1       3.369  -7.300   2.970  0.00  0.00     0.012 A 
ATOM     29  C   UNL d   1       3.396  -9.283  -0.163  0.00  0.00     0.001 A 
ATOM     30  C   UNL d   1       2.698  -8.447  -1.022  0.00  0.00     0.001 A 
ATOM     31  C   UNL d   1       2.915  -6.090   3.477  0.00  0.00     0.002 A 
ATOM     32  C   UNL d   1       2.196  -5.229   2.655  0.00  0.00     0.017 A 
ENDBRANCH   2  23
TORSDOF 3
