REMARK  4 active torsions:
REMARK  status: ('A' for Active; 'I' for Inactive)
REMARK    1  A    between atoms: C_4  and  C_1 
REMARK       I    between atoms: N_7  and  C_4 
REMARK    2  A    between atoms: C_12  and  N_7 
REMARK    3  A    between atoms: C_14  and  C_12 
REMARK    4  A    between atoms: O_18  and  C_16 
ROOT
ATOM      1  C   UNL d   1       4.579  -0.892  -0.054  0.00  0.00     0.268 C 
ATOM      2  N   UNL d   1       5.577   0.049  -0.088  0.00  0.00    -0.351 N 
ATOM      3  O   UNL d   1       3.387  -0.602  -0.029  0.00  0.00    -0.266 OA
ATOM      4  H   UNL d   1       6.540  -0.246  -0.116  0.00  0.00     0.163 HD
ENDROOT
BRANCH   1   5
ATOM      5  C   UNL d   1       5.030  -2.269  -0.055  0.00  0.00     0.102 A 
ATOM      6  N   UNL d   1       4.137  -3.320  -0.016  0.00  0.00    -0.351 N 
ATOM      7  C   UNL d   1       4.792  -4.530  -0.051  0.00  0.00     0.043 A 
ATOM      8  H   UNL d   1       3.133  -3.198   0.021  0.00  0.00     0.166 HD
ATOM      9  C   UNL d   1       4.287  -5.836  -0.039  0.00  0.00     0.032 A 
ATOM     10  C   UNL d   1       6.155  -4.250  -0.106  0.00  0.00    -0.005 A 
ATOM     11  C   UNL d   1       5.212  -6.885  -0.090  0.00  0.00     0.026 A 
ATOM     12  C   UNL d   1       6.580  -6.627  -0.149  0.00  0.00     0.035 A 
ATOM     13  C   UNL d   1       7.070  -5.318  -0.156  0.00  0.00     0.037 A 
ATOM     14 CL   UNL d   1       7.691  -7.942  -0.216  0.00  0.00    -0.084 Cl
ATOM     15  C   UNL d   1       6.293  -2.834  -0.102  0.00  0.00     0.049 A 
ENDBRANCH   1   5
BRANCH   2  16
ATOM     16  C   UNL d   1       5.314   1.466  -0.191  0.00  0.00     0.161 C 
BRANCH  16  17
ATOM     17  C   UNL d   1       6.045   2.237   0.878  0.00  0.00    -0.038 A 
ATOM     18  C   UNL d   1       5.727   2.038   2.233  0.00  0.00     0.045 A 
ATOM     19  C   UNL d   1       6.377   2.767   3.232  0.00  0.00     0.068 A 
ATOM     20  C   UNL d   1       7.323   3.728   2.877  0.00  0.00     0.037 A 
ATOM     21  C   UNL d   1       7.654   3.931   1.538  0.00  0.00     0.003 A 
ATOM     22  C   UNL d   1       7.022   3.185   0.542  0.00  0.00     0.009 A 
BRANCH  19  23
ATOM     23  O   UNL d   1       6.136   2.649   4.573  0.00  0.00    -0.356 OA
ATOM     24  C   UNL d   1       5.697   1.364   5.001  0.00  0.00     0.210 C 
ENDBRANCH  19  23
ENDBRANCH  16  17
ENDBRANCH   2  16
TORSDOF 4
