REMARK  3 active torsions:
REMARK  status: ('A' for Active; 'I' for Inactive)
REMARK    1  A    between atoms: C_8  and  N_1 
REMARK    2  A    between atoms: S_12  and  C_2 
REMARK    3  A    between atoms: C_19  and  S_12 
ROOT
ATOM      1  C   UNL d   1       4.260   4.384   0.465  0.00  0.00    -0.107 C 
ATOM      2  C   UNL d   1       4.991   5.338   0.411  0.00  0.00     0.013 C 
ATOM      3  C   UNL d   1       3.273   3.290   0.557  0.00  0.00     0.175 C 
ENDROOT
BRANCH   3   4
ATOM      4  S   UNL d   1       3.864   1.705  -0.110  0.00  0.00    -0.081 SA
BRANCH   4   5
ATOM      5  C   UNL d   1       2.389   0.736   0.012  0.00  0.00     0.155 A 
ATOM      6  N   UNL d   1       2.467  -0.660  -0.039  0.00  0.00    -0.258 N 
ATOM      7  C   UNL d   1       1.296  -1.432   0.023  0.00  0.00     0.266 A 
ATOM      8  C   UNL d   1       0.020  -0.708   0.031  0.00  0.00     0.059 A 
ATOM      9  O   UNL d   1       1.249  -2.659   0.106  0.00  0.00    -0.267 OA
ATOM     10  C   UNL d   1       0.065   0.679   0.040  0.00  0.00     0.049 A 
ATOM     11  C   UNL d   1      -1.198  -1.401   0.017  0.00  0.00     0.019 A 
ATOM     12  C   UNL d   1      -1.142   1.382   0.001  0.00  0.00     0.030 A 
ATOM     13  N   UNL d   1       1.270   1.387   0.060  0.00  0.00    -0.335 N 
ATOM     14  C   UNL d   1      -2.365   0.703  -0.037  0.00  0.00     0.002 A 
ATOM     15  C   UNL d   1      -2.394  -0.691  -0.021  0.00  0.00     0.001 A 
ATOM     16  HN  UNL d   1       1.267   2.406   0.113  1.00  0.00     0.168 HD
BRANCH   6  17
ATOM     17  C   UNL d   1       3.686  -1.411  -0.052  0.00  0.00     0.044 A 
ATOM     18  C   UNL d   1       3.859  -2.417  -1.019  0.00  0.00     0.032 A 
ATOM     19  C   UNL d   1       4.922  -3.318  -0.937  0.00  0.00     0.026 A 
ATOM     20  C   UNL d   1       5.820  -3.221   0.120  0.00  0.00     0.034 A 
ATOM     21  C   UNL d   1       5.682  -2.210   1.072  0.00  0.00     0.026 A 
ATOM     22 CL   UNL d   1       7.080  -4.381   0.276  0.00  0.00    -0.084 Cl
ATOM     23  C   UNL d   1       4.620  -1.302   0.986  0.00  0.00     0.032 A 
ENDBRANCH   6  17
ENDBRANCH   4   5
ENDBRANCH   3   4
TORSDOF 3
