REMARK  5 active torsions:
REMARK  status: ('A' for Active; 'I' for Inactive)
REMARK    1  A    between atoms: C_8  and  N_1 
REMARK    2  A    between atoms: S_11  and  C_2 
REMARK    3  A    between atoms: O_19  and  C_3 
REMARK    4  A    between atoms: C_9  and  C_16 
REMARK       I    between atoms: N_10  and  C_9 
REMARK    5  A    between atoms: C_16  and  S_11 
ROOT
ATOM      1  N   UNL d   1      -0.236  -1.369  -0.064  0.00  0.00    -0.286 N 
ATOM      2  C   UNL d   1       1.040  -0.841  -0.143  0.00  0.00     0.165 A 
ATOM      3  C   UNL d   1      -1.057  -0.264   0.020  0.00  0.00     0.240 A 
ATOM      4  N   UNL d   1       0.986   0.461  -0.043  0.00  0.00    -0.277 N 
ATOM      5  HN  UNL d   1       1.785   1.095  -0.047  1.00  0.00     0.189 HD
ATOM      6  N   UNL d   1      -0.332   0.831   0.067  0.00  0.00    -0.263 N 
ATOM      7  HN  UNL d   1      -0.685   1.782   0.167  1.00  0.00     0.190 HD
ENDROOT
BRANCH   2   8
ATOM      8  S   UNL d   1       2.499  -1.743  -0.436  0.00  0.00    -0.083 SA
BRANCH   8   9
ATOM      9  C   UNL d   1       3.764  -0.679   0.350  0.00  0.00     0.185 C 
BRANCH   9  10
ATOM     10  C   UNL d   1       5.160  -1.280   0.167  0.00  0.00     0.229 C 
ATOM     11  N   UNL d   1       6.002  -0.810  -0.833  0.00  0.00    -0.347 N 
ATOM     12  C   UNL d   1       7.345  -1.393  -0.979  0.00  0.00     0.152 C 
ATOM     13  C   UNL d   1       5.638   0.048  -1.968  0.00  0.00     0.152 C 
ATOM     14  C   UNL d   1       7.436  -2.151  -2.305  0.00  0.00     0.187 C 
ATOM     15  O   UNL d   1       7.158  -1.265  -3.404  0.00  0.00    -0.388 OA
ATOM     16  C   UNL d   1       5.835  -0.711  -3.295  0.00  0.00     0.187 C 
ATOM     17  O   UNL d   1       5.537  -2.168   0.940  0.00  0.00    -0.273 OA
ENDBRANCH   9  10
ENDBRANCH   8   9
ENDBRANCH   2   8
BRANCH   1  18
ATOM     18  C   UNL d   1      -0.684  -2.739   0.050  0.00  0.00     0.104 C 
ATOM     19  C   UNL d   1      -0.150  -3.513   1.272  0.00  0.00     0.065 C 
ATOM     20  C   UNL d   1      -0.134  -4.919   0.763  0.00  0.00    -0.050 A 
ATOM     21  C   UNL d   1       0.069  -6.072   1.505  0.00  0.00     0.007 A 
ATOM     22  C   UNL d   1      -0.348  -4.977  -0.616  0.00  0.00    -0.050 A 
ATOM     23  C   UNL d   1       0.038  -7.301   0.845  0.00  0.00     0.001 A 
ATOM     24  C   UNL d   1      -0.190  -7.361  -0.538  0.00  0.00     0.001 A 
ATOM     25  C   UNL d   1      -0.377  -6.193  -1.280  0.00  0.00     0.007 A 
ATOM     26  C   UNL d   1      -0.499  -3.614  -1.211  0.00  0.00     0.065 C 
ENDBRANCH   1  18
BRANCH   3  27
ATOM     27  O   UNL d   1      -2.380  -0.252   0.066  0.00  0.00    -0.331 OA
ATOM     28  H   UNL d   1      -2.747  -1.086  -0.260  0.00  0.00     0.221 HD
ENDBRANCH   3  27
TORSDOF 5
