REMARK  10 active torsions:
REMARK  status: ('A' for Active; 'I' for Inactive)
REMARK    1  A    between atoms: N_4  and  C_1 
REMARK    2  A    between atoms: N_6  and  C_1 
REMARK    3  A    between atoms: C_2  and  N_3 
REMARK    4  A    between atoms: N_5  and  C_2 
REMARK    5  A    between atoms: C_13  and  N_5 
REMARK    6  A    between atoms: C_14  and  N_6 
REMARK    7  A    between atoms: C_19  and  C_22 
REMARK    8  A    between atoms: C_23  and  C_20 
REMARK    9  A    between atoms: C_21  and  C_23 
REMARK   10  A    between atoms: C_22  and  C_21 
ROOT
ATOM      1  C   UNL d   1      -1.692   5.130  -0.697  0.00  0.00     0.001 C 
ENDROOT
BRANCH   1   2
ATOM      2  C   UNL d   1      -0.622   4.474  -1.574  0.00  0.00     0.005 C 
BRANCH   2   3
ATOM      3  C   UNL d   1      -0.718   2.933  -1.526  0.00  0.00    -0.012 C 
ATOM      4  C   UNL d   1      -0.423   2.343  -0.133  0.00  0.00     0.024 C 
ATOM      5  C   UNL d   1       1.062   2.344   0.197  0.00  0.00     0.125 C 
ATOM      6  N   UNL d   1       1.842   1.706  -0.866  0.00  0.00    -0.358 N 
ATOM      7  C   UNL d   1       1.677   2.312  -2.187  0.00  0.00     0.125 C 
ATOM      8  C   UNL d   1       0.198   2.283  -2.580  0.00  0.00     0.024 C 
BRANCH   6   9
ATOM      9  C   UNL d   1       2.962   0.969  -0.510  0.00  0.00     0.174 C 
ATOM     10  S   UNL d   1       4.524   1.309  -1.006  0.00  0.00    -0.041 SA
BRANCH   9  11
ATOM     11  N   UNL d   1       2.761  -0.048   0.394  0.00  0.00    -0.333 N 
ATOM     12  H   UNL d   1       3.581  -0.330   0.918  0.00  0.00     0.168 HD
BRANCH  11  13
ATOM     13  C   UNL d   1       1.608  -0.848   0.540  0.00  0.00     0.034 A 
ATOM     14  C   UNL d   1       0.677  -1.020  -0.490  0.00  0.00     0.029 A 
ATOM     15  C   UNL d   1      -0.477  -1.781  -0.292  0.00  0.00     0.002 A 
ATOM     16  C   UNL d   1      -0.700  -2.389   0.939  0.00  0.00     0.000 A 
ATOM     17  C   UNL d   1       0.247  -2.265   1.956  0.00  0.00     0.002 A 
ATOM     18  C   UNL d   1       1.409  -1.514   1.751  0.00  0.00     0.029 A 
ENDBRANCH  11  13
ENDBRANCH   9  11
ENDBRANCH   6   9
ENDBRANCH   2   3
ENDBRANCH   1   2
BRANCH   1  19
ATOM     19  C   UNL d   1      -1.701   6.661  -0.782  0.00  0.00     0.005 C 
BRANCH  19  20
ATOM     20  C   UNL d   1      -2.801   7.266   0.125  0.00  0.00    -0.012 C 
ATOM     21  C   UNL d   1      -4.220   6.792  -0.240  0.00  0.00     0.024 C 
ATOM     22  C   UNL d   1      -4.640   7.320  -1.610  0.00  0.00     0.125 C 
ATOM     23  N   UNL d   1      -4.612   8.779  -1.598  0.00  0.00    -0.358 N 
ATOM     24  C   UNL d   1      -3.372   9.418  -1.145  0.00  0.00     0.125 C 
ATOM     25  C   UNL d   1      -2.785   8.805   0.124  0.00  0.00     0.024 C 
BRANCH  23  26
ATOM     26  C   UNL d   1      -5.796   9.459  -1.749  0.00  0.00     0.174 C 
ATOM     27  S   UNL d   1      -6.501  10.371  -0.533  0.00  0.00    -0.041 SA
BRANCH  26  28
ATOM     28  N   UNL d   1      -6.495   9.286  -2.916  0.00  0.00    -0.333 N 
ATOM     29  H   UNL d   1      -7.462   9.579  -2.840  0.00  0.00     0.168 HD
BRANCH  28  30
ATOM     30  C   UNL d   1      -6.000   9.231  -4.244  0.00  0.00     0.034 A 
ATOM     31  C   UNL d   1      -4.644   9.232  -4.584  0.00  0.00     0.029 A 
ATOM     32  C   UNL d   1      -4.236   9.337  -5.916  0.00  0.00     0.002 A 
ATOM     33  C   UNL d   1      -5.181   9.441  -6.930  0.00  0.00     0.000 A 
ATOM     34  C   UNL d   1      -6.536   9.413  -6.613  0.00  0.00     0.002 A 
ATOM     35  C   UNL d   1      -6.941   9.303  -5.279  0.00  0.00     0.029 A 
ENDBRANCH  28  30
ENDBRANCH  26  28
ENDBRANCH  23  26
ENDBRANCH  19  20
ENDBRANCH   1  19
TORSDOF 10
