REMARK  3 active torsions:
REMARK  status: ('A' for Active; 'I' for Inactive)
REMARK    1  A    between atoms: C_8  and  C_2 
REMARK    2  A    between atoms: N_6  and  C_3 
REMARK       I    between atoms: C_11  and  N_6 
REMARK       I    between atoms: C_12  and  N_6 
REMARK    3  A    between atoms: O_20  and  C_8 
ROOT
ATOM      1  C   UNL d   1      -1.671  -0.643   0.192  0.00  0.00    -0.002 C 
ATOM      2  C   UNL d   1      -3.080   1.202  -0.117  0.00  0.00     0.108 C 
ATOM      3  C   UNL d   1      -3.079  -0.167   0.162  0.00  0.00     0.077 C 
ATOM      4  C   UNL d   1      -0.753   0.393   0.111  0.00  0.00     0.026 C 
ATOM      5  S   UNL d   1      -1.507   1.884  -0.075  0.00  0.00    -0.081 SA
ATOM      6  C   UNL d   1       0.715   0.286   0.109  0.00  0.00     0.000 A 
ATOM      7  C   UNL d   1      -1.186  -2.064   0.323  0.00  0.00     0.121 C 
ATOM      8  S   UNL d   1       0.338  -2.395  -0.636  0.00  0.00    -0.124 SA
ATOM      9  C   UNL d   1       1.310  -0.950  -0.207  0.00  0.00     0.012 A 
ATOM     10  C   UNL d   1       1.545   1.391   0.373  0.00  0.00     0.038 A 
ATOM     11  C   UNL d   1       2.707  -1.056  -0.267  0.00  0.00     0.021 A 
ATOM     12  C   UNL d   1       2.932   1.272   0.302  0.00  0.00     0.035 A 
ATOM     13  C   UNL d   1       3.516   0.052  -0.013  0.00  0.00     0.025 A 
ATOM     14 CL   UNL d   1       3.920   2.654   0.582  0.00  0.00    -0.084 Cl
ENDROOT
BRANCH   3  15
ATOM     15  N   UNL d   1      -4.220  -1.016   0.357  0.00  0.00    -0.251 N 
ATOM     16  C   UNL d   1      -5.518  -0.655   0.011  0.00  0.00     0.227 C 
ATOM     17  O   UNL d   1      -6.485  -0.842   0.749  0.00  0.00    -0.273 OA
ATOM     18  C   UNL d   1      -5.749  -0.151  -1.391  0.00  0.00     0.118 C 
ATOM     19  C   UNL d   1      -4.097  -2.092   1.234  0.00  0.00     0.227 C 
ATOM     20  O   UNL d   1      -3.330  -2.115   2.203  0.00  0.00    -0.273 OA
ATOM     21  C   UNL d   1      -4.898  -3.336   0.898  0.00  0.00     0.118 C 
ENDBRANCH   3  15
BRANCH   2  22
ATOM     22  C   UNL d   1      -4.112   2.200  -0.306  0.00  0.00     0.302 C 
ATOM     23  O   UNL d   1      -5.099   2.363   0.396  0.00  0.00    -0.259 OA
BRANCH  22  24
ATOM     24  O   UNL d   1      -3.775   2.964  -1.385  0.00  0.00    -0.322 OA
ATOM     25  C   UNL d   1      -4.238   4.313  -1.413  0.00  0.00     0.213 C 
ENDBRANCH  22  24
ENDBRANCH   2  22
TORSDOF 3
