REMARK  2 active torsions:
REMARK  status: ('A' for Active; 'I' for Inactive)
REMARK    1  A    between atoms: C_2  and  C_1 
REMARK       I    between atoms: N_7  and  C_2 
REMARK    2  A    between atoms: O_11  and  C_8 
ROOT
ATOM      1  C   UNL d   1       0.898  -1.188  -0.013  0.00  0.00     0.051 A 
ATOM      2  C   UNL d   1       0.266   0.063  -0.021  0.00  0.00     0.026 A 
ATOM      3  C   UNL d   1       2.309  -1.241   0.009  0.00  0.00     0.055 A 
ATOM      4  C   UNL d   1       1.041   1.232  -0.010  0.00  0.00     0.023 A 
ATOM      5  C   UNL d   1       3.077  -0.077   0.017  0.00  0.00     0.069 A 
ATOM      6 BR   UNL d   1      -1.616   0.321   0.011  0.00  0.00    -0.050 Br
ATOM      7  C   UNL d   1       2.434   1.159   0.007  0.00  0.00     0.038 A 
ENDROOT
BRANCH   1   8
ATOM      8  C   UNL d   1       0.221  -2.517   0.001  0.00  0.00     0.250 C 
ATOM      9  O   UNL d   1       0.754  -3.490   0.521  0.00  0.00    -0.268 OA
ATOM     10  N   UNL d   1      -0.980  -2.654  -0.631  0.00  0.00    -0.366 N 
ATOM     11  H   UNL d   1      -1.478  -1.888  -1.060  0.00  0.00     0.159 HD
ATOM     12  H   UNL d   1      -1.418  -3.566  -0.606  0.00  0.00     0.159 HD
ENDBRANCH   1   8
BRANCH   5  13
ATOM     13  O   UNL d   1       4.441  -0.009   0.036  0.00  0.00    -0.356 OA
ATOM     14  C   UNL d   1       5.150  -1.243   0.045  0.00  0.00     0.210 C 
ENDBRANCH   5  13
TORSDOF 2
