REMARK  9 active torsions:
REMARK  status: ('A' for Active; 'I' for Inactive)
REMARK    1  A    between atoms: O_12  and  C_1 
REMARK       I    between atoms: N_5  and  C_8 
REMARK    2  A    between atoms: C_13  and  N_5 
REMARK    3  A    between atoms: C_14  and  N_5 
REMARK    4  A    between atoms: C_18  and  C_6 
REMARK    5  A    between atoms: C_8  and  C_16 
REMARK    6  A    between atoms: C_16  and  O_12 
REMARK    7  A    between atoms: C_15  and  C_13 
REMARK    8  A    between atoms: O_24  and  C_15 
REMARK    9  A    between atoms: C_29  and  O_24 
ROOT
ATOM      1  C   UNL d   1       0.274   0.995  -1.278  0.00  0.00     0.165 A 
ATOM      2  C   UNL d   1      -0.560   0.432  -2.240  0.00  0.00     0.101 A 
ATOM      3  N   UNL d   1       0.868   0.268  -0.297  0.00  0.00    -0.335 N 
ATOM      4  HN  UNL d   1       1.474   0.724   0.385  1.00  0.00     0.168 HD
ATOM      5  C   UNL d   1       0.650  -1.064  -0.231  0.00  0.00     0.044 A 
ATOM      6  C   UNL d   1      -0.814  -0.953  -2.158  0.00  0.00    -0.035 A 
ATOM      7  C   UNL d   1      -1.128   1.238  -3.286  0.00  0.00     0.104 C 
ATOM      8  N   UNL d   1      -1.593   1.835  -4.163  0.00  0.00    -0.191 NA
ATOM      9  C   UNL d   1      -0.196  -1.694  -1.136  0.00  0.00     0.038 A 
ATOM     10  C   UNL d   1      -1.753  -1.704  -3.065  0.00  0.00     0.050 C 
ENDROOT
BRANCH   1  11
ATOM     11  O   UNL d   1       0.524   2.363  -1.289  0.00  0.00    -0.325 OA
BRANCH  11  12
ATOM     12  C   UNL d   1       1.340   2.758  -0.185  0.00  0.00     0.280 C 
BRANCH  12  13
ATOM     13  C   UNL d   1       1.750   4.235  -0.019  0.00  0.00     0.249 C 
ATOM     14  N   UNL d   1       0.838   5.240  -0.302  0.00  0.00    -0.307 N 
ATOM     15  O   UNL d   1       2.895   4.503   0.367  0.00  0.00    -0.271 OA
BRANCH  14  16
ATOM     16  C   UNL d   1       1.275   6.640  -0.137  0.00  0.00     0.243 C 
BRANCH  16  17
ATOM     17  C   UNL d   1       0.932   7.273   1.219  0.00  0.00     0.277 C 
ATOM     18  O   UNL d   1       0.388   6.721   2.165  0.00  0.00    -0.263 OA
BRANCH  17  19
ATOM     19  O   UNL d   1       1.280   8.596   1.183  0.00  0.00    -0.321 OA
BRANCH  19  20
ATOM     20  C   UNL d   1       0.750   9.426   2.230  0.00  0.00     0.174 C 
ATOM     21  C   UNL d   1      -0.526  10.067   1.714  0.00  0.00     0.034 C 
ENDBRANCH  19  20
ENDBRANCH  17  19
ENDBRANCH  16  17
ENDBRANCH  14  16
BRANCH  14  22
ATOM     22  C   UNL d   1      -0.560   5.034  -0.370  0.00  0.00     0.037 A 
ATOM     23  C   UNL d   1      -1.259   4.536   0.732  0.00  0.00     0.030 A 
ATOM     24  C   UNL d   1      -2.655   4.519   0.723  0.00  0.00     0.009 A 
ATOM     25  C   UNL d   1      -3.363   4.978  -0.394  0.00  0.00    -0.062 A 
ATOM     26  C   UNL d   1      -2.654   5.413  -1.520  0.00  0.00     0.009 A 
ATOM     27  C   UNL d   1      -4.862   5.030  -0.361  0.00  0.00     0.048 C 
ATOM     28  C   UNL d   1      -1.260   5.461  -1.500  0.00  0.00     0.030 A 
ENDBRANCH  14  22
ENDBRANCH  12  13
ENDBRANCH  11  12
ENDBRANCH   1  11
BRANCH   5  29
ATOM     29  C   UNL d   1       1.323  -1.774   0.873  0.00  0.00    -0.009 A 
ATOM     30  C   UNL d   1       1.584  -1.121   2.093  0.00  0.00     0.013 A 
ATOM     31  C   UNL d   1       2.167  -1.793   3.170  0.00  0.00     0.001 A 
ATOM     32  C   UNL d   1       2.513  -3.135   3.047  0.00  0.00     0.000 A 
ATOM     33  C   UNL d   1       2.299  -3.796   1.842  0.00  0.00     0.001 A 
ATOM     34  C   UNL d   1       1.717  -3.121   0.765  0.00  0.00     0.013 A 
ENDBRANCH   5  29
TORSDOF 9
