REMARK  6 active torsions:
REMARK  status: ('A' for Active; 'I' for Inactive)
REMARK    1  A    between atoms: N_2  and  S_1 
REMARK    2  A    between atoms: C_11  and  S_1 
REMARK    3  A    between atoms: C_3  and  N_2 
REMARK    4  A    between atoms: C_4  and  C_9 
REMARK    5  A    between atoms: C_6  and  O_10 
REMARK    6  A    between atoms: O_10  and  C_8 
ROOT
ATOM      1  C   UNL d   1       0.483  -2.286  -1.430  0.00  0.00     0.077 A 
ATOM      2  C   UNL d   1       1.846  -2.535  -1.641  0.00  0.00     0.103 A 
ATOM      3  C   UNL d   1      -0.063  -3.585  -3.410  0.00  0.00     0.050 A 
ATOM      4  C   UNL d   1      -0.469  -2.792  -2.320  0.00  0.00     0.049 A 
ATOM      5  C   UNL d   1       2.252  -3.278  -2.755  0.00  0.00     0.040 A 
ATOM      6  C   UNL d   1       1.306  -3.782  -3.642  0.00  0.00     0.019 A 
ENDROOT
BRANCH   1   7
ATOM      7  N   UNL d   1       0.078  -1.521  -0.294  0.00  0.00    -0.278 N 
ATOM      8  H   UNL d   1       0.640  -1.655   0.547  0.00  0.00     0.179 HD
BRANCH   7   9
ATOM      9  S   UNL d   1      -0.344   0.102  -0.480  0.00  0.00     0.263 S 
ATOM     10  O   UNL d   1      -0.341   0.673   0.844  0.00  0.00    -0.200 OA
ATOM     11  O   UNL d   1      -1.516   0.176  -1.327  0.00  0.00    -0.200 OA
BRANCH   9  12
ATOM     12  C   UNL d   1       1.010   0.844  -1.375  0.00  0.00     0.080 A 
ATOM     13  C   UNL d   1       0.886   1.072  -2.750  0.00  0.00     0.027 A 
ATOM     14  C   UNL d   1       1.928   1.688  -3.449  0.00  0.00     0.025 A 
ATOM     15  C   UNL d   1       3.079   2.087  -2.770  0.00  0.00     0.034 A 
ATOM     16  C   UNL d   1       3.194   1.888  -1.392  0.00  0.00     0.025 A 
ATOM     17 CL   UNL d   1       4.399   2.750  -3.653  0.00  0.00    -0.084 Cl
ATOM     18  C   UNL d   1       2.155   1.268  -0.687  0.00  0.00     0.027 A 
ENDBRANCH   9  12
ENDBRANCH   7   9
ENDBRANCH   1   7
BRANCH   2  19
ATOM     19  O   UNL d   1       2.716  -2.059  -0.676  0.00  0.00    -0.308 OA
BRANCH  19  20
ATOM     20  C   UNL d   1       4.028  -1.929  -1.029  0.00  0.00     0.083 C 
ATOM     21  C   UNL d   1       4.992  -2.684  -0.399  0.00  0.00    -0.017 C 
ATOM     22  C   UNL d   1       6.313  -2.660  -0.865  0.00  0.00    -0.043 C 
ATOM     23  C   UNL d   1       4.861  -3.650   0.732  0.00  0.00     0.042 C 
ATOM     24  C   UNL d   1       7.072  -3.822  -0.290  0.00  0.00     0.040 C 
ATOM     25  C   UNL d   1       6.742  -1.701  -1.776  0.00  0.00    -0.055 C 
ATOM     26  C   UNL d   1       5.921  -4.661   0.302  0.00  0.00     0.009 C 
ATOM     27  C   UNL d   1       5.765  -0.912  -2.386  0.00  0.00     0.010 C 
ATOM     28  C   UNL d   1       8.192  -1.425  -2.026  0.00  0.00     0.049 C 
ATOM     29  C   UNL d   1       4.418  -1.076  -2.060  0.00  0.00     0.038 C 
ENDBRANCH  19  20
ENDBRANCH   2  19
BRANCH   3  30
ATOM     30  C   UNL d   1      -1.055  -4.294  -4.301  0.00  0.00     0.417 C 
ATOM     31  F   UNL d   1      -2.345  -4.185  -3.885  0.00  0.00    -0.166 F 
ATOM     32  F   UNL d   1      -1.025  -3.842  -5.583  0.00  0.00    -0.166 F 
ATOM     33  F   UNL d   1      -0.800  -5.632  -4.373  0.00  0.00    -0.166 F 
ENDBRANCH   3  30
TORSDOF 6
