REMARK  1 active torsions:
REMARK  status: ('A' for Active; 'I' for Inactive)
REMARK    1  A    between atoms: C_2  and  C_1 
REMARK       I    between atoms: N_4  and  C_1 
ROOT
ATOM      1  C   UNL d   1       0.143  -0.850  -0.782  0.00  0.00     0.032 A 
ATOM      2  C   UNL d   1      -0.982  -0.382  -1.475  0.00  0.00     0.018 A 
ATOM      3  C   UNL d   1       0.458  -2.215  -0.815  0.00  0.00     0.018 A 
ATOM      4  C   UNL d   1      -1.429  -2.620  -2.268  0.00  0.00     0.034 A 
ATOM      5  C   UNL d   1      -1.764  -1.267  -2.223  0.00  0.00     0.025 A 
ATOM      6  C   UNL d   1      -0.326  -3.099  -1.563  0.00  0.00     0.025 A 
ATOM      7 CL   UNL d   1      -2.392  -3.703  -3.194  0.00  0.00    -0.084 Cl
ENDROOT
BRANCH   1   8
ATOM      8  C   UNL d   1       1.003   0.068   0.021  0.00  0.00     0.251 C 
ATOM      9  O   UNL d   1       1.608  -0.357   0.998  0.00  0.00    -0.268 OA
ATOM     10  N   UNL d   1       1.067   1.371  -0.424  0.00  0.00    -0.361 N 
ATOM     11  C   UNL d   1       1.812   2.393   0.268  0.00  0.00     0.149 C 
ATOM     12  H   UNL d   1       0.659   1.617  -1.315  0.00  0.00     0.162 HD
ENDBRANCH   1   8
TORSDOF 1
