REMARK  6 active torsions:
REMARK  status: ('A' for Active; 'I' for Inactive)
REMARK    1  A    between atoms: C_7  and  C_2 
REMARK    2  A    between atoms: C_5  and  O_8 
REMARK    3  A    between atoms: C_9  and  C_5 
REMARK    4  A    between atoms: O_22  and  C_7 
REMARK    5  A    between atoms: O_8  and  C_14 
REMARK    6  A    between atoms: C_10  and  C_11 
ROOT
ATOM      1  C   UNL d   1      -0.229  -5.747   1.440  0.00  0.00     0.077 C 
ATOM      2  C   UNL d   1      -0.556  -7.021   1.708  0.00  0.00     0.110 C 
ATOM      3  C   UNL d   1       0.512  -4.989   2.502  0.00  0.00     0.242 C 
ATOM      4  N   UNL d   1      -0.527  -5.084   0.240  0.00  0.00    -0.286 NA
ATOM      5  N   UNL d   1       1.837  -4.812   2.202  0.00  0.00    -0.255 NA
ATOM      6  O   UNL d   1      -0.028  -4.538   3.504  0.00  0.00    -0.273 OA
ATOM      7  C   UNL d   1       1.175  -3.208   0.322  0.00  0.00     0.158 C 
ATOM      8  C   UNL d   1       0.551  -4.367  -0.485  0.00  0.00     0.126 C 
ATOM      9  C   UNL d   1       2.187  -3.652   1.402  0.00  0.00     0.129 C 
ATOM     10  H   UNL d   1      -1.284  -4.423   0.432  0.00  0.00     0.128 HD
ATOM     11  H   UNL d   1       2.354  -4.800   3.073  0.00  0.00     0.130 HD
ENDROOT
BRANCH   7  12
ATOM     12  O   UNL d   1       1.760  -2.169  -0.521  0.00  0.00    -0.310 OA
BRANCH  12  13
ATOM     13  C   UNL d   1       2.769  -2.520  -1.357  0.00  0.00     0.293 C 
ATOM     14  O   UNL d   1       3.163  -3.661  -1.543  0.00  0.00    -0.259 OA
BRANCH  13  15
ATOM     15  C   UNL d   1       3.422  -1.328  -1.965  0.00  0.00     0.039 A 
ATOM     16  C   UNL d   1       4.632  -1.511  -2.641  0.00  0.00     0.018 A 
ATOM     17  C   UNL d   1       5.343  -0.412  -3.141  0.00  0.00     0.009 A 
ATOM     18  C   UNL d   1       4.869   0.903  -2.978  0.00  0.00    -0.051 A 
ATOM     19  C   UNL d   1       3.618   1.060  -2.354  0.00  0.00     0.009 A 
ATOM     20  C   UNL d   1       2.904  -0.038  -1.848  0.00  0.00     0.018 A 
BRANCH  18  21
ATOM     21  C   UNL d   1       5.743   2.100  -3.406  0.00  0.00    -0.024 C 
ATOM     22  C   UNL d   1       5.080   3.472  -3.151  0.00  0.00     0.019 C 
ATOM     23  C   UNL d   1       7.059   2.074  -2.594  0.00  0.00     0.019 C 
ATOM     24  C   UNL d   1       6.087   2.030  -4.909  0.00  0.00     0.019 C 
ENDBRANCH  18  21
ENDBRANCH  13  15
ENDBRANCH  12  13
ENDBRANCH   7  12
BRANCH   2  25
ATOM     25  C   UNL d   1      -0.107  -7.740   2.924  0.00  0.00     0.284 C 
ATOM     26  O   UNL d   1       0.843  -7.437   3.625  0.00  0.00    -0.260 OA
BRANCH  25  27
ATOM     27  O   UNL d   1      -0.895  -8.833   3.098  0.00  0.00    -0.323 OA
ATOM     28  C   UNL d   1      -0.520  -9.614   4.236  0.00  0.00     0.213 C 
ENDBRANCH  25  27
ENDBRANCH   2  25
TORSDOF 6
