REMARK  4 active torsions:
REMARK  status: ('A' for Active; 'I' for Inactive)
REMARK    1  A    between atoms: C_9  and  C_1 
REMARK    2  A    between atoms: O_11  and  C_3 
REMARK    3  A    between atoms: C_13  and  N_5 
REMARK    4  A    between atoms: C_14  and  C_13 
ROOT
ATOM      1  C   UNL d   1       0.018   2.341  -0.006  0.00  0.00     0.015 A 
ATOM      2  C   UNL d   1       1.105   0.183   0.023  0.00  0.00     0.046 A 
ATOM      3  C   UNL d   1       1.189   1.581   0.041  0.00  0.00     0.094 A 
ATOM      4  C   UNL d   1      -0.136  -0.454  -0.041  0.00  0.00     0.041 A 
ATOM      5  C   UNL d   1      -1.229   1.704  -0.074  0.00  0.00     0.034 A 
ATOM      6  C   UNL d   1      -1.297   0.314  -0.090  0.00  0.00     0.013 A 
ATOM      7 BR   UNL d   1       2.671  -0.884   0.092  0.00  0.00    -0.048 Br
ATOM      8 BR   UNL d   1      -2.983  -0.537  -0.171  0.00  0.00    -0.051 Br
ENDROOT
BRANCH   1   9
ATOM      9  C   UNL d   1       0.067   3.819   0.036  0.00  0.00     0.097 C 
ATOM     10  N   UNL d   1      -1.018   4.511  -0.030  0.00  0.00    -0.394 N 
ATOM     11  HN  UNL d   1      -1.931   4.072  -0.150  1.00  0.00     0.159 HD
BRANCH  10  12
ATOM     12  C   UNL d   1      -0.866   5.963   0.077  0.00  0.00     0.157 C 
BRANCH  12  13
ATOM     13  C   UNL d   1      -1.634   6.506   1.260  0.00  0.00    -0.041 A 
ATOM     14  C   UNL d   1      -0.984   7.223   2.273  0.00  0.00     0.009 A 
ATOM     15  C   UNL d   1      -1.704   7.728   3.358  0.00  0.00     0.001 A 
ATOM     16  C   UNL d   1      -3.080   7.521   3.442  0.00  0.00     0.000 A 
ATOM     17  C   UNL d   1      -3.738   6.807   2.442  0.00  0.00     0.001 A 
ATOM     18  C   UNL d   1      -3.019   6.303   1.358  0.00  0.00     0.009 A 
ENDBRANCH  12  13
ENDBRANCH  10  12
ENDBRANCH   1   9
BRANCH   3  19
ATOM     19  O   UNL d   1       2.404   2.210   0.107  0.00  0.00    -0.358 OA
ATOM     20  H   UNL d   1       3.096   1.522   0.140  0.00  0.00     0.217 HD
ENDBRANCH   3  19
TORSDOF 4
