REMARK  1 active torsions:
REMARK  status: ('A' for Active; 'I' for Inactive)
REMARK    1  A    between atoms: C_3  and  C_4 
ROOT
ATOM      1  C   UNL d   1      -2.442   0.459  -0.419  0.00  0.00     0.003 C 
ATOM      2  C   UNL d   1      -1.214   1.296  -0.314  0.00  0.00     0.190 C 
ATOM      3  C   UNL d   1      -3.363   0.877  -1.309  0.00  0.00     0.025 C 
ATOM      4  C   UNL d   1       0.080   0.592  -0.117  0.00  0.00     0.031 A 
ATOM      5  S   UNL d   1      -1.240  -1.892   0.040  0.00  0.00    -0.124 SA
ATOM      6  C   UNL d   1       0.177  -0.803  -0.026  0.00  0.00     0.015 A 
ATOM      7  C   UNL d   1      -2.487  -0.675   0.542  0.00  0.00     0.122 C 
ATOM      8  O   UNL d   1      -1.266   2.520  -0.390  0.00  0.00    -0.287 OA
ATOM      9  C   UNL d   1       1.244   1.381  -0.079  0.00  0.00     0.017 A 
ATOM     10  C   UNL d   1       1.446  -1.395   0.032  0.00  0.00     0.019 A 
ATOM     11  C   UNL d   1       2.498   0.781   0.004  0.00  0.00     0.001 A 
ATOM     12  C   UNL d   1       2.599  -0.607   0.043  0.00  0.00     0.001 A 
ENDROOT
BRANCH   3  13
ATOM     13  C   UNL d   1      -4.664   0.349  -1.569  0.00  0.00    -0.008 C 
ATOM     14  C   UNL d   1      -5.086  -0.956  -1.434  0.00  0.00     0.100 C 
ATOM     15  N   UNL d   1      -6.437  -0.987  -1.670  0.00  0.00    -0.364 N 
ATOM     16  C   UNL d   1      -6.889   0.264  -2.016  0.00  0.00     0.043 A 
ATOM     17  H   UNL d   1      -7.020  -1.809  -1.607  0.00  0.00     0.165 HD
ATOM     18  C   UNL d   1      -5.779   1.111  -2.036  0.00  0.00     0.002 A 
ATOM     19  C   UNL d   1      -8.184   0.707  -2.308  0.00  0.00     0.030 A 
ATOM     20  C   UNL d   1      -5.964   2.450  -2.437  0.00  0.00     0.014 A 
ATOM     21  C   UNL d   1      -7.247   2.903  -2.762  0.00  0.00     0.001 A 
ATOM     22  C   UNL d   1      -8.341   2.047  -2.675  0.00  0.00     0.002 A 
ENDBRANCH   3  13
TORSDOF 1
