REMARK  10 active torsions:
REMARK  status: ('A' for Active; 'I' for Inactive)
REMARK    1  A    between atoms: N_3  and  S_1 
REMARK    2  A    between atoms: C_15  and  S_1 
REMARK    3  A    between atoms: S_2  and  N_6 
REMARK    4  A    between atoms: C_12  and  S_2 
REMARK    5  A    between atoms: C_11  and  C_4 
REMARK    6  A    between atoms: N_6  and  N_8 
REMARK    7  A    between atoms: C_20  and  C_11 
REMARK    8  A    between atoms: C_18  and  C_23 
REMARK    9  A    between atoms: O_26  and  C_18 
REMARK   10  A    between atoms: C_23  and  C_20 
ROOT
ATOM      1  N   UNL d   1      -1.081  -3.620  -4.921  0.00  0.00    -0.294 N 
ATOM      2  HN  UNL d   1      -1.125  -4.499  -5.436  1.00  0.00     0.187 HD
ATOM      3  C   UNL d   1      -0.290  -3.501  -3.892  0.00  0.00     0.038 C 
ENDROOT
BRANCH   3   4
ATOM      4  C   UNL d   1       0.516  -4.691  -3.580  0.00  0.00     0.006 A 
ATOM      5  C   UNL d   1       1.446  -4.836  -2.557  0.00  0.00     0.122 A 
ATOM      6  N   UNL d   1       1.960  -6.109  -2.625  0.00  0.00    -0.257 N 
ATOM      7  C   UNL d   1       1.419  -6.789  -3.679  0.00  0.00     0.110 A 
ATOM      8  C   UNL d   1       0.510  -5.944  -4.279  0.00  0.00     0.033 A 
BRANCH   6   9
ATOM      9  S   UNL d   1       3.162  -6.738  -1.594  0.00  0.00     0.268 S 
ATOM     10  O   UNL d   1       2.877  -8.155  -1.489  0.00  0.00    -0.200 OA
ATOM     11  O   UNL d   1       3.178  -5.866  -0.435  0.00  0.00    -0.200 OA
BRANCH   9  12
ATOM     12  C   UNL d   1       4.690  -6.534  -2.476  0.00  0.00     0.080 A 
ATOM     13  C   UNL d   1       5.432  -5.360  -2.308  0.00  0.00     0.025 A 
ATOM     14  C   UNL d   1       6.692  -5.250  -2.901  0.00  0.00     0.002 A 
ATOM     15  C   UNL d   1       7.209  -6.308  -3.651  0.00  0.00     0.000 A 
ATOM     16  C   UNL d   1       6.466  -7.479  -3.815  0.00  0.00     0.002 A 
ATOM     17  C   UNL d   1       5.207  -7.597  -3.225  0.00  0.00     0.025 A 
ENDBRANCH   9  12
ENDBRANCH   6   9
ENDBRANCH   3   4
BRANCH   3  18
ATOM     18  C   UNL d   1      -0.173  -2.255  -3.031  0.00  0.00     0.069 C 
BRANCH  18  19
ATOM     19  C   UNL d   1      -1.184  -2.276  -1.886  0.00  0.00     0.117 C 
BRANCH  19  20
ATOM     20  C   UNL d   1      -1.044  -1.043  -1.026  0.00  0.00     0.258 C 
ATOM     21  O   UNL d   1      -0.251  -0.136  -1.229  0.00  0.00    -0.265 OA
BRANCH  20  22
ATOM     22  O   UNL d   1      -1.935  -1.090   0.004  0.00  0.00    -0.326 OA
ATOM     23  C   UNL d   1      -1.881   0.039   0.879  0.00  0.00     0.213 C 
ENDBRANCH  20  22
ENDBRANCH  19  20
ENDBRANCH  18  19
ENDBRANCH   3  18
BRANCH   1  24
ATOM     24  N   UNL d   1      -1.890  -2.508  -5.321  0.00  0.00    -0.223 N 
ATOM     25  H   UNL d   1      -1.843  -1.571  -4.922  0.00  0.00     0.200 HD
BRANCH  24  26
ATOM     26  S   UNL d   1      -2.967  -2.607  -6.629  0.00  0.00     0.276 S 
ATOM     27  O   UNL d   1      -3.867  -3.722  -6.418  0.00  0.00    -0.199 OA
ATOM     28  O   UNL d   1      -3.479  -1.264  -6.816  0.00  0.00    -0.199 OA
BRANCH  26  29
ATOM     29  C   UNL d   1      -1.921  -2.982  -8.017  0.00  0.00     0.081 A 
ATOM     30  C   UNL d   1      -1.748  -4.313  -8.404  0.00  0.00     0.026 A 
ATOM     31  C   UNL d   1      -1.022  -4.610  -9.560  0.00  0.00     0.008 A 
ATOM     32  C   UNL d   1      -0.471  -3.583 -10.339  0.00  0.00    -0.062 A 
ATOM     33  C   UNL d   1      -0.656  -2.251  -9.945  0.00  0.00     0.008 A 
ATOM     34  C   UNL d   1       0.283  -3.922 -11.593  0.00  0.00     0.048 C 
ATOM     35  C   UNL d   1      -1.385  -1.947  -8.790  0.00  0.00     0.026 A 
ENDBRANCH  26  29
ENDBRANCH  24  26
ENDBRANCH   1  24
TORSDOF 10
