REMARK  4 active torsions:
REMARK  status: ('A' for Active; 'I' for Inactive)
REMARK    1  A    between atoms: C_8  and  C_1 
REMARK    2  A    between atoms: C_3  and  C_2 
REMARK       I    between atoms: N_9  and  C_3 
REMARK    3  A    between atoms: C_6  and  N_9 
REMARK    4  A    between atoms: S_20  and  C_12 
ROOT
ATOM      1  C   UNL d   1      -1.247  -0.479  -0.480  0.00  0.00     0.086 A 
ATOM      2  C   UNL d   1      -0.023  -1.195  -0.217  0.00  0.00     0.093 A 
ATOM      3  N   UNL d   1      -1.004   0.824  -0.668  0.00  0.00    -0.259 N 
ATOM      4  HN  UNL d   1      -1.685   1.544  -0.908  1.00  0.00     0.195 HD
ATOM      5  O   UNL d   1       0.339   0.998  -0.476  0.00  0.00    -0.241 OA
ATOM      6  C   UNL d   1       0.934  -0.192  -0.194  0.00  0.00     0.090 A 
ATOM      7  C   UNL d   1       2.382  -0.054   0.063  0.00  0.00     0.080 C 
ENDROOT
BRANCH   2   8
ATOM      8  C   UNL d   1       0.097  -2.635  -0.018  0.00  0.00     0.274 C 
ATOM      9  N   UNL d   1       1.355  -3.178  -0.120  0.00  0.00    -0.154 N 
ATOM     10  H   UNL d   1       2.186  -2.627  -0.246  0.00  0.00     0.187 HD
ATOM     11  O   UNL d   1      -0.902  -3.325   0.196  0.00  0.00    -0.267 OA
BRANCH   9  12
ATOM     12  C   UNL d   1       1.567  -4.535  -0.085  0.00  0.00     0.701 A 
ATOM     13  N   UNL d   1       0.583  -5.480  -0.127  0.00  0.00    -0.168 N 
ATOM     14  C   UNL d   1       1.213  -6.680  -0.117  0.00  0.00     0.174 A 
ATOM     15  H   UNL d   1      -0.411  -5.303  -0.185  0.00  0.00     0.186 HD
ATOM     16  N   UNL d   1       2.510  -6.505  -0.049  0.00  0.00    -0.265 N 
ATOM     17  N   UNL d   1       2.737  -5.138  -0.049  0.00  0.00    -0.130 N 
ATOM     18  HN  UNL d   1       3.218  -7.238  -0.004  1.00  0.00     0.189 HD
ATOM     19  HN  UNL d   1       3.648  -4.680  -0.026  1.00  0.00     0.205 HD
BRANCH  14  20
ATOM     20  S   UNL d   1       0.317  -8.140  -0.224  0.00  0.00    -0.097 SA
ATOM     21  C   UNL d   1       0.919  -9.020   1.233  0.00  0.00     0.099 C 
ENDBRANCH  14  20
ENDBRANCH   9  12
ENDBRANCH   2   8
BRANCH   1  22
ATOM     22  C   UNL d   1      -2.622  -0.972  -0.579  0.00  0.00     0.037 A 
ATOM     23  C   UNL d   1      -3.600  -0.553   0.345  0.00  0.00     0.048 A 
ATOM     24 CL   UNL d   1      -3.237   0.472   1.695  0.00  0.00    -0.083 Cl
ATOM     25  C   UNL d   1      -4.933  -0.971   0.222  0.00  0.00     0.025 A 
ATOM     26  C   UNL d   1      -5.306  -1.830  -0.808  0.00  0.00     0.003 A 
ATOM     27  C   UNL d   1      -4.349  -2.267  -1.720  0.00  0.00     0.025 A 
ATOM     28  C   UNL d   1      -3.020  -1.833  -1.618  0.00  0.00     0.048 A 
ATOM     29 CL   UNL d   1      -1.926  -2.385  -2.845  0.00  0.00    -0.083 Cl
ENDBRANCH   1  22
TORSDOF 4
