REMARK  4 active torsions:
REMARK  status: ('A' for Active; 'I' for Inactive)
REMARK       I    between atoms: N_2  and  C_1 
REMARK    1  A    between atoms: C_3  and  C_1 
REMARK    2  A    between atoms: C_5  and  N_2 
REMARK    3  A    between atoms: O_9  and  C_7 
REMARK    4  A    between atoms: C_12  and  O_9 
ROOT
ATOM      1  C   UNL d   1       3.166  -0.094  -0.508  0.00  0.00     0.256 C 
ATOM      2  N   UNL d   1       3.165  -1.238   0.277  0.00  0.00    -0.323 N 
ATOM      3  O   UNL d   1       2.768  -0.018  -1.665  0.00  0.00    -0.267 OA
ATOM      4  H   UNL d   1       3.629  -1.195   1.173  0.00  0.00     0.169 HD
ENDROOT
BRANCH   2   5
ATOM      5  C   UNL d   1       2.592  -2.490  -0.039  0.00  0.00     0.037 A 
ATOM      6  C   UNL d   1       1.659  -2.678  -1.062  0.00  0.00     0.066 A 
ATOM      7  C   UNL d   1       1.108  -3.942  -1.295  0.00  0.00     0.071 A 
ATOM      8  C   UNL d   1       1.483  -5.018  -0.488  0.00  0.00     0.037 A 
ATOM      9  C   UNL d   1       2.415  -4.846   0.530  0.00  0.00     0.005 A 
ATOM     10  C   UNL d   1       2.961  -3.581   0.759  0.00  0.00     0.029 A 
BRANCH   7  11
ATOM     11  O   UNL d   1       0.183  -4.250  -2.254  0.00  0.00    -0.347 OA
BRANCH  11  12
ATOM     12  C   UNL d   1       0.091  -3.407  -3.409  0.00  0.00     0.120 C 
ATOM     13  C   UNL d   1       1.328  -3.560  -4.292  0.00  0.00     0.040 C 
ATOM     14  C   UNL d   1      -1.147  -3.865  -4.180  0.00  0.00     0.040 C 
ENDBRANCH  11  12
ENDBRANCH   7  11
ENDBRANCH   2   5
BRANCH   1  15
ATOM     15  C   UNL d   1       3.741   1.131   0.152  0.00  0.00     0.038 A 
ATOM     16  C   UNL d   1       3.207   2.418  -0.072  0.00  0.00    -0.046 A 
ATOM     17  C   UNL d   1       2.082   2.713  -1.028  0.00  0.00     0.049 C 
ATOM     18  C   UNL d   1       3.787   3.519   0.588  0.00  0.00     0.007 A 
ATOM     19  C   UNL d   1       4.862   3.353   1.460  0.00  0.00     0.001 A 
ATOM     20  C   UNL d   1       5.396   2.090   1.667  0.00  0.00     0.001 A 
ATOM     21  C   UNL d   1       4.850   0.987   1.008  0.00  0.00     0.017 A 
ENDBRANCH   1  15
TORSDOF 4
