REMARK  3 active torsions:
REMARK  status: ('A' for Active; 'I' for Inactive)
REMARK    1  A    between atoms: C_4  and  C_2 
REMARK    2  A    between atoms: C_5  and  C_3 
REMARK       I    between atoms: N_8  and  C_4 
REMARK    3  A    between atoms: C_14  and  N_8 
ROOT
ATOM      1  C   UNL d   1      -0.173   2.628  -0.201  0.00  0.00     0.263 C 
ATOM      2  N   UNL d   1      -1.511   2.944  -0.012  0.00  0.00    -0.323 N 
ATOM      3  O   UNL d   1       0.706   3.471  -0.376  0.00  0.00    -0.267 OA
ATOM      4  H   UNL d   1      -2.126   2.174   0.227  0.00  0.00     0.169 HD
ENDROOT
BRANCH   1   5
ATOM      5  C   UNL d   1       0.191   1.216  -0.172  0.00  0.00     0.073 A 
ATOM      6  S   UNL d   1      -0.896  -0.062   0.139  0.00  0.00    -0.084 SA
ATOM      7  C   UNL d   1       0.354  -1.253   0.093  0.00  0.00     0.022 A 
ATOM      8  C   UNL d   1       1.560  -0.671  -0.254  0.00  0.00     0.022 A 
ATOM      9  C   UNL d   1       1.467   0.737  -0.395  0.00  0.00     0.026 A 
BRANCH   7  10
ATOM     10  C   UNL d   1       0.117  -2.646   0.421  0.00  0.00     0.021 A 
ATOM     11  S   UNL d   1       1.425  -3.753   0.618  0.00  0.00    -0.101 SA
ATOM     12  C   UNL d   1       0.388  -5.030   1.065  0.00  0.00     0.050 A 
ATOM     13  C   UNL d   1      -0.933  -4.650   1.039  0.00  0.00     0.008 A 
ATOM     14  C   UNL d   1      -1.089  -3.284   0.656  0.00  0.00     0.021 A 
ENDBRANCH   7  10
ENDBRANCH   1   5
BRANCH   2  15
ATOM     15  C   UNL d   1      -2.084   4.236  -0.118  0.00  0.00     0.035 A 
ATOM     16  C   UNL d   1      -1.378   5.358  -0.572  0.00  0.00     0.031 A 
ATOM     17  C   UNL d   1      -2.000   6.603  -0.704  0.00  0.00     0.026 A 
ATOM     18  C   UNL d   1      -3.341   6.741  -0.379  0.00  0.00     0.034 A 
ATOM     19  C   UNL d   1      -4.061   5.644   0.089  0.00  0.00     0.026 A 
ATOM     20 CL   UNL d   1      -4.113   8.266  -0.570  0.00  0.00    -0.084 Cl
ATOM     21  C   UNL d   1      -3.435   4.395   0.217  0.00  0.00     0.031 A 
ENDBRANCH   2  15
TORSDOF 3
