REMARK  10 active torsions:
REMARK  status: ('A' for Active; 'I' for Inactive)
REMARK    1  A    between atoms: C_10  and  C_3 
REMARK    2  A    between atoms: C_4  and  C_8 
REMARK    3  A    between atoms: O_23  and  N_11 
REMARK    4  A    between atoms: N_20  and  C_31 
REMARK    5  A    between atoms: C_32  and  N_20 
REMARK    6  A    between atoms: C_22  and  C_24 
REMARK    7  A    between atoms: O_30  and  C_22 
REMARK    8  A    between atoms: C_31  and  C_22 
REMARK    9  A    between atoms: C_24  and  O_23 
REMARK   10  A    between atoms: C_28  and  C_32 
ROOT
ATOM      1  C   UNL d   1       8.366  -1.685  -0.030  0.00  0.00     0.172 C 
ENDROOT
BRANCH   1   2
ATOM      2  C   UNL d   1       7.139  -0.762  -0.051  0.00  0.00     0.234 C 
BRANCH   2   3
ATOM      3  O   UNL d   1       5.946  -1.553  -0.098  0.00  0.00    -0.278 OA
BRANCH   3   4
ATOM      4  N   UNL d   1       4.845  -0.682  -0.074  0.00  0.00    -0.277 N 
ATOM      5  C   UNL d   1       3.756  -1.383  -0.065  0.00  0.00     0.125 C 
ATOM      6  HN  UNL d   1       4.894   0.336  -0.066  1.00  0.00     0.193 HD
BRANCH   5   7
ATOM      7  C   UNL d   1       2.407  -0.758  -0.036  0.00  0.00     0.006 A 
ATOM      8  C   UNL d   1       1.281  -1.483  -0.055  0.00  0.00     0.057 A 
ATOM      9  C   UNL d   1      -0.003  -0.763  -0.028  0.00  0.00     0.021 A 
ATOM     10 CL   UNL d   1       1.272  -3.213  -0.118  0.00  0.00    -0.083 Cl
ATOM     11  C   UNL d   1       0.005   0.635   0.045  0.00  0.00     0.081 A 
ATOM     12  C   UNL d   1      -1.251  -1.412  -0.068  0.00  0.00     0.040 A 
ATOM     13  C   UNL d   1      -1.189   1.364   0.081  0.00  0.00     0.039 A 
ATOM     14  O   UNL d   1       1.137   1.395   0.094  0.00  0.00    -0.346 OA
ATOM     15  C   UNL d   1      -2.415   0.707   0.040  0.00  0.00     0.026 A 
ATOM     16  C   UNL d   1      -2.440  -0.681  -0.034  0.00  0.00     0.035 A 
ATOM     17 CL   UNL d   1      -3.951  -1.505  -0.082  0.00  0.00    -0.084 Cl
ATOM     18  C   UNL d   1       2.408   0.740   0.017  0.00  0.00     0.217 A 
ENDBRANCH   5   7
ENDBRANCH   3   4
ENDBRANCH   2   3
ENDBRANCH   1   2
BRANCH   1  19
ATOM     19  O   UNL d   1       8.449  -2.473  -1.228  0.00  0.00    -0.392 OA
ATOM     20  H   UNL d   1       8.152  -1.920  -1.971  0.00  0.00     0.210 HD
ENDBRANCH   1  19
BRANCH   1  21
ATOM     21  C   UNL d   1       9.675  -0.883   0.109  0.00  0.00     0.303 C 
BRANCH  21  22
ATOM     22  N   UNL d   1       9.704  -0.104   1.344  0.00  0.00     0.090 N 
ATOM     23  H   UNL d   1       9.676  -0.730   2.149  0.00  0.00     0.316 HD
BRANCH  22  24
ATOM     24  C   UNL d   1      10.898   0.731   1.444  0.00  0.00     0.308 C 
BRANCH  24  25
ATOM     25  C   UNL d   1      10.880   1.487   2.754  0.00  0.00    -0.030 A 
ATOM     26  C   UNL d   1      11.865   1.266   3.723  0.00  0.00     0.010 A 
ATOM     27  C   UNL d   1      11.802   1.915   4.958  0.00  0.00     0.017 A 
ATOM     28  C   UNL d   1      10.751   2.797   5.250  0.00  0.00     0.047 A 
ATOM     29  C   UNL d   1       9.779   3.039   4.268  0.00  0.00     0.017 A 
ATOM     30  C   UNL d   1       9.845   2.393   3.033  0.00  0.00     0.010 A 
BRANCH  28  31
ATOM     31  C   UNL d   1      10.641   3.465   6.598  0.00  0.00     0.417 C 
ATOM     32  F   UNL d   1      11.632   3.111   7.463  0.00  0.00    -0.166 F 
ATOM     33  F   UNL d   1      10.685   4.823   6.515  0.00  0.00    -0.166 F 
ATOM     34  F   UNL d   1       9.472   3.167   7.231  0.00  0.00    -0.166 F 
ENDBRANCH  28  31
ENDBRANCH  24  25
ENDBRANCH  22  24
ENDBRANCH  21  22
ENDBRANCH   1  21
TORSDOF 10
