REMARK  1 active torsions:
REMARK  status: ('A' for Active; 'I' for Inactive)
REMARK    1  A    between atoms: C_5  and  C_1 
REMARK       I    between atoms: N_6  and  C_5 
ROOT
ATOM      1  C   UNL d   1      -2.006  -0.940  -0.031  0.00  0.00     0.144 A 
ATOM      2  N   UNL d   1      -1.076  -1.477   0.734  0.00  0.00    -0.345 N 
ATOM      3  HN  UNL d   1      -1.217  -2.272   1.358  1.00  0.00     0.167 HD
ATOM      4  S   UNL d   1      -1.543   0.479  -0.878  0.00  0.00    -0.065 SA
ATOM      5  C   UNL d   1       0.117  -0.801   0.562  0.00  0.00     0.050 A 
ATOM      6  C   UNL d   1       0.067   0.297  -0.298  0.00  0.00     0.034 A 
ATOM      7  C   UNL d   1       1.348  -1.144   1.154  0.00  0.00     0.031 A 
ATOM      8  C   UNL d   1       1.208   1.065  -0.587  0.00  0.00     0.021 A 
ATOM      9  C   UNL d   1       2.421   0.693   0.001  0.00  0.00     0.002 A 
ATOM     10  C   UNL d   1       2.494  -0.397   0.863  0.00  0.00     0.002 A 
ENDROOT
BRANCH   1  11
ATOM     11  C   UNL d   1      -3.364  -1.471  -0.185  0.00  0.00     0.277 C 
ATOM     12  N   UNL d   1      -3.557  -2.870  -0.105  0.00  0.00    -0.345 N 
ATOM     13  C   UNL d   1      -4.924  -3.378  -0.267  0.00  0.00     0.136 C 
ATOM     14  C   UNL d   1      -2.489  -3.849  -0.367  0.00  0.00     0.136 C 
ATOM     15  C   UNL d   1      -5.242  -4.590   0.613  0.00  0.00     0.093 C 
ATOM     16  S   UNL d   1      -4.101  -5.983   0.341  0.00  0.00    -0.166 SA
ATOM     17  C   UNL d   1      -2.546  -5.061   0.559  0.00  0.00     0.093 C 
ATOM     18  O   UNL d   1      -4.331  -0.730  -0.383  0.00  0.00    -0.265 OA
ENDBRANCH   1  11
TORSDOF 1
