REMARK  3 active torsions:
REMARK  status: ('A' for Active; 'I' for Inactive)
REMARK    1  A    between atoms: N_7  and  C_1 
REMARK       I    between atoms: C_9  and  N_7 
REMARK    2  A    between atoms: N_8  and  C_13 
REMARK    3  A    between atoms: C_15  and  C_9 
ROOT
ATOM      1  C   UNL d   1      -3.044  -1.097   0.204  0.00  0.00     0.152 A 
ATOM      2  C   UNL d   1      -0.959  -0.598   0.045  0.00  0.00     0.058 A 
ATOM      3  C   UNL d   1      -1.467   0.668   0.185  0.00  0.00     0.018 A 
ATOM      4  N   UNL d   1      -1.846  -1.623   0.010  0.00  0.00    -0.335 N 
ATOM      5  HN  UNL d   1      -1.631  -2.609  -0.138  1.00  0.00     0.168 HD
ATOM      6  S   UNL d   1      -3.127   0.619   0.385  0.00  0.00    -0.056 SA
ATOM      7  C   UNL d   1       0.467  -0.498  -0.025  0.00  0.00    -0.002 A 
ATOM      8  C   UNL d   1       0.817   0.878   0.048  0.00  0.00    -0.041 A 
ATOM      9  C   UNL d   1      -0.438   1.742   0.166  0.00  0.00     0.088 A 
ATOM     10  C   UNL d   1       1.418  -1.494  -0.098  0.00  0.00     0.014 A 
ATOM     11  C   UNL d   1       2.142   1.269   0.031  0.00  0.00     0.008 A 
ATOM     12  C   UNL d   1       2.758  -1.099  -0.101  0.00  0.00     0.001 A 
ATOM     13  C   UNL d   1       3.115   0.265  -0.042  0.00  0.00     0.001 A 
ENDROOT
BRANCH   1  14
ATOM     14  N   UNL d   1      -4.156  -1.895   0.164  0.00  0.00    -0.303 N 
ATOM     15  C   UNL d   1      -5.440  -1.555   0.519  0.00  0.00     0.257 C 
ATOM     16  O   UNL d   1      -5.809  -0.518   1.050  0.00  0.00    -0.267 OA
ATOM     17  H   UNL d   1      -3.931  -2.813  -0.182  0.00  0.00     0.171 HD
BRANCH  15  18
ATOM     18  C   UNL d   1      -6.477  -2.578   0.163  0.00  0.00     0.032 A 
ATOM     19  C   UNL d   1      -6.178  -3.941   0.006  0.00  0.00     0.019 A 
ATOM     20  C   UNL d   1      -7.143  -4.821  -0.496  0.00  0.00     0.037 A 
ATOM     21  C   UNL d   1      -8.419  -4.341  -0.818  0.00  0.00     0.102 A 
ATOM     22  C   UNL d   1      -8.754  -3.002  -0.583  0.00  0.00     0.037 A 
ATOM     23  C   UNL d   1      -7.782  -2.126  -0.089  0.00  0.00     0.019 A 
BRANCH  21  24
ATOM     24  N   UNL d   1      -9.396  -5.243  -1.442  0.00  0.00    -0.116 N 
ATOM     25  O   UNL d   1      -9.027  -6.394  -1.710  0.00  0.00    -0.532 OA
ATOM     26  O   UNL d   1     -10.524  -4.789  -1.685  0.00  0.00    -0.532 OA
ENDBRANCH  21  24
ENDBRANCH  15  18
ENDBRANCH   1  14
TORSDOF 3
