REMARK  4 active torsions:
REMARK  status: ('A' for Active; 'I' for Inactive)
REMARK    1  A    between atoms: C_10  and  C_8 
REMARK       I    between atoms: N_14  and  C_10 
REMARK    2  A    between atoms: C_18  and  N_14 
REMARK    3  A    between atoms: C_15  and  C_17 
REMARK    4  A    between atoms: C_17  and  C_18 
ROOT
ATOM      1  C   UNL d   1       3.650   0.698   0.029  0.00  0.00     0.258 C 
ATOM      2  O   UNL d   1       4.077   1.847   0.069  0.00  0.00    -0.267 OA
ATOM      3  N   UNL d   1       4.491  -0.395  -0.015  0.00  0.00    -0.356 N 
ATOM      4  H   UNL d   1       4.070  -1.315   0.032  0.00  0.00     0.162 HD
ENDROOT
BRANCH   1   5
ATOM      5  C   UNL d   1       2.225   0.369   0.025  0.00  0.00     0.075 A 
ATOM      6  S   UNL d   1       1.718  -1.308   0.026  0.00  0.00    -0.065 SA
ATOM      7  C   UNL d   1       0.135  -0.834   0.013  0.00  0.00     0.104 A 
ATOM      8  C   UNL d   1      -0.049   0.486   0.013  0.00  0.00     0.024 A 
ATOM      9  N   UNL d   1      -1.087  -1.401   0.003  0.00  0.00    -0.289 N 
ATOM     10  C   UNL d   1       1.126   1.242   0.019  0.00  0.00     0.041 A 
ATOM     11  C   UNL d   1      -1.425   0.720   0.004  0.00  0.00     0.035 A 
ATOM     12  C   UNL d   1      -2.205   1.978   0.003  0.00  0.00     0.070 C 
ATOM     13  N   UNL d   1      -2.079  -0.467  -0.001  0.00  0.00    -0.302 N 
ATOM     14  HN  UNL d   1      -3.086  -0.626  -0.006  1.00  0.00     0.187 HD
ATOM     15  C   UNL d   1      -1.408  -2.805  -0.002  0.00  0.00     0.178 C 
ENDBRANCH   1   5
BRANCH   3  16
ATOM     16  C   UNL d   1       5.938  -0.329  -0.018  0.00  0.00     0.129 C 
BRANCH  16  17
ATOM     17  C   UNL d   1       6.544  -0.285   1.385  0.00  0.00     0.076 C 
BRANCH  17  18
ATOM     18  C   UNL d   1       6.263  -1.530   2.193  0.00  0.00     0.010 A 
ATOM     19  N   UNL d   1       6.679  -2.715   1.679  0.00  0.00    -0.369 N 
ATOM     20  C   UNL d   1       6.468  -3.826   2.422  0.00  0.00     0.088 A 
ATOM     21  HN  UNL d   1       7.133  -2.766   0.767  1.00  0.00     0.165 HD
ATOM     22  C   UNL d   1       5.854  -3.819   3.663  0.00  0.00     0.017 A 
ATOM     23  C   UNL d   1       5.434  -2.599   4.177  0.00  0.00     0.003 A 
ATOM     24  C   UNL d   1       5.643  -1.438   3.437  0.00  0.00     0.025 A 
ENDBRANCH  17  18
ENDBRANCH  16  17
ENDBRANCH   3  16
TORSDOF 4
