REMARK  8 active torsions:
REMARK  status: ('A' for Active; 'I' for Inactive)
REMARK    1  A    between atoms: C_6  and  C_1 
REMARK    2  A    between atoms: C_20  and  C_5 
REMARK       I    between atoms: C_9  and  N_12 
REMARK    3  A    between atoms: C_16  and  C_9 
REMARK    4  A    between atoms: C_10  and  C_16 
REMARK    5  A    between atoms: C_18  and  C_10 
REMARK    6  A    between atoms: C_11  and  C_18 
REMARK    7  A    between atoms: O_21  and  C_11 
REMARK    8  A    between atoms: N_12  and  C_20 
ROOT
ATOM      1  C   UNL d   1       4.825   1.406   0.231  0.00  0.00     0.218 C 
ATOM      2  N   UNL d   1       5.853   0.611   0.677  0.00  0.00    -0.355 N 
ATOM      3  O   UNL d   1       3.712   0.915   0.031  0.00  0.00    -0.274 OA
ATOM      4  H   UNL d   1       6.714   1.013   1.027  0.00  0.00     0.162 HD
ENDROOT
BRANCH   1   5
ATOM      5  C   UNL d   1       5.129   2.893   0.003  0.00  0.00     0.112 C 
BRANCH   5   6
ATOM      6  C   UNL d   1       3.832   3.776  -0.148  0.00  0.00    -0.023 C 
ATOM      7  C   UNL d   1       3.102   3.420  -1.484  0.00  0.00     0.010 C 
ATOM      8  C   UNL d   1       3.798   3.959  -2.733  0.00  0.00     0.001 C 
ATOM      9  C   UNL d   1       3.871   5.473  -2.672  0.00  0.00     0.000 C 
ATOM     10  C   UNL d   1       4.669   5.911  -1.454  0.00  0.00     0.001 C 
ATOM     11  C   UNL d   1       4.143   5.309  -0.152  0.00  0.00     0.010 C 
BRANCH   6  12
ATOM     12  C   UNL d   1       2.844   3.530   1.044  0.00  0.00     0.119 C 
BRANCH  12  13
ATOM     13  C   UNL d   1       3.409   3.770   2.441  0.00  0.00     0.140 C 
ATOM     14  O   UNL d   1       4.544   4.126   2.708  0.00  0.00    -0.650 OA
BRANCH  13  15
ATOM     15  O   UNL d   1       2.482   3.552   3.401  0.00  0.00    -0.776 OA
ATOM     16  H   UNL d   1       1.621   3.252   3.054  0.00  0.00     0.167 HD
ENDBRANCH  13  15
ENDBRANCH  12  13
ENDBRANCH   6  12
ENDBRANCH   5   6
ENDBRANCH   1   5
BRANCH   2  17
ATOM     17  C   UNL d   1       5.503  -0.722   1.124  0.00  0.00     0.180 C 
BRANCH  17  18
ATOM     18  C   UNL d   1       6.670  -1.645   1.221  0.00  0.00     0.034 A 
ATOM     19  N   UNL d   1       7.970  -1.169   1.332  0.00  0.00    -0.351 N 
ATOM     20  C   UNL d   1       8.824  -2.179   1.379  0.00  0.00     0.091 A 
ATOM     21  HN  UNL d   1       8.230  -0.183   1.372  1.00  0.00     0.166 HD
ATOM     22  S   UNL d   1       8.101  -3.742   1.358  0.00  0.00    -0.081 SA
ATOM     23  C   UNL d   1       6.561  -3.025   1.235  0.00  0.00     0.078 A 
BRANCH  20  24
ATOM     24  C   UNL d   1      10.251  -1.964   1.447  0.00  0.00     0.038 A 
ATOM     25  S   UNL d   1      11.414  -3.212   1.236  0.00  0.00    -0.099 SA
ATOM     26  C   UNL d   1      12.723  -2.134   1.428  0.00  0.00     0.050 A 
ATOM     27  C   UNL d   1      12.299  -0.847   1.660  0.00  0.00     0.008 A 
ATOM     28  C   UNL d   1      10.877  -0.749   1.671  0.00  0.00     0.022 A 
ENDBRANCH  20  24
ENDBRANCH  17  18
ENDBRANCH   2  17
TORSDOF 8
