REMARK  3 active torsions:
REMARK  status: ('A' for Active; 'I' for Inactive)
REMARK    1  A    between atoms: N_6  and  C_1 
REMARK    2  A    between atoms: N_4  and  N_6 
REMARK    3  A    between atoms: C_9  and  C_8 
ROOT
ATOM      1  N   UNL d   1      -2.691   2.509  -0.360  0.00  0.00    -0.290 N 
ATOM      2  HN  UNL d   1      -1.676   2.570  -0.289  1.00  0.00     0.187 HD
ATOM      3  C   UNL d   1      -3.393   3.594  -0.521  0.00  0.00     0.032 C 
ATOM      4  C   UNL d   1      -4.904   3.654  -0.628  0.00  0.00     0.070 C 
ENDROOT
BRANCH   1   5
ATOM      5  N   UNL d   1      -3.300   1.292  -0.287  0.00  0.00    -0.132 N 
ATOM      6  H   UNL d   1      -4.302   1.183  -0.196  0.00  0.00     0.205 HD
BRANCH   5   7
ATOM      7  C   UNL d   1      -2.640   0.089  -0.243  0.00  0.00     0.688 C 
ATOM      8  N   UNL d   1      -3.282  -1.026  -0.145  0.00  0.00    -0.225 N 
ATOM      9  C   UNL d   1      -2.481  -2.256  -0.057  0.00  0.00     0.139 C 
ATOM     10  HN  UNL d   1      -4.302  -1.053  -0.130  1.00  0.00     0.177 HD
ATOM     11  C   UNL d   1      -1.071  -2.117  -0.618  0.00  0.00     0.040 C 
ATOM     12  C   UNL d   1      -0.426  -0.879  -0.025  0.00  0.00     0.139 C 
ATOM     13  N   UNL d   1      -1.289   0.228  -0.318  0.00  0.00    -0.225 N 
ATOM     14  H   UNL d   1      -0.990   1.166  -0.077  0.00  0.00     0.177 HD
ENDBRANCH   5   7
ENDBRANCH   1   5
BRANCH   3  15
ATOM     15  C   UNL d   1      -2.643   4.900  -0.610  0.00  0.00    -0.012 A 
ATOM     16  C   UNL d   1      -1.237   4.886  -0.591  0.00  0.00     0.016 A 
ATOM     17  C   UNL d   1      -0.512   6.079  -0.661  0.00  0.00     0.043 A 
ATOM     18  C   UNL d   1      -1.190   7.287  -0.754  0.00  0.00     0.116 A 
ATOM     19  C   UNL d   1      -2.579   7.324  -0.780  0.00  0.00     0.043 A 
ATOM     20  F   UNL d   1      -0.498   8.431  -0.817  0.00  0.00    -0.206 F 
ATOM     21  C   UNL d   1      -3.307   6.132  -0.709  0.00  0.00     0.016 A 
ENDBRANCH   3  15
TORSDOF 3
