REMARK  5 active torsions:
REMARK  status: ('A' for Active; 'I' for Inactive)
REMARK    1  A    between atoms: C_8  and  C_3 
REMARK    2  A    between atoms: C_20  and  C_4 
REMARK    3  A    between atoms: C_7  and  O_14 
REMARK    4  A    between atoms: C_11  and  C_7 
REMARK    5  A    between atoms: O_14  and  C_20 
ROOT
ATOM      1  N   UNL d   1       1.520  -0.538  -0.132  0.00  0.00    -0.351 N 
ATOM      2  HN  UNL d   1       2.414  -1.024  -0.195  1.00  0.00     0.166 HD
ATOM      3  C   UNL d   1       1.369   0.838  -0.029  0.00  0.00     0.049 A 
ATOM      4  C   UNL d   1       0.340  -1.127  -0.135  0.00  0.00     0.075 A 
ATOM      5  S   UNL d   1      -1.009  -0.061  -0.009  0.00  0.00    -0.084 SA
ATOM      6  C   UNL d   1       0.061   1.275   0.036  0.00  0.00     0.082 A 
ENDROOT
BRANCH   3   7
ATOM      7  C   UNL d   1       2.527   1.726  -0.018  0.00  0.00    -0.006 A 
ATOM      8  C   UNL d   1       2.502   2.961   0.650  0.00  0.00     0.053 A 
ATOM      9  C   UNL d   1       3.642   3.739   0.619  0.00  0.00     0.105 A 
ATOM     10  O   UNL d   1       3.789   4.951   1.220  0.00  0.00    -0.323 OA
ATOM     11  C   UNL d   1       4.778   3.341  -0.043  0.00  0.00     0.105 A 
ATOM     12  C   UNL d   1       5.162   5.250   0.892  0.00  0.00     0.352 A 
ATOM     13  O   UNL d   1       5.782   4.252   0.056  0.00  0.00    -0.323 OA
ATOM     14  C   UNL d   1       4.843   2.138  -0.709  0.00  0.00     0.040 A 
ATOM     15  C   UNL d   1       3.705   1.324  -0.688  0.00  0.00     0.017 A 
ENDBRANCH   3   7
BRANCH   4  16
ATOM     16  C   UNL d   1       0.091  -2.604  -0.178  0.00  0.00     0.243 C 
BRANCH  16  17
ATOM     17  O   UNL d   1       1.171  -3.280  -0.845  0.00  0.00    -0.314 OA
BRANCH  17  18
ATOM     18  C   UNL d   1       1.085  -3.319  -2.201  0.00  0.00     0.266 C 
ATOM     19  O   UNL d   1       0.226  -2.743  -2.856  0.00  0.00    -0.264 OA
BRANCH  18  20
ATOM     20  C   UNL d   1       2.136  -4.258  -2.817  0.00  0.00     0.037 C 
ATOM     21  C   UNL d   1       3.081  -4.872  -1.772  0.00  0.00     0.025 C 
ATOM     22  C   UNL d   1       1.376  -5.389  -3.528  0.00  0.00     0.025 C 
ATOM     23  C   UNL d   1       2.971  -3.478  -3.840  0.00  0.00     0.025 C 
ENDBRANCH  18  20
ENDBRANCH  17  18
ENDBRANCH  16  17
ENDBRANCH   4  16
TORSDOF 5
