REMARK  2 active torsions:
REMARK  status: ('A' for Active; 'I' for Inactive)
REMARK    1  A    between atoms: C_4  and  C_1 
REMARK    2  A    between atoms: N_10  and  C_5 
ROOT
ATOM      1  C   UNL d   1      -1.122  -1.271   0.011  0.00  0.00     0.055 A 
ATOM      2  N   UNL d   1      -1.568  -0.038  -0.441  0.00  0.00    -0.336 N 
ATOM      3  HN  UNL d   1      -2.495   0.136  -0.829  1.00  0.00     0.168 HD
ATOM      4  C   UNL d   1      -0.638   0.870  -0.301  0.00  0.00     0.142 A 
ATOM      5  C   UNL d   1       0.166  -1.256   0.514  0.00  0.00     0.083 A 
ATOM      6  S   UNL d   1       0.825   0.322   0.406  0.00  0.00    -0.064 SA
ENDROOT
BRANCH   1   7
ATOM      7  C   UNL d   1      -1.967  -2.464  -0.041  0.00  0.00     0.051 A 
ATOM      8  C   UNL d   1      -1.915  -3.406   1.002  0.00  0.00     0.130 A 
ATOM      9  F   UNL d   1      -1.096  -3.227   2.050  0.00  0.00    -0.205 F 
ATOM     10  C   UNL d   1      -2.707  -4.556   1.004  0.00  0.00     0.043 A 
ATOM     11  C   UNL d   1      -3.588  -4.791  -0.042  0.00  0.00     0.005 A 
ATOM     12  C   UNL d   1      -3.665  -3.876  -1.089  0.00  0.00     0.025 A 
ATOM     13  C   UNL d   1      -2.860  -2.723  -1.097  0.00  0.00     0.049 A 
ATOM     14 CL   UNL d   1      -3.008  -1.712  -2.498  0.00  0.00    -0.083 Cl
ENDBRANCH   1   7
BRANCH   4  15
ATOM     15  N   UNL d   1      -0.787   2.144  -0.701  0.00  0.00    -0.380 N 
ATOM     16  H   UNL d   1      -1.534   2.296  -1.370  0.00  0.00     0.158 HD
ATOM     17  H   UNL d   1       0.050   2.680  -0.885  0.00  0.00     0.158 HD
ENDBRANCH   4  15
TORSDOF 2
