REMARK  3 active torsions:
REMARK  status: ('A' for Active; 'I' for Inactive)
REMARK    1  A    between atoms: C_6  and  N_2 
REMARK    2  A    between atoms: C_7  and  C_6 
REMARK       I    between atoms: N_10  and  C_7 
REMARK    3  A    between atoms: C_12  and  N_10 
ROOT
ATOM      1  S   UNL d   1      -0.289  -1.268   0.955  0.00  0.00     0.269 S 
ATOM      2  N   UNL d   1       1.365  -1.442   1.241  0.00  0.00    -0.228 N 
ATOM      3  C   UNL d   1       1.836  -0.655   2.313  0.00  0.00     0.269 C 
ATOM      4  C   UNL d   1       0.685  -0.070   3.024  0.00  0.00     0.056 A 
ATOM      5  C   UNL d   1      -0.531  -0.363   2.422  0.00  0.00     0.095 A 
ATOM      6  O   UNL d   1      -0.485  -0.384  -0.167  0.00  0.00    -0.200 OA
ATOM      7  O   UNL d   1      -0.941  -2.544   1.111  0.00  0.00    -0.200 OA
ATOM      8  O   UNL d   1       3.001  -0.535   2.636  0.00  0.00    -0.266 OA
ATOM      9  C   UNL d   1       0.731   0.627   4.220  0.00  0.00     0.018 A 
ATOM     10  C   UNL d   1      -1.745  -0.046   3.002  0.00  0.00     0.026 A 
ATOM     11  C   UNL d   1      -0.483   0.984   4.817  0.00  0.00     0.001 A 
ATOM     12  C   UNL d   1      -1.711   0.636   4.221  0.00  0.00     0.002 A 
ENDROOT
BRANCH   2  13
ATOM     13  C   UNL d   1       2.192  -2.075   0.211  0.00  0.00     0.248 C 
BRANCH  13  14
ATOM     14  C   UNL d   1       1.792  -3.516  -0.070  0.00  0.00     0.241 C 
ATOM     15  N   UNL d   1       1.576  -4.255   1.084  0.00  0.00    -0.326 N 
ATOM     16  H   UNL d   1       1.678  -3.752   1.957  0.00  0.00     0.169 HD
ATOM     17  O   UNL d   1       1.737  -3.933  -1.223  0.00  0.00    -0.271 OA
BRANCH  15  18
ATOM     18  C   UNL d   1       1.073  -5.569   1.179  0.00  0.00     0.036 A 
ATOM     19  C   UNL d   1       0.788  -6.378   0.078  0.00  0.00     0.053 A 
ATOM     20  C   UNL d   1       0.242  -7.649   0.265  0.00  0.00     0.036 A 
ATOM     21 CL   UNL d   1      -0.122  -8.633  -1.101  0.00  0.00    -0.084 Cl
ATOM     22  C   UNL d   1      -0.022  -8.131   1.545  0.00  0.00     0.024 A 
ATOM     23  C   UNL d   1       0.273  -7.337   2.651  0.00  0.00     0.004 A 
ATOM     24  C   UNL d   1       0.820  -6.064   2.468  0.00  0.00     0.029 A 
ENDBRANCH  15  18
ENDBRANCH  13  14
ENDBRANCH   2  13
TORSDOF 3
