REMARK  3 active torsions:
REMARK  status: ('A' for Active; 'I' for Inactive)
REMARK    1  A    between atoms: C_7  and  N_1 
REMARK    2  A    between atoms: C_8  and  C_4 
REMARK    3  A    between atoms: C_9  and  C_11 
ROOT
ATOM      1  N   UNL d   1      -0.198  -1.233   0.118  0.00  0.00    -0.180 N 
ATOM      2  N   UNL d   1       1.075  -0.789   0.344  0.00  0.00    -0.266 N 
ATOM      3  HN  UNL d   1       1.886  -1.318   0.664  1.00  0.00     0.190 HD
ATOM      4  C   UNL d   1       0.996   0.467   0.051  0.00  0.00     0.180 A 
ATOM      5  C   UNL d   1      -1.023  -0.203  -0.278  0.00  0.00     0.394 A 
ATOM      6  O   UNL d   1      -0.228   0.919  -0.299  0.00  0.00    -0.240 OA
ATOM      7  O   UNL d   1      -2.208  -0.178  -0.567  0.00  0.00    -0.236 OA
ENDROOT
BRANCH   1   8
ATOM      8  C   UNL d   1      -0.455  -2.614   0.105  0.00  0.00     0.133 A 
ATOM      9  C   UNL d   1       0.529  -3.485   0.580  0.00  0.00     0.066 A 
ATOM     10  C   UNL d   1       0.338  -4.868   0.512  0.00  0.00     0.052 A 
ATOM     11  C   UNL d   1      -0.844  -5.342  -0.058  0.00  0.00     0.033 A 
ATOM     12  C   UNL d   1      -1.776  -4.419  -0.496  0.00  0.00     0.090 A 
ATOM     13  N   UNL d   1      -1.610  -3.081  -0.412  0.00  0.00    -0.351 N 
ATOM     14  HN  UNL d   1      -2.337  -2.441  -0.732  1.00  0.00     0.166 HD
BRANCH  10  15
ATOM     15  C   UNL d   1       1.377  -5.820   1.038  0.00  0.00     0.417 C 
ATOM     16  F   UNL d   1       2.462  -5.201   1.580  0.00  0.00    -0.166 F 
ATOM     17  F   UNL d   1       0.885  -6.629   2.017  0.00  0.00    -0.166 F 
ATOM     18  F   UNL d   1       1.861  -6.649   0.075  0.00  0.00    -0.166 F 
ENDBRANCH  10  15
ENDBRANCH   1   8
BRANCH   4  19
ATOM     19  C   UNL d   1       2.098   1.429   0.014  0.00  0.00     0.038 A 
ATOM     20  C   UNL d   1       3.391   1.041  -0.372  0.00  0.00     0.048 A 
ATOM     21 CL   UNL d   1       3.787  -0.542  -0.946  0.00  0.00    -0.083 Cl
ATOM     22  C   UNL d   1       4.431   1.973  -0.351  0.00  0.00     0.025 A 
ATOM     23  C   UNL d   1       4.191   3.288   0.044  0.00  0.00     0.002 A 
ATOM     24  C   UNL d   1       2.904   3.682   0.409  0.00  0.00     0.001 A 
ATOM     25  C   UNL d   1       1.857   2.757   0.394  0.00  0.00     0.017 A 
ENDBRANCH   4  19
TORSDOF 3
