REMARK  4 active torsions:
REMARK  status: ('A' for Active; 'I' for Inactive)
REMARK    1  A    between atoms: C_12  and  N_3 
REMARK    2  A    between atoms: C_9  and  N_6 
REMARK    3  A    between atoms: C_20  and  C_8 
REMARK    4  A    between atoms: C_23  and  C_20 
ROOT
ATOM      1  C   UNL d   1       0.021  -0.771  -0.629  0.00  0.00     0.260 C 
ATOM      2  C   UNL d   1       0.062   0.734  -0.662  0.00  0.00     0.145 C 
ATOM      3  N   UNL d   1      -1.636   0.026   0.788  0.00  0.00    -0.250 N 
ATOM      4  C   UNL d   1      -1.214  -1.109   0.143  0.00  0.00     0.263 C 
ATOM      5  C   UNL d   1      -1.005   1.150   0.317  0.00  0.00     0.240 C 
ATOM      6  N   UNL d   1       1.740  -0.111   0.686  0.00  0.00    -0.252 N 
ATOM      7  O   UNL d   1       1.097  -1.250   0.184  0.00  0.00    -0.261 OA
ATOM      8  C   UNL d   1       1.442   1.066  -0.127  0.00  0.00     0.131 C 
ATOM      9  O   UNL d   1      -1.206   2.319   0.613  0.00  0.00    -0.272 OA
ATOM     10  O   UNL d   1      -1.723  -2.228   0.166  0.00  0.00    -0.270 OA
ENDROOT
BRANCH   6  11
ATOM     11  C   UNL d   1       2.369  -0.127   1.925  0.00  0.00     0.059 A 
ATOM     12  C   UNL d   1       2.364  -1.302   2.700  0.00  0.00     0.057 A 
ATOM     13  C   UNL d   1       3.017  -1.376   3.937  0.00  0.00     0.058 A 
ATOM     14 CL   UNL d   1       2.948  -2.873   4.798  0.00  0.00    -0.082 Cl
ATOM     15  C   UNL d   1       3.697  -0.263   4.428  0.00  0.00     0.055 A 
ATOM     16  C   UNL d   1       3.706   0.916   3.684  0.00  0.00     0.028 A 
ATOM     17 CL   UNL d   1       4.551  -0.277   5.929  0.00  0.00    -0.083 Cl
ATOM     18  C   UNL d   1       3.047   0.980   2.448  0.00  0.00     0.033 A 
ENDBRANCH   6  11
BRANCH   8  19
ATOM     19  C   UNL d   1       2.523   1.157  -1.221  0.00  0.00     0.028 C 
BRANCH  19  20
ATOM     20  C   UNL d   1       2.294   2.287  -2.222  0.00  0.00    -0.002 C 
ATOM     21  C   UNL d   1       3.397   2.322  -3.268  0.00  0.00     0.005 C 
ENDBRANCH  19  20
ENDBRANCH   8  19
BRANCH   3  22
ATOM     22  C   UNL d   1      -2.514   0.001   1.892  0.00  0.00     0.045 A 
ATOM     23  C   UNL d   1      -3.474   0.995   2.101  0.00  0.00     0.030 A 
ATOM     24  C   UNL d   1      -4.306   0.939   3.223  0.00  0.00     0.002 A 
ATOM     25  C   UNL d   1      -4.147  -0.075   4.168  0.00  0.00     0.000 A 
ATOM     26  C   UNL d   1      -3.171  -1.048   3.986  0.00  0.00     0.002 A 
ATOM     27  C   UNL d   1      -2.374  -1.022   2.844  0.00  0.00     0.030 A 
ENDBRANCH   3  22
TORSDOF 4
