REMARK  13 active torsions:
REMARK  status: ('A' for Active; 'I' for Inactive)
REMARK    1  A    between atoms: C_4  and  C_1 
REMARK    2  A    between atoms: C_2  and  C_3 
REMARK    3  A    between atoms: C_5  and  O_11 
REMARK    4  A    between atoms: C_33  and  C_5 
REMARK    5  A    between atoms: C_6  and  C_34 
REMARK    6  A    between atoms: O_12  and  C_6 
REMARK    7  A    between atoms: C_7  and  C_9 
REMARK    8  A    between atoms: C_13  and  C_7 
REMARK    9  A    between atoms: C_8  and  C_14 
REMARK   10  A    between atoms: C_10  and  C_8 
REMARK   11  A    between atoms: O_11  and  C_13 
REMARK   12  A    between atoms: C_14  and  O_12 
REMARK   13  A    between atoms: C_34  and  C_33 
ROOT
ATOM      1  C   UNL d   1      -3.194  -0.170  -6.050  0.00  0.00     0.121 C 
ENDROOT
BRANCH   1   2
ATOM      2  C   UNL d   1      -3.740  -0.440  -4.678  0.00  0.00     0.259 C 
ATOM      3  O   UNL d   1      -3.472   0.243  -3.694  0.00  0.00    -0.265 OA
BRANCH   2   4
ATOM      4  O   UNL d   1      -4.507  -1.557  -4.662  0.00  0.00    -0.314 OA
BRANCH   4   5
ATOM      5  C   UNL d   1      -4.940  -2.007  -3.374  0.00  0.00     0.262 C 
BRANCH   5   6
ATOM      6  C   UNL d   1      -6.430  -2.279  -3.416  0.00  0.00     0.183 C 
ATOM      7  O   UNL d   1      -6.860  -3.375  -3.781  0.00  0.00    -0.290 OA
BRANCH   6   8
ATOM      8  C   UNL d   1      -7.401  -1.215  -3.013  0.00  0.00     0.012 A 
ATOM      9  C   UNL d   1      -7.016   0.073  -2.624  0.00  0.00     0.016 A 
ATOM     10  C   UNL d   1      -7.982   1.001  -2.211  0.00  0.00     0.017 A 
ATOM     11  C   UNL d   1      -9.345   0.665  -2.190  0.00  0.00     0.048 A 
ATOM     12  C   UNL d   1      -9.727  -0.615  -2.608  0.00  0.00     0.017 A 
ATOM     13  C   UNL d   1      -8.764  -1.544  -3.014  0.00  0.00     0.016 A 
BRANCH  11  14
ATOM     14  C   UNL d   1     -10.368   1.667  -1.712  0.00  0.00     0.417 C 
ATOM     15  F   UNL d   1     -11.650   1.210  -1.781  0.00  0.00    -0.166 F 
ATOM     16  F   UNL d   1     -10.347   2.825  -2.430  0.00  0.00    -0.166 F 
ATOM     17  F   UNL d   1     -10.174   2.029  -0.413  0.00  0.00    -0.166 F 
ENDBRANCH  11  14
ENDBRANCH   6   8
ENDBRANCH   5   6
ENDBRANCH   4   5
ENDBRANCH   2   4
ENDBRANCH   1   2
BRANCH   1  18
ATOM     18  C   UNL d   1      -4.212   0.434  -6.994  0.00  0.00     0.121 C 
BRANCH  18  19
ATOM     19  C   UNL d   1      -4.620   1.880  -6.799  0.00  0.00     0.259 C 
ATOM     20  O   UNL d   1      -5.302   2.462  -7.641  0.00  0.00    -0.265 OA
BRANCH  19  21
ATOM     21  O   UNL d   1      -4.173   2.455  -5.659  0.00  0.00    -0.314 OA
BRANCH  21  22
ATOM     22  C   UNL d   1      -4.476   3.851  -5.492  0.00  0.00     0.262 C 
BRANCH  22  23
ATOM     23  C   UNL d   1      -5.258   4.167  -4.213  0.00  0.00     0.183 C 
ATOM     24  O   UNL d   1      -5.655   3.297  -3.438  0.00  0.00    -0.290 OA
BRANCH  23  25
ATOM     25  C   UNL d   1      -5.604   5.599  -3.930  0.00  0.00     0.012 A 
ATOM     26  C   UNL d   1      -6.737   5.871  -3.152  0.00  0.00     0.016 A 
ATOM     27  C   UNL d   1      -7.106   7.190  -2.860  0.00  0.00     0.017 A 
ATOM     28  C   UNL d   1      -6.340   8.268  -3.329  0.00  0.00     0.048 A 
ATOM     29  C   UNL d   1      -5.200   7.994  -4.102  0.00  0.00     0.017 A 
ATOM     30  C   UNL d   1      -4.835   6.672  -4.404  0.00  0.00     0.016 A 
BRANCH  28  31
ATOM     31  C   UNL d   1      -6.742   9.688  -2.996  0.00  0.00     0.417 C 
ATOM     32  F   UNL d   1      -5.888  10.626  -3.492  0.00  0.00    -0.166 F 
ATOM     33  F   UNL d   1      -7.972  10.009  -3.484  0.00  0.00    -0.166 F 
ATOM     34  F   UNL d   1      -6.802   9.911  -1.654  0.00  0.00    -0.166 F 
ENDBRANCH  28  31
ENDBRANCH  23  25
ENDBRANCH  22  23
ENDBRANCH  21  22
ENDBRANCH  19  21
ENDBRANCH  18  19
ENDBRANCH   1  18
TORSDOF 13
