REMARK  4 active torsions:
REMARK  status: ('A' for Active; 'I' for Inactive)
REMARK    1  A    between atoms: C_2  and  C_1 
REMARK       I    between atoms: N_4  and  C_1 
REMARK    2  A    between atoms: C_3  and  O_5 
REMARK       I    between atoms: N_6  and  C_3 
REMARK    3  A    between atoms: C_11  and  N_4 
REMARK    4  A    between atoms: O_5  and  C_12 
ROOT
ATOM      1  C   UNL d   1      -1.264   0.427  -1.131  0.00  0.00     0.037 A 
ATOM      2  C   UNL d   1      -3.257   1.104   0.076  0.00  0.00     0.083 A 
ATOM      3  C   UNL d   1      -1.946   0.616   0.073  0.00  0.00     0.067 A 
ATOM      4  C   UNL d   1      -3.252   1.173  -2.322  0.00  0.00     0.005 A 
ATOM      5  C   UNL d   1      -1.932   0.705  -2.330  0.00  0.00     0.029 A 
ATOM      6  C   UNL d   1      -3.915   1.389  -1.115  0.00  0.00     0.037 A 
ENDROOT
BRANCH   1   7
ATOM      7  N   UNL d   1       0.095   0.039  -1.212  0.00  0.00    -0.323 N 
ATOM      8  C   UNL d   1       0.921  -0.305  -0.152  0.00  0.00     0.262 C 
ATOM      9  O   UNL d   1       0.543  -0.492   0.999  0.00  0.00    -0.267 OA
ATOM     10  H   UNL d   1       0.510   0.086  -2.136  0.00  0.00     0.169 HD
BRANCH   8  11
ATOM     11  C   UNL d   1       2.376  -0.428  -0.440  0.00  0.00     0.109 A 
ATOM     12  C   UNL d   1       2.973   0.161  -1.557  0.00  0.00     0.135 A 
ATOM     13  F   UNL d   1       2.233   0.778  -2.491  0.00  0.00    -0.205 F 
ATOM     14  C   UNL d   1       4.359   0.139  -1.737  0.00  0.00     0.043 A 
ATOM     15  C   UNL d   1       5.175  -0.484  -0.795  0.00  0.00     0.006 A 
ATOM     16  C   UNL d   1       4.595  -1.102   0.309  0.00  0.00     0.043 A 
ATOM     17  C   UNL d   1       3.209  -1.074   0.479  0.00  0.00     0.135 A 
ATOM     18  F   UNL d   1       2.714  -1.702   1.555  0.00  0.00    -0.205 F 
ENDBRANCH   8  11
ENDBRANCH   1   7
BRANCH   2  19
ATOM     19  O   UNL d   1      -3.783   1.401   1.358  0.00  0.00    -0.261 OA
BRANCH  19  20
ATOM     20  C   UNL d   1      -5.133   1.577   1.663  0.00  0.00     0.367 C 
ATOM     21  N   UNL d   1      -5.329   2.067   2.950  0.00  0.00    -0.336 N 
ATOM     22  C   UNL d   1      -6.684   2.187   3.449  0.00  0.00     0.154 C 
ATOM     23  C   UNL d   1      -4.254   2.183   3.920  0.00  0.00     0.154 C 
ATOM     24  O   UNL d   1      -6.053   1.329   0.888  0.00  0.00    -0.238 OA
ENDBRANCH  19  20
ENDBRANCH   2  19
TORSDOF 4
