REMARK  5 active torsions:
REMARK  status: ('A' for Active; 'I' for Inactive)
REMARK    1  A    between atoms: C_3  and  C_1 
REMARK    2  A    between atoms: C_2  and  N_4 
REMARK    3  A    between atoms: N_5  and  C_2 
REMARK    4  A    between atoms: N_4  and  C_8 
REMARK    5  A    between atoms: C_12  and  N_5 
ROOT
ATOM      1  N   UNL d   1       0.517  -3.222   2.911  0.00  0.00    -0.333 N 
ATOM      2  H   UNL d   1       0.095  -2.574   2.260  0.00  0.00     0.168 HD
ENDROOT
BRANCH   1   3
ATOM      3  C   UNL d   1       0.822  -4.423   2.325  0.00  0.00     0.176 C 
ATOM      4  S   UNL d   1       0.926  -5.934   3.035  0.00  0.00    -0.041 SA
BRANCH   3   5
ATOM      5  N   UNL d   1       0.963  -4.410   0.954  0.00  0.00    -0.333 N 
ATOM      6  H   UNL d   1       0.943  -5.348   0.565  0.00  0.00     0.168 HD
BRANCH   5   7
ATOM      7  C   UNL d   1       1.028  -3.355   0.024  0.00  0.00     0.034 C 
ATOM      8  C   UNL d   1       1.401  -2.048   0.343  0.00  0.00     0.030 C 
ATOM      9  C   UNL d   1       1.268  -1.025  -0.599  0.00  0.00     0.009 C 
ATOM     10  C   UNL d   1       0.810  -1.305  -1.890  0.00  0.00    -0.062 C 
ATOM     11  C   UNL d   1       0.553  -2.634  -2.243  0.00  0.00     0.009 C 
ATOM     12  C   UNL d   1       0.513  -0.189  -2.846  0.00  0.00     0.048 C 
ATOM     13  C   UNL d   1       0.678  -3.653  -1.296  0.00  0.00     0.030 C 
ENDBRANCH   5   7
ENDBRANCH   3   5
ENDBRANCH   1   3
BRANCH   1  14
ATOM     14  C   UNL d   1       0.521  -2.763   4.247  0.00  0.00     0.035 A 
ATOM     15  C   UNL d   1       0.999  -3.478   5.342  0.00  0.00     0.045 A 
ATOM     16  C   UNL d   1       0.939  -2.944   6.643  0.00  0.00     0.050 A 
ATOM     17  C   UNL d   1       0.460  -1.639   6.827  0.00  0.00     0.016 A 
ATOM     18  C   UNL d   1       0.020  -0.898   5.736  0.00  0.00     0.003 A 
ATOM     19  C   UNL d   1       0.040  -1.462   4.457  0.00  0.00     0.029 A 
BRANCH  16  20
ATOM     20  C   UNL d   1       1.384  -3.760   7.831  0.00  0.00     0.417 C 
ATOM     21  F   UNL d   1       1.569  -5.080   7.554  0.00  0.00    -0.166 F 
ATOM     22  F   UNL d   1       0.484  -3.720   8.854  0.00  0.00    -0.166 F 
ATOM     23  F   UNL d   1       2.562  -3.318   8.354  0.00  0.00    -0.166 F 
ENDBRANCH  16  20
ENDBRANCH   1  14
TORSDOF 5
