REMARK  5 active torsions:
REMARK  status: ('A' for Active; 'I' for Inactive)
REMARK    1  A    between atoms: C_4  and  S_1 
REMARK    2  A    between atoms: C_7  and  S_1 
REMARK    3  A    between atoms: C_2  and  C_4 
REMARK    4  A    between atoms: C_5  and  C_3 
REMARK    5  A    between atoms: N_15  and  C_5 
ROOT
ATOM      1  C   UNL d   1       0.239  -0.260  -1.612  0.00  0.00     0.185 C 
ENDROOT
BRANCH   1   2
ATOM      2  C   UNL d   1       0.694   0.776  -2.612  0.00  0.00    -0.023 A 
ATOM      3  C   UNL d   1       1.734   0.664  -3.543  0.00  0.00     0.049 A 
ATOM      4  S   UNL d   1       1.907   2.135  -4.438  0.00  0.00    -0.098 SA
ATOM      5  C   UNL d   1       0.590   2.873  -3.663  0.00  0.00     0.051 A 
ATOM      6  C   UNL d   1       0.035   2.054  -2.713  0.00  0.00     0.017 A 
BRANCH   3   7
ATOM      7  C   UNL d   1       2.643  -0.444  -3.804  0.00  0.00     0.112 C 
ATOM      8  S   UNL d   1       3.203  -0.846  -5.327  0.00  0.00    -0.059 SA
BRANCH   7   9
ATOM      9  N   UNL d   1       3.050  -1.219  -2.753  0.00  0.00    -0.389 N 
ATOM     10  H   UNL d   1       3.012  -0.873  -1.792  0.00  0.00     0.157 HD
ATOM     11  H   UNL d   1       3.778  -1.898  -2.942  0.00  0.00     0.157 HD
ENDBRANCH   7   9
ENDBRANCH   3   7
ENDBRANCH   1   2
BRANCH   1  12
ATOM     12  S   UNL d   1       1.035  -0.030  -0.019  0.00  0.00     0.179 S 
ATOM     13  O   UNL d   1       0.644   1.254   0.537  0.00  0.00    -0.222 OA
ATOM     14  O   UNL d   1       2.442  -0.376  -0.157  0.00  0.00    -0.222 OA
BRANCH  12  15
ATOM     15  C   UNL d   1       0.310  -1.283   1.025  0.00  0.00     0.059 A 
ATOM     16  C   UNL d   1       0.895  -2.552   1.082  0.00  0.00     0.025 A 
ATOM     17  C   UNL d   1       0.404  -3.496   1.987  0.00  0.00     0.025 A 
ATOM     18  C   UNL d   1      -0.657  -3.165   2.831  0.00  0.00     0.034 A 
ATOM     19  C   UNL d   1      -1.239  -1.899   2.775  0.00  0.00     0.025 A 
ATOM     20 CL   UNL d   1      -1.232  -4.320   3.970  0.00  0.00    -0.084 Cl
ATOM     21  C   UNL d   1      -0.752  -0.948   1.872  0.00  0.00     0.025 A 
ENDBRANCH  12  15
ENDBRANCH   1  12
TORSDOF 5
