REMARK  11 active torsions:
REMARK  status: ('A' for Active; 'I' for Inactive)
REMARK    1  A    between atoms: C_9  and  N_1 
REMARK    2  A    between atoms: C_10  and  N_2 
REMARK    3  A    between atoms: C_7  and  C_3 
REMARK    4  A    between atoms: C_17  and  C_3 
REMARK    5  A    between atoms: C_6  and  O_15 
REMARK    6  A    between atoms: O_14  and  C_7 
REMARK    7  A    between atoms: C_8  and  O_14 
REMARK       I    between atoms: N_13  and  C_8 
REMARK    8  A    between atoms: C_21  and  N_13 
REMARK    9  A    between atoms: O_15  and  C_22 
REMARK   10  A    between atoms: C_31  and  C_17 
REMARK   11  A    between atoms: C_32  and  C_31 
ROOT
ATOM      1  N   UNL d   1      -0.626   1.238   0.383  0.00  0.00    -0.213 N 
ATOM      2  N   UNL d   1       0.634   1.217  -0.252  0.00  0.00    -0.213 N 
ATOM      3  C   UNL d   1      -0.139  -1.004  -0.202  0.00  0.00     0.147 C 
ATOM      4  C   UNL d   1      -1.201  -0.048   0.316  0.00  0.00     0.264 C 
ATOM      5  C   UNL d   1       1.057  -0.100  -0.435  0.00  0.00     0.264 C 
ATOM      6  O   UNL d   1      -2.349  -0.355   0.605  0.00  0.00    -0.270 OA
ATOM      7  O   UNL d   1       2.178  -0.504  -0.722  0.00  0.00    -0.270 OA
ENDROOT
BRANCH   3   8
ATOM      8  C   UNL d   1       0.284  -2.001   0.878  0.00  0.00     0.210 C 
BRANCH   8   9
ATOM      9  O   UNL d   1      -0.730  -2.907   1.334  0.00  0.00    -0.302 OA
BRANCH   9  10
ATOM     10  C   UNL d   1      -0.575  -4.204   0.974  0.00  0.00     0.365 C 
ATOM     11  N   UNL d   1      -0.933  -5.131   1.919  0.00  0.00    -0.303 N 
ATOM     12  H   UNL d   1      -0.760  -6.071   1.584  0.00  0.00     0.171 HD
ATOM     13  O   UNL d   1      -0.079  -4.561  -0.090  0.00  0.00    -0.238 OA
BRANCH  11  14
ATOM     14  C   UNL d   1      -1.135  -4.980   3.306  0.00  0.00     0.037 A 
ATOM     15  C   UNL d   1      -1.378  -3.768   3.952  0.00  0.00     0.032 A 
ATOM     16  C   UNL d   1      -1.444  -3.695   5.353  0.00  0.00     0.039 A 
ATOM     17  C   UNL d   1      -1.304  -4.843   6.127  0.00  0.00     0.078 A 
ATOM     18  C   UNL d   1      -1.088  -6.063   5.482  0.00  0.00     0.039 A 
ATOM     19  C   UNL d   1      -1.015  -6.134   4.086  0.00  0.00     0.032 A 
BRANCH  17  20
ATOM     20  O   UNL d   1      -1.371  -4.931   7.485  0.00  0.00    -0.255 OA
BRANCH  20  21
ATOM     21  C   UNL d   1      -1.665  -3.760   8.229  0.00  0.00     0.530 C 
ATOM     22  F   UNL d   1      -2.740  -3.105   7.741  0.00  0.00    -0.144 F 
ATOM     23  F   UNL d   1      -1.946  -4.121   9.501  0.00  0.00    -0.144 F 
ATOM     24  F   UNL d   1      -0.602  -2.930   8.250  0.00  0.00    -0.144 F 
ENDBRANCH  20  21
ENDBRANCH  17  20
ENDBRANCH  11  14
ENDBRANCH   9  10
ENDBRANCH   8   9
ENDBRANCH   3   8
BRANCH   3  25
ATOM     25  C   UNL d   1      -0.432  -1.588  -1.595  0.00  0.00     0.031 C 
BRANCH  25  26
ATOM     26  C   UNL d   1      -1.769  -2.286  -1.826  0.00  0.00     0.001 C 
BRANCH  26  27
ATOM     27  C   UNL d   1      -1.774  -2.917  -3.224  0.00  0.00    -0.005 C 
ATOM     28  C   UNL d   1      -3.040  -3.714  -3.481  0.00  0.00     0.005 C 
ENDBRANCH  26  27
ENDBRANCH  25  26
ENDBRANCH   3  25
BRANCH   1  29
ATOM     29  C   UNL d   1      -1.479   2.366   0.282  0.00  0.00     0.060 A 
ATOM     30  C   UNL d   1      -1.918   2.963   1.470  0.00  0.00     0.031 A 
ATOM     31  C   UNL d   1      -2.615   4.171   1.435  0.00  0.00     0.002 A 
ATOM     32  C   UNL d   1      -2.922   4.761   0.209  0.00  0.00     0.000 A 
ATOM     33  C   UNL d   1      -2.530   4.145  -0.980  0.00  0.00     0.002 A 
ATOM     34  C   UNL d   1      -1.793   2.958  -0.948  0.00  0.00     0.031 A 
ENDBRANCH   1  29
BRANCH   2  35
ATOM     35  C   UNL d   1       1.558   2.303  -0.256  0.00  0.00     0.060 A 
ATOM     36  C   UNL d   1       2.536   2.369  -1.260  0.00  0.00     0.031 A 
ATOM     37  C   UNL d   1       3.439   3.433  -1.309  0.00  0.00     0.002 A 
ATOM     38  C   UNL d   1       3.375   4.437  -0.346  0.00  0.00     0.000 A 
ATOM     39  C   UNL d   1       2.418   4.376   0.661  0.00  0.00     0.002 A 
ATOM     40  C   UNL d   1       1.511   3.316   0.703  0.00  0.00     0.031 A 
ENDBRANCH   2  35
TORSDOF 11
