REMARK  8 active torsions:
REMARK  status: ('A' for Active; 'I' for Inactive)
REMARK    1  A    between atoms: N_15  and  C_4 
REMARK    2  A    between atoms: N_14  and  C_9 
REMARK    3  A    between atoms: S_17  and  C_11 
REMARK    4  A    between atoms: C_22  and  N_15 
REMARK    5  A    between atoms: C_21  and  S_17 
REMARK    6  A    between atoms: C_18  and  C_21 
REMARK    7  A    between atoms: O_23  and  C_18 
REMARK    8  A    between atoms: C_28  and  O_23 
ROOT
ATOM      1  N   UNL d   1      -1.101   1.382  -0.148  0.00  0.00    -0.175 N 
ATOM      2  HN  UNL d   1      -1.074   2.395  -0.261  1.00  0.00     0.186 HD
ATOM      3  C   UNL d   1       0.029   0.690  -0.109  0.00  0.00     0.138 A 
ATOM      4  C   UNL d   1       1.268  -1.318   0.060  0.00  0.00     0.123 A 
ATOM      5  N   UNL d   1       2.406  -0.616  -0.001  0.00  0.00    -0.322 N 
ATOM      6  HN  UNL d   1       3.315  -1.078   0.017  1.00  0.00     0.169 HD
ATOM      7  N   UNL d   1       1.155   1.385  -0.167  0.00  0.00    -0.322 N 
ATOM      8  HN  UNL d   1       1.145   2.400  -0.270  1.00  0.00     0.169 HD
ATOM      9  C   UNL d   1      -2.280   0.750  -0.038  0.00  0.00     0.681 A 
ATOM     10  C   UNL d   1       0.027  -0.684   0.005  0.00  0.00     0.069 A 
ATOM     11  C   UNL d   1       2.304   0.711  -0.085  0.00  0.00     0.147 A 
ATOM     12  N   UNL d   1      -2.373  -0.579   0.074  0.00  0.00    -0.201 N 
ATOM     13  HN  UNL d   1      -3.278  -1.045   0.143  1.00  0.00     0.183 HD
ATOM     14  C   UNL d   1      -1.224  -1.275   0.091  0.00  0.00     0.125 A 
ENDROOT
BRANCH   4  15
ATOM     15  N   UNL d   1       1.340  -2.732   0.159  0.00  0.00    -0.342 N 
ATOM     16  H   UNL d   1       0.985  -3.156  -0.691  0.00  0.00     0.167 HD
BRANCH  15  17
ATOM     17  C   UNL d   1       2.436  -3.454   0.691  0.00  0.00     0.033 A 
ATOM     18  C   UNL d   1       3.167  -2.974   1.787  0.00  0.00     0.029 A 
ATOM     19  C   UNL d   1       4.214  -3.715   2.337  0.00  0.00     0.002 A 
ATOM     20  C   UNL d   1       4.537  -4.960   1.805  0.00  0.00     0.000 A 
ATOM     21  C   UNL d   1       3.802  -5.467   0.736  0.00  0.00     0.002 A 
ATOM     22  C   UNL d   1       2.748  -4.725   0.192  0.00  0.00     0.029 A 
ENDBRANCH  15  17
ENDBRANCH   4  15
BRANCH  11  23
ATOM     23  S   UNL d   1       3.830   1.619  -0.114  0.00  0.00    -0.084 SA
BRANCH  23  24
ATOM     24  C   UNL d   1       3.311   3.120   0.767  0.00  0.00     0.193 C 
BRANCH  24  25
ATOM     25  C   UNL d   1       2.730   2.842   2.138  0.00  0.00     0.268 C 
ATOM     26  O   UNL d   1       2.650   1.757   2.698  0.00  0.00    -0.264 OA
BRANCH  25  27
ATOM     27  O   UNL d   1       2.260   4.018   2.656  0.00  0.00    -0.321 OA
BRANCH  27  28
ATOM     28  C   UNL d   1       1.380   3.889   3.781  0.00  0.00     0.174 C 
ATOM     29  C   UNL d   1      -0.041   3.799   3.256  0.00  0.00     0.034 C 
ENDBRANCH  27  28
ENDBRANCH  25  27
ENDBRANCH  24  25
ENDBRANCH  23  24
ENDBRANCH  11  23
BRANCH   9  30
ATOM     30  N   UNL d   1      -3.412   1.511   0.042  0.00  0.00    -0.214 N 
ATOM     31  C   UNL d   1      -4.735   0.913   0.199  0.00  0.00     0.167 C 
ATOM     32  C   UNL d   1      -5.570   1.816   1.126  0.00  0.00     0.188 C 
ATOM     33  O   UNL d   1      -5.616   3.175   0.653  0.00  0.00    -0.388 OA
ATOM     34  C   UNL d   1      -4.288   3.721   0.563  0.00  0.00     0.188 C 
ATOM     35  C   UNL d   1      -3.408   2.905  -0.395  0.00  0.00     0.167 C 
ENDBRANCH   9  30
TORSDOF 8
