REMARK  8 active torsions:
REMARK  status: ('A' for Active; 'I' for Inactive)
REMARK    1  A    between atoms: C_7  and  C_1 
REMARK    2  A    between atoms: C_11  and  C_2 
REMARK    3  A    between atoms: N_5  and  C_6 
REMARK    4  A    between atoms: C_8  and  C_13 
REMARK       I    between atoms: N_25  and  C_11 
REMARK    5  A    between atoms: C_14  and  N_26 
REMARK    6  A    between atoms: C_33  and  N_25 
REMARK    7  A    between atoms: N_26  and  C_34 
REMARK    8  A    between atoms: C_34  and  C_33 
ROOT
ATOM      1  C   UNL d   1       2.641  -1.855  -0.635  0.00  0.00     0.256 C 
ATOM      2  O   UNL d   1       3.792  -1.986  -1.016  0.00  0.00    -0.267 OA
ATOM      3  N   UNL d   1       1.871  -2.861  -0.090  0.00  0.00    -0.355 N 
ATOM      4  H   UNL d   1       0.884  -2.651  -0.007  0.00  0.00     0.162 HD
ENDROOT
BRANCH   3   5
ATOM      5  C   UNL d   1       2.167  -4.286  -0.159  0.00  0.00     0.142 C 
BRANCH   5   6
ATOM      6  C   UNL d   1       3.631  -4.755  -0.132  0.00  0.00     0.139 C 
BRANCH   6   7
ATOM      7  N   UNL d   1       4.359  -4.495  -1.370  0.00  0.00    -0.386 N 
ATOM      8  H   UNL d   1       4.611  -3.499  -1.442  0.00  0.00     0.159 HD
BRANCH   7   9
ATOM      9  C   UNL d   1       4.208  -5.156  -2.577  0.00  0.00     0.061 A 
ATOM     10  C   UNL d   1       5.024  -4.889  -3.699  0.00  0.00     0.130 A 
ATOM     11  C   UNL d   1       4.932  -5.619  -4.901  0.00  0.00     0.054 A 
ATOM     12  C   UNL d   1       4.010  -6.664  -5.019  0.00  0.00     0.050 A 
ATOM     13  C   UNL d   1       3.188  -6.946  -3.922  0.00  0.00     0.018 A 
ATOM     14  C   UNL d   1       3.309  -6.225  -2.725  0.00  0.00     0.032 A 
BRANCH  10  15
ATOM     15  N   UNL d   1       6.031  -3.832  -3.666  0.00  0.00    -0.113 N 
ATOM     16  O   UNL d   1       6.044  -3.048  -4.628  0.00  0.00    -0.532 OA
ATOM     17  O   UNL d   1       6.841  -3.820  -2.729  0.00  0.00    -0.532 OA
ENDBRANCH  10  15
BRANCH  12  18
ATOM     18  C   UNL d   1       3.906  -7.498  -6.272  0.00  0.00     0.417 C 
ATOM     19  F   UNL d   1       4.831  -7.174  -7.217  0.00  0.00    -0.166 F 
ATOM     20  F   UNL d   1       4.074  -8.825  -6.023  0.00  0.00    -0.166 F 
ATOM     21  F   UNL d   1       2.693  -7.378  -6.875  0.00  0.00    -0.166 F 
ENDBRANCH  12  18
ENDBRANCH   7   9
ENDBRANCH   6   7
ENDBRANCH   5   6
ENDBRANCH   3   5
BRANCH   1  22
ATOM     22  C   UNL d   1       1.937  -0.600  -0.791  0.00  0.00     0.092 A 
ATOM     23  C   UNL d   1       1.960   0.273  -1.926  0.00  0.00     0.088 A 
ATOM     24  N   UNL d   1       1.166   1.334  -1.706  0.00  0.00    -0.259 N 
ATOM     25  O   UNL d   1       0.664   1.193  -0.433  0.00  0.00    -0.241 OA
ATOM     26  HN  UNL d   1       0.973   2.096  -2.356  1.00  0.00     0.195 HD
ATOM     27  C   UNL d   1       1.113   0.035   0.113  0.00  0.00     0.090 A 
ATOM     28  C   UNL d   1       0.656  -0.229   1.493  0.00  0.00     0.080 C 
BRANCH  23  29
ATOM     29  C   UNL d   1       2.630   0.083  -3.213  0.00  0.00     0.054 A 
ATOM     30  C   UNL d   1       2.503  -1.149  -3.875  0.00  0.00     0.130 A 
ATOM     31  F   UNL d   1       1.769  -2.139  -3.340  0.00  0.00    -0.205 F 
ATOM     32  C   UNL d   1       3.108  -1.392  -5.107  0.00  0.00     0.043 A 
ATOM     33  C   UNL d   1       3.850  -0.390  -5.720  0.00  0.00     0.005 A 
ATOM     34  C   UNL d   1       3.986   0.847  -5.091  0.00  0.00     0.025 A 
ATOM     35  C   UNL d   1       3.389   1.084  -3.842  0.00  0.00     0.049 A 
ATOM     36 CL   UNL d   1       3.680   2.636  -3.133  0.00  0.00    -0.083 Cl
ENDBRANCH  23  29
ENDBRANCH   1  22
TORSDOF 8
