REMARK  10 active torsions:
REMARK  status: ('A' for Active; 'I' for Inactive)
REMARK    1  A    between atoms: C_11  and  N_1 
REMARK    2  A    between atoms: C_9  and  C_2 
REMARK    3  A    between atoms: C_21  and  C_8 
REMARK    4  A    between atoms: C_10  and  C_9 
REMARK    5  A    between atoms: C_19  and  C_9 
REMARK    6  A    between atoms: N_17  and  C_11 
REMARK    7  A    between atoms: O_22  and  C_12 
REMARK    8  A    between atoms: O_24  and  C_13 
REMARK    9  A    between atoms: O_23  and  C_14 
REMARK   10  A    between atoms: N_18  and  C_19 
ROOT
ATOM      1  N   UNL d   1       1.537  -0.054  -0.806  0.00  0.00    -0.226 N 
ATOM      2  C   UNL d   1      -0.498  -1.258  -0.238  0.00  0.00     0.091 C 
ATOM      3  C   UNL d   1       0.900  -1.287  -0.826  0.00  0.00     0.287 C 
ATOM      4  N   UNL d   1      -1.049  -0.149   0.142  0.00  0.00    -0.339 N 
ATOM      5  HN  UNL d   1      -1.960  -0.149   0.600  1.00  0.00     0.167 HD
ATOM      6  N   UNL d   1       0.843   1.099  -0.515  0.00  0.00    -0.278 N 
ATOM      7  HN  UNL d   1       1.286   2.010  -0.637  1.00  0.00     0.189 HD
ATOM      8  C   UNL d   1      -0.379   1.021  -0.085  0.00  0.00     0.131 C 
ATOM      9  O   UNL d   1       1.362  -2.337  -1.248  0.00  0.00    -0.264 OA
ENDROOT
BRANCH   2  10
ATOM     10  C   UNL d   1      -1.192  -2.604  -0.035  0.00  0.00     0.103 C 
BRANCH  10  11
ATOM     11  C   UNL d   1      -0.761  -3.234   1.290  0.00  0.00    -0.041 A 
ATOM     12  C   UNL d   1      -0.979  -2.595   2.518  0.00  0.00     0.047 A 
ATOM     13  C   UNL d   1      -0.625  -3.200   3.737  0.00  0.00     0.104 A 
ATOM     14  C   UNL d   1      -0.037  -4.489   3.736  0.00  0.00     0.135 A 
ATOM     15  C   UNL d   1       0.181  -5.135   2.497  0.00  0.00     0.104 A 
ATOM     16  C   UNL d   1      -0.172  -4.497   1.298  0.00  0.00     0.047 A 
BRANCH  13  17
ATOM     17  O   UNL d   1      -0.836  -2.582   4.943  0.00  0.00    -0.353 OA
ATOM     18  C   UNL d   1      -1.399  -1.278   4.968  0.00  0.00     0.210 C 
ENDBRANCH  13  17
BRANCH  14  19
ATOM     19  O   UNL d   1       0.368  -5.184   4.846  0.00  0.00    -0.351 OA
ATOM     20  C   UNL d   1       0.163  -4.671   6.151  0.00  0.00     0.210 C 
ENDBRANCH  14  19
BRANCH  15  21
ATOM     21  O   UNL d   1       0.721  -6.374   2.251  0.00  0.00    -0.353 OA
ATOM     22  C   UNL d   1       1.018  -7.237   3.336  0.00  0.00     0.210 C 
ENDBRANCH  15  21
ENDBRANCH  10  11
BRANCH  10  23
ATOM     23  C   UNL d   1      -2.747  -2.555  -0.084  0.00  0.00     0.288 C 
BRANCH  23  24
ATOM     24  N   UNL d   1      -3.390  -2.017  -1.307  0.00  0.00     0.089 N 
ATOM     25  C   UNL d   1      -3.123  -2.855  -2.486  0.00  0.00     0.272 C 
ATOM     26  C   UNL d   1      -3.810  -2.300  -3.737  0.00  0.00     0.030 C 
ATOM     27  C   UNL d   1      -5.313  -2.165  -3.531  0.00  0.00     0.003 C 
ATOM     28  C   UNL d   1      -5.589  -1.335  -2.284  0.00  0.00     0.030 C 
ATOM     29  C   UNL d   1      -4.844  -1.892  -1.073  0.00  0.00     0.272 C 
ENDBRANCH  23  24
ENDBRANCH  10  23
ENDBRANCH   2  10
BRANCH   1  30
ATOM     30  C   UNL d   1       2.857   0.090  -1.413  0.00  0.00     0.424 C 
BRANCH  30  31
ATOM     31  N   UNL d   1       3.861   0.689  -0.495  0.00  0.00     0.107 N 
ATOM     32  C   UNL d   1       4.097  -0.206   0.648  0.00  0.00     0.274 C 
ATOM     33  C   UNL d   1       5.338   0.129   1.478  0.00  0.00     0.030 C 
ATOM     34  C   UNL d   1       6.577   0.240   0.608  0.00  0.00     0.003 C 
ATOM     35  C   UNL d   1       6.341   1.287  -0.466  0.00  0.00     0.030 C 
ATOM     36  C   UNL d   1       5.072   0.999  -1.275  0.00  0.00     0.274 C 
ENDBRANCH  30  31
ENDBRANCH   1  30
BRANCH   8  37
ATOM     37  C   UNL d   1      -1.170   2.260   0.170  0.00  0.00     0.009 A 
ATOM     38  C   UNL d   1      -2.464   2.174   0.703  0.00  0.00     0.015 A 
ATOM     39  C   UNL d   1      -3.215   3.330   0.910  0.00  0.00     0.001 A 
ATOM     40  C   UNL d   1      -2.684   4.576   0.581  0.00  0.00     0.000 A 
ATOM     41  C   UNL d   1      -1.397   4.668   0.047  0.00  0.00     0.001 A 
ATOM     42  C   UNL d   1      -0.638   3.509  -0.158  0.00  0.00     0.015 A 
ENDBRANCH   8  37
TORSDOF 10
