REMARK  1 active torsions:
REMARK  status: ('A' for Active; 'I' for Inactive)
REMARK    1  A    between atoms: C_6  and  C_3 
ROOT
ATOM      1  C   UNL d   1       1.867   0.518   0.030  0.00  0.00    -0.002 A 
ATOM      2  C   UNL d   1       0.810   1.568   0.181  0.00  0.00     0.189 A 
ATOM      3  C   UNL d   1       3.164   0.800  -0.149  0.00  0.00     0.023 C 
ATOM      4  C   UNL d   1      -0.441   0.861   0.500  0.00  0.00     0.021 A 
ATOM      5  C   UNL d   1      -0.204  -0.514   0.515  0.00  0.00    -0.040 A 
ATOM      6  C   UNL d   1       1.221  -0.837   0.192  0.00  0.00     0.082 A 
ATOM      7  O   UNL d   1       0.954   2.769   0.090  0.00  0.00    -0.287 OA
ATOM      8  C   UNL d   1      -1.690   1.391   0.772  0.00  0.00     0.016 A 
ATOM      9  C   UNL d   1      -1.223  -1.405   0.807  0.00  0.00     0.008 A 
ATOM     10  C   UNL d   1      -2.722   0.498   1.071  0.00  0.00     0.001 A 
ATOM     11  C   UNL d   1      -2.490  -0.890   1.089  0.00  0.00     0.001 A 
ENDROOT
BRANCH   3  12
ATOM     12  C   UNL d   1       4.174  -0.271  -0.173  0.00  0.00    -0.025 A 
ATOM     13  C   UNL d   1       4.830  -0.703   1.013  0.00  0.00    -0.016 A 
ATOM     14  C   UNL d   1       5.715  -1.808   0.937  0.00  0.00    -0.025 A 
ATOM     15  C   UNL d   1       4.646  -0.093   2.276  0.00  0.00     0.013 A 
ATOM     16  C   UNL d   1       6.385  -2.250   2.090  0.00  0.00     0.012 A 
ATOM     17  C   UNL d   1       5.917  -2.456  -0.291  0.00  0.00     0.012 A 
ATOM     18  C   UNL d   1       6.197  -1.617   3.317  0.00  0.00     0.001 A 
ATOM     19  C   UNL d   1       5.323  -0.541   3.412  0.00  0.00     0.001 A 
ATOM     20  C   UNL d   1       5.282  -2.011  -1.448  0.00  0.00     0.002 A 
ATOM     21  C   UNL d   1       4.421  -0.918  -1.392  0.00  0.00     0.012 A 
ENDBRANCH   3  12
TORSDOF 1
