REMARK  8 active torsions:
REMARK  status: ('A' for Active; 'I' for Inactive)
REMARK    1  A    between atoms: O_11  and  S_1 
REMARK    2  A    between atoms: N_12  and  S_1 
REMARK    3  A    between atoms: C_2  and  C_5 
REMARK    4  A    between atoms: C_5  and  O_13 
REMARK    5  A    between atoms: O_13  and  N_8 
REMARK    6  A    between atoms: C_10  and  C_16 
REMARK    7  A    between atoms: N_21  and  C_10 
REMARK    8  A    between atoms: C_20  and  O_11 
ROOT
ATOM      1  N   UNL d   1       0.806   7.269  -2.659  0.00  0.00    -0.246 N 
ATOM      2  HN  UNL d   1       1.011   8.265  -2.584  1.00  0.00     0.196 HD
ATOM      3  C   UNL d   1       1.674   6.318  -2.465  0.00  0.00     0.109 C 
ENDROOT
BRANCH   3   4
ATOM      4  C   UNL d   1       3.098   6.679  -2.143  0.00  0.00     0.004 A 
ATOM      5  C   UNL d   1       3.429   7.910  -1.566  0.00  0.00     0.017 A 
ATOM      6  C   UNL d   1       4.770   8.215  -1.279  0.00  0.00     0.039 A 
ATOM      7  C   UNL d   1       5.786   7.303  -1.587  0.00  0.00     0.091 A 
ATOM      8  C   UNL d   1       5.451   6.064  -2.135  0.00  0.00     0.039 A 
ATOM      9  C   UNL d   1       4.118   5.762  -2.425  0.00  0.00     0.017 A 
BRANCH   7  10
ATOM     10  O   UNL d   1       7.077   7.697  -1.325  0.00  0.00    -0.217 OA
BRANCH  10  11
ATOM     11  S   UNL d   1       8.329   7.097  -2.195  0.00  0.00     0.364 S 
ATOM     12  O   UNL d   1       7.972   7.118  -3.600  0.00  0.00    -0.175 OA
ATOM     13  O   UNL d   1       8.772   5.871  -1.568  0.00  0.00    -0.175 OA
BRANCH  11  14
ATOM     14  N   UNL d   1       9.565   8.253  -2.000  0.00  0.00    -0.297 N 
ATOM     15  C   UNL d   1       9.220   9.607  -2.467  0.00  0.00     0.164 C 
ATOM     16  C   UNL d   1      10.272   8.236  -0.712  0.00  0.00     0.164 C 
ENDBRANCH  11  14
ENDBRANCH  10  11
ENDBRANCH   7  10
ENDBRANCH   3   4
BRANCH   3  17
ATOM     17  N   UNL d   1       1.347   4.982  -2.536  0.00  0.00    -0.286 NA
ATOM     18  H   UNL d   1       0.344   4.827  -2.517  0.00  0.00     0.125 HD
ATOM     19  H   UNL d   1       1.843   4.372  -1.895  0.00  0.00     0.125 HD
ENDBRANCH   3  17
BRANCH   1  20
ATOM     20  O   UNL d   1      -0.468   6.728  -2.990  0.00  0.00    -0.192 OA
BRANCH  20  21
ATOM     21  C   UNL d   1      -1.361   7.729  -3.300  0.00  0.00     0.339 C 
ATOM     22  O   UNL d   1      -1.124   8.934  -3.268  0.00  0.00    -0.255 OA
BRANCH  21  23
ATOM     23  C   UNL d   1      -2.650   7.154  -3.660  0.00  0.00     0.159 A 
ATOM     24  O   UNL d   1      -2.807   5.788  -3.660  0.00  0.00    -0.303 OA
ATOM     25  C   UNL d   1      -4.096   5.516  -4.002  0.00  0.00     0.087 A 
ATOM     26  C   UNL d   1      -4.659   4.247  -4.124  0.00  0.00     0.038 A 
ATOM     27  C   UNL d   1      -4.795   6.696  -4.214  0.00  0.00     0.007 A 
ATOM     28  C   UNL d   1      -6.016   4.189  -4.461  0.00  0.00     0.003 A 
ATOM     29  C   UNL d   1      -6.761   5.354  -4.660  0.00  0.00     0.001 A 
ATOM     30  C   UNL d   1      -6.162   6.616  -4.545  0.00  0.00     0.015 A 
ATOM     31  C   UNL d   1      -3.853   7.755  -4.032  0.00  0.00    -0.009 A 
ATOM     32  C   UNL d   1      -4.146   9.201  -4.212  0.00  0.00     0.052 C 
ENDBRANCH  21  23
ENDBRANCH  20  21
ENDBRANCH   1  20
TORSDOF 8
