REMARK  4 active torsions:
REMARK  status: ('A' for Active; 'I' for Inactive)
REMARK       I    between atoms: C_2  and  N_1 
REMARK    1  A    between atoms: C_4  and  N_1 
REMARK    2  A    between atoms: C_3  and  C_2 
REMARK    3  A    between atoms: C_5  and  C_6 
REMARK    4  A    between atoms: O_11  and  C_5 
ROOT
ATOM      1  N   UNL d   1       1.127   0.183   0.325  0.00  0.00    -0.322 N 
ATOM      2  C   UNL d   1       0.515   1.267  -0.269  0.00  0.00     0.245 C 
ATOM      3  O   UNL d   1       1.056   2.192  -0.857  0.00  0.00    -0.268 OA
ATOM      4  H   UNL d   1       0.559  -0.646   0.438  0.00  0.00     0.169 HD
ENDROOT
BRANCH   1   5
ATOM      5  C   UNL d   1       2.529  -0.011   0.389  0.00  0.00     0.052 A 
ATOM      6  C   UNL d   1       3.491   0.983   0.643  0.00  0.00     0.037 A 
ATOM      7 BR   UNL d   1       3.080   2.703   1.352  0.00  0.00    -0.049 Br
ATOM      8  C   UNL d   1       4.857   0.673   0.567  0.00  0.00     0.021 A 
ATOM      9  C   UNL d   1       5.275  -0.627   0.293  0.00  0.00     0.002 A 
ATOM     10  C   UNL d   1       4.330  -1.635   0.131  0.00  0.00     0.002 A 
ATOM     11  C   UNL d   1       2.968  -1.331   0.188  0.00  0.00     0.031 A 
ENDBRANCH   1   5
BRANCH   2  12
ATOM     12  C   UNL d   1      -0.967   1.172  -0.230  0.00  0.00     0.081 C 
ATOM     13  C   UNL d   1      -1.684   2.226  -0.647  0.00  0.00     0.086 C 
BRANCH  13  14
ATOM     14  C   UNL d   1      -3.150   2.135  -0.642  0.00  0.00     0.165 C 
ATOM     15  O   UNL d   1      -3.771   1.094  -0.507  0.00  0.00    -0.647 OA
BRANCH  14  16
ATOM     16  O   UNL d   1      -3.733   3.339  -0.791  0.00  0.00    -0.773 OA
ATOM     17  H   UNL d   1      -3.122   4.097  -0.839  0.00  0.00     0.167 HD
ENDBRANCH  14  16
ENDBRANCH  13  14
ENDBRANCH   2  12
TORSDOF 4
