REMARK  4 active torsions:
REMARK  status: ('A' for Active; 'I' for Inactive)
REMARK    1  A    between atoms: C_6  and  C_1 
REMARK    2  A    between atoms: C_17  and  C_5 
REMARK       I    between atoms: C_7  and  N_12 
REMARK       I    between atoms: N_10  and  C_7 
REMARK    3  A    between atoms: C_11  and  N_10 
REMARK    4  A    between atoms: N_12  and  C_17 
ROOT
ATOM      1  C   UNL d   1       4.974   1.455   0.042  0.00  0.00     0.321 C 
ATOM      2  N   UNL d   1       4.972   2.829   0.083  0.00  0.00    -0.309 N 
ATOM      3  N   UNL d   1       3.705   0.909   0.089  0.00  0.00    -0.337 N 
ATOM      4  O   UNL d   1       5.964   0.737  -0.044  0.00  0.00    -0.247 OA
ATOM      5  H   UNL d   1       4.102   3.268   0.341  0.00  0.00     0.170 HD
ATOM      6  H   UNL d   1       2.898   1.462  -0.150  0.00  0.00     0.164 HD
ENDROOT
BRANCH   3   7
ATOM      7  C   UNL d   1       3.624  -0.509  -0.181  0.00  0.00     0.181 C 
BRANCH   7   8
ATOM      8  C   UNL d   1       2.227  -1.028  -0.294  0.00  0.00     0.034 A 
ATOM      9  N   UNL d   1       1.109  -0.196  -0.257  0.00  0.00    -0.351 N 
ATOM     10  C   UNL d   1       0.004  -0.919  -0.353  0.00  0.00     0.091 A 
ATOM     11  HN  UNL d   1       1.138   0.820  -0.169  1.00  0.00     0.166 HD
ATOM     12  S   UNL d   1       0.254  -2.610  -0.574  0.00  0.00    -0.081 SA
ATOM     13  C   UNL d   1       1.938  -2.369  -0.484  0.00  0.00     0.078 A 
BRANCH  10  14
ATOM     14  C   UNL d   1      -1.318  -0.332  -0.319  0.00  0.00     0.038 A 
ATOM     15  S   UNL d   1      -2.724  -1.210   0.143  0.00  0.00    -0.099 SA
ATOM     16  C   UNL d   1      -3.740   0.143  -0.085  0.00  0.00     0.050 A 
ATOM     17  C   UNL d   1      -3.036   1.250  -0.501  0.00  0.00     0.008 A 
ATOM     18  C   UNL d   1      -1.641   0.976  -0.629  0.00  0.00     0.022 A 
ENDBRANCH  10  14
ENDBRANCH   7   8
ENDBRANCH   3   7
BRANCH   2  19
ATOM     19  C   UNL d   1       6.077   3.684  -0.162  0.00  0.00     0.037 A 
ATOM     20  C   UNL d   1       7.339   3.228  -0.565  0.00  0.00     0.036 A 
ATOM     21  C   UNL d   1       8.374   4.122  -0.879  0.00  0.00    -0.059 A 
ATOM     22  C   UNL d   1       9.716   3.619  -1.325  0.00  0.00     0.048 C 
ATOM     23  C   UNL d   1       8.134   5.496  -0.803  0.00  0.00     0.013 A 
ATOM     24  C   UNL d   1       6.884   5.978  -0.398  0.00  0.00    -0.059 A 
ATOM     25  C   UNL d   1       5.872   5.066  -0.055  0.00  0.00     0.036 A 
ATOM     26  C   UNL d   1       6.639   7.458  -0.370  0.00  0.00     0.048 C 
ENDBRANCH   2  19
TORSDOF 4
