REMARK  5 active torsions:
REMARK  status: ('A' for Active; 'I' for Inactive)
REMARK    1  A    between atoms: C_4  and  N_1 
REMARK    2  A    between atoms: N_6  and  C_4 
REMARK    3  A    between atoms: C_5  and  O_7 
REMARK    4  A    between atoms: C_9  and  N_6 
REMARK    5  A    between atoms: O_7  and  C_8 
ROOT
ATOM      1  C   UNL d   1      -2.244   4.777  -1.277  0.00  0.00     0.104 A 
ATOM      2  C   UNL d   1      -1.525   4.119  -0.256  0.00  0.00     0.063 A 
ATOM      3  C   UNL d   1      -2.475   6.157  -1.227  0.00  0.00     0.039 A 
ATOM      4  C   UNL d   1      -1.133   4.885   0.851  0.00  0.00     0.032 A 
ATOM      5  C   UNL d   1      -2.051   6.899  -0.129  0.00  0.00     0.003 A 
ATOM      6  C   UNL d   1      -1.390   6.260   0.914  0.00  0.00     0.002 A 
ENDROOT
BRANCH   2   7
ATOM      7  N   UNL d   1      -1.242   2.758  -0.378  0.00  0.00    -0.371 N 
ATOM      8  H   UNL d   1      -2.087   2.187  -0.348  0.00  0.00     0.161 HD
BRANCH   7   9
ATOM      9  C   UNL d   1      -0.147   2.121   0.327  0.00  0.00     0.258 C 
BRANCH   9  10
ATOM     10  N   UNL d   1      -0.648   1.369   1.448  0.00  0.00    -0.271 N 
ATOM     11  C   UNL d   1      -1.321   0.194   1.312  0.00  0.00     0.228 A 
ATOM     12  C   UNL d   1      -1.533  -0.413   2.667  0.00  0.00     0.112 A 
ATOM     13  O   UNL d   1      -1.695  -0.319   0.268  0.00  0.00    -0.273 OA
ATOM     14  C   UNL d   1      -0.773   0.499   3.609  0.00  0.00     0.112 A 
ATOM     15  C   UNL d   1      -0.233   1.584   2.724  0.00  0.00     0.228 A 
ATOM     16  O   UNL d   1       0.505   2.476   3.118  0.00  0.00    -0.273 OA
ENDBRANCH   9  10
ENDBRANCH   7   9
ENDBRANCH   2   7
BRANCH   1  17
ATOM     17  O   UNL d   1      -2.591   4.177  -2.458  0.00  0.00    -0.253 OA
BRANCH  17  18
ATOM     18  C   UNL d   1      -3.481   3.075  -2.360  0.00  0.00     0.530 C 
ATOM     19  F   UNL d   1      -3.730   2.656  -1.099  0.00  0.00    -0.144 F 
ATOM     20  F   UNL d   1      -4.664   3.424  -2.919  0.00  0.00    -0.144 F 
ATOM     21  F   UNL d   1      -2.981   2.038  -3.068  0.00  0.00    -0.144 F 
ENDBRANCH  17  18
ENDBRANCH   1  17
TORSDOF 5
