REMARK  4 active torsions:
REMARK  status: ('A' for Active; 'I' for Inactive)
REMARK    1  A    between atoms: O_3  and  S_1 
REMARK    2  A    between atoms: C_6  and  S_1 
REMARK    3  A    between atoms: C_2  and  O_3 
REMARK       I    between atoms: C_9  and  N_10 
REMARK    4  A    between atoms: N_10  and  C_19 
ROOT
ATOM      1  S   UNL d   1       0.860   0.099   0.069  0.00  0.00     0.303 S 
ATOM      2  O   UNL d   1       0.571  -0.979  -0.854  0.00  0.00    -0.193 OA
ATOM      3  O   UNL d   1       0.189   1.383  -0.011  0.00  0.00    -0.193 OA
ENDROOT
BRANCH   1   4
ATOM      4  O   UNL d   1       2.464   0.340   0.117  0.00  0.00    -0.226 OA
BRANCH   4   5
ATOM      5  C   UNL d   1       3.217   1.008  -0.822  0.00  0.00     0.133 A 
ATOM      6  C   UNL d   1       2.866   1.390  -2.126  0.00  0.00     0.071 A 
ATOM      7  C   UNL d   1       3.802   2.041  -2.952  0.00  0.00     0.033 A 
ATOM      8 CL   UNL d   1       1.348   1.111  -2.901  0.00  0.00    -0.081 Cl
ATOM      9  C   UNL d   1       5.099   2.323  -2.514  0.00  0.00    -0.059 A 
ATOM     10  C   UNL d   1       5.460   1.942  -1.226  0.00  0.00     0.033 A 
ATOM     11  C   UNL d   1       6.062   3.004  -3.440  0.00  0.00     0.048 C 
ATOM     12  C   UNL d   1       4.532   1.298  -0.396  0.00  0.00     0.071 A 
ATOM     13 CL   UNL d   1       5.071   0.863   1.196  0.00  0.00    -0.081 Cl
ENDBRANCH   4   5
ENDBRANCH   1   4
BRANCH   1  14
ATOM     14  C   UNL d   1       0.486  -0.553   1.692  0.00  0.00     0.086 A 
ATOM     15  C   UNL d   1      -0.037   0.282   2.682  0.00  0.00     0.028 A 
ATOM     16  C   UNL d   1      -0.416  -0.265   3.913  0.00  0.00     0.031 A 
ATOM     17  C   UNL d   1      -0.281  -1.639   4.163  0.00  0.00     0.034 A 
ATOM     18  C   UNL d   1       0.231  -2.461   3.156  0.00  0.00     0.031 A 
ATOM     19  C   UNL d   1       0.612  -1.924   1.921  0.00  0.00     0.028 A 
BRANCH  17  20
ATOM     20  N   UNL d   1      -0.674  -2.107   5.436  0.00  0.00    -0.328 N 
ATOM     21  C   UNL d   1      -0.599  -3.403   5.912  0.00  0.00     0.218 C 
ATOM     22  O   UNL d   1      -0.210  -4.391   5.296  0.00  0.00    -0.274 OA
ATOM     23  C   UNL d   1      -1.042  -3.536   7.348  0.00  0.00     0.117 C 
ATOM     24  H   UNL d   1      -1.034  -1.406   6.071  0.00  0.00     0.169 HD
ENDBRANCH  17  20
ENDBRANCH   1  14
TORSDOF 4
