REMARK  3 active torsions:
REMARK  status: ('A' for Active; 'I' for Inactive)
REMARK    1  A    between atoms: N_11  and  C_9 
REMARK    2  A    between atoms: N_12  and  N_11 
REMARK    3  A    between atoms: C_14  and  C_15 
ROOT
ATOM      1  C   UNL d   1      -1.969  -2.347  -0.036  0.00  0.00     0.160 A 
ATOM      2  C   UNL d   1      -1.341  -1.139  -0.070  0.00  0.00     0.164 A 
ATOM      3  N   UNL d   1      -3.321  -2.216   0.004  0.00  0.00    -0.172 N 
ATOM      4  HN  UNL d   1      -4.011  -2.964   0.062  1.00  0.00     0.186 HD
ATOM      5  N   UNL d   1      -1.263  -3.530  -0.038  0.00  0.00    -0.287 N 
ATOM      6  N   UNL d   1       0.748  -2.238  -0.052  0.00  0.00    -0.269 N 
ATOM      7  C   UNL d   1       0.133  -3.500  -0.043  0.00  0.00     0.332 A 
ATOM      8  C   UNL d   1       0.077  -1.009  -0.070  0.00  0.00     0.282 A 
ATOM      9  C   UNL d   1      -3.553  -0.914  -0.049  0.00  0.00     0.701 A 
ATOM     10  N   UNL d   1      -2.355  -0.217  -0.098  0.00  0.00    -0.177 N 
ATOM     11  O   UNL d   1       0.793  -4.544  -0.041  0.00  0.00    -0.246 OA
ATOM     12  O   UNL d   1       0.660   0.071  -0.081  0.00  0.00    -0.265 OA
ATOM     13  C   UNL d   1      -1.926  -4.817  -0.042  0.00  0.00     0.163 C 
ATOM     14  C   UNL d   1       2.195  -2.174  -0.049  0.00  0.00     0.164 C 
ATOM     15  C   UNL d   1      -2.221   1.220  -0.096  0.00  0.00     0.176 C 
ENDROOT
BRANCH   9  16
ATOM     16  N   UNL d   1      -4.753  -0.269  -0.045  0.00  0.00    -0.132 N 
ATOM     17  H   UNL d   1      -4.812   0.641  -0.491  0.00  0.00     0.205 HD
BRANCH  16  18
ATOM     18  N   UNL d   1      -5.880  -0.838   0.477  0.00  0.00    -0.290 N 
ATOM     19  C   UNL d   1      -7.018  -0.206   0.423  0.00  0.00     0.039 C 
ATOM     20  C   UNL d   1      -7.180   1.164  -0.207  0.00  0.00     0.071 C 
ATOM     21  HN  UNL d   1      -5.830  -1.760   0.910  1.00  0.00     0.187 HD
BRANCH  19  22
ATOM     22  C   UNL d   1      -8.173  -0.851   1.043  0.00  0.00     0.028 A 
ATOM     23  S   UNL d   1      -9.768  -0.596   0.468  0.00  0.00    -0.100 SA
ATOM     24  C   UNL d   1     -10.441  -1.639   1.643  0.00  0.00     0.050 A 
ATOM     25  C   UNL d   1      -9.476  -2.183   2.460  0.00  0.00     0.008 A 
ATOM     26  C   UNL d   1      -8.168  -1.741   2.103  0.00  0.00     0.021 A 
ENDBRANCH  19  22
ENDBRANCH  16  18
ENDBRANCH   9  16
TORSDOF 3
