REMARK  6 active torsions:
REMARK  status: ('A' for Active; 'I' for Inactive)
REMARK    1  A    between atoms: C_5  and  N_1 
REMARK    2  A    between atoms: C_2  and  N_9 
REMARK    3  A    between atoms: N_4  and  C_2 
REMARK    4  A    between atoms: C_3  and  C_7 
REMARK       I    between atoms: N_6  and  C_3 
REMARK    5  A    between atoms: C_10  and  N_4 
REMARK    6  A    between atoms: N_9  and  N_6 
ROOT
ATOM      1  C   UNL d   1       0.098   3.535  -3.291  0.00  0.00     0.270 C 
ATOM      2  N   UNL d   1      -0.466   4.632  -3.912  0.00  0.00    -0.264 N 
ATOM      3  O   UNL d   1      -0.561   2.690  -2.686  0.00  0.00    -0.266 OA
ATOM      4  H   UNL d   1       0.039   5.173  -4.609  0.00  0.00     0.190 HD
ENDROOT
BRANCH   2   5
ATOM      5  N   UNL d   1      -1.867   4.699  -3.993  0.00  0.00    -0.273 N 
ATOM      6  H   UNL d   1      -2.369   4.021  -3.420  0.00  0.00     0.189 HD
BRANCH   5   7
ATOM      7  C   UNL d   1      -2.501   5.757  -4.595  0.00  0.00     0.191 C 
ATOM      8  S   UNL d   1      -1.709   7.123  -5.168  0.00  0.00    -0.039 SA
BRANCH   7   9
ATOM      9  N   UNL d   1      -3.826   5.614  -4.920  0.00  0.00    -0.331 N 
ATOM     10  H   UNL d   1      -4.088   6.196  -5.707  0.00  0.00     0.168 HD
BRANCH   9  11
ATOM     11  C   UNL d   1      -4.720   4.575  -4.578  0.00  0.00     0.056 A 
ATOM     12  C   UNL d   1      -4.909   4.085  -3.275  0.00  0.00     0.060 A 
ATOM     13 CL   UNL d   1      -4.194   4.835  -1.889  0.00  0.00    -0.082 Cl
ATOM     14  C   UNL d   1      -5.792   3.026  -3.042  0.00  0.00     0.026 A 
ATOM     15  C   UNL d   1      -6.510   2.464  -4.095  0.00  0.00     0.002 A 
ATOM     16  C   UNL d   1      -6.378   2.986  -5.379  0.00  0.00     0.002 A 
ATOM     17  C   UNL d   1      -5.503   4.050  -5.616  0.00  0.00     0.031 A 
ENDBRANCH   9  11
ENDBRANCH   7   9
ENDBRANCH   5   7
ENDBRANCH   2   5
BRANCH   1  18
ATOM     18  C   UNL d   1       1.576   3.383  -3.420  0.00  0.00     0.036 A 
ATOM     19  C   UNL d   1       2.122   2.093  -3.357  0.00  0.00     0.053 A 
ATOM     20  C   UNL d   1       3.510   1.923  -3.458  0.00  0.00     0.103 A 
ATOM     21  C   UNL d   1       4.357   3.031  -3.598  0.00  0.00     0.036 A 
ATOM     22  C   UNL d   1       3.809   4.313  -3.654  0.00  0.00     0.003 A 
ATOM     23  C   UNL d   1       2.422   4.490  -3.569  0.00  0.00     0.017 A 
BRANCH  20  24
ATOM     24  N   UNL d   1       4.087   0.573  -3.427  0.00  0.00    -0.116 N 
ATOM     25  O   UNL d   1       3.304  -0.388  -3.389  0.00  0.00    -0.532 OA
ATOM     26  O   UNL d   1       5.322   0.473  -3.451  0.00  0.00    -0.532 OA
ENDBRANCH  20  24
ENDBRANCH   1  18
TORSDOF 6
