REMARK  4 active torsions:
REMARK  status: ('A' for Active; 'I' for Inactive)
REMARK    1  A    between atoms: C_2  and  N_1 
REMARK    2  A    between atoms: N_5  and  N_9 
REMARK    3  A    between atoms: N_9  and  C_10 
REMARK    4  A    between atoms: C_14  and  C_11 
ROOT
ATOM      1  C   UNL d   1       0.170  -0.266   1.267  0.00  0.00     0.103 A 
ATOM      2  C   UNL d   1       0.639   0.232   2.488  0.00  0.00     0.038 A 
ATOM      3  C   UNL d   1      -1.033  -0.978   1.207  0.00  0.00     0.038 A 
ATOM      4  C   UNL d   1      -1.315  -0.705   3.615  0.00  0.00     0.048 A 
ATOM      5  C   UNL d   1      -0.108   0.011   3.650  0.00  0.00     0.033 A 
ATOM      6  C   UNL d   1      -1.775  -1.180   2.377  0.00  0.00     0.033 A 
ENDROOT
BRANCH   4   7
ATOM      7  N   UNL d   1      -2.108  -0.878   4.770  0.00  0.00    -0.302 N 
ATOM      8  H   UNL d   1      -2.881  -1.530   4.634  0.00  0.00     0.187 HD
BRANCH   7   9
ATOM      9  N   UNL d   1      -1.455  -0.908   5.966  0.00  0.00    -0.315 N 
ATOM     10  C   UNL d   1      -2.215  -1.131   6.988  0.00  0.00     0.079 C 
ATOM     11  HN  UNL d   1      -0.448  -0.767   6.048  1.00  0.00     0.185 HD
BRANCH  10  12
ATOM     12  C   UNL d   1      -1.627  -1.216   8.370  0.00  0.00     0.041 C 
ATOM     13  C   UNL d   1      -1.984  -2.545   9.010  0.00  0.00     0.010 C 
ENDBRANCH  10  12
ENDBRANCH   7   9
ENDBRANCH   4   7
BRANCH   1  14
ATOM     14  N   UNL d   1       0.940  -0.028   0.040  0.00  0.00    -0.116 N 
ATOM     15  O   UNL d   1       1.980   0.638   0.129  0.00  0.00    -0.532 OA
ATOM     16  O   UNL d   1       0.499  -0.506  -1.017  0.00  0.00    -0.532 OA
ENDBRANCH   1  14
TORSDOF 4
