REMARK  4 active torsions:
REMARK  status: ('A' for Active; 'I' for Inactive)
REMARK    1  A    between atoms: C_6  and  C_1 
REMARK       I    between atoms: C_2  and  N_7 
REMARK    2  A    between atoms: O_5  and  C_2 
REMARK    3  A    between atoms: C_4  and  O_5 
REMARK    4  A    between atoms: N_7  and  C_12 
ROOT
ATOM      1  C   UNL d   1      -1.389  -2.454  -3.637  0.00  0.00     0.365 C 
ATOM      2  N   UNL d   1      -1.965  -2.809  -4.831  0.00  0.00    -0.303 N 
ATOM      3  O   UNL d   1      -0.478  -3.136  -3.173  0.00  0.00    -0.238 OA
ATOM      4  H   UNL d   1      -1.590  -3.687  -5.169  0.00  0.00     0.171 HD
ENDROOT
BRANCH   2   5
ATOM      5  C   UNL d   1      -3.051  -2.274  -5.549  0.00  0.00     0.037 C 
ATOM      6  C   UNL d   1      -3.687  -1.082  -5.218  0.00  0.00     0.045 C 
ATOM      7  C   UNL d   1      -4.901  -0.718  -5.824  0.00  0.00     0.050 C 
ATOM      8  C   UNL d   1      -5.411  -1.502  -6.867  0.00  0.00     0.016 C 
ATOM      9  C   UNL d   1      -4.726  -2.644  -7.279  0.00  0.00     0.003 C 
ATOM     10  C   UNL d   1      -3.558  -3.031  -6.615  0.00  0.00     0.029 C 
BRANCH   7  11
ATOM     11  C   UNL d   1      -5.692   0.443  -5.279  0.00  0.00     0.417 C 
ATOM     12  F   UNL d   1      -5.075   1.091  -4.251  0.00  0.00    -0.166 F 
ATOM     13  F   UNL d   1      -6.900   0.045  -4.790  0.00  0.00    -0.166 F 
ATOM     14  F   UNL d   1      -5.960   1.394  -6.215  0.00  0.00    -0.166 F 
ENDBRANCH   7  11
ENDBRANCH   2   5
BRANCH   1  15
ATOM     15  O   UNL d   1      -1.899  -1.360  -3.018  0.00  0.00    -0.296 OA
BRANCH  15  16
ATOM     16  C   UNL d   1      -1.278  -0.985  -1.764  0.00  0.00     0.166 C 
ATOM     17  C   UNL d   1      -1.611  -1.990  -0.631  0.00  0.00     0.305 C 
ATOM     18  N   UNL d   1      -2.165  -1.321   0.576  0.00  0.00     0.090 N 
ATOM     19  C   UNL d   1      -3.455  -0.692   0.212  0.00  0.00     0.273 C 
ATOM     20  C   UNL d   1      -1.224  -0.265   1.009  0.00  0.00     0.273 C 
ATOM     21  C   UNL d   1      -3.306   0.267  -0.981  0.00  0.00     0.037 C 
ATOM     22  C   UNL d   1      -1.813   0.405  -1.339  0.00  0.00     0.020 C 
ATOM     23  C   UNL d   1      -1.087   0.838  -0.054  0.00  0.00     0.037 C 
ENDBRANCH  15  16
ENDBRANCH   1  15
TORSDOF 4
