REMARK  2 active torsions:
REMARK  status: ('A' for Active; 'I' for Inactive)
REMARK    1  A    between atoms: C_5  and  N_1 
REMARK    2  A    between atoms: C_14  and  C_13 
ROOT
ATOM      1  C   UNL d   1       0.206  -2.428  -0.035  0.00  0.00     0.044 A 
ATOM      2  C   UNL d   1       0.862  -3.214   0.919  0.00  0.00     0.031 A 
ATOM      3  C   UNL d   1      -0.573  -3.059  -1.012  0.00  0.00     0.031 A 
ATOM      4  C   UNL d   1       0.693  -4.601   0.932  0.00  0.00     0.009 A 
ATOM      5  C   UNL d   1      -0.720  -4.450  -1.014  0.00  0.00     0.009 A 
ATOM      6  C   UNL d   1      -0.108  -5.230  -0.027  0.00  0.00    -0.058 A 
ENDROOT
BRANCH   1   7
ATOM      7  N   UNL d   1       0.347  -1.009  -0.024  0.00  0.00    -0.266 N 
ATOM      8  C   UNL d   1      -0.724  -0.132  -0.005  0.00  0.00     0.148 A 
ATOM      9  S   UNL d   1      -0.154   1.529  -0.082  0.00  0.00    -0.090 SA
ATOM     10  S   UNL d   1      -2.360  -0.448   0.170  0.00  0.00    -0.052 SA
ATOM     11  C   UNL d   1       1.576   1.056  -0.060  0.00  0.00     0.185 A 
ATOM     12  C   UNL d   1       1.620  -0.446   0.000  0.00  0.00     0.239 A 
ATOM     13  O   UNL d   1       2.689  -1.049   0.031  0.00  0.00    -0.272 OA
ENDBRANCH   1   7
BRANCH   6  14
ATOM     14  C   UNL d   1      -0.296  -6.726  -0.011  0.00  0.00     0.034 C 
ATOM     15  C   UNL d   1       0.806  -7.453  -0.764  0.00  0.00     0.010 C 
ENDBRANCH   6  14
TORSDOF 2
