REMARK  3 active torsions:
REMARK  status: ('A' for Active; 'I' for Inactive)
REMARK    1  A    between atoms: C_2  and  C_1 
REMARK       I    between atoms: N_5  and  C_2 
REMARK    2  A    between atoms: C_4  and  C_3 
REMARK    3  A    between atoms: C_6  and  N_5 
ROOT
ATOM      1  C   UNL d   1       4.621   1.031   0.528  0.00  0.00     0.062 A 
ATOM      2  C   UNL d   1       5.859   1.105   1.192  0.00  0.00     0.068 A 
ATOM      3  C   UNL d   1       4.091   2.237   0.054  0.00  0.00     0.107 A 
ATOM      4  N   UNL d   1       4.720   3.439   0.097  0.00  0.00    -0.356 N 
ATOM      5  HN  UNL d   1       4.284   4.286  -0.267  1.00  0.00     0.166 HD
ATOM      6  C   UNL d   1       5.943   3.452   0.642  0.00  0.00     0.104 A 
ATOM      7  C   UNL d   1       6.541   2.342   1.204  0.00  0.00     0.059 A 
ATOM      8 CL   UNL d   1       6.746   4.963   0.601  0.00  0.00    -0.065 Cl
ENDROOT
BRANCH   1   9
ATOM      9  C   UNL d   1       3.796  -0.176   0.211  0.00  0.00     0.258 C 
ATOM     10  N   UNL d   1       4.460  -1.381   0.031  0.00  0.00    -0.322 N 
ATOM     11  H   UNL d   1       5.314  -1.503   0.556  0.00  0.00     0.169 HD
ATOM     12  O   UNL d   1       2.581  -0.020   0.090  0.00  0.00    -0.267 OA
BRANCH  10  13
ATOM     13  C   UNL d   1       3.750  -2.590  -0.148  0.00  0.00     0.041 A 
ATOM     14  C   UNL d   1       2.886  -2.826  -1.236  0.00  0.00    -0.029 A 
ATOM     15  C   UNL d   1       2.129  -4.021  -1.248  0.00  0.00    -0.054 A 
ATOM     16  C   UNL d   1       2.828  -1.883  -2.411  0.00  0.00     0.051 C 
ATOM     17  C   UNL d   1       1.111  -4.345  -2.309  0.00  0.00     0.049 C 
ATOM     18  C   UNL d   1       2.317  -4.974  -0.229  0.00  0.00     0.007 A 
ATOM     19  C   UNL d   1       3.243  -4.764   0.786  0.00  0.00     0.003 A 
ATOM     20  C   UNL d   1       3.964  -3.576   0.821  0.00  0.00     0.030 A 
ENDBRANCH  10  13
ENDBRANCH   1   9
BRANCH   2  21
ATOM     21  C   UNL d   1       6.525  -0.006   1.948  0.00  0.00     0.418 C 
ATOM     22  F   UNL d   1       5.772  -1.124   2.107  0.00  0.00    -0.166 F 
ATOM     23  F   UNL d   1       7.666  -0.421   1.335  0.00  0.00    -0.166 F 
ATOM     24  F   UNL d   1       6.887   0.366   3.205  0.00  0.00    -0.166 F 
ENDBRANCH   2  21
TORSDOF 3
