REMARK  5 active torsions:
REMARK  status: ('A' for Active; 'I' for Inactive)
REMARK    1  A    between atoms: C_3  and  S_1 
REMARK    2  A    between atoms: N_6  and  S_1 
REMARK    3  A    between atoms: S_4  and  C_2 
REMARK    4  A    between atoms: C_17  and  S_4 
REMARK       I    between atoms: C_9  and  N_8 
REMARK    5  A    between atoms: C_20  and  C_9 
ROOT
ATOM      1  S   UNL d   1       1.319  -0.015   0.096  0.00  0.00     0.250 S 
ATOM      2  O   UNL d   1       1.111   0.948   1.151  0.00  0.00    -0.205 OA
ATOM      3  O   UNL d   1       0.950  -1.408   0.243  0.00  0.00    -0.205 OA
ENDROOT
BRANCH   1   4
ATOM      4  C   UNL d   1       3.083  -0.044  -0.175  0.00  0.00     0.116 A 
ATOM      5  C   UNL d   1       3.899   0.359  -1.218  0.00  0.00     0.056 A 
ATOM      6  C   UNL d   1       5.281   0.084  -0.962  0.00  0.00     0.072 A 
ATOM      7  C   UNL d   1       5.467  -0.553   0.245  0.00  0.00     0.074 A 
ATOM      8  S   UNL d   1       4.000  -0.733   1.103  0.00  0.00    -0.087 SA
BRANCH   6   9
ATOM      9  S   UNL d   1       6.580   0.471  -2.048  0.00  0.00     0.207 S 
ATOM     10  O   UNL d   1       7.564  -0.573  -1.836  0.00  0.00    -0.217 OA
ATOM     11  O   UNL d   1       5.936   0.684  -3.327  0.00  0.00    -0.217 OA
BRANCH   9  12
ATOM     12  C   UNL d   1       7.235   2.011  -1.467  0.00  0.00     0.064 A 
ATOM     13  C   UNL d   1       8.270   2.018  -0.526  0.00  0.00     0.024 A 
ATOM     14  C   UNL d   1       8.809   3.235  -0.104  0.00  0.00     0.002 A 
ATOM     15  C   UNL d   1       8.326   4.434  -0.630  0.00  0.00     0.000 A 
ATOM     16  C   UNL d   1       7.308   4.422  -1.585  0.00  0.00     0.002 A 
ATOM     17  C   UNL d   1       6.762   3.210  -2.010  0.00  0.00     0.024 A 
ENDBRANCH   9  12
ENDBRANCH   6   9
ENDBRANCH   1   4
BRANCH   1  18
ATOM     18  N   UNL d   1       0.567   0.570  -1.317  0.00  0.00    -0.203 NA
ATOM     19  C   UNL d   1       0.671   2.038  -1.582  0.00  0.00     0.127 C 
ATOM     20  C   UNL d   1      -0.382   2.867  -0.828  0.00  0.00     0.141 C 
ATOM     21  N   UNL d   1      -1.740   2.319  -0.916  0.00  0.00    -0.348 N 
ATOM     22  C   UNL d   1      -1.846   0.876  -0.670  0.00  0.00     0.141 C 
ATOM     23  C   UNL d   1      -2.805   3.216  -0.832  0.00  0.00     0.248 C 
ATOM     24  C   UNL d   1      -0.838   0.096  -1.528  0.00  0.00     0.127 C 
ATOM     25  O   UNL d   1      -2.629   4.423  -1.019  0.00  0.00    -0.270 OA
BRANCH  23  26
ATOM     26  C   UNL d   1      -4.220   2.652  -0.551  0.00  0.00     0.213 C 
ATOM     27  O   UNL d   1      -4.295   1.973   0.713  0.00  0.00    -0.376 OA
ATOM     28  C   UNL d   1      -5.439   2.444   1.436  0.00  0.00     0.168 C 
ATOM     29  C   UNL d   1      -6.301   3.208   0.459  0.00  0.00     0.029 C 
ATOM     30  C   UNL d   1      -5.293   3.736  -0.527  0.00  0.00     0.043 C 
ENDBRANCH  23  26
ENDBRANCH   1  18
TORSDOF 5
