REMARK  4 active torsions:
REMARK  status: ('A' for Active; 'I' for Inactive)
REMARK       I    between atoms: C_7  and  N_2 
REMARK    1  A    between atoms: S_11  and  C_6 
REMARK    2  A    between atoms: C_10  and  C_7 
REMARK    3  A    between atoms: C_20  and  S_11 
REMARK    4  A    between atoms: C_21  and  C_20 
ROOT
ATOM      1  C   UNL d   1       0.307   0.634   0.027  0.00  0.00     0.706 A 
ATOM      2  N   UNL d   1      -0.676   1.609  -0.075  0.00  0.00    -0.143 N 
ATOM      3  N   UNL d   1      -0.031  -0.700   0.058  0.00  0.00    -0.159 N 
ATOM      4  N   UNL d   1       1.613   0.728   0.154  0.00  0.00    -0.129 N 
ATOM      5  HN  UNL d   1       2.148   1.596   0.180  1.00  0.00     0.205 HD
ATOM      6  C   UNL d   1       1.135  -1.387   0.202  0.00  0.00     0.177 A 
ATOM      7  C   UNL d   1      -0.387   2.991  -0.059  0.00  0.00     0.295 C 
ATOM      8  N   UNL d   1       2.136  -0.542   0.246  0.00  0.00    -0.265 N 
ATOM      9  HN  UNL d   1       3.123  -0.782   0.333  1.00  0.00     0.189 HD
ATOM     10  O   UNL d   1      -1.298   3.771   0.246  0.00  0.00    -0.264 OA
ATOM     11  C   UNL d   1      -2.072   1.216   0.139  0.00  0.00     0.153 C 
ATOM     12  C   UNL d   1      -1.388  -1.196   0.032  0.00  0.00     0.151 C 
ATOM     13  C   UNL d   1      -2.369  -0.147  -0.475  0.00  0.00     0.042 C 
ENDROOT
BRANCH   6  14
ATOM     14  S   UNL d   1       1.232  -3.105   0.333  0.00  0.00    -0.087 SA
BRANCH  14  15
ATOM     15  C   UNL d   1       2.894  -3.263   1.053  0.00  0.00     0.121 C 
BRANCH  15  16
ATOM     16  C   UNL d   1       3.279  -4.704   1.272  0.00  0.00    -0.049 A 
ATOM     17  C   UNL d   1       4.062  -5.382   0.325  0.00  0.00     0.008 A 
ATOM     18  C   UNL d   1       4.437  -6.709   0.535  0.00  0.00     0.001 A 
ATOM     19  C   UNL d   1       4.028  -7.376   1.688  0.00  0.00     0.000 A 
ATOM     20  C   UNL d   1       3.238  -6.719   2.630  0.00  0.00     0.001 A 
ATOM     21  C   UNL d   1       2.863  -5.390   2.423  0.00  0.00     0.008 A 
ENDBRANCH  15  16
ENDBRANCH  14  15
ENDBRANCH   6  14
BRANCH   7  22
ATOM     22  C   UNL d   1       0.917   3.512  -0.448  0.00  0.00     0.143 A 
ATOM     23  O   UNL d   1       1.277   4.729   0.084  0.00  0.00    -0.317 OA
ATOM     24  C   UNL d   1       2.499   5.052  -0.402  0.00  0.00     0.143 A 
ATOM     25  C   UNL d   1       2.942   4.083  -1.266  0.00  0.00     0.027 A 
ATOM     26  C   UNL d   1       1.912   3.111  -1.325  0.00  0.00     0.045 A 
ENDBRANCH   7  22
TORSDOF 4
