REMARK  3 active torsions:
REMARK  status: ('A' for Active; 'I' for Inactive)
REMARK    1  A    between atoms: N_2  and  C_1 
REMARK    2  A    between atoms: N_5  and  C_1 
REMARK    3  A    between atoms: C_3  and  N_2 
ROOT
ATOM      1  C   UNL d   1       0.893  -1.963  -1.604  0.00  0.00     0.045 A 
ATOM      2  C   UNL d   1       0.485  -2.179  -2.953  0.00  0.00     0.001 A 
ATOM      3  C   UNL d   1       1.135  -3.196  -3.704  0.00  0.00    -0.024 A 
ATOM      4  C   UNL d   1       1.898  -2.762  -1.042  0.00  0.00     0.030 A 
ATOM      5  C   UNL d   1       2.511  -3.767  -1.787  0.00  0.00     0.003 A 
ATOM      6  C   UNL d   1      -0.560  -1.473  -3.599  0.00  0.00     0.014 A 
ATOM      7  C   UNL d   1       2.140  -3.972  -3.111  0.00  0.00     0.012 A 
ATOM      8  C   UNL d   1       0.770  -3.435  -5.038  0.00  0.00     0.012 A 
ATOM      9  C   UNL d   1      -0.924  -1.735  -4.923  0.00  0.00     0.001 A 
ATOM     10  C   UNL d   1      -0.251  -2.709  -5.647  0.00  0.00     0.001 A 
ENDROOT
BRANCH   1  11
ATOM     11  N   UNL d   1       0.370  -0.863  -0.867  0.00  0.00    -0.333 N 
ATOM     12  H   UNL d   1      -0.119  -0.168  -1.409  0.00  0.00     0.168 HD
BRANCH  11  13
ATOM     13  C   UNL d   1       0.196  -0.734   0.503  0.00  0.00     0.173 C 
ATOM     14  S   UNL d   1      -0.199  -2.044   1.491  0.00  0.00    -0.041 SA
BRANCH  13  15
ATOM     15  N   UNL d   1       0.293   0.597   0.961  0.00  0.00    -0.367 N 
ATOM     16  C   UNL d   1       0.019   0.971   2.351  0.00  0.00     0.151 C 
ATOM     17  C   UNL d   1       0.620   1.740   0.105  0.00  0.00     0.151 C 
ENDBRANCH  13  15
ENDBRANCH  11  13
ENDBRANCH   1  11
TORSDOF 3
