REMARK  3 active torsions:
REMARK  status: ('A' for Active; 'I' for Inactive)
REMARK    1  A    between atoms: C_6  and  C_1 
REMARK       I    between atoms: N_7  and  C_6 
REMARK    2  A    between atoms: N_10  and  N_7 
REMARK       I    between atoms: C_8  and  N_10 
REMARK    3  A    between atoms: C_15  and  C_8 
ROOT
ATOM      1  C   UNL d   1      -3.291  -1.748   0.010  0.00  0.00     0.277 C 
ATOM      2  N   UNL d   1      -4.569  -1.216  -0.002  0.00  0.00    -0.263 N 
ATOM      3  O   UNL d   1      -2.310  -0.998  -0.015  0.00  0.00    -0.265 OA
ATOM      4  H   UNL d   1      -5.415  -1.782   0.011  0.00  0.00     0.190 HD
ENDROOT
BRANCH   1   5
ATOM      5  C   UNL d   1      -3.170  -3.202   0.057  0.00  0.00     0.076 A 
ATOM      6  S   UNL d   1      -4.541  -4.235   0.124  0.00  0.00    -0.083 SA
ATOM      7  C   UNL d   1      -3.512  -5.646   0.166  0.00  0.00     0.023 A 
ATOM      8  C   UNL d   1      -3.723  -7.057   0.238  0.00  0.00     0.027 A 
ATOM      9  C   UNL d   1      -2.188  -5.309   0.121  0.00  0.00     0.023 A 
ATOM     10  C   UNL d   1      -2.523  -7.732   0.242  0.00  0.00     0.052 A 
ATOM     11  S   UNL d   1      -1.150  -6.710   0.160  0.00  0.00    -0.101 SA
ATOM     12  C   UNL d   1      -1.976  -3.900   0.057  0.00  0.00     0.044 A 
ENDBRANCH   1   5
BRANCH   2  13
ATOM     13  N   UNL d   1      -4.718   0.177  -0.046  0.00  0.00    -0.267 N 
ATOM     14  C   UNL d   1      -5.987   0.719  -0.066  0.00  0.00     0.239 C 
ATOM     15  O   UNL d   1      -6.996   0.017  -0.053  0.00  0.00    -0.271 OA
ATOM     16  H   UNL d   1      -3.862   0.728  -0.001  0.00  0.00     0.190 HD
BRANCH  14  17
ATOM     17  C   UNL d   1      -6.013   2.248  -0.070  0.00  0.00     0.071 C 
ATOM     18  C   UNL d   1      -5.329   2.812  -1.314  0.00  0.00     0.019 C 
ATOM     19  C   UNL d   1      -7.445   2.777   0.017  0.00  0.00     0.019 C 
ENDBRANCH  14  17
ENDBRANCH   2  13
TORSDOF 3
