REMARK  4 active torsions:
REMARK  status: ('A' for Active; 'I' for Inactive)
REMARK    1  A    between atoms: C_8  and  C_2 
REMARK       I    between atoms: C_7  and  N_9 
REMARK    2  A    between atoms: C_10  and  C_7 
REMARK    3  A    between atoms: N_9  and  C_15 
REMARK    4  A    between atoms: C_15  and  C_16 
ROOT
ATOM      1  C   UNL d   1       2.386  -1.649   0.013  0.00  0.00    -0.008 A 
ATOM      2  C   UNL d   1       2.535  -2.571  -1.032  0.00  0.00     0.014 A 
ATOM      3  C   UNL d   1       3.386  -1.584   0.993  0.00  0.00     0.014 A 
ATOM      4  C   UNL d   1       4.672  -3.314  -0.135  0.00  0.00    -0.040 A 
ATOM      5  C   UNL d   1       4.513  -2.410   0.922  0.00  0.00     0.010 A 
ATOM      6  C   UNL d   1       3.665  -3.397  -1.106  0.00  0.00     0.010 A 
ENDROOT
BRANCH   4   7
ATOM      7  C   UNL d   1       5.894  -4.193  -0.207  0.00  0.00     0.161 C 
BRANCH   7   8
ATOM      8  N   UNL d   1       5.711  -5.425   0.522  0.00  0.00    -0.353 N 
ATOM      9  C   UNL d   1       6.741  -6.324   0.635  0.00  0.00     0.240 C 
ATOM     10  O   UNL d   1       7.855  -6.155   0.159  0.00  0.00    -0.269 OA
ATOM     11  H   UNL d   1       4.801  -5.625   0.912  0.00  0.00     0.163 HD
BRANCH   9  12
ATOM     12  C   UNL d   1       6.369  -7.540   1.403  0.00  0.00     0.064 C 
ATOM     13  C   UNL d   1       7.256  -8.522   1.609  0.00  0.00     0.017 C 
ENDBRANCH   9  12
ENDBRANCH   7   8
ENDBRANCH   4   7
BRANCH   1  14
ATOM     14  C   UNL d   1       1.202  -0.799   0.072  0.00  0.00     0.063 A 
ATOM     15  N   UNL d   1      -0.010  -1.207  -0.480  0.00  0.00    -0.292 N 
ATOM     16  N   UNL d   1      -0.962  -0.305  -0.308  0.00  0.00    -0.061 NA
ATOM     17  HN  UNL d   1      -0.147  -2.096  -0.961  1.00  0.00     0.183 HD
ATOM     18  S   UNL d   1      -0.429   1.058   0.497  0.00  0.00    -0.010 SA
ATOM     19  C   UNL d   1       1.171   0.459   0.652  0.00  0.00     0.096 A 
ENDBRANCH   1  14
TORSDOF 4
