REMARK  7 active torsions:
REMARK  status: ('A' for Active; 'I' for Inactive)
REMARK    1  A    between atoms: C_8  and  N_2 
REMARK    2  A    between atoms: C_20  and  C_6 
REMARK    3  A    between atoms: C_19  and  C_7 
REMARK    4  A    between atoms: C_11  and  C_8 
REMARK    5  A    between atoms: C_9  and  C_14 
REMARK       I    between atoms: N_17  and  C_11 
REMARK       I    between atoms: C_12  and  N_16 
REMARK       I    between atoms: N_15  and  C_12 
REMARK    6  A    between atoms: C_23  and  N_15 
REMARK    7  A    between atoms: N_16  and  N_17 
ROOT
ATOM      1  C   UNL d   1      -0.662   1.257  -0.162  0.00  0.00     0.127 C 
ATOM      2  N   UNL d   1      -0.667  -1.163  -0.040  0.00  0.00    -0.247 N 
ATOM      3  N   UNL d   1       0.697  -1.189   0.096  0.00  0.00    -0.294 N 
ATOM      4  HN  UNL d   1       1.189  -2.073   0.230  1.00  0.00     0.187 HD
ATOM      5  C   UNL d   1      -1.375  -0.020  -0.352  0.00  0.00     0.284 C 
ATOM      6  C   UNL d   1       0.675   1.277  -0.005  0.00  0.00     0.029 C 
ATOM      7  C   UNL d   1       1.354  -0.065   0.052  0.00  0.00     0.071 C 
ATOM      8  C   UNL d   1      -1.457   2.433  -0.162  0.00  0.00     0.106 C 
ATOM      9  N   UNL d   1      -2.081   3.413  -0.125  0.00  0.00    -0.191 NA
ATOM     10  O   UNL d   1      -2.532  -0.050  -0.767  0.00  0.00    -0.265 OA
ENDROOT
BRANCH   6  11
ATOM     11  C   UNL d   1       1.375   2.572   0.076  0.00  0.00    -0.022 A 
ATOM     12  C   UNL d   1       1.706   3.168   1.295  0.00  0.00     0.012 A 
ATOM     13  C   UNL d   1       2.352   4.410   1.311  0.00  0.00     0.001 A 
ATOM     14  C   UNL d   1       2.677   5.049   0.114  0.00  0.00     0.000 A 
ATOM     15  C   UNL d   1       2.331   4.468  -1.105  0.00  0.00     0.001 A 
ATOM     16  C   UNL d   1       1.655   3.251  -1.121  0.00  0.00     0.012 A 
ENDBRANCH   6  11
BRANCH   2  17
ATOM     17  C   UNL d   1      -1.353  -2.452  -0.053  0.00  0.00     0.257 C 
BRANCH  17  18
ATOM     18  C   UNL d   1      -1.204  -3.202  -1.368  0.00  0.00     0.256 C 
ATOM     19  N   UNL d   1      -1.372  -2.463  -2.528  0.00  0.00    -0.265 N 
ATOM     20  H   UNL d   1      -1.907  -1.591  -2.525  0.00  0.00     0.190 HD
ATOM     21  O   UNL d   1      -1.079  -4.432  -1.409  0.00  0.00    -0.270 OA
BRANCH  19  22
ATOM     22  N   UNL d   1      -1.405  -3.210  -3.721  0.00  0.00    -0.249 N 
ATOM     23  C   UNL d   1      -2.190  -2.776  -4.774  0.00  0.00     0.339 C 
ATOM     24  N   UNL d   1      -2.336  -3.768  -5.726  0.00  0.00    -0.308 N 
ATOM     25  O   UNL d   1      -2.673  -1.650  -4.814  0.00  0.00    -0.245 OA
ATOM     26  H   UNL d   1      -2.232  -4.712  -5.385  0.00  0.00     0.170 HD
ATOM     27  H   UNL d   1      -1.187  -4.196  -3.602  0.00  0.00     0.192 HD
BRANCH  24  28
ATOM     28  C   UNL d   1      -2.930  -3.617  -6.991  0.00  0.00     0.037 A 
ATOM     29  C   UNL d   1      -3.502  -4.751  -7.579  0.00  0.00     0.045 A 
ATOM     30  C   UNL d   1      -4.122  -4.675  -8.837  0.00  0.00     0.050 A 
ATOM     31  C   UNL d   1      -4.103  -3.456  -9.529  0.00  0.00     0.016 A 
ATOM     32  C   UNL d   1      -3.505  -2.332  -8.960  0.00  0.00     0.003 A 
ATOM     33  C   UNL d   1      -2.934  -2.408  -7.687  0.00  0.00     0.029 A 
BRANCH  30  34
ATOM     34  C   UNL d   1      -4.808  -5.878  -9.434  0.00  0.00     0.417 C 
ATOM     35  F   UNL d   1      -4.857  -6.947  -8.590  0.00  0.00    -0.166 F 
ATOM     36  F   UNL d   1      -6.099  -5.624  -9.785  0.00  0.00    -0.166 F 
ATOM     37  F   UNL d   1      -4.192  -6.324 -10.563  0.00  0.00    -0.166 F 
ENDBRANCH  30  34
ENDBRANCH  24  28
ENDBRANCH  19  22
ENDBRANCH  17  18
ENDBRANCH   2  17
BRANCH   7  38
ATOM     38  C   UNL d   1       2.853  -0.151   0.079  0.00  0.00    -0.007 A 
ATOM     39  C   UNL d   1       3.659   0.636  -0.751  0.00  0.00     0.014 A 
ATOM     40  C   UNL d   1       5.052   0.548  -0.699  0.00  0.00     0.001 A 
ATOM     41  C   UNL d   1       5.657  -0.387   0.132  0.00  0.00     0.000 A 
ATOM     42  C   UNL d   1       4.869  -1.236   0.906  0.00  0.00     0.001 A 
ATOM     43  C   UNL d   1       3.474  -1.119   0.883  0.00  0.00     0.014 A 
ENDBRANCH   7  38
TORSDOF 7
