REMARK  5 active torsions:
REMARK  status: ('A' for Active; 'I' for Inactive)
REMARK    1  A    between atoms: C_10  and  C_4 
REMARK    2  A    between atoms: C_11  and  C_6 
REMARK       I    between atoms: N_12  and  C_10 
REMARK       I    between atoms: C_14  and  N_12 
REMARK       I    between atoms: N_16  and  C_14 
REMARK    3  A    between atoms: C_15  and  O_17 
REMARK    4  A    between atoms: C_27  and  N_16 
REMARK    5  A    between atoms: O_17  and  C_28 
ROOT
ATOM      1  C   UNL d   1      -2.992   0.078   0.440  0.00  0.00     0.257 C 
ATOM      2  N   UNL d   1      -4.034   0.860   0.014  0.00  0.00    -0.174 NA
ATOM      3  C   UNL d   1      -4.097   2.165   0.425  0.00  0.00     0.305 C 
ATOM      4  N   UNL d   1      -3.396   3.040  -0.365  0.00  0.00    -0.313 N 
ATOM      5  O   UNL d   1      -4.891   2.450   1.317  0.00  0.00    -0.253 OA
ATOM      6  O   UNL d   1      -3.176  -0.779   1.301  0.00  0.00    -0.272 OA
ATOM      7  H   UNL d   1      -4.830   0.446   0.487  0.00  0.00     0.141 HD
ATOM      8  H   UNL d   1      -2.820   2.611  -1.087  0.00  0.00     0.170 HD
ENDROOT
BRANCH   1   9
ATOM      9  C   UNL d   1      -1.733   0.185  -0.297  0.00  0.00     0.113 A 
ATOM     10  C   UNL d   1      -0.774  -0.810  -0.335  0.00  0.00     0.132 A 
ATOM     11  N   UNL d   1       0.189  -0.379  -1.196  0.00  0.00    -0.314 N 
ATOM     12  C   UNL d   1      -0.161   0.912  -1.584  0.00  0.00     0.134 A 
ATOM     13  C   UNL d   1       1.305  -1.062  -1.671  0.00  0.00     0.114 A 
ATOM     14  N   UNL d   1      -1.346   1.246  -1.099  0.00  0.00    -0.335 N 
ATOM     15  C   UNL d   1       0.776   1.589  -2.421  0.00  0.00     0.079 A 
ATOM     16  HN  UNL d   1      -1.866   2.105  -1.279  1.00  0.00     0.168 HD
ATOM     17 CL   UNL d   1       0.492   3.242  -2.813  0.00  0.00    -0.080 Cl
ATOM     18  C   UNL d   1       1.873   0.947  -2.873  0.00  0.00     0.045 A 
ATOM     19  C   UNL d   1       2.149  -0.456  -2.533  0.00  0.00     0.065 A 
BRANCH  19  20
ATOM     20  C   UNL d   1       3.321  -1.165  -3.150  0.00  0.00     0.418 C 
ATOM     21  F   UNL d   1       3.991  -0.400  -4.046  0.00  0.00    -0.166 F 
ATOM     22  F   UNL d   1       4.218  -1.555  -2.210  0.00  0.00    -0.166 F 
ATOM     23  F   UNL d   1       2.926  -2.286  -3.806  0.00  0.00    -0.166 F 
ENDBRANCH  19  20
ENDBRANCH   1   9
BRANCH   4  24
ATOM     24  C   UNL d   1      -3.623   4.429  -0.441  0.00  0.00     0.036 A 
ATOM     25  C   UNL d   1      -4.240   5.167   0.575  0.00  0.00     0.032 A 
ATOM     26  C   UNL d   1      -4.578   6.511   0.380  0.00  0.00     0.039 A 
ATOM     27  C   UNL d   1      -4.285   7.129  -0.834  0.00  0.00     0.078 A 
ATOM     28  C   UNL d   1      -3.648   6.408  -1.842  0.00  0.00     0.039 A 
ATOM     29  C   UNL d   1      -3.288   5.073  -1.636  0.00  0.00     0.032 A 
BRANCH  27  30
ATOM     30  O   UNL d   1      -4.711   8.382  -1.154  0.00  0.00    -0.255 OA
BRANCH  30  31
ATOM     31  C   UNL d   1      -4.293   9.426  -0.285  0.00  0.00     0.530 C 
ATOM     32  F   UNL d   1      -3.563   9.008   0.770  0.00  0.00    -0.144 F 
ATOM     33  F   UNL d   1      -3.548  10.303  -0.995  0.00  0.00    -0.144 F 
ATOM     34  F   UNL d   1      -5.382  10.079   0.177  0.00  0.00    -0.144 F 
ENDBRANCH  30  31
ENDBRANCH  27  30
ENDBRANCH   4  24
TORSDOF 5
