REMARK  4 active torsions:
REMARK  status: ('A' for Active; 'I' for Inactive)
REMARK    1  A    between atoms: C_2  and  S_1 
REMARK    2  A    between atoms: N_3  and  S_1 
REMARK    3  A    between atoms: C_8  and  C_13 
REMARK    4  A    between atoms: O_20  and  C_15 
ROOT
ATOM      1  N   UNL d   1       0.290   0.909  -1.450  0.00  0.00    -0.307 N 
ATOM      2  C   UNL d   1       0.910   0.437  -2.707  0.00  0.00     0.136 C 
ATOM      3  C   UNL d   1       0.276   2.355  -1.136  0.00  0.00     0.136 C 
ATOM      4  C   UNL d   1       1.239   2.811  -3.511  0.00  0.00     0.024 C 
ATOM      5  C   UNL d   1       0.405   3.305  -2.323  0.00  0.00     0.030 C 
ATOM      6  C   UNL d   1       0.752   1.404  -3.863  0.00  0.00     0.030 C 
ENDROOT
BRANCH   1   7
ATOM      7  S   UNL d   1       0.492  -0.129  -0.098  0.00  0.00     0.261 S 
ATOM      8  O   UNL d   1      -0.215   0.449   1.027  0.00  0.00    -0.200 OA
ATOM      9  O   UNL d   1       0.239  -1.489  -0.524  0.00  0.00    -0.200 OA
BRANCH   7  10
ATOM     10  C   UNL d   1       2.239  -0.021   0.272  0.00  0.00     0.083 A 
ATOM     11  C   UNL d   1       2.697   0.903   1.218  0.00  0.00     0.049 A 
ATOM     12  C   UNL d   1       4.058   0.950   1.520  0.00  0.00     0.037 A 
ATOM     13 CL   UNL d   1       4.640   2.099   2.658  0.00  0.00    -0.084 Cl
ATOM     14  C   UNL d   1       4.958   0.077   0.904  0.00  0.00     0.047 A 
ATOM     15  C   UNL d   1       4.482  -0.860  -0.008  0.00  0.00     0.037 A 
ATOM     16  C   UNL d   1       3.126  -0.926  -0.320  0.00  0.00     0.049 A 
ATOM     17 CL   UNL d   1       5.581  -1.952  -0.756  0.00  0.00    -0.084 Cl
ENDBRANCH   7  10
ENDBRANCH   1   7
BRANCH   4  18
ATOM     18  C   UNL d   1       2.762   2.938  -3.408  0.00  0.00    -0.021 A 
ATOM     19  C   UNL d   1       3.553   3.022  -4.579  0.00  0.00     0.074 A 
ATOM     20  C   UNL d   1       4.950   3.134  -4.484  0.00  0.00     0.037 A 
ATOM     21  C   UNL d   1       5.571   3.217  -3.246  0.00  0.00     0.003 A 
ATOM     22  C   UNL d   1       4.810   3.172  -2.088  0.00  0.00     0.001 A 
ATOM     23  C   UNL d   1       3.424   3.025  -2.170  0.00  0.00     0.010 A 
BRANCH  19  24
ATOM     24  O   UNL d   1       2.893   2.983  -5.783  0.00  0.00    -0.355 OA
ATOM     25  C   UNL d   1       3.576   3.584  -6.883  0.00  0.00     0.210 C 
ENDBRANCH  19  24
ENDBRANCH   4  18
TORSDOF 4
