REMARK  2 active torsions:
REMARK  status: ('A' for Active; 'I' for Inactive)
REMARK    1  A    between atoms: C_7  and  C_1 
REMARK    2  A    between atoms: O_9  and  C_2 
ROOT
ATOM      1  C   UNL d   1       1.843  -0.849   0.028  0.00  0.00     0.084 A 
ATOM      2  C   UNL d   1       0.614  -1.399   0.015  0.00  0.00     0.095 A 
ATOM      3  C   UNL d   1       2.013   0.633  -0.004  0.00  0.00     0.302 A 
ATOM      4  O   UNL d   1       0.864   1.409   0.017  0.00  0.00    -0.274 OA
ATOM      5  C   UNL d   1      -0.578  -0.549  -0.023  0.00  0.00     0.032 A 
ATOM      6  C   UNL d   1      -0.415   0.832   0.003  0.00  0.00     0.092 A 
ATOM      7  O   UNL d   1       3.120   1.160  -0.028  0.00  0.00    -0.259 OA
ATOM      8  C   UNL d   1      -1.884  -1.055  -0.062  0.00  0.00     0.017 A 
ATOM      9  C   UNL d   1      -1.500   1.709   0.013  0.00  0.00     0.038 A 
ATOM     10  C   UNL d   1      -2.984  -0.189  -0.058  0.00  0.00     0.001 A 
ATOM     11  C   UNL d   1      -2.792   1.192  -0.013  0.00  0.00     0.003 A 
ENDROOT
BRANCH   1  12
ATOM     12  C   UNL d   1       3.056  -1.686   0.091  0.00  0.00    -0.017 A 
ATOM     13  C   UNL d   1       3.647  -2.175  -1.081  0.00  0.00     0.012 A 
ATOM     14  C   UNL d   1       4.822  -2.927  -1.013  0.00  0.00     0.001 A 
ATOM     15  C   UNL d   1       5.407  -3.198   0.224  0.00  0.00     0.000 A 
ATOM     16  C   UNL d   1       4.812  -2.732   1.395  0.00  0.00     0.001 A 
ATOM     17  C   UNL d   1       3.637  -1.982   1.331  0.00  0.00     0.012 A 
ENDBRANCH   1  12
BRANCH   2  18
ATOM     18  O   UNL d   1       0.363  -2.758   0.061  0.00  0.00    -0.359 OA
ATOM     19  H   UNL d   1       1.205  -3.239   0.148  0.00  0.00     0.217 HD
ENDBRANCH   2  18
TORSDOF 2
