REMARK  4 active torsions:
REMARK  status: ('A' for Active; 'I' for Inactive)
REMARK    1  A    between atoms: C_5  and  N_1 
REMARK    2  A    between atoms: C_2  and  N_3 
REMARK    3  A    between atoms: N_11  and  C_2 
REMARK    4  A    between atoms: N_3  and  C_4 
ROOT
ATOM      1  C   UNL d   1      -1.528  -2.836  -0.971  0.00  0.00     0.061 A 
ATOM      2  C   UNL d   1      -0.794  -2.357   0.140  0.00  0.00     0.065 A 
ATOM      3  C   UNL d   1      -1.813  -4.211  -1.040  0.00  0.00     0.032 A 
ATOM      4  C   UNL d   1      -0.366  -3.269   1.128  0.00  0.00     0.032 A 
ATOM      5  C   UNL d   1      -1.377  -5.100  -0.057  0.00  0.00     0.002 A 
ATOM      6  C   UNL d   1      -0.653  -4.629   1.027  0.00  0.00     0.002 A 
ENDROOT
BRANCH   1   7
ATOM      7  N   UNL d   1      -2.151  -1.962  -1.898  0.00  0.00    -0.332 N 
ATOM      8  H   UNL d   1      -2.260  -1.005  -1.591  0.00  0.00     0.168 HD
BRANCH   7   9
ATOM      9  C   UNL d   1      -2.434  -2.160  -3.228  0.00  0.00     0.171 C 
ATOM     10  S   UNL d   1      -1.750  -3.271  -4.274  0.00  0.00    -0.041 SA
BRANCH   9  11
ATOM     11  N   UNL d   1      -3.355  -1.301  -3.760  0.00  0.00    -0.371 N 
ATOM     12  C   UNL d   1      -4.186  -0.344  -3.065  0.00  0.00     0.148 C 
ATOM     13  H   UNL d   1      -3.527  -1.441  -4.750  0.00  0.00     0.161 HD
ENDBRANCH   9  11
ENDBRANCH   7   9
ENDBRANCH   1   7
BRANCH   2  14
ATOM     14  N   UNL d   1      -0.413  -0.988   0.300  0.00  0.00    -0.331 N 
ATOM     15  C   UNL d   1      -0.162  -0.352   1.505  0.00  0.00     0.097 A 
ATOM     16  C   UNL d   1       0.141   0.972   1.272  0.00  0.00     0.019 A 
ATOM     17  C   UNL d   1       0.123   1.161  -0.123  0.00  0.00     0.019 A 
ATOM     18  C   UNL d   1      -0.183  -0.053  -0.695  0.00  0.00     0.097 A 
ENDBRANCH   2  14
TORSDOF 4
