REMARK  4 active torsions:
REMARK  status: ('A' for Active; 'I' for Inactive)
REMARK       I    between atoms: N_2  and  C_1 
REMARK       I    between atoms: N_3  and  C_1 
REMARK    1  A    between atoms: C_13  and  N_2 
REMARK    2  A    between atoms: C_12  and  N_3 
REMARK       I    between atoms: C_4  and  N_5 
REMARK    3  A    between atoms: N_5  and  C_14 
REMARK    4  A    between atoms: C_6  and  C_7 
ROOT
ATOM      1  C   UNL d   1       0.929  -0.088   0.017  0.00  0.00     0.325 C 
ATOM      2  N   UNL d   1       2.289  -0.113  -0.244  0.00  0.00    -0.309 N 
ATOM      3  N   UNL d   1       0.185  -0.176  -1.150  0.00  0.00    -0.309 N 
ATOM      4  O   UNL d   1       0.436   0.016   1.131  0.00  0.00    -0.247 OA
ATOM      5  H   UNL d   1       2.562   0.032  -1.204  0.00  0.00     0.170 HD
ATOM      6  H   UNL d   1       0.617  -0.644  -1.931  0.00  0.00     0.170 HD
ENDROOT
BRANCH   2   7
ATOM      7  C   UNL d   1       3.307   0.025   0.728  0.00  0.00     0.036 A 
ATOM      8  C   UNL d   1       3.087  -0.099   2.102  0.00  0.00     0.032 A 
ATOM      9  C   UNL d   1       4.112   0.144   3.019  0.00  0.00     0.032 A 
ATOM     10  C   UNL d   1       5.388   0.501   2.581  0.00  0.00     0.034 A 
ATOM     11  C   UNL d   1       5.627   0.571   1.209  0.00  0.00     0.032 A 
ATOM     12  C   UNL d   1       4.596   0.330   0.288  0.00  0.00     0.032 A 
BRANCH  10  13
ATOM     13  N   UNL d   1       6.352   0.782   3.572  0.00  0.00    -0.328 N 
ATOM     14  C   UNL d   1       7.655   1.198   3.373  0.00  0.00     0.218 C 
ATOM     15  O   UNL d   1       8.215   1.365   2.295  0.00  0.00    -0.274 OA
ATOM     16  C   UNL d   1       8.400   1.455   4.659  0.00  0.00     0.117 C 
ATOM     17  H   UNL d   1       6.032   0.705   4.528  0.00  0.00     0.169 HD
ENDBRANCH  10  13
ENDBRANCH   2   7
BRANCH   3  18
ATOM     18  C   UNL d   1      -1.205   0.062  -1.230  0.00  0.00     0.036 A 
ATOM     19  C   UNL d   1      -1.903   0.789  -0.267  0.00  0.00     0.030 A 
ATOM     20  C   UNL d   1      -3.274   1.023  -0.397  0.00  0.00     0.010 A 
ATOM     21  C   UNL d   1      -3.997   0.550  -1.504  0.00  0.00    -0.051 A 
ATOM     22  C   UNL d   1      -3.284  -0.186  -2.465  0.00  0.00     0.010 A 
ATOM     23  C   UNL d   1      -1.905  -0.417  -2.337  0.00  0.00     0.030 A 
BRANCH  21  24
ATOM     24  C   UNL d   1      -5.494   0.877  -1.628  0.00  0.00    -0.024 C 
ATOM     25  C   UNL d   1      -6.141   0.317  -2.913  0.00  0.00     0.019 C 
ATOM     26  C   UNL d   1      -6.266   0.292  -0.426  0.00  0.00     0.019 C 
ATOM     27  C   UNL d   1      -5.685   2.410  -1.650  0.00  0.00     0.019 C 
ENDBRANCH  21  24
ENDBRANCH   3  18
TORSDOF 4
