REMARK  4 active torsions:
REMARK  status: ('A' for Active; 'I' for Inactive)
REMARK    1  A    between atoms: C_7  and  C_1 
REMARK    2  A    between atoms: C_6  and  C_2 
REMARK    3  A    between atoms: C_8  and  C_5 
REMARK    4  A    between atoms: O_15  and  C_7 
ROOT
ATOM      1  C   UNL d   1       1.179   0.699  -0.015  0.00  0.00     0.079 A 
ATOM      2  C   UNL d   1      -0.147   1.113  -0.042  0.00  0.00     0.176 A 
ATOM      3  O   UNL d   1      -0.978   0.022  -0.053  0.00  0.00    -0.304 OA
ATOM      4  C   UNL d   1       1.114  -0.735  -0.009  0.00  0.00     0.059 A 
ATOM      5  C   UNL d   1      -0.212  -1.103  -0.017  0.00  0.00     0.087 A 
ENDROOT
BRANCH   5   6
ATOM      6  C   UNL d   1      -0.917  -2.381   0.042  0.00  0.00    -0.002 A 
ATOM      7  C   UNL d   1      -0.197  -3.583   0.128  0.00  0.00     0.015 A 
ATOM      8  C   UNL d   1      -0.856  -4.811   0.250  0.00  0.00     0.020 A 
ATOM      9  C   UNL d   1      -2.247  -4.847   0.281  0.00  0.00     0.011 A 
ATOM     10  C   UNL d   1      -2.983  -3.671   0.175  0.00  0.00     0.020 A 
ATOM     11 BR   UNL d   1      -3.139  -6.501   0.483  0.00  0.00    -0.051 Br
ATOM     12  C   UNL d   1      -2.320  -2.445   0.053  0.00  0.00     0.015 A 
ENDBRANCH   5   6
BRANCH   1  13
ATOM     13  C   UNL d   1       2.437   1.439   0.018  0.00  0.00     0.179 C 
ATOM     14  O   UNL d   1       3.515   0.860   0.054  0.00  0.00    -0.646 OA
BRANCH  13  15
ATOM     15  O   UNL d   1       2.392   2.790   0.011  0.00  0.00    -0.773 OA
ATOM     16  H   UNL d   1       1.523   3.225  -0.013  0.00  0.00     0.167 HD
ENDBRANCH  13  15
ENDBRANCH   1  13
BRANCH   2  17
ATOM     17  C   UNL d   1      -0.850   2.417  -0.042  0.00  0.00     0.440 C 
ATOM     18  F   UNL d   1       0.036   3.451  -0.016  0.00  0.00    -0.164 F 
ATOM     19  F   UNL d   1      -1.615   2.597  -1.146  0.00  0.00    -0.164 F 
ATOM     20  F   UNL d   1      -1.651   2.574   1.040  0.00  0.00    -0.164 F 
ENDBRANCH   2  17
TORSDOF 4
