REMARK  3 active torsions:
REMARK  status: ('A' for Active; 'I' for Inactive)
REMARK    1  A    between atoms: C_10  and  C_2 
REMARK       I    between atoms: N_15  and  C_10 
REMARK       I    between atoms: C_11  and  N_16 
REMARK    2  A    between atoms: C_12  and  C_11 
REMARK    3  A    between atoms: N_16  and  N_15 
ROOT
ATOM      1  C   UNL d   1      -1.647  -1.710  -0.888  0.00  0.00     0.270 C 
ATOM      2  N   UNL d   1      -1.605  -3.063  -0.615  0.00  0.00    -0.263 N 
ATOM      3  O   UNL d   1      -2.713  -1.122  -1.069  0.00  0.00    -0.266 OA
ATOM      4  H   UNL d   1      -0.782  -3.606  -0.369  0.00  0.00     0.190 HD
ENDROOT
BRANCH   2   5
ATOM      5  N   UNL d   1      -2.820  -3.757  -0.587  0.00  0.00    -0.263 N 
ATOM      6  C   UNL d   1      -2.812  -5.099  -0.253  0.00  0.00     0.271 C 
ATOM      7  O   UNL d   1      -1.776  -5.687   0.040  0.00  0.00    -0.266 OA
ATOM      8  H   UNL d   1      -3.639  -3.245  -0.912  0.00  0.00     0.190 HD
BRANCH   6   9
ATOM      9  C   UNL d   1      -4.148  -5.776  -0.265  0.00  0.00     0.044 A 
ATOM     10  C   UNL d   1      -4.308  -7.123  -0.705  0.00  0.00    -0.010 A 
ATOM     11  C   UNL d   1      -5.611  -7.688  -0.657  0.00  0.00    -0.025 A 
ATOM     12  C   UNL d   1      -3.269  -7.949  -1.202  0.00  0.00     0.013 A 
ATOM     13  C   UNL d   1      -5.827  -9.013  -1.072  0.00  0.00     0.012 A 
ATOM     14  C   UNL d   1      -6.694  -6.926  -0.193  0.00  0.00     0.012 A 
ATOM     15  C   UNL d   1      -4.778  -9.800  -1.540  0.00  0.00     0.001 A 
ATOM     16  C   UNL d   1      -3.499  -9.268  -1.607  0.00  0.00     0.001 A 
ATOM     17  C   UNL d   1      -6.519  -5.616   0.237  0.00  0.00     0.002 A 
ATOM     18  C   UNL d   1      -5.252  -5.044   0.209  0.00  0.00     0.018 A 
ENDBRANCH   6   9
ENDBRANCH   2   5
BRANCH   1  19
ATOM     19  C   UNL d   1      -0.351  -0.965  -0.975  0.00  0.00     0.035 A 
ATOM     20  C   UNL d   1       0.888  -1.637  -0.998  0.00  0.00     0.049 A 
ATOM     21  C   UNL d   1       2.040  -0.822  -1.148  0.00  0.00     0.067 A 
ATOM     22  C   UNL d   1       1.930   0.674  -1.268  0.00  0.00     0.067 A 
ATOM     23  N   UNL d   1       3.306  -1.264  -1.207  0.00  0.00    -0.310 N 
ATOM     24  N   UNL d   1       3.116   1.282  -1.413  0.00  0.00    -0.310 N 
ATOM     25  C   UNL d   1       0.670   1.311  -1.230  0.00  0.00     0.033 A 
ATOM     26  S   UNL d   1       4.264   0.081  -1.402  0.00  0.00     0.068 SA
ATOM     27  HN  UNL d   1       3.281   2.284  -1.510  1.00  0.00     0.176 HD
ATOM     28  C   UNL d   1      -0.441   0.457  -1.085  0.00  0.00     0.019 A 
ATOM     29  HN  UNL d   1       3.618  -2.232  -1.145  1.00  0.00     0.176 HD
ENDBRANCH   1  19
TORSDOF 3
