REMARK  3 active torsions:
REMARK  status: ('A' for Active; 'I' for Inactive)
REMARK    1  A    between atoms: C_6  and  C_1 
REMARK    2  A    between atoms: C_8  and  N_3 
REMARK    3  A    between atoms: C_7  and  C_6 
ROOT
ATOM      1  C   UNL d   1      -0.287  -1.205   0.020  0.00  0.00     0.044 A 
ATOM      2  C   UNL d   1       1.021  -0.717   0.006  0.00  0.00     0.027 A 
ATOM      3  N   UNL d   1       0.978   0.688  -0.018  0.00  0.00    -0.319 N 
ATOM      4  C   UNL d   1      -1.132  -0.069   0.082  0.00  0.00     0.042 A 
ATOM      5  C   UNL d   1      -0.362   1.072   0.026  0.00  0.00     0.014 A 
ATOM      6  C   UNL d   1       2.299  -1.486   0.148  0.00  0.00     0.070 C 
ATOM      7  C   UNL d   1      -0.878   2.467  -0.066  0.00  0.00     0.068 C 
ENDROOT
BRANCH   1   8
ATOM      8  C   UNL d   1      -0.799  -2.585   0.055  0.00  0.00     0.267 C 
ATOM      9  O   UNL d   1      -1.865  -2.807   0.641  0.00  0.00    -0.282 OA
BRANCH   8  10
ATOM     10  C   UNL d   1      -0.064  -3.716  -0.661  0.00  0.00     0.456 C 
ATOM     11  F   UNL d   1       0.970  -3.316  -1.456  0.00  0.00    -0.163 F 
ATOM     12  F   UNL d   1       0.457  -4.624   0.210  0.00  0.00    -0.163 F 
ATOM     13  F   UNL d   1      -0.896  -4.421  -1.484  0.00  0.00    -0.163 F 
ENDBRANCH   8  10
ENDBRANCH   1   8
BRANCH   3  14
ATOM     14  C   UNL d   1       2.104   1.582  -0.056  0.00  0.00     0.039 A 
ATOM     15  C   UNL d   1       3.227   1.285  -0.840  0.00  0.00     0.030 A 
ATOM     16  C   UNL d   1       4.324   2.155  -0.864  0.00  0.00     0.002 A 
ATOM     17  C   UNL d   1       4.302   3.333  -0.122  0.00  0.00     0.000 A 
ATOM     18  C   UNL d   1       3.188   3.641   0.652  0.00  0.00     0.002 A 
ATOM     19  C   UNL d   1       2.097   2.767   0.692  0.00  0.00     0.030 A 
ENDBRANCH   3  14
TORSDOF 3
