REMARK  4 active torsions:
REMARK  status: ('A' for Active; 'I' for Inactive)
REMARK    1  A    between atoms: C_8  and  C_1 
REMARK    2  A    between atoms: C_12  and  C_7 
REMARK       I    between atoms: C_9  and  N_10 
REMARK    3  A    between atoms: C_11  and  C_9 
REMARK    4  A    between atoms: N_10  and  C_13 
ROOT
ATOM      1  C   UNL d   1      -0.684   2.462  -0.327  0.00  0.00     0.017 A 
ATOM      2  C   UNL d   1      -1.760   5.091  -0.061  0.00  0.00     0.041 A 
ATOM      3  C   UNL d   1      -1.760   2.724   0.532  0.00  0.00     0.025 A 
ATOM      4  C   UNL d   1      -2.328   4.012   0.649  0.00  0.00    -0.034 A 
ATOM      5  C   UNL d   1      -0.187   3.521  -1.088  0.00  0.00     0.018 A 
ATOM      6  C   UNL d   1      -0.709   4.814  -0.947  0.00  0.00     0.031 A 
ATOM      7  C   UNL d   1      -3.582   4.142   1.472  0.00  0.00     0.050 C 
ENDROOT
BRANCH   1   8
ATOM      8  C   UNL d   1      -0.140   1.114  -0.415  0.00  0.00     0.174 A 
ATOM      9  O   UNL d   1       0.894   0.897  -1.290  0.00  0.00    -0.269 OA
ATOM     10  C   UNL d   1       1.142  -0.446  -1.116  0.00  0.00     0.249 A 
ATOM     11  N   UNL d   1       0.337  -0.990  -0.220  0.00  0.00    -0.274 N 
ATOM     12  N   UNL d   1      -0.488   0.018   0.230  0.00  0.00    -0.277 N 
ATOM     13  HN  UNL d   1       0.328  -1.965   0.080  1.00  0.00     0.189 HD
ATOM     14  HN  UNL d   1      -1.226  -0.067   0.929  1.00  0.00     0.189 HD
BRANCH  10  15
ATOM     15  C   UNL d   1       2.223  -1.069  -1.922  0.00  0.00     0.457 C 
ATOM     16  F   UNL d   1       2.885  -0.166  -2.697  0.00  0.00    -0.163 F 
ATOM     17  F   UNL d   1       3.166  -1.669  -1.147  0.00  0.00    -0.163 F 
ATOM     18  F   UNL d   1       1.750  -2.023  -2.768  0.00  0.00    -0.163 F 
ENDBRANCH  10  15
ENDBRANCH   1   8
BRANCH   2  19
ATOM     19  N   UNL d   1      -2.217   6.412   0.179  0.00  0.00    -0.322 N 
ATOM     20  C   UNL d   1      -1.760   7.591  -0.402  0.00  0.00     0.263 C 
ATOM     21  O   UNL d   1      -1.029   7.632  -1.389  0.00  0.00    -0.267 OA
ATOM     22  H   UNL d   1      -2.883   6.537   0.932  0.00  0.00     0.169 HD
BRANCH  20  23
ATOM     23  C   UNL d   1      -2.180   8.833   0.252  0.00  0.00     0.072 A 
ATOM     24  S   UNL d   1      -3.143   8.868   1.669  0.00  0.00    -0.097 SA
ATOM     25  C   UNL d   1      -2.990  10.567   1.818  0.00  0.00     0.050 A 
ATOM     26  C   UNL d   1      -2.272  11.115   0.777  0.00  0.00     0.009 A 
ATOM     27  C   UNL d   1      -1.829  10.117  -0.137  0.00  0.00     0.025 A 
ENDBRANCH  20  23
ENDBRANCH   2  19
TORSDOF 4
