REMARK  7 active torsions:
REMARK  status: ('A' for Active; 'I' for Inactive)
REMARK    1  A    between atoms: C_7  and  N_1 
REMARK    2  A    between atoms: S_9  and  C_2 
REMARK    3  A    between atoms: C_10  and  C_7 
REMARK    4  A    between atoms: C_15  and  S_9 
REMARK    5  A    between atoms: C_13  and  C_10 
REMARK    6  A    between atoms: C_12  and  C_15 
REMARK    7  A    between atoms: C_14  and  C_12 
ROOT
ATOM      1  N   UNL d   1       2.483  -1.086  -0.627  0.00  0.00    -0.286 N 
ATOM      2  C   UNL d   1       2.379  -0.108  -1.599  0.00  0.00     0.150 C 
ATOM      3  C   UNL d   1       1.332  -1.568  -0.001  0.00  0.00     0.262 C 
ATOM      4  N   UNL d   1       1.319   0.607  -1.766  0.00  0.00    -0.336 N 
ATOM      5  HN  UNL d   1       1.310   1.368  -2.444  1.00  0.00     0.168 HD
ATOM      6  C   UNL d   1       0.073  -0.869  -0.294  0.00  0.00     0.059 C 
ATOM      7  C   UNL d   1       0.180   0.322  -1.001  0.00  0.00     0.049 C 
ATOM      8  O   UNL d   1       1.332  -2.479   0.825  0.00  0.00    -0.267 OA
ATOM      9  C   UNL d   1      -1.146  -1.298   0.239  0.00  0.00     0.019 C 
ATOM     10  C   UNL d   1      -0.910   1.192  -0.998  0.00  0.00     0.030 C 
ATOM     11  C   UNL d   1      -2.256  -0.461   0.155  0.00  0.00     0.001 C 
ATOM     12  C   UNL d   1      -2.121   0.808  -0.409  0.00  0.00     0.002 C 
ENDROOT
BRANCH   2  13
ATOM     13  S   UNL d   1       3.724   0.257  -2.660  0.00  0.00    -0.086 SA
BRANCH  13  14
ATOM     14  C   UNL d   1       4.156  -1.319  -3.432  0.00  0.00     0.166 C 
BRANCH  14  15
ATOM     15  C   UNL d   1       3.534  -1.583  -4.789  0.00  0.00     0.169 C 
ATOM     16  O   UNL d   1       3.980  -1.047  -5.805  0.00  0.00    -0.291 OA
BRANCH  15  17
ATOM     17  C   UNL d   1       2.446  -2.607  -4.943  0.00  0.00     0.011 A 
ATOM     18  C   UNL d   1       1.676  -3.067  -3.870  0.00  0.00     0.017 A 
ATOM     19  C   UNL d   1       0.671  -4.023  -4.072  0.00  0.00     0.025 A 
ATOM     20  C   UNL d   1       0.434  -4.530  -5.347  0.00  0.00     0.034 A 
ATOM     21  C   UNL d   1       1.194  -4.089  -6.426  0.00  0.00     0.025 A 
ATOM     22 CL   UNL d   1      -0.800  -5.705  -5.587  0.00  0.00    -0.084 Cl
ATOM     23  C   UNL d   1       2.195  -3.130  -6.224  0.00  0.00     0.017 A 
ENDBRANCH  15  17
ENDBRANCH  14  15
ENDBRANCH  13  14
ENDBRANCH   2  13
BRANCH   1  24
ATOM     24  C   UNL d   1       3.736  -1.477   0.028  0.00  0.00     0.218 C 
BRANCH  24  25
ATOM     25  C   UNL d   1       4.008  -2.966  -0.167  0.00  0.00     0.177 C 
ATOM     26  O   UNL d   1       3.631  -3.575  -1.169  0.00  0.00    -0.291 OA
BRANCH  25  27
ATOM     27  C   UNL d   1       4.754  -3.712   0.870  0.00  0.00     0.011 A 
ATOM     28  C   UNL d   1       4.547  -5.101   0.910  0.00  0.00     0.017 A 
ATOM     29  C   UNL d   1       5.225  -5.894   1.834  0.00  0.00     0.025 A 
ATOM     30  C   UNL d   1       6.118  -5.302   2.720  0.00  0.00     0.034 A 
ATOM     31  C   UNL d   1       6.333  -3.923   2.691  0.00  0.00     0.025 A 
ATOM     32 CL   UNL d   1       6.967  -6.283   3.850  0.00  0.00    -0.084 Cl
ATOM     33  C   UNL d   1       5.650  -3.122   1.766  0.00  0.00     0.017 A 
ENDBRANCH  25  27
ENDBRANCH  24  25
ENDBRANCH   1  24
TORSDOF 7
