REMARK  6 active torsions:
REMARK  status: ('A' for Active; 'I' for Inactive)
REMARK    1  A    between atoms: C_7  and  N_1 
REMARK    2  A    between atoms: C_8  and  N_3 
REMARK    3  A    between atoms: O_20  and  C_14 
REMARK    4  A    between atoms: O_21  and  C_15 
REMARK    5  A    between atoms: C_22  and  O_20 
REMARK    6  A    between atoms: C_23  and  O_21 
ROOT
ATOM      1  N   UNL d   1       0.802   1.156  -0.203  0.00  0.00    -0.316 N 
ATOM      2  C   UNL d   1       1.539   0.069   0.266  0.00  0.00     0.144 C 
ATOM      3  N   UNL d   1      -1.241   0.066  -0.465  0.00  0.00    -0.355 N 
ATOM      4  C   UNL d   1      -0.612   1.236   0.107  0.00  0.00     0.257 C 
ATOM      5  S   UNL d   1       0.826  -1.527   0.076  0.00  0.00    -0.080 SA
ATOM      6  C   UNL d   1      -0.919  -1.162   0.233  0.00  0.00     0.206 C 
ATOM      7  S   UNL d   1       3.078   0.190   0.949  0.00  0.00    -0.052 SA
ENDROOT
BRANCH   1   8
ATOM      8  C   UNL d   1       1.383   2.169  -1.033  0.00  0.00     0.037 A 
ATOM      9  C   UNL d   1       2.345   1.812  -1.987  0.00  0.00     0.032 A 
ATOM     10  C   UNL d   1       2.902   2.764  -2.845  0.00  0.00     0.039 A 
ATOM     11  C   UNL d   1       2.514   4.098  -2.759  0.00  0.00     0.068 A 
ATOM     12  C   UNL d   1       1.538   4.463  -1.831  0.00  0.00     0.039 A 
ATOM     13  C   UNL d   1       0.978   3.510  -0.972  0.00  0.00     0.032 A 
BRANCH  11  14
ATOM     14  O   UNL d   1       2.990   5.107  -3.550  0.00  0.00    -0.352 OA
BRANCH  14  15
ATOM     15  C   UNL d   1       4.315   4.914  -4.050  0.00  0.00     0.171 C 
ATOM     16  C   UNL d   1       4.726   6.162  -4.809  0.00  0.00     0.034 C 
ENDBRANCH  14  15
ENDBRANCH  11  14
ENDBRANCH   1   8
BRANCH   3  17
ATOM     17  C   UNL d   1      -2.503   0.161  -1.042  0.00  0.00     0.032 A 
ATOM     18  C   UNL d   1      -2.877  -0.750  -2.043  0.00  0.00     0.032 A 
ATOM     19  C   UNL d   1      -4.092  -0.641  -2.732  0.00  0.00     0.039 A 
ATOM     20  C   UNL d   1      -4.972   0.393  -2.428  0.00  0.00     0.068 A 
ATOM     21  C   UNL d   1      -4.633   1.289  -1.417  0.00  0.00     0.039 A 
ATOM     22  C   UNL d   1      -3.419   1.174  -0.732  0.00  0.00     0.032 A 
BRANCH  20  23
ATOM     23  O   UNL d   1      -6.168   0.644  -3.037  0.00  0.00    -0.352 OA
BRANCH  23  24
ATOM     24  C   UNL d   1      -6.529  -0.193  -4.133  0.00  0.00     0.171 C 
ATOM     25  C   UNL d   1      -7.851   0.312  -4.683  0.00  0.00     0.034 C 
ENDBRANCH  23  24
ENDBRANCH  20  23
ENDBRANCH   3  17
TORSDOF 6
