REMARK  3 active torsions:
REMARK  status: ('A' for Active; 'I' for Inactive)
REMARK    1  A    between atoms: N_2  and  C_6 
REMARK    2  A    between atoms: N_5  and  C_3 
REMARK    3  A    between atoms: C_13  and  N_5 
ROOT
ATOM      1  N   UNL d   1      -2.929  -1.516  -0.491  0.00  0.00    -0.263 NA
ATOM      2  H   UNL d   1      -3.467  -2.382  -0.412  0.00  0.00     0.133 HD
ENDROOT
BRANCH   1   3
ATOM      3  C   UNL d   1      -1.557  -1.778  -0.530  0.00  0.00    -0.002 C 
ATOM      4  C   UNL d   1      -0.656  -0.907  -0.032  0.00  0.00     0.036 C 
ATOM      5  C   UNL d   1       0.829  -1.016  -0.057  0.00  0.00     0.290 C 
ATOM      6  C   UNL d   1      -0.936   0.414   0.594  0.00  0.00     0.073 C 
ATOM      7  O   UNL d   1       1.324   0.254   0.055  0.00  0.00    -0.317 OA
ATOM      8  O   UNL d   1       1.501  -2.023  -0.124  0.00  0.00    -0.260 OA
ATOM      9  C   UNL d   1       0.238   1.184   0.056  0.00  0.00     0.184 C 
ATOM     10  C   UNL d   1      -1.186  -3.122  -1.116  0.00  0.00     0.062 C 
ENDBRANCH   1   3
BRANCH   1  11
ATOM     11  C   UNL d   1      -3.612  -0.686  -1.426  0.00  0.00     0.012 A 
ATOM     12  C   UNL d   1      -3.000  -0.100  -2.544  0.00  0.00     0.026 A 
ATOM     13  C   UNL d   1      -3.747   0.663  -3.452  0.00  0.00     0.038 A 
ATOM     14  C   UNL d   1      -5.115   0.863  -3.231  0.00  0.00     0.102 A 
ATOM     15  C   UNL d   1      -5.729   0.333  -2.092  0.00  0.00     0.038 A 
ATOM     16  C   UNL d   1      -4.975  -0.434  -1.199  0.00  0.00     0.026 A 
BRANCH  14  17
ATOM     17  N   UNL d   1      -5.918   1.610  -4.208  0.00  0.00    -0.116 N 
ATOM     18  O   UNL d   1      -7.134   1.718  -3.993  0.00  0.00    -0.532 OA
ATOM     19  O   UNL d   1      -5.335   2.078  -5.196  0.00  0.00    -0.532 OA
ENDBRANCH  14  17
ENDBRANCH   1  11
TORSDOF 3
