REMARK  5 active torsions:
REMARK  status: ('A' for Active; 'I' for Inactive)
REMARK    1  A    between atoms: C_2  and  N_1 
REMARK    2  A    between atoms: N_3  and  C_6 
REMARK    3  A    between atoms: O_18  and  C_4 
REMARK    4  A    between atoms: C_9  and  C_14 
REMARK    5  A    between atoms: O_19  and  C_15 
ROOT
ATOM      1  N   UNL d   1      -2.720   3.682  -1.785  0.00  0.00    -0.381 N 
ATOM      2  C   UNL d   1      -2.989   3.694  -3.225  0.00  0.00     0.123 C 
ATOM      3  C   UNL d   1      -2.699   5.021  -1.171  0.00  0.00     0.123 C 
ATOM      4  C   UNL d   1      -4.492   5.736  -2.934  0.00  0.00     0.024 C 
ATOM      5  C   UNL d   1      -3.989   5.796  -1.476  0.00  0.00     0.029 C 
ATOM      6  C   UNL d   1      -4.354   4.307  -3.482  0.00  0.00     0.029 C 
ENDROOT
BRANCH   1   7
ATOM      7  C   UNL d   1      -1.708   2.815  -1.329  0.00  0.00     0.033 A 
ATOM      8  C   UNL d   1      -1.649   2.479   0.035  0.00  0.00     0.032 A 
ATOM      9  C   UNL d   1      -0.693   1.588   0.528  0.00  0.00     0.041 A 
ATOM     10  C   UNL d   1       0.214   1.009  -0.362  0.00  0.00     0.136 A 
ATOM     11  C   UNL d   1       0.198   1.303  -1.723  0.00  0.00     0.103 A 
ATOM     12  C   UNL d   1      -0.761   2.216  -2.188  0.00  0.00     0.068 A 
BRANCH  10  13
ATOM     13  N   UNL d   1       1.164   0.055   0.167  0.00  0.00    -0.113 N 
ATOM     14  O   UNL d   1       1.120  -1.106  -0.268  0.00  0.00    -0.532 OA
ATOM     15  O   UNL d   1       1.917   0.451   1.074  0.00  0.00    -0.532 OA
ENDBRANCH  10  13
BRANCH  11  16
ATOM     16  O   UNL d   1       1.163   0.747  -2.521  0.00  0.00    -0.353 OA
ATOM     17  C   UNL d   1       0.828   0.573  -3.895  0.00  0.00     0.210 C 
ENDBRANCH  11  16
ENDBRANCH   1   7
BRANCH   4  18
ATOM     18  C   UNL d   1      -3.954   6.795  -3.895  0.00  0.00    -0.021 A 
ATOM     19  C   UNL d   1      -4.756   7.325  -4.930  0.00  0.00     0.074 A 
ATOM     20  C   UNL d   1      -4.276   8.333  -5.777  0.00  0.00     0.037 A 
ATOM     21  C   UNL d   1      -2.989   8.838  -5.614  0.00  0.00     0.003 A 
ATOM     22  C   UNL d   1      -2.183   8.338  -4.600  0.00  0.00     0.001 A 
ATOM     23  C   UNL d   1      -2.657   7.322  -3.761  0.00  0.00     0.010 A 
BRANCH  19  24
ATOM     24  O   UNL d   1      -6.094   7.046  -5.054  0.00  0.00    -0.355 OA
ATOM     25  C   UNL d   1      -6.366   5.787  -5.659  0.00  0.00     0.210 C 
ENDBRANCH  19  24
ENDBRANCH   4  18
TORSDOF 5
