REMARK  4 active torsions:
REMARK  status: ('A' for Active; 'I' for Inactive)
REMARK    1  A    between atoms: N_2  and  C_1 
REMARK    2  A    between atoms: C_3  and  C_8 
REMARK    3  A    between atoms: O_10  and  C_4 
REMARK    4  A    between atoms: C_7  and  O_10 
ROOT
ATOM      1  C   UNL d   1      -0.939  -2.701   0.388  0.00  0.00     0.137 A 
ATOM      2  C   UNL d   1       0.230  -3.360   0.784  0.00  0.00     0.109 A 
ATOM      3  C   UNL d   1      -2.147  -3.393   0.225  0.00  0.00     0.055 A 
ATOM      4  C   UNL d   1      -2.183  -4.779   0.455  0.00  0.00     0.050 A 
ATOM      5  C   UNL d   1       0.199  -4.745   0.959  0.00  0.00     0.040 A 
ATOM      6  C   UNL d   1      -0.996  -5.447   0.782  0.00  0.00     0.019 A 
ENDROOT
BRANCH   2   7
ATOM      7  O   UNL d   1       1.324  -2.627   1.156  0.00  0.00    -0.308 OA
BRANCH   7   8
ATOM      8  C   UNL d   1       2.583  -3.018   0.786  0.00  0.00     0.083 C 
ATOM      9  C   UNL d   1       3.608  -2.698   1.658  0.00  0.00    -0.017 C 
ATOM     10  C   UNL d   1       4.943  -2.707   1.236  0.00  0.00    -0.043 C 
ATOM     11  C   UNL d   1       3.530  -2.285   3.096  0.00  0.00     0.042 C 
ATOM     12  C   UNL d   1       5.807  -2.013   2.253  0.00  0.00     0.040 C 
ATOM     13  C   UNL d   1       5.302  -3.237   0.003  0.00  0.00    -0.055 C 
ATOM     14  C   UNL d   1       4.743  -1.361   3.159  0.00  0.00     0.009 C 
ATOM     15  C   UNL d   1       4.266  -3.659  -0.845  0.00  0.00     0.010 C 
ATOM     16  C   UNL d   1       6.734  -3.312  -0.427  0.00  0.00     0.049 C 
ATOM     17  C   UNL d   1       2.916  -3.506  -0.478  0.00  0.00     0.038 C 
ENDBRANCH   7   8
ENDBRANCH   2   7
BRANCH   1  18
ATOM     18  N   UNL d   1      -0.932  -1.277   0.103  0.00  0.00    -0.113 N 
ATOM     19  O   UNL d   1      -0.527  -0.508   0.989  0.00  0.00    -0.532 OA
ATOM     20  O   UNL d   1      -1.381  -0.930  -0.996  0.00  0.00    -0.532 OA
ENDBRANCH   1  18
BRANCH   4  21
ATOM     21  C   UNL d   1      -3.488  -5.541   0.420  0.00  0.00     0.417 C 
ATOM     22  F   UNL d   1      -4.581  -4.741   0.283  0.00  0.00    -0.166 F 
ATOM     23  F   UNL d   1      -3.537  -6.432  -0.606  0.00  0.00    -0.166 F 
ATOM     24  F   UNL d   1      -3.694  -6.261   1.556  0.00  0.00    -0.166 F 
ENDBRANCH   4  21
TORSDOF 4
