REMARK  3 active torsions:
REMARK  status: ('A' for Active; 'I' for Inactive)
REMARK    1  A    between atoms: O_10  and  N_6 
REMARK    2  A    between atoms: C_9  and  O_10 
REMARK    3  A    between atoms: C_12  and  C_9 
ROOT
ATOM      1  C   UNL d   1      -0.630  -0.572   0.115  0.00  0.00     0.023 A 
ATOM      2  C   UNL d   1      -1.068   0.738   0.092  0.00  0.00     0.022 A 
ATOM      3  N   UNL d   1       0.023   1.559   0.047  0.00  0.00    -0.358 N 
ATOM      4  C   UNL d   1       0.793  -0.544   0.051  0.00  0.00     0.005 A 
ATOM      5  C   UNL d   1       1.175   0.802   0.018  0.00  0.00     0.043 A 
ATOM      6  N   UNL d   1      -1.136  -2.874   0.280  0.00  0.00    -0.261 N 
ATOM      7  HN  UNL d   1      -0.147  -3.122   0.253  1.00  0.00     0.194 HD
ATOM      8  C   UNL d   1      -1.591  -1.663   0.188  0.00  0.00     0.045 C 
ATOM      9  C   UNL d   1      -2.483   1.192   0.112  0.00  0.00     0.058 C 
ATOM     10  C   UNL d   1       1.803  -1.528   0.017  0.00  0.00     0.014 A 
ATOM     11  C   UNL d   1       2.514   1.206  -0.037  0.00  0.00     0.030 A 
ATOM     12  C   UNL d   1      -3.075  -1.287   0.231  0.00  0.00     0.060 C 
ATOM     13  C   UNL d   1      -3.365   0.063  -0.441  0.00  0.00     0.012 C 
ATOM     14  C   UNL d   1       3.146  -1.139  -0.046  0.00  0.00     0.001 A 
ATOM     15  C   UNL d   1       3.494   0.209  -0.069  0.00  0.00     0.002 A 
ATOM     16  H   UNL d   1       0.004   2.569   0.029  0.00  0.00     0.166 HD
ENDROOT
BRANCH   6  17
ATOM     17  O   UNL d   1      -2.181  -3.797   0.423  0.00  0.00    -0.199 OA
BRANCH  17  18
ATOM     18  C   UNL d   1      -1.694  -5.069   0.547  0.00  0.00     0.285 C 
ATOM     19  O   UNL d   1      -0.518  -5.406   0.513  0.00  0.00    -0.263 OA
BRANCH  18  20
ATOM     20  C   UNL d   1      -2.834  -6.073   0.740  0.00  0.00     0.087 C 
ATOM     21  C   UNL d   1      -4.262  -5.492   0.715  0.00  0.00     0.015 C 
ATOM     22  C   UNL d   1      -4.699  -4.811   2.016  0.00  0.00     0.001 C 
ATOM     23  C   UNL d   1      -4.377  -5.635   3.257  0.00  0.00     0.000 C 
ATOM     24  C   UNL d   1      -2.920  -6.078   3.271  0.00  0.00     0.001 C 
ATOM     25  C   UNL d   1      -2.596  -6.886   2.017  0.00  0.00     0.015 C 
ENDBRANCH  18  20
ENDBRANCH  17  18
ENDBRANCH   6  17
TORSDOF 3
