REMARK  7 active torsions:
REMARK  status: ('A' for Active; 'I' for Inactive)
REMARK    1  A    between atoms: C_14  and  N_5 
REMARK    2  A    between atoms: C_26  and  N_11 
REMARK    3  A    between atoms: C_21  and  C_12 
REMARK    4  A    between atoms: C_15  and  C_14 
REMARK       I    between atoms: N_19  and  C_15 
REMARK    5  A    between atoms: C_23  and  N_19 
REMARK    6  A    between atoms: C_32  and  C_26 
REMARK    7  A    between atoms: C_33  and  C_32 
ROOT
ATOM      1  N   UNL d   1       6.081   7.190  -2.952  0.00  0.00    -0.191 NA
ATOM      2  C   UNL d   1       4.984   6.934  -3.244  0.00  0.00     0.099 C 
ATOM      3  C   UNL d   1       1.590   5.348  -3.194  0.00  0.00     0.036 A 
ATOM      4  C   UNL d   1       3.635   6.614  -3.607  0.00  0.00     0.046 A 
ATOM      5  C   UNL d   1       2.915   5.666  -2.868  0.00  0.00     0.052 A 
ATOM      6  C   UNL d   1       1.727   6.913  -5.052  0.00  0.00     0.004 A 
ATOM      7  C   UNL d   1       1.014   5.957  -4.316  0.00  0.00     0.029 A 
ATOM      8  C   UNL d   1       3.033   7.248  -4.694  0.00  0.00     0.023 A 
ENDROOT
BRANCH   3   9
ATOM      9  N   UNL d   1       0.803   4.454  -2.423  0.00  0.00    -0.326 N 
ATOM     10  C   UNL d   1       1.047   4.143  -1.093  0.00  0.00     0.240 C 
ATOM     11  O   UNL d   1       1.973   4.605  -0.425  0.00  0.00    -0.271 OA
ATOM     12  H   UNL d   1      -0.095   4.174  -2.809  0.00  0.00     0.169 HD
BRANCH  10  13
ATOM     13  C   UNL d   1       0.003   3.258  -0.409  0.00  0.00     0.234 C 
BRANCH  13  14
ATOM     14  N   UNL d   1       0.038   1.806  -0.741  0.00  0.00    -0.318 N 
ATOM     15  C   UNL d   1       1.222   1.107  -0.541  0.00  0.00     0.136 A 
ATOM     16  N   UNL d   1       1.188  -0.277  -0.353  0.00  0.00    -0.203 N 
ATOM     17  C   UNL d   1       2.552   1.439  -0.420  0.00  0.00     0.082 A 
ATOM     18  C   UNL d   1       0.015  -1.050  -0.233  0.00  0.00     0.278 A 
ATOM     19  N   UNL d   1       2.422  -0.821  -0.219  0.00  0.00    -0.289 N 
ATOM     20  C   UNL d   1      -1.207  -0.251  -0.315  0.00  0.00     0.062 A 
ATOM     21  O   UNL d   1       0.029  -2.260  -0.053  0.00  0.00    -0.265 OA
ATOM     22  C   UNL d   1      -1.136   1.055  -0.594  0.00  0.00     0.118 A 
ATOM     23  C   UNL d   1      -2.557  -0.760  -0.015  0.00  0.00     0.173 A 
ATOM     24  C   UNL d   1      -2.561   1.508  -0.637  0.00  0.00     0.271 A 
ATOM     25  O   UNL d   1      -2.943   2.622  -0.946  0.00  0.00    -0.266 OA
ATOM     26  N   UNL d   1      -3.344   0.417  -0.292  0.00  0.00    -0.342 N 
ATOM     27  C   UNL d   1       3.269   0.219  -0.249  0.00  0.00     0.062 A 
ATOM     28  HN  UNL d   1       2.656  -1.808  -0.117  1.00  0.00     0.188 HD
BRANCH  26  29
ATOM     29  C   UNL d   1      -4.793   0.439  -0.152  0.00  0.00     0.126 C 
BRANCH  29  30
ATOM     30  C   UNL d   1      -5.244   0.829   1.258  0.00  0.00     0.020 C 
BRANCH  30  31
ATOM     31  C   UNL d   1      -6.765   0.726   1.413  0.00  0.00    -0.003 C 
ATOM     32  C   UNL d   1      -7.218   1.105   2.816  0.00  0.00     0.005 C 
ENDBRANCH  30  31
ENDBRANCH  29  30
ENDBRANCH  26  29
BRANCH  27  33
ATOM     33  C   UNL d   1       4.724   0.039  -0.128  0.00  0.00    -0.008 A 
ATOM     34  C   UNL d   1       5.610   1.077  -0.459  0.00  0.00     0.014 A 
ATOM     35  C   UNL d   1       6.995   0.891  -0.382  0.00  0.00     0.001 A 
ATOM     36  C   UNL d   1       7.514  -0.332   0.033  0.00  0.00     0.000 A 
ATOM     37  C   UNL d   1       6.650  -1.368   0.379  0.00  0.00     0.001 A 
ATOM     38  C   UNL d   1       5.265  -1.184   0.300  0.00  0.00     0.014 A 
ENDBRANCH  27  33
ENDBRANCH  13  14
ENDBRANCH  10  13
ENDBRANCH   3   9
TORSDOF 7
