REMARK  3 active torsions:
REMARK  status: ('A' for Active; 'I' for Inactive)
REMARK    1  A    between atoms: C_2  and  N_1 
REMARK    2  A    between atoms: C_13  and  C_5 
REMARK    3  A    between atoms: O_23  and  C_18 
ROOT
ATOM      1  C   UNL d   1       3.299   0.023  -0.151  0.00  0.00     0.133 A 
ATOM      2  C   UNL d   1       4.204   0.575   0.754  0.00  0.00     0.094 A 
ATOM      3  N   UNL d   1       5.692  -0.285  -0.707  0.00  0.00    -0.268 N 
ATOM      4  HN  UNL d   1       6.597  -0.496  -1.127  1.00  0.00     0.195 HD
ATOM      5  S   UNL d   1       4.239  -0.795  -1.339  0.00  0.00     0.023 SA
ATOM      6  N   UNL d   1       5.546   0.422   0.398  0.00  0.00    -0.291 N 
ATOM      7  HN  UNL d   1       6.323   0.813   0.930  1.00  0.00     0.187 HD
ENDROOT
BRANCH   1   8
ATOM      8  N   UNL d   1       1.918   0.039  -0.273  0.00  0.00    -0.234 N 
ATOM      9  C   UNL d   1       1.137   1.084   0.155  0.00  0.00     0.267 A 
ATOM     10  C   UNL d   1      -0.245   0.711  -0.137  0.00  0.00     0.048 A 
ATOM     11  O   UNL d   1       1.425   2.171   0.619  0.00  0.00    -0.267 OA
ATOM     12  C   UNL d   1      -1.423   1.389   0.111  0.00  0.00     0.018 A 
ATOM     13  C   UNL d   1      -0.226  -0.513  -0.776  0.00  0.00     0.048 A 
ATOM     14  C   UNL d   1      -2.610   0.783  -0.311  0.00  0.00     0.001 A 
ATOM     15  C   UNL d   1      -2.591  -0.469  -0.959  0.00  0.00     0.001 A 
ATOM     16  C   UNL d   1      -1.385  -1.135  -1.197  0.00  0.00     0.018 A 
ATOM     17  C   UNL d   1       1.168  -0.941  -0.881  0.00  0.00     0.267 A 
ATOM     18  O   UNL d   1       1.480  -2.005  -1.385  0.00  0.00    -0.267 OA
ENDBRANCH   1   8
BRANCH   2  19
ATOM     19  C   UNL d   1       3.888   1.174   2.047  0.00  0.00    -0.005 A 
ATOM     20  C   UNL d   1       2.863   0.663   2.858  0.00  0.00     0.016 A 
ATOM     21  C   UNL d   1       2.572   1.242   4.099  0.00  0.00     0.037 A 
ATOM     22  C   UNL d   1       3.337   2.306   4.569  0.00  0.00     0.068 A 
ATOM     23  C   UNL d   1       4.400   2.779   3.799  0.00  0.00     0.037 A 
ATOM     24  C   UNL d   1       4.668   2.227   2.542  0.00  0.00     0.016 A 
BRANCH  22  25
ATOM     25  O   UNL d   1       3.172   2.916   5.782  0.00  0.00    -0.356 OA
ATOM     26  C   UNL d   1       1.845   2.918   6.294  0.00  0.00     0.210 C 
ENDBRANCH  22  25
ENDBRANCH   2  19
TORSDOF 3
