REMARK  5 active torsions:
REMARK  status: ('A' for Active; 'I' for Inactive)
REMARK    1  A    between atoms: N_2  and  C_1 
REMARK       I    between atoms: C_3  and  N_2 
REMARK    2  A    between atoms: C_7  and  N_2 
REMARK    3  A    between atoms: C_12  and  C_3 
REMARK    4  A    between atoms: C_8  and  C_10 
REMARK    5  A    between atoms: C_9  and  C_11 
ROOT
ATOM      1  N   UNL d   1      -3.245  -1.331   0.104  0.00  0.00    -0.258 N 
ATOM      2  C   UNL d   1      -3.522  -2.710   0.125  0.00  0.00     0.265 C 
ATOM      3  O   UNL d   1      -4.565  -3.196  -0.323  0.00  0.00    -0.267 OA
ENDROOT
BRANCH   1   4
ATOM      4  C   UNL d   1      -1.933  -0.838   0.007  0.00  0.00     0.159 C 
ATOM      5  N   UNL d   1      -1.520   0.319   0.480  0.00  0.00    -0.335 N 
ATOM      6  C   UNL d   1      -0.158   0.464   0.317  0.00  0.00     0.051 A 
ATOM      7  HN  UNL d   1      -2.127   1.017   0.910  1.00  0.00     0.168 HD
ATOM      8  C   UNL d   1       0.607   1.564   0.749  0.00  0.00     0.031 A 
ATOM      9  C   UNL d   1       0.480  -0.606  -0.305  0.00  0.00     0.035 A 
ATOM     10  C   UNL d   1       1.996   1.538   0.599  0.00  0.00     0.002 A 
ATOM     11  C   UNL d   1       2.620   0.437   0.024  0.00  0.00     0.002 A 
ATOM     12  C   UNL d   1       1.875  -0.649  -0.451  0.00  0.00     0.021 A 
ATOM     13  S   UNL d   1      -0.715  -1.734  -0.816  0.00  0.00    -0.051 SA
ENDBRANCH   1   4
BRANCH   1  14
ATOM     14  C   UNL d   1      -4.323  -0.365   0.279  0.00  0.00     0.046 A 
ATOM     15  C   UNL d   1      -5.575  -0.763   0.789  0.00  0.00     0.046 A 
ATOM     16  C   UNL d   1      -6.620   0.151   1.028  0.00  0.00     0.050 A 
ATOM     17  C   UNL d   1      -6.402   1.512   0.779  0.00  0.00     0.032 A 
ATOM     18  C   UNL d   1      -5.178   1.952   0.266  0.00  0.00     0.050 A 
ATOM     19  C   UNL d   1      -4.176   1.005  -0.017  0.00  0.00     0.046 A 
BRANCH  16  20
ATOM     20  C   UNL d   1      -7.953  -0.308   1.570  0.00  0.00     0.417 C 
ATOM     21  F   UNL d   1      -8.032  -1.650   1.782  0.00  0.00    -0.166 F 
ATOM     22  F   UNL d   1      -8.249   0.275   2.765  0.00  0.00    -0.166 F 
ATOM     23  F   UNL d   1      -8.985   0.004   0.738  0.00  0.00    -0.166 F 
ENDBRANCH  16  20
BRANCH  18  24
ATOM     24  C   UNL d   1      -4.934   3.427   0.050  0.00  0.00     0.417 C 
ATOM     25  F   UNL d   1      -3.675   3.722  -0.377  0.00  0.00    -0.166 F 
ATOM     26  F   UNL d   1      -5.778   3.964  -0.871  0.00  0.00    -0.166 F 
ATOM     27  F   UNL d   1      -5.117   4.149   1.190  0.00  0.00    -0.166 F 
ENDBRANCH  18  24
ENDBRANCH   1  14
BRANCH   2  28
ATOM     28  C   UNL d   1      -2.572  -3.693   0.756  0.00  0.00     0.038 A 
ATOM     29  C   UNL d   1      -1.843  -3.486   1.947  0.00  0.00    -0.046 A 
ATOM     30  C   UNL d   1      -1.945  -2.265   2.819  0.00  0.00     0.049 C 
ATOM     31  C   UNL d   1      -0.936  -4.482   2.361  0.00  0.00     0.007 A 
ATOM     32  C   UNL d   1      -0.813  -5.687   1.669  0.00  0.00     0.001 A 
ATOM     33  C   UNL d   1      -1.594  -5.922   0.546  0.00  0.00     0.001 A 
ATOM     34  C   UNL d   1      -2.461  -4.930   0.089  0.00  0.00     0.017 A 
ENDBRANCH   2  28
TORSDOF 5
