REMARK  4 active torsions:
REMARK  status: ('A' for Active; 'I' for Inactive)
REMARK    1  A    between atoms: C_9  and  N_1 
REMARK    2  A    between atoms: C_4  and  C_10 
REMARK    3  A    between atoms: C_17  and  C_6 
REMARK    4  A    between atoms: N_13  and  C_17 
ROOT
ATOM      1  N   UNL d   1      -2.530   5.607   0.078  0.00  0.00    -0.277 N 
ATOM      2  HN  UNL d   1      -2.461   5.491  -0.933  1.00  0.00     0.189 HD
ATOM      3  C   UNL d   1      -2.058   4.789   0.999  0.00  0.00     0.174 A 
ATOM      4  O   UNL d   1      -2.323   5.222   2.272  0.00  0.00    -0.276 OA
ATOM      5  C   UNL d   1      -2.986   6.398   2.033  0.00  0.00     0.169 A 
ATOM      6  N   UNL d   1      -3.133   6.649   0.748  0.00  0.00    -0.280 N 
ATOM      7  HN  UNL d   1      -3.600   7.455   0.332  1.00  0.00     0.189 HD
ENDROOT
BRANCH   3   8
ATOM      8  C   UNL d   1      -1.326   3.538   0.845  0.00  0.00     0.017 A 
ATOM      9  C   UNL d   1      -0.940   2.760   1.946  0.00  0.00     0.018 A 
ATOM     10  C   UNL d   1      -0.251   1.560   1.762  0.00  0.00     0.037 A 
ATOM     11  C   UNL d   1       0.064   1.133   0.464  0.00  0.00     0.108 A 
ATOM     12  C   UNL d   1      -0.305   1.880  -0.666  0.00  0.00    -0.028 A 
ATOM     13  C   UNL d   1      -0.996   3.087  -0.449  0.00  0.00     0.025 A 
ATOM     14  C   UNL d   1      -0.001   1.488  -2.085  0.00  0.00     0.050 C 
BRANCH  11  15
ATOM     15  N   UNL d   1       0.784  -0.124   0.341  0.00  0.00    -0.115 N 
ATOM     16  O   UNL d   1       1.893  -0.089  -0.210  0.00  0.00    -0.532 OA
ATOM     17  O   UNL d   1       0.244  -1.131   0.815  0.00  0.00    -0.532 OA
ENDBRANCH  11  15
ENDBRANCH   3   8
BRANCH   5  18
ATOM     18  C   UNL d   1      -3.441   7.203   3.204  0.00  0.00     0.358 C 
BRANCH  18  19
ATOM     19  N   UNL d   1      -2.355   7.639   4.116  0.00  0.00     0.096 N 
ATOM     20  C   UNL d   1      -1.415   8.544   3.429  0.00  0.00     0.273 C 
ATOM     21  C   UNL d   1      -0.299   9.010   4.367  0.00  0.00     0.030 C 
ATOM     22  C   UNL d   1      -0.866   9.678   5.613  0.00  0.00     0.003 C 
ATOM     23  C   UNL d   1      -1.875   8.757   6.286  0.00  0.00     0.030 C 
ATOM     24  C   UNL d   1      -2.945   8.293   5.297  0.00  0.00     0.273 C 
ENDBRANCH  18  19
ENDBRANCH   5  18
TORSDOF 4
