REMARK  4 active torsions:
REMARK  status: ('A' for Active; 'I' for Inactive)
REMARK    1  A    between atoms: C_10  and  C_3 
REMARK    2  A    between atoms: C_9  and  C_7 
REMARK    3  A    between atoms: O_16  and  C_8 
REMARK    4  A    between atoms: O_17  and  C_13 
ROOT
ATOM      1  N   UNL d   1      -0.773   0.046   0.031  0.00  0.00    -0.331 N 
ATOM      2  HN  UNL d   1      -1.759  -0.216   0.060  1.00  0.00     0.168 HD
ATOM      3  C   UNL d   1      -0.252   1.230  -0.005  0.00  0.00     0.162 A 
ATOM      4  C   UNL d   1       0.327  -0.767   0.020  0.00  0.00     0.111 A 
ATOM      5  O   UNL d   1       1.100   1.321  -0.043  0.00  0.00    -0.256 OA
ATOM      6  C   UNL d   1       1.571   0.043  -0.024  0.00  0.00     0.316 A 
ATOM      7  C   UNL d   1       0.335  -2.104   0.037  0.00  0.00     0.047 C 
ATOM      8  O   UNL d   1       2.732  -0.320  -0.039  0.00  0.00    -0.257 OA
ENDROOT
BRANCH   7   9
ATOM      9  C   UNL d   1      -0.903  -2.885   0.041  0.00  0.00    -0.031 A 
ATOM     10  C   UNL d   1      -1.539  -3.210   1.247  0.00  0.00     0.051 A 
ATOM     11  C   UNL d   1      -2.729  -3.957   1.259  0.00  0.00     0.102 A 
ATOM     12  C   UNL d   1      -3.295  -4.350   0.032  0.00  0.00     0.101 A 
ATOM     13  C   UNL d   1      -2.652  -4.016  -1.168  0.00  0.00     0.040 A 
ATOM     14  C   UNL d   1      -1.467  -3.285  -1.168  0.00  0.00     0.014 A 
BRANCH  11  15
ATOM     15  O   UNL d   1      -3.357  -4.352   2.410  0.00  0.00    -0.353 OA
ATOM     16  C   UNL d   1      -2.762  -4.005   3.654  0.00  0.00     0.210 C 
ENDBRANCH  11  15
BRANCH  12  17
ATOM     17  O   UNL d   1      -4.423  -5.104  -0.165  0.00  0.00    -0.353 OA
ATOM     18  C   UNL d   1      -5.463  -4.977   0.795  0.00  0.00     0.210 C 
ENDBRANCH  12  17
ENDBRANCH   7   9
BRANCH   3  19
ATOM     19  C   UNL d   1      -0.987   2.501   0.014  0.00  0.00     0.015 A 
ATOM     20  C   UNL d   1      -2.385   2.466   0.109  0.00  0.00     0.016 A 
ATOM     21  C   UNL d   1      -3.113   3.653   0.175  0.00  0.00     0.001 A 
ATOM     22  C   UNL d   1      -2.448   4.878   0.143  0.00  0.00     0.000 A 
ATOM     23  C   UNL d   1      -1.058   4.918   0.034  0.00  0.00     0.001 A 
ATOM     24  C   UNL d   1      -0.324   3.732  -0.033  0.00  0.00     0.016 A 
ENDBRANCH   3  19
TORSDOF 4
