REMARK  4 active torsions:
REMARK  status: ('A' for Active; 'I' for Inactive)
REMARK    1  A    between atoms: C_2  and  S_1 
REMARK    2  A    between atoms: O_7  and  S_1 
REMARK    3  A    between atoms: C_4  and  C_12 
REMARK    4  A    between atoms: C_16  and  O_7 
ROOT
ATOM      1  C   UNL d   1       1.474  -1.329   4.992  0.00  0.00    -0.008 A 
ATOM      2  C   UNL d   1       0.152  -0.975   4.694  0.00  0.00     0.016 A 
ATOM      3  C   UNL d   1       2.474  -1.021   4.061  0.00  0.00     0.016 A 
ATOM      4  C   UNL d   1       0.838  -0.053   2.557  0.00  0.00     0.089 A 
ATOM      5  C   UNL d   1      -0.165  -0.351   3.481  0.00  0.00     0.039 A 
ATOM      6  C   UNL d   1       2.158  -0.390   2.852  0.00  0.00     0.039 A 
ENDROOT
BRANCH   4   7
ATOM      7  O   UNL d   1       0.421   0.522   1.381  0.00  0.00    -0.229 OA
BRANCH   7   8
ATOM      8  S   UNL d   1       1.410   1.466   0.491  0.00  0.00     0.304 S 
ATOM      9  O   UNL d   1       1.730   2.674   1.227  0.00  0.00    -0.193 OA
ATOM     10  O   UNL d   1       2.477   0.634  -0.042  0.00  0.00    -0.193 OA
BRANCH   8  11
ATOM     11  C   UNL d   1       0.431   1.957  -0.907  0.00  0.00     0.108 A 
ATOM     12  C   UNL d   1      -0.782   2.626  -0.749  0.00  0.00     0.057 A 
ATOM     13 CL   UNL d   1      -1.486   2.991   0.782  0.00  0.00    -0.083 Cl
ATOM     14  C   UNL d   1      -1.489   3.032  -1.889  0.00  0.00     0.025 A 
ATOM     15  C   UNL d   1      -0.995   2.765  -3.168  0.00  0.00     0.002 A 
ATOM     16  C   UNL d   1       0.209   2.085  -3.321  0.00  0.00     0.002 A 
ATOM     17  C   UNL d   1       0.925   1.683  -2.194  0.00  0.00     0.027 A 
ENDBRANCH   8  11
ENDBRANCH   7   8
ENDBRANCH   4   7
BRANCH   1  18
ATOM     18  C   UNL d   1       1.785  -2.005   6.245  0.00  0.00     0.063 A 
ATOM     19  N   UNL d   1       1.012  -1.807   7.385  0.00  0.00    -0.292 N 
ATOM     20  N   UNL d   1       1.454  -2.514   8.412  0.00  0.00    -0.061 NA
ATOM     21  HN  UNL d   1       0.201  -1.190   7.424  1.00  0.00     0.183 HD
ATOM     22  S   UNL d   1       2.789  -3.446   8.033  0.00  0.00    -0.010 SA
ATOM     23  C   UNL d   1       2.826  -2.904   6.406  0.00  0.00     0.096 A 
ENDBRANCH   1  18
TORSDOF 4
