REMARK  5 active torsions:
REMARK  status: ('A' for Active; 'I' for Inactive)
REMARK       I    between atoms: N_2  and  C_1 
REMARK       I    between atoms: N_5  and  C_1 
REMARK    1  A    between atoms: C_3  and  N_4 
REMARK    2  A    between atoms: C_15  and  N_5 
REMARK    3  A    between atoms: O_16  and  C_17 
REMARK    4  A    between atoms: C_18  and  O_16 
REMARK    5  A    between atoms: C_23  and  C_18 
ROOT
ATOM      1  C   UNL d   1       0.944   0.114   0.044  0.00  0.00     0.323 C 
ATOM      2  N   UNL d   1       2.277  -0.230   0.201  0.00  0.00    -0.331 N 
ATOM      3  N   UNL d   1       5.060   0.039  -0.319  0.00  0.00    -0.214 N 
ATOM      4  N   UNL d   1       0.199  -0.709  -0.769  0.00  0.00    -0.309 N 
ATOM      5  O   UNL d   1       0.490   1.102   0.619  0.00  0.00    -0.247 OA
ATOM      6  C   UNL d   1       3.114   0.618   1.069  0.00  0.00     0.148 C 
ATOM      7  C   UNL d   1       3.025  -1.349  -0.402  0.00  0.00     0.148 C 
ATOM      8  C   UNL d   1       4.350   1.148   0.320  0.00  0.00     0.161 C 
ATOM      9  C   UNL d   1       4.265  -0.846  -1.167  0.00  0.00     0.161 C 
ATOM     10  H   UNL d   1       0.654  -1.506  -1.169  0.00  0.00     0.170 HD
ENDROOT
BRANCH   4  11
ATOM     11  C   UNL d   1      -1.190  -0.629  -1.024  0.00  0.00     0.036 A 
ATOM     12  C   UNL d   1      -2.015   0.388  -0.543  0.00  0.00     0.032 A 
ATOM     13  C   UNL d   1      -3.396   0.354  -0.759  0.00  0.00     0.039 A 
ATOM     14  C   UNL d   1      -3.970  -0.710  -1.448  0.00  0.00     0.069 A 
ATOM     15  C   UNL d   1      -3.149  -1.690  -2.000  0.00  0.00     0.039 A 
ATOM     16  C   UNL d   1      -1.766  -1.653  -1.787  0.00  0.00     0.032 A 
BRANCH  14  17
ATOM     17  O   UNL d   1      -5.314  -0.874  -1.639  0.00  0.00    -0.347 OA
BRANCH  17  18
ATOM     18  C   UNL d   1      -6.133  -0.345  -0.589  0.00  0.00     0.214 C 
BRANCH  18  19
ATOM     19  C   UNL d   1      -7.434  -1.109  -0.481  0.00  0.00    -0.034 A 
ATOM     20  C   UNL d   1      -7.509  -2.472  -0.798  0.00  0.00     0.009 A 
ATOM     21  C   UNL d   1      -8.700  -3.178  -0.622  0.00  0.00     0.001 A 
ATOM     22  C   UNL d   1      -9.824  -2.533  -0.112  0.00  0.00     0.000 A 
ATOM     23  C   UNL d   1      -9.759  -1.182   0.223  0.00  0.00     0.001 A 
ATOM     24  C   UNL d   1      -8.569  -0.474   0.044  0.00  0.00     0.009 A 
ENDBRANCH  18  19
ENDBRANCH  17  18
ENDBRANCH  14  17
ENDBRANCH   4  11
BRANCH   3  25
ATOM     25  C   UNL d   1       6.362  -0.248  -0.007  0.00  0.00     0.679 A 
ATOM     26  N   UNL d   1       6.929  -1.346  -0.534  0.00  0.00    -0.202 N 
ATOM     27  C   UNL d   1       8.221  -1.590  -0.242  0.00  0.00     0.107 A 
ATOM     28  HN  UNL d   1       6.398  -1.975  -1.136  1.00  0.00     0.183 HD
ATOM     29  C   UNL d   1       8.982  -0.785   0.562  0.00  0.00     0.035 A 
ATOM     30  C   UNL d   1       8.326   0.306   1.067  0.00  0.00     0.107 A 
ATOM     31  N   UNL d   1       7.036   0.586   0.803  0.00  0.00    -0.202 N 
ATOM     32  HN  UNL d   1       6.583   1.407   1.206  1.00  0.00     0.183 HD
ENDBRANCH   3  25
TORSDOF 5
