REMARK  5 active torsions:
REMARK  status: ('A' for Active; 'I' for Inactive)
REMARK    1  A    between atoms: C_2  and  C_1 
REMARK       I    between atoms: N_4  and  C_1 
REMARK    2  A    between atoms: C_3  and  C_2 
REMARK    3  A    between atoms: S_5  and  C_3 
REMARK    4  A    between atoms: C_11  and  N_4 
REMARK    5  A    between atoms: C_9  and  S_5 
ROOT
ATOM      1  C   UNL d   1       0.399  -0.875  -0.749  0.00  0.00     0.123 C 
ENDROOT
BRANCH   1   2
ATOM      2  C   UNL d   1      -0.691  -0.124  -1.508  0.00  0.00     0.223 C 
ATOM      3  N   UNL d   1      -0.267   0.596  -2.602  0.00  0.00    -0.326 N 
ATOM      4  H   UNL d   1       0.648   0.362  -2.978  0.00  0.00     0.169 HD
ATOM      5  O   UNL d   1      -1.841  -0.126  -1.070  0.00  0.00    -0.273 OA
BRANCH   3   6
ATOM      6  C   UNL d   1      -0.990   1.594  -3.291  0.00  0.00     0.050 A 
ATOM      7  C   UNL d   1      -2.226   2.099  -2.894  0.00  0.00     0.117 A 
ATOM      8  N   UNL d   1      -2.898   3.079  -3.553  0.00  0.00    -0.373 N 
ATOM      9  C   UNL d   1      -2.315   3.581  -4.659  0.00  0.00     0.088 A 
ATOM     10  HN  UNL d   1      -3.801   3.420  -3.224  1.00  0.00     0.164 HD
ATOM     11  C   UNL d   1      -1.085   3.158  -5.132  0.00  0.00     0.019 A 
ATOM     12  C   UNL d   1      -0.413   2.155  -4.432  0.00  0.00     0.032 A 
ENDBRANCH   3   6
ENDBRANCH   1   2
BRANCH   1  13
ATOM     13  C   UNL d   1       1.331  -1.821  -1.530  0.00  0.00     0.014 C 
ATOM     14  C   UNL d   1       2.209  -2.604  -0.533  0.00  0.00     0.027 C 
ATOM     15  C   UNL d   1       0.500  -2.848  -2.321  0.00  0.00     0.027 C 
BRANCH  13  16
ATOM     16  S   UNL d   1       2.435  -0.935  -2.753  0.00  0.00    -0.120 SA
BRANCH  16  17
ATOM     17  C   UNL d   1       3.362   0.177  -1.708  0.00  0.00     0.001 A 
ATOM     18  C   UNL d   1       4.608  -0.214  -1.208  0.00  0.00     0.020 A 
ATOM     19  C   UNL d   1       5.331   0.641  -0.367  0.00  0.00     0.025 A 
ATOM     20  C   UNL d   1       4.814   1.892  -0.039  0.00  0.00     0.034 A 
ATOM     21  C   UNL d   1       3.593   2.306  -0.562  0.00  0.00     0.025 A 
ATOM     22 CL   UNL d   1       5.688   2.933   1.014  0.00  0.00    -0.084 Cl
ATOM     23  C   UNL d   1       2.878   1.456  -1.407  0.00  0.00     0.020 A 
ENDBRANCH  16  17
ENDBRANCH  13  16
ENDBRANCH   1  13
TORSDOF 5
