REMARK  13 active torsions:
REMARK  status: ('A' for Active; 'I' for Inactive)
REMARK    1  A    between atoms: S_4  and  C_1 
REMARK    2  A    between atoms: S_5  and  C_1 
REMARK    3  A    between atoms: C_12  and  C_1 
REMARK    4  A    between atoms: C_2  and  C_8 
REMARK    5  A    between atoms: O_11  and  C_2 
REMARK    6  A    between atoms: C_3  and  C_9 
REMARK    7  A    between atoms: O_10  and  C_3 
REMARK    8  A    between atoms: C_8  and  S_4 
REMARK    9  A    between atoms: C_9  and  S_5 
REMARK   10  A    between atoms: C_14  and  C_12 
REMARK   11  A    between atoms: C_17  and  C_14 
REMARK   12  A    between atoms: C_15  and  C_16 
REMARK   13  A    between atoms: C_16  and  C_17 
ROOT
ATOM      1  C   UNL d   1       1.124  -0.028  -0.064  0.00  0.00     0.053 C 
ATOM      2  C   UNL d   1       2.658  -0.015  -0.082  0.00  0.00     0.039 C 
ENDROOT
BRANCH   1   3
ATOM      3  S   UNL d   1       0.439   1.692  -0.259  0.00  0.00    -0.138 SA
BRANCH   3   4
ATOM      4  C   UNL d   1       1.163   2.560   1.184  0.00  0.00     0.185 C 
BRANCH   4   5
ATOM      5  C   UNL d   1       0.792   4.033   1.214  0.00  0.00     0.149 C 
ATOM      6  O   UNL d   1       1.152   4.785   2.109  0.00  0.00    -0.649 OA
BRANCH   5   7
ATOM      7  O   UNL d   1       0.041   4.466   0.176  0.00  0.00    -0.776 OA
ATOM      8  H   UNL d   1      -0.163   3.728  -0.439  0.00  0.00     0.167 HD
ENDBRANCH   5   7
ENDBRANCH   4   5
ENDBRANCH   3   4
ENDBRANCH   1   3
BRANCH   1   9
ATOM      9  S   UNL d   1       0.437  -1.026  -1.485  0.00  0.00    -0.138 SA
BRANCH   9  10
ATOM     10  C   UNL d   1       1.257  -0.282  -2.944  0.00  0.00     0.185 C 
BRANCH  10  11
ATOM     11  C   UNL d   1       0.894  -1.023  -4.220  0.00  0.00     0.149 C 
ATOM     12  O   UNL d   1       1.301  -0.683  -5.323  0.00  0.00    -0.649 OA
BRANCH  11  13
ATOM     13  O   UNL d   1       0.099  -2.107  -4.060  0.00  0.00    -0.776 OA
ATOM     14  H   UNL d   1      -0.139  -2.219  -3.112  0.00  0.00     0.167 HD
ENDBRANCH  11  13
ENDBRANCH  10  11
ENDBRANCH   9  10
ENDBRANCH   1   9
BRANCH   1  15
ATOM     15  C   UNL d   1       0.576  -0.676   1.240  0.00  0.00     0.031 C 
BRANCH  15  16
ATOM     16  C   UNL d   1       1.037  -2.127   1.480  0.00  0.00     0.002 C 
BRANCH  16  17
ATOM     17  C   UNL d   1       0.421  -2.739   2.739  0.00  0.00     0.000 C 
BRANCH  17  18
ATOM     18  C   UNL d   1       0.906  -4.181   2.905  0.00  0.00    -0.000 C 
BRANCH  18  19
ATOM     19  C   UNL d   1       0.331  -4.842   4.154  0.00  0.00    -0.005 C 
ATOM     20  C   UNL d   1       0.838  -6.269   4.298  0.00  0.00     0.005 C 
ENDBRANCH  18  19
ENDBRANCH  17  18
ENDBRANCH  16  17
ENDBRANCH  15  16
ENDBRANCH   1  15
TORSDOF 13
