REMARK  5 active torsions:
REMARK  status: ('A' for Active; 'I' for Inactive)
REMARK    1  A    between atoms: C_12  and  N_2 
REMARK    2  A    between atoms: N_14  and  C_7 
REMARK    3  A    between atoms: C_15  and  C_12 
REMARK    4  A    between atoms: C_16  and  N_14 
REMARK    5  A    between atoms: C_17  and  N_14 
ROOT
ATOM      1  C   UNL d   1       0.385  -0.650   0.023  0.00  0.00     0.135 A 
ATOM      2  N   UNL d   1       1.456   1.234   0.057  0.00  0.00    -0.254 N 
ATOM      3  C   UNL d   1       0.192   0.723  -0.011  0.00  0.00     0.154 A 
ATOM      4  N   UNL d   1       2.379   0.254   0.189  0.00  0.00    -0.018 NA
ATOM      5  N   UNL d   1       1.731  -0.906   0.155  0.00  0.00    -0.277 N 
ATOM      6  HN  UNL d   1       2.158  -1.830   0.216  1.00  0.00     0.184 HD
ATOM      7  C   UNL d   1      -0.757  -1.471  -0.113  0.00  0.00     0.136 A 
ATOM      8  N   UNL d   1      -0.971   1.389  -0.108  0.00  0.00    -0.336 N 
ATOM      9  HN  UNL d   1      -1.062   2.405  -0.096  1.00  0.00     0.168 HD
ATOM     10  N   UNL d   1      -1.952  -0.818  -0.259  0.00  0.00    -0.337 N 
ATOM     11  HN  UNL d   1      -2.810  -1.352  -0.393  1.00  0.00     0.168 HD
ATOM     12  C   UNL d   1      -1.996   0.530  -0.224  0.00  0.00     0.183 A 
ENDROOT
BRANCH   2  13
ATOM     13  C   UNL d   1       1.842   2.630   0.083  0.00  0.00     0.187 C 
BRANCH  13  14
ATOM     14  C   UNL d   1       2.046   3.189  -1.304  0.00  0.00    -0.039 A 
ATOM     15  C   UNL d   1       1.018   3.894  -1.949  0.00  0.00     0.009 A 
ATOM     16  C   UNL d   1       1.211   4.417  -3.229  0.00  0.00     0.001 A 
ATOM     17  C   UNL d   1       2.429   4.236  -3.882  0.00  0.00     0.000 A 
ATOM     18  C   UNL d   1       3.454   3.529  -3.257  0.00  0.00     0.001 A 
ATOM     19  C   UNL d   1       3.264   3.006  -1.976  0.00  0.00     0.009 A 
ENDBRANCH  13  14
ENDBRANCH   2  13
BRANCH   7  20
ATOM     20  N   UNL d   1      -0.750  -2.858  -0.140  0.00  0.00    -0.366 N 
BRANCH  20  21
ATOM     21  C   UNL d   1       0.157  -3.616   0.713  0.00  0.00     0.120 C 
ATOM     22  C   UNL d   1       1.305  -4.214  -0.085  0.00  0.00     0.026 C 
ENDBRANCH  20  21
BRANCH  20  23
ATOM     23  C   UNL d   1      -1.815  -3.549  -0.861  0.00  0.00     0.120 C 
ATOM     24  C   UNL d   1      -3.060  -3.769  -0.017  0.00  0.00     0.026 C 
ENDBRANCH  20  23
ENDBRANCH   7  20
TORSDOF 5
