REMARK  9 active torsions:
REMARK  status: ('A' for Active; 'I' for Inactive)
REMARK    1  A    between atoms: N_2  and  S_1 
REMARK    2  A    between atoms: C_5  and  S_1 
REMARK    3  A    between atoms: C_3  and  N_2 
REMARK    4  A    between atoms: O_8  and  C_4 
REMARK    5  A    between atoms: C_13  and  O_8 
REMARK    6  A    between atoms: C_25  and  C_17 
REMARK    7  A    between atoms: C_27  and  C_25 
REMARK    8  A    between atoms: C_29  and  C_27 
REMARK    9  A    between atoms: C_28  and  C_29 
ROOT
ATOM      1  N   UNL d   1       1.349  -0.618  -1.720  0.00  0.00    -0.276 N 
ATOM      2  H   UNL d   1       0.451  -1.014  -1.989  0.00  0.00     0.179 HD
ENDROOT
BRANCH   1   3
ATOM      3  S   UNL d   1       1.327  -0.007  -0.138  0.00  0.00     0.263 S 
ATOM      4  O   UNL d   1       2.688   0.104   0.336  0.00  0.00    -0.200 OA
ATOM      5  O   UNL d   1       0.336  -0.782   0.578  0.00  0.00    -0.200 OA
BRANCH   3   6
ATOM      6  C   UNL d   1       0.661   1.642  -0.304  0.00  0.00     0.079 A 
ATOM      7  C   UNL d   1      -0.675   1.811  -0.684  0.00  0.00     0.026 A 
ATOM      8  C   UNL d   1      -1.202   3.101  -0.808  0.00  0.00     0.009 A 
ATOM      9  C   UNL d   1      -0.415   4.228  -0.526  0.00  0.00    -0.058 A 
ATOM     10  C   UNL d   1       0.916   4.040  -0.123  0.00  0.00     0.009 A 
ATOM     11  C   UNL d   1       1.457   2.753  -0.017  0.00  0.00     0.026 A 
BRANCH   9  12
ATOM     12  C   UNL d   1      -1.021   5.613  -0.592  0.00  0.00     0.038 C 
BRANCH  12  13
ATOM     13  C   UNL d   1      -0.325   6.593  -1.545  0.00  0.00     0.005 C 
BRANCH  13  14
ATOM     14  C   UNL d   1      -0.383   6.153  -3.010  0.00  0.00    -0.000 C 
BRANCH  14  15
ATOM     15  C   UNL d   1       0.294   7.179  -3.921  0.00  0.00    -0.005 C 
ATOM     16  C   UNL d   1       0.274   6.734  -5.374  0.00  0.00     0.005 C 
ENDBRANCH  14  15
ENDBRANCH  13  14
ENDBRANCH  12  13
ENDBRANCH   9  12
ENDBRANCH   3   6
ENDBRANCH   1   3
BRANCH   1  17
ATOM     17  C   UNL d   1       2.090   0.103  -2.705  0.00  0.00     0.094 A 
ATOM     18  C   UNL d   1       3.439  -0.138  -2.995  0.00  0.00     0.175 A 
ATOM     19  N   UNL d   1       4.159   0.635  -3.853  0.00  0.00    -0.345 N 
ATOM     20  C   UNL d   1       3.516   1.642  -4.473  0.00  0.00     0.090 A 
ATOM     21  HN  UNL d   1       5.149   0.457  -4.021  1.00  0.00     0.167 HD
ATOM     22  C   UNL d   1       2.174   1.921  -4.288  0.00  0.00     0.019 A 
ATOM     23  C   UNL d   1       1.453   1.135  -3.397  0.00  0.00     0.036 A 
BRANCH  18  24
ATOM     24  O   UNL d   1       4.058  -1.262  -2.454  0.00  0.00    -0.292 OA
BRANCH  24  25
ATOM     25  C   UNL d   1       4.990  -1.900  -3.254  0.00  0.00     0.078 A 
ATOM     26  C   UNL d   1       6.171  -2.337  -2.651  0.00  0.00     0.039 A 
ATOM     27  C   UNL d   1       7.150  -2.986  -3.418  0.00  0.00     0.026 A 
ATOM     28  C   UNL d   1       6.938  -3.203  -4.777  0.00  0.00     0.034 A 
ATOM     29  C   UNL d   1       5.749  -2.797  -5.380  0.00  0.00     0.026 A 
ATOM     30 CL   UNL d   1       8.148  -3.981  -5.723  0.00  0.00    -0.084 Cl
ATOM     31  C   UNL d   1       4.765  -2.163  -4.612  0.00  0.00     0.039 A 
ENDBRANCH  24  25
ENDBRANCH  18  24
ENDBRANCH   1  17
TORSDOF 9
