REMARK  4 active torsions:
REMARK  status: ('A' for Active; 'I' for Inactive)
REMARK    1  A    between atoms: C_9  and  N_1 
REMARK    2  A    between atoms: N_2  and  C_10 
REMARK    3  A    between atoms: C_16  and  C_9 
REMARK    4  A    between atoms: C_10  and  C_15 
ROOT
ATOM      1  C   UNL d   1       2.044  -1.523   2.726  0.00  0.00    -0.036 A 
ATOM      2  C   UNL d   1       1.384  -2.686   2.246  0.00  0.00    -0.032 A 
ATOM      3  C   UNL d   1       2.118  -3.891   2.161  0.00  0.00     0.009 A 
ATOM      4  C   UNL d   1       3.393  -1.633   3.136  0.00  0.00     0.009 A 
ATOM      5  C   UNL d   1       4.078  -2.845   3.082  0.00  0.00     0.001 A 
ATOM      6  C   UNL d   1       3.440  -3.975   2.593  0.00  0.00     0.001 A 
ENDROOT
BRANCH   1   7
ATOM      7  C   UNL d   1       1.383  -0.164   2.948  0.00  0.00     0.140 C 
BRANCH   7   8
ATOM      8  N   UNL d   1       0.923   0.602   1.748  0.00  0.00    -0.243 NA
ATOM      9  C   UNL d   1       2.005   0.936   0.865  0.00  0.00     0.032 A 
ATOM     10  C   UNL d   1       2.532   2.239   0.753  0.00  0.00     0.027 A 
ATOM     11  C   UNL d   1       2.509  -0.042  -0.010  0.00  0.00     0.025 A 
ATOM     12  C   UNL d   1       3.538   2.530  -0.184  0.00  0.00     0.021 A 
ATOM     13  S   UNL d   1       1.986   3.589   1.773  0.00  0.00    -0.087 SA
ATOM     14  C   UNL d   1       4.029   1.539  -1.026  0.00  0.00     0.001 A 
ATOM     15  C   UNL d   1       3.516   0.251  -0.937  0.00  0.00     0.002 A 
ATOM     16  C   UNL d   1       0.387   3.000   2.270  0.00  0.00     0.027 A 
ATOM     17  C   UNL d   1       0.033   1.636   2.236  0.00  0.00     0.032 A 
ATOM     18  C   UNL d   1      -0.516   3.956   2.764  0.00  0.00     0.021 A 
ATOM     19  C   UNL d   1      -1.247   1.276   2.700  0.00  0.00     0.025 A 
ATOM     20  C   UNL d   1      -2.136   2.232   3.199  0.00  0.00     0.002 A 
ATOM     21  C   UNL d   1      -1.772   3.575   3.228  0.00  0.00     0.001 A 
ENDBRANCH   7   8
ENDBRANCH   1   7
BRANCH   2  22
ATOM     22  C   UNL d   1      -0.069  -2.699   1.762  0.00  0.00     0.168 C 
BRANCH  22  23
ATOM     23  N   UNL d   1      -0.847  -3.902   2.182  0.00  0.00    -0.340 N 
ATOM     24  C   UNL d   1      -1.618  -4.594   1.206  0.00  0.00     0.052 A 
ATOM     25  C   UNL d   1      -2.003  -5.942   1.403  0.00  0.00     0.032 A 
ATOM     26  C   UNL d   1      -2.108  -3.964   0.044  0.00  0.00     0.031 A 
ATOM     27  C   UNL d   1      -2.833  -6.611   0.486  0.00  0.00     0.021 A 
ATOM     28  S   UNL d   1      -1.442  -6.891   2.805  0.00  0.00    -0.086 SA
ATOM     29  C   UNL d   1      -3.304  -5.954  -0.646  0.00  0.00     0.002 A 
ATOM     30  C   UNL d   1      -2.937  -4.637  -0.869  0.00  0.00     0.002 A 
ATOM     31  C   UNL d   1      -1.149  -5.577   3.972  0.00  0.00     0.032 A 
ATOM     32  C   UNL d   1      -0.873  -4.255   3.560  0.00  0.00     0.052 A 
ATOM     33  C   UNL d   1      -1.175  -5.924   5.333  0.00  0.00     0.021 A 
ATOM     34  C   UNL d   1      -0.664  -3.306   4.577  0.00  0.00     0.031 A 
ATOM     35  C   UNL d   1      -0.688  -3.653   5.931  0.00  0.00     0.002 A 
ATOM     36  C   UNL d   1      -0.940  -4.964   6.311  0.00  0.00     0.002 A 
ENDBRANCH  22  23
ENDBRANCH   2  22
TORSDOF 4
