REMARK  6 active torsions:
REMARK  status: ('A' for Active; 'I' for Inactive)
REMARK       I    between atoms: N_3  and  C_1 
REMARK       I    between atoms: N_8  and  C_1 
REMARK       I    between atoms: C_2  and  N_9 
REMARK    1  A    between atoms: O_4  and  C_2 
REMARK    2  A    between atoms: C_10  and  N_3 
REMARK    3  A    between atoms: C_7  and  O_4 
REMARK    4  A    between atoms: C_12  and  N_8 
REMARK    5  A    between atoms: N_9  and  C_11 
REMARK    6  A    between atoms: C_11  and  C_12 
ROOT
ATOM      1  C   UNL d   1       2.270  -2.237   1.414  0.00  0.00     0.320 C 
ATOM      2  N   UNL d   1       2.119  -3.405   2.137  0.00  0.00    -0.309 N 
ATOM      3  O   UNL d   1       2.071  -1.095   1.808  0.00  0.00    -0.247 OA
ATOM      4  N   UNL d   1       2.685  -2.503   0.123  0.00  0.00    -0.341 N 
ATOM      5  H   UNL d   1       2.503  -4.234   1.709  0.00  0.00     0.170 HD
ATOM      6  H   UNL d   1       3.269  -3.329   0.047  0.00  0.00     0.164 HD
ENDROOT
BRANCH   4   7
ATOM      7  C   UNL d   1       3.076  -1.418  -0.760  0.00  0.00     0.144 C 
BRANCH   7   8
ATOM      8  C   UNL d   1       4.544  -0.989  -0.581  0.00  0.00     0.144 C 
BRANCH   8   9
ATOM      9  N   UNL d   1       5.531  -1.954  -1.065  0.00  0.00    -0.335 N 
ATOM     10  C   UNL d   1       5.742  -3.166  -0.498  0.00  0.00     0.361 C 
ATOM     11  O   UNL d   1       5.013  -3.699   0.328  0.00  0.00    -0.238 OA
ATOM     12  H   UNL d   1       6.256  -1.639  -1.689  0.00  0.00     0.164 HD
BRANCH  10  13
ATOM     13  O   UNL d   1       6.864  -3.724  -1.020  0.00  0.00    -0.294 OA
BRANCH  13  14
ATOM     14  C   UNL d   1       7.224  -5.080  -0.647  0.00  0.00     0.061 C 
ATOM     15  C   UNL d   1       6.081  -6.058  -0.966  0.00  0.00     0.046 C 
ATOM     16  C   UNL d   1       8.445  -5.429  -1.515  0.00  0.00     0.046 C 
ATOM     17  C   UNL d   1       7.637  -5.151   0.829  0.00  0.00     0.046 C 
ENDBRANCH  13  14
ENDBRANCH  10  13
ENDBRANCH   8   9
ENDBRANCH   7   8
ENDBRANCH   4   7
BRANCH   2  18
ATOM     18  C   UNL d   1       1.701  -3.518   3.479  0.00  0.00     0.036 A 
ATOM     19  C   UNL d   1       1.118  -2.468   4.190  0.00  0.00     0.029 A 
ATOM     20  C   UNL d   1       0.806  -2.613   5.545  0.00  0.00     0.002 A 
ATOM     21  C   UNL d   1       1.061  -3.815   6.197  0.00  0.00     0.000 A 
ATOM     22  C   UNL d   1       1.594  -4.887   5.484  0.00  0.00     0.002 A 
ATOM     23  C   UNL d   1       1.901  -4.743   4.127  0.00  0.00     0.029 A 
ENDBRANCH   2  18
TORSDOF 6
