REMARK  6 active torsions:
REMARK  status: ('A' for Active; 'I' for Inactive)
REMARK    1  A    between atoms: C_5  and  C_1 
REMARK    2  A    between atoms: C_8  and  C_1 
REMARK    3  A    between atoms: C_3  and  C_2 
REMARK    4  A    between atoms: C_6  and  C_3 
REMARK    5  A    between atoms: C_4  and  C_5 
REMARK    6  A    between atoms: C_7  and  C_4 
ROOT
ATOM      1  C   UNL d   1       2.262  -0.045   0.436  0.00  0.00    -0.037 C 
ATOM      2  C   UNL d   1       2.804  -1.285   0.367  0.00  0.00     0.064 C 
ENDROOT
BRANCH   1   3
ATOM      3  C   UNL d   1       0.787   0.269   0.263  0.00  0.00     0.123 C 
BRANCH   3   4
ATOM      4  C   UNL d   1      -0.107   0.663   1.443  0.00  0.00     0.163 C 
ATOM      5  O   UNL d   1       0.303   0.855   2.578  0.00  0.00    -0.292 OA
BRANCH   4   6
ATOM      6  C   UNL d   1      -1.578   0.787   1.135  0.00  0.00     0.010 A 
ATOM      7  C   UNL d   1      -2.054   0.768  -0.185  0.00  0.00     0.015 A 
ATOM      8  C   UNL d   1      -3.422   0.817  -0.455  0.00  0.00     0.007 A 
ATOM      9  C   UNL d   1      -4.345   0.901   0.589  0.00  0.00    -0.062 A 
ATOM     10  C   UNL d   1      -3.874   0.933   1.909  0.00  0.00     0.007 A 
ATOM     11  C   UNL d   1      -5.814   0.880   0.292  0.00  0.00     0.048 C 
ATOM     12  C   UNL d   1      -2.499   0.886   2.182  0.00  0.00     0.015 A 
ENDBRANCH   4   6
ENDBRANCH   3   4
ENDBRANCH   1   3
BRANCH   1  13
ATOM     13  C   UNL d   1       3.187   1.146   0.448  0.00  0.00    -0.029 A 
ATOM     14  C   UNL d   1       4.437   1.093  -0.203  0.00  0.00     0.012 A 
ATOM     15  C   UNL d   1       5.212   2.241  -0.409  0.00  0.00     0.001 A 
ATOM     16  C   UNL d   1       4.753   3.477   0.027  0.00  0.00     0.000 A 
ATOM     17  C   UNL d   1       3.545   3.554   0.712  0.00  0.00     0.001 A 
ATOM     18  C   UNL d   1       2.779   2.401   0.930  0.00  0.00     0.012 A 
ENDBRANCH   1  13
BRANCH   2  19
ATOM     19  C   UNL d   1       2.258  -2.650   0.061  0.00  0.00     0.182 C 
ATOM     20  O   UNL d   1       2.745  -3.607   0.664  0.00  0.00    -0.288 OA
BRANCH  19  21
ATOM     21  C   UNL d   1       1.225  -2.909  -0.989  0.00  0.00     0.014 C 
ATOM     22  C   UNL d   1       0.849  -1.973  -1.957  0.00  0.00     0.016 C 
ATOM     23  C   UNL d   1      -0.302  -2.178  -2.728  0.00  0.00     0.007 C 
ATOM     24  C   UNL d   1      -1.025  -3.370  -2.626  0.00  0.00    -0.062 C 
ATOM     25  C   UNL d   1      -0.529  -4.389  -1.808  0.00  0.00     0.007 C 
ATOM     26  C   UNL d   1      -2.338  -3.518  -3.337  0.00  0.00     0.048 C 
ATOM     27  C   UNL d   1       0.581  -4.155  -0.988  0.00  0.00     0.016 C 
ENDBRANCH  19  21
ENDBRANCH   2  19
TORSDOF 6
