REMARK  3 active torsions:
REMARK  status: ('A' for Active; 'I' for Inactive)
REMARK    1  A    between atoms: C_16  and  N_7 
REMARK    2  A    between atoms: N_10  and  C_15 
REMARK    3  A    between atoms: C_24  and  C_16 
ROOT
ATOM      1  C   UNL d   1       1.189   0.928  -0.036  0.00  0.00     0.102 A 
ATOM      2  C   UNL d   1       0.725  -0.357   0.019  0.00  0.00     0.069 A 
ATOM      3  S   UNL d   1      -0.062   2.064  -0.069  0.00  0.00    -0.064 SA
ATOM      4  C   UNL d   1      -0.703  -0.459   0.001  0.00  0.00     0.032 A 
ATOM      5  C   UNL d   1       2.585   1.260  -0.051  0.00  0.00     0.268 A 
ATOM      6  C   UNL d   1      -1.245   0.828  -0.030  0.00  0.00     0.088 A 
ATOM      7  N   UNL d   1       3.400   0.131  -0.012  0.00  0.00    -0.305 N 
ATOM      8  N   UNL d   1       1.601  -1.454   0.088  0.00  0.00    -0.350 N 
ATOM      9  HN  UNL d   1       1.275  -2.419   0.147  1.00  0.00     0.166 HD
ATOM     10  C   UNL d   1       2.857  -1.138   0.070  0.00  0.00     0.187 A 
ATOM     11  N   UNL d   1      -2.551   1.161  -0.038  0.00  0.00    -0.354 N 
ATOM     12  HN  UNL d   1      -2.872   2.129  -0.059  1.00  0.00     0.166 HD
ATOM     13  C   UNL d   1      -1.623  -1.540   0.009  0.00  0.00    -0.045 A 
ATOM     14  O   UNL d   1       3.032   2.406  -0.076  0.00  0.00    -0.266 OA
ATOM     15  C   UNL d   1      -2.991  -1.213   0.002  0.00  0.00     0.032 A 
ATOM     16  C   UNL d   1      -3.399   0.117  -0.017  0.00  0.00     0.006 A 
ATOM     17  C   UNL d   1      -1.252  -2.998   0.012  0.00  0.00     0.049 C 
ATOM     18  C   UNL d   1      -4.868   0.433  -0.017  0.00  0.00     0.068 C 
ENDROOT
BRANCH   7  19
ATOM     19  C   UNL d   1       4.842   0.305   0.032  0.00  0.00     0.171 C 
BRANCH  19  20
ATOM     20  C   UNL d   1       5.494   0.315  -1.336  0.00  0.00    -0.040 A 
ATOM     21  C   UNL d   1       5.591   1.512  -2.065  0.00  0.00     0.011 A 
ATOM     22  C   UNL d   1       6.282   1.557  -3.280  0.00  0.00     0.037 A 
ATOM     23  C   UNL d   1       6.876   0.393  -3.778  0.00  0.00     0.102 A 
ATOM     24  C   UNL d   1       6.749  -0.819  -3.088  0.00  0.00     0.037 A 
ATOM     25  C   UNL d   1       6.055  -0.855  -1.873  0.00  0.00     0.011 A 
BRANCH  23  26
ATOM     26  N   UNL d   1       7.664   0.448  -5.017  0.00  0.00    -0.116 N 
ATOM     27  O   UNL d   1       7.774   1.544  -5.583  0.00  0.00    -0.532 OA
ATOM     28  O   UNL d   1       8.183  -0.605  -5.417  0.00  0.00    -0.532 OA
ENDBRANCH  23  26
ENDBRANCH  19  20
ENDBRANCH   7  19
TORSDOF 3
