REMARK  4 active torsions:
REMARK  status: ('A' for Active; 'I' for Inactive)
REMARK    1  A    between atoms: C_6  and  C_1 
REMARK    2  A    between atoms: C_7  and  C_6 
REMARK    3  A    between atoms: C_10  and  C_9 
REMARK    4  A    between atoms: O_13  and  C_10 
ROOT
ATOM      1  C   UNL d   1      -0.142  -1.341  -0.269  0.00  0.00     0.027 C 
ATOM      2  C   UNL d   1      -1.300  -0.524  -0.387  0.00  0.00    -0.041 C 
ATOM      3  C   UNL d   1       1.125  -0.778   0.035  0.00  0.00    -0.041 C 
ATOM      4  C   UNL d   1      -1.196   0.849  -0.085  0.00  0.00    -0.055 C 
ATOM      5  C   UNL d   1       1.234   0.622   0.161  0.00  0.00    -0.055 C 
ATOM      6  C   UNL d   1       0.069   1.405   0.144  0.00  0.00     0.014 C 
ATOM      7  C   UNL d   1       2.351  -1.648   0.175  0.00  0.00     0.049 C 
ATOM      8  C   UNL d   1      -2.635  -1.080  -0.829  0.00  0.00     0.049 C 
ATOM      9  C   UNL d   1      -2.388   1.769  -0.076  0.00  0.00     0.049 C 
ATOM     10  C   UNL d   1       2.543   1.351   0.321  0.00  0.00     0.049 C 
ENDROOT
BRANCH   1  11
ATOM     11  C   UNL d   1      -0.226  -2.803  -0.547  0.00  0.00     0.183 C 
ATOM     12  O   UNL d   1       0.508  -3.338  -1.370  0.00  0.00    -0.288 OA
BRANCH  11  13
ATOM     13  C   UNL d   1      -1.223  -3.593   0.227  0.00  0.00     0.062 C 
ATOM     14  C   UNL d   1      -1.478  -4.853  -0.150  0.00  0.00     0.085 C 
BRANCH  14  15
ATOM     15  C   UNL d   1      -2.563  -5.581   0.515  0.00  0.00     0.165 C 
ATOM     16  O   UNL d   1      -3.446  -5.057   1.166  0.00  0.00    -0.647 OA
BRANCH  15  17
ATOM     17  O   UNL d   1      -2.479  -6.913   0.307  0.00  0.00    -0.773 OA
ATOM     18  H   UNL d   1      -1.690  -7.207  -0.186  0.00  0.00     0.167 HD
ENDBRANCH  15  17
ENDBRANCH  14  15
ENDBRANCH  11  13
ENDBRANCH   1  11
TORSDOF 4
