REMARK  3 active torsions:
REMARK  status: ('A' for Active; 'I' for Inactive)
REMARK    1  A    between atoms: C_5  and  C_1 
REMARK    2  A    between atoms: C_2  and  C_10 
REMARK    3  A    between atoms: C_16  and  N_8 
ROOT
ATOM      1  C   UNL d   1       0.596   6.516  -0.649  0.00  0.00     0.012 A 
ATOM      2  C   UNL d   1       0.263   5.160  -0.792  0.00  0.00     0.044 A 
ATOM      3  C   UNL d   1      -0.704   4.556   0.018  0.00  0.00     0.032 A 
ATOM      4  C   UNL d   1      -0.102   7.289   0.288  0.00  0.00     0.015 A 
ATOM      5  C   UNL d   1      -1.097   6.707   1.077  0.00  0.00     0.003 A 
ATOM      6  C   UNL d   1      -1.388   5.348   0.943  0.00  0.00     0.029 A 
ENDROOT
BRANCH   3   7
ATOM      7  N   UNL d   1      -1.048   3.194  -0.084  0.00  0.00    -0.365 N 
ATOM      8  C   UNL d   1      -0.104   2.325  -0.272  0.00  0.00     0.104 C 
ATOM      9  HN  UNL d   1      -2.021   2.897  -0.013  1.00  0.00     0.165 HD
BRANCH   8  10
ATOM     10  C   UNL d   1      -0.352   0.872  -0.391  0.00  0.00     0.040 A 
ATOM     11  C   UNL d   1      -1.610   0.336  -0.097  0.00  0.00     0.129 A 
ATOM     12  F   UNL d   1      -2.634   1.109   0.290  0.00  0.00    -0.205 F 
ATOM     13  C   UNL d   1      -1.844  -1.037  -0.175  0.00  0.00     0.043 A 
ATOM     14  C   UNL d   1      -0.819  -1.900  -0.553  0.00  0.00     0.005 A 
ATOM     15  C   UNL d   1       0.438  -1.381  -0.859  0.00  0.00     0.025 A 
ATOM     16  C   UNL d   1       0.674  -0.002  -0.780  0.00  0.00     0.048 A 
ATOM     17 CL   UNL d   1       2.267   0.533  -1.198  0.00  0.00    -0.083 Cl
ENDBRANCH   8  10
ENDBRANCH   3   7
BRANCH   1  18
ATOM     18  C   UNL d   1       1.676   7.075  -1.452  0.00  0.00     0.137 A 
ATOM     19  N   UNL d   1       2.412   6.299  -2.328  0.00  0.00    -0.329 N 
ATOM     20  C   UNL d   1       3.287   7.152  -2.788  0.00  0.00     0.261 A 
ATOM     21  HN  UNL d   1       2.300   5.311  -2.557  1.00  0.00     0.168 HD
ATOM     22  O   UNL d   1       3.162   8.400  -2.277  0.00  0.00    -0.231 OA
ATOM     23  N   UNL d   1       2.089   8.354  -1.387  0.00  0.00    -0.243 N 
ATOM     24  HN  UNL d   1       1.708   9.111  -0.821  1.00  0.00     0.196 HD
ENDBRANCH   1  18
TORSDOF 3
