REMARK  8 active torsions:
REMARK  status: ('A' for Active; 'I' for Inactive)
REMARK    1  A    between atoms: C_14  and  N_3 
REMARK    2  A    between atoms: C_17  and  C_5 
REMARK    3  A    between atoms: C_12  and  N_15 
REMARK    4  A    between atoms: N_21  and  C_12 
REMARK    5  A    between atoms: C_13  and  C_14 
REMARK       I    between atoms: N_16  and  C_13 
REMARK    6  A    between atoms: N_15  and  N_16 
REMARK    7  A    between atoms: C_24  and  N_21 
REMARK    8  A    between atoms: C_22  and  C_24 
ROOT
ATOM      1  C   UNL d   1       0.070  -0.613   0.123  0.00  0.00     0.710 A 
ATOM      2  N   UNL d   1      -0.076   0.688   0.570  0.00  0.00    -0.047 N 
ATOM      3  N   UNL d   1      -1.020  -1.451   0.139  0.00  0.00    -0.172 N 
ATOM      4  C   UNL d   1      -2.406   0.326   1.038  0.00  0.00     0.108 A 
ATOM      5  C   UNL d   1      -2.241  -0.943   0.619  0.00  0.00     0.068 A 
ATOM      6  C   UNL d   1      -1.259   1.258   1.028  0.00  0.00     0.284 A 
ATOM      7  N   UNL d   1       1.321  -0.792  -0.236  0.00  0.00    -0.184 N 
ATOM      8  HN  UNL d   1       1.750  -1.634  -0.619  1.00  0.00     0.185 HD
ATOM      9  N   UNL d   1       1.109   1.355   0.508  0.00  0.00    -0.272 N 
ATOM     10  HN  UNL d   1       1.325   2.318   0.764  1.00  0.00     0.189 HD
ATOM     11  C   UNL d   1       1.911   0.410   0.022  0.00  0.00     0.216 A 
ATOM     12  O   UNL d   1      -1.333   2.425   1.391  0.00  0.00    -0.266 OA
ENDROOT
BRANCH   3  13
ATOM     13  C   UNL d   1      -0.872  -2.877  -0.279  0.00  0.00     0.245 C 
BRANCH  13  14
ATOM     14  C   UNL d   1       0.529  -3.324  -0.683  0.00  0.00     0.230 C 
ATOM     15  N   UNL d   1       1.458  -3.595   0.305  0.00  0.00    -0.188 NA
ATOM     16  H   UNL d   1       2.368  -3.762  -0.119  0.00  0.00     0.150 HD
ATOM     17  O   UNL d   1       0.877  -3.408  -1.866  0.00  0.00    -0.277 OA
BRANCH  15  18
ATOM     18  N   UNL d   1       1.150  -4.499   1.363  0.00  0.00    -0.196 NA
ATOM     19  H   UNL d   1       1.719  -5.343   1.307  0.00  0.00     0.149 HD
BRANCH  18  20
ATOM     20  C   UNL d   1       1.089  -4.004   2.648  0.00  0.00     0.160 C 
ATOM     21  S   UNL d   1      -0.060  -2.963   3.252  0.00  0.00    -0.046 SA
BRANCH  20  22
ATOM     22  N   UNL d   1       2.004  -4.522   3.520  0.00  0.00    -0.367 N 
ATOM     23  H   UNL d   1       1.783  -4.245   4.471  0.00  0.00     0.161 HD
BRANCH  22  24
ATOM     24  C   UNL d   1       3.428  -4.495   3.254  0.00  0.00     0.148 C 
BRANCH  24  25
ATOM     25  C   UNL d   1       3.985  -5.828   3.621  0.00  0.00    -0.018 C 
ATOM     26  C   UNL d   1       4.755  -6.567   2.812  0.00  0.00     0.008 C 
ENDBRANCH  24  25
ENDBRANCH  22  24
ENDBRANCH  20  22
ENDBRANCH  18  20
ENDBRANCH  15  18
ENDBRANCH  13  14
ENDBRANCH   3  13
BRANCH   5  27
ATOM     27  C   UNL d   1      -3.433  -1.806   0.722  0.00  0.00    -0.009 A 
ATOM     28  C   UNL d   1      -4.265  -2.009  -0.385  0.00  0.00     0.014 A 
ATOM     29  C   UNL d   1      -5.433  -2.766  -0.256  0.00  0.00     0.001 A 
ATOM     30  C   UNL d   1      -5.775  -3.323   0.976  0.00  0.00     0.000 A 
ATOM     31  C   UNL d   1      -4.951  -3.126   2.083  0.00  0.00     0.001 A 
ATOM     32  C   UNL d   1      -3.788  -2.367   1.957  0.00  0.00     0.014 A 
ENDBRANCH   5  27
TORSDOF 8
