REMARK  4 active torsions:
REMARK  status: ('A' for Active; 'I' for Inactive)
REMARK    1  A    between atoms: S_10  and  C_1 
REMARK       I    between atoms: C_3  and  N_6 
REMARK    2  A    between atoms: C_8  and  C_3 
REMARK    3  A    between atoms: C_11  and  C_4 
REMARK    4  A    between atoms: N_6  and  C_11 
ROOT
ATOM      1  C   UNL d   1       0.958  -4.871  -0.075  0.00  0.00     0.251 C 
ATOM      2  N   UNL d   1       1.060  -3.498  -0.168  0.00  0.00    -0.352 N 
ATOM      3  O   UNL d   1      -0.093  -5.453   0.161  0.00  0.00    -0.268 OA
ATOM      4  H   UNL d   1       1.970  -3.064  -0.076  0.00  0.00     0.163 HD
ENDROOT
BRANCH   2   5
ATOM      5  C   UNL d   1      -0.111  -2.673   0.022  0.00  0.00     0.169 C 
BRANCH   5   6
ATOM      6  C   UNL d   1       0.273  -1.234  -0.108  0.00  0.00     0.001 A 
ATOM      7  S   UNL d   1       0.771  -0.350   1.273  0.00  0.00    -0.086 SA
ATOM      8  C   UNL d   1       0.980   1.094   0.378  0.00  0.00     0.041 A 
ATOM      9  C   UNL d   1       0.696   0.900  -0.957  0.00  0.00     0.027 A 
ATOM     10  C   UNL d   1       0.288  -0.440  -1.237  0.00  0.00     0.018 A 
BRANCH   8  11
ATOM     11  S   UNL d   1       1.540   2.560   1.169  0.00  0.00    -0.127 SA
ATOM     12  C   UNL d   1       0.746   3.862   0.204  0.00  0.00     0.096 C 
ENDBRANCH   8  11
ENDBRANCH   5   6
ENDBRANCH   2   5
BRANCH   1  13
ATOM     13  C   UNL d   1       2.212  -5.644  -0.275  0.00  0.00     0.032 A 
ATOM     14  C   UNL d   1       2.354  -6.885   0.363  0.00  0.00     0.018 A 
ATOM     15  C   UNL d   1       3.490  -7.668   0.136  0.00  0.00     0.025 A 
ATOM     16  C   UNL d   1       4.478  -7.217  -0.738  0.00  0.00     0.034 A 
ATOM     17  C   UNL d   1       4.347  -5.983  -1.376  0.00  0.00     0.025 A 
ATOM     18 CL   UNL d   1       5.857  -8.196  -1.051  0.00  0.00    -0.084 Cl
ATOM     19  C   UNL d   1       3.216  -5.194  -1.145  0.00  0.00     0.018 A 
ENDBRANCH   1  13
TORSDOF 4
