REMARK  3 active torsions:
REMARK  status: ('A' for Active; 'I' for Inactive)
REMARK    1  A    between atoms: C_3  and  C_1 
REMARK       I    between atoms: N_7  and  C_3 
REMARK    2  A    between atoms: C_16  and  N_7 
REMARK    3  A    between atoms: C_15  and  C_16 
ROOT
ATOM      1  C   UNL d   1       3.623  -1.428   0.077  0.00  0.00     0.250 C 
ATOM      2  N   UNL d   1       4.860  -0.842  -0.015  0.00  0.00    -0.353 N 
ATOM      3  O   UNL d   1       2.568  -0.807   0.008  0.00  0.00    -0.268 OA
ATOM      4  H   UNL d   1       5.695  -1.387   0.136  0.00  0.00     0.163 HD
ENDROOT
BRANCH   1   5
ATOM      5  C   UNL d   1       3.616  -2.897   0.329  0.00  0.00     0.034 C 
ATOM      6  C   UNL d   1       4.619  -3.705  -0.037  0.00  0.00     0.029 C 
ATOM      7  C   UNL d   1       4.477  -5.128   0.248  0.00  0.00    -0.002 A 
ATOM      8  C   UNL d   1       5.401  -6.053  -0.249  0.00  0.00     0.014 A 
ATOM      9  C   UNL d   1       3.432  -5.571   1.064  0.00  0.00     0.079 A 
ATOM     10  C   UNL d   1       5.280  -7.407   0.070  0.00  0.00     0.001 A 
ATOM     11  C   UNL d   1       4.244  -7.841   0.897  0.00  0.00     0.003 A 
ATOM     12  C   UNL d   1       3.323  -6.921   1.399  0.00  0.00     0.037 A 
ATOM     13  O   UNL d   1       2.509  -4.722   1.614  0.00  0.00    -0.346 OA
ATOM     14  C   UNL d   1       2.363  -3.446   0.958  0.00  0.00     0.220 C 
ENDBRANCH   1   5
BRANCH   2  15
ATOM     15  C   UNL d   1       5.035   0.581  -0.205  0.00  0.00     0.161 C 
BRANCH  15  16
ATOM     16  C   UNL d   1       5.744   0.890  -1.503  0.00  0.00    -0.040 A 
ATOM     17  C   UNL d   1       5.142   0.564  -2.731  0.00  0.00     0.018 A 
ATOM     18  C   UNL d   1       5.792   0.907  -3.905  0.00  0.00    -0.022 A 
ATOM     19  C   UNL d   1       5.349   0.759  -5.309  0.00  0.00     0.068 C 
ATOM     20  C   UNL d   1       7.005   1.576  -3.879  0.00  0.00     0.075 A 
ATOM     21  C   UNL d   1       6.663   1.101  -6.014  0.00  0.00     0.180 C 
ATOM     22  O   UNL d   1       7.495   1.879  -5.122  0.00  0.00    -0.350 OA
ATOM     23  C   UNL d   1       7.620   1.920  -2.695  0.00  0.00     0.038 A 
ATOM     24  C   UNL d   1       6.985   1.567  -1.498  0.00  0.00     0.011 A 
ENDBRANCH  15  16
ENDBRANCH   2  15
TORSDOF 3
