REMARK  3 active torsions:
REMARK  status: ('A' for Active; 'I' for Inactive)
REMARK    1  A    between atoms: C_8  and  C_2 
REMARK       I    between atoms: C_5  and  N_3 
REMARK       I    between atoms: N_7  and  C_5 
REMARK    2  A    between atoms: C_9  and  N_7 
REMARK    3  A    between atoms: O_21  and  C_16 
ROOT
ATOM      1  C   UNL d   1       1.041  -0.777   0.279  0.00  0.00     0.049 A 
ATOM      2  C   UNL d   1       2.458  -1.299   0.367  0.00  0.00     0.246 C 
ATOM      3  N   UNL d   1       3.364  -0.208  -0.109  0.00  0.00    -0.315 N 
ATOM      4  C   UNL d   1       0.643   0.531   0.075  0.00  0.00    -0.019 A 
ATOM      5  C   UNL d   1       4.609  -0.390  -0.701  0.00  0.00     0.324 C 
ATOM      6  N   UNL d   1      -0.090  -1.558   0.340  0.00  0.00    -0.356 N 
ATOM      7  N   UNL d   1       5.005  -1.702  -0.885  0.00  0.00    -0.305 N 
ATOM      8  C   UNL d   1      -0.778   0.555   0.054  0.00  0.00    -0.001 A 
ATOM      9  C   UNL d   1      -1.208  -0.767   0.196  0.00  0.00     0.043 A 
ATOM     10  C   UNL d   1       3.026   1.160   0.345  0.00  0.00     0.133 C 
ATOM     11  C   UNL d   1       1.634   1.622  -0.122  0.00  0.00     0.061 C 
ATOM     12  O   UNL d   1       5.292   0.570  -1.060  0.00  0.00    -0.247 OA
ATOM     13  C   UNL d   1      -1.746   1.566  -0.089  0.00  0.00     0.014 A 
ATOM     14  C   UNL d   1      -2.561  -1.129   0.173  0.00  0.00     0.030 A 
ATOM     15  C   UNL d   1      -3.106   1.224  -0.091  0.00  0.00     0.001 A 
ATOM     16  C   UNL d   1      -3.502  -0.107   0.028  0.00  0.00     0.002 A 
ATOM     17  H   UNL d   1      -0.119  -2.555   0.475  0.00  0.00     0.166 HD
ATOM     18  H   UNL d   1       4.252  -2.323  -1.079  0.00  0.00     0.171 HD
ENDROOT
BRANCH   2  19
ATOM     19  C   UNL d   1       2.843  -1.900   1.748  0.00  0.00     0.413 C 
ATOM     20  F   UNL d   1       1.796  -1.956   2.605  0.00  0.00    -0.168 F 
ATOM     21  F   UNL d   1       3.268  -3.180   1.579  0.00  0.00    -0.168 F 
ATOM     22  F   UNL d   1       3.834  -1.224   2.365  0.00  0.00    -0.168 F 
ENDBRANCH   2  19
BRANCH   7  23
ATOM     23  C   UNL d   1       6.196  -1.979  -1.621  0.00  0.00     0.091 A 
ATOM     24  C   UNL d   1       7.450  -1.526  -1.147  0.00  0.00     0.063 A 
ATOM     25 CL   UNL d   1       7.658  -0.880   0.450  0.00  0.00    -0.082 Cl
ATOM     26  C   UNL d   1       8.606  -1.657  -1.925  0.00  0.00     0.026 A 
ATOM     27  C   UNL d   1       8.538  -2.261  -3.175  0.00  0.00     0.005 A 
ATOM     28  C   UNL d   1       7.319  -2.761  -3.630  0.00  0.00     0.039 A 
ATOM     29  C   UNL d   1       6.147  -2.648  -2.862  0.00  0.00     0.096 A 
BRANCH  29  30
ATOM     30  O   UNL d   1       5.041  -3.082  -3.547  0.00  0.00    -0.354 OA
ATOM     31  C   UNL d   1       4.023  -3.779  -2.850  0.00  0.00     0.210 C 
ENDBRANCH  29  30
ENDBRANCH   7  23
TORSDOF 3
