REMARK  2 active torsions:
REMARK  status: ('A' for Active; 'I' for Inactive)
REMARK    1  A    between atoms: C_9  and  N_4 
REMARK    2  A    between atoms: C_13  and  C_9 
ROOT
ATOM      1  N   UNL d   1      -0.936   0.448   0.010  0.00  0.00    -0.248 N 
ATOM      2  C   UNL d   1      -1.763  -0.616   0.138  0.00  0.00     0.117 A 
ATOM      3  C   UNL d   1      -1.768   1.544  -0.131  0.00  0.00     0.350 A 
ATOM      4  N   UNL d   1      -3.067   1.017  -0.099  0.00  0.00    -0.234 N 
ATOM      5  N   UNL d   1      -3.035  -0.342   0.074  0.00  0.00    -0.281 N 
ATOM      6  HN  UNL d   1      -3.823  -0.987   0.139  1.00  0.00     0.188 HD
ATOM      7  C   UNL d   1       0.476   0.397   0.001  0.00  0.00     0.062 A 
ATOM      8  S   UNL d   1       0.251  -2.363  -0.473  0.00  0.00    -0.120 SA
ATOM      9  C   UNL d   1      -1.254  -1.989   0.441  0.00  0.00     0.158 C 
ATOM     10  C   UNL d   1       1.135  -0.841  -0.155  0.00  0.00     0.028 A 
ATOM     11  O   UNL d   1      -1.487   2.722  -0.307  0.00  0.00    -0.244 OA
ATOM     12  C   UNL d   1       1.258   1.553   0.132  0.00  0.00     0.031 A 
ATOM     13  C   UNL d   1       2.535  -0.908  -0.144  0.00  0.00     0.021 A 
ATOM     14  C   UNL d   1       2.656   1.476   0.152  0.00  0.00     0.002 A 
ATOM     15  C   UNL d   1       3.294   0.246   0.023  0.00  0.00     0.002 A 
ENDROOT
BRANCH   4  16
ATOM     16  C   UNL d   1      -4.297   1.755  -0.239  0.00  0.00     0.231 C 
BRANCH  16  17
ATOM     17  C   UNL d   1      -4.870   2.219   1.095  0.00  0.00     0.142 C 
ATOM     18  O   UNL d   1      -4.314   2.045   2.180  0.00  0.00    -0.297 OA
ATOM     19  C   UNL d   1      -6.195   2.940   1.027  0.00  0.00     0.093 C 
ENDBRANCH  16  17
ENDBRANCH   4  16
TORSDOF 2
