REMARK  5 active torsions:
REMARK  status: ('A' for Active; 'I' for Inactive)
REMARK    1  A    between atoms: C_2  and  C_1 
REMARK       I    between atoms: N_5  and  C_2 
REMARK    2  A    between atoms: C_4  and  C_3 
REMARK    3  A    between atoms: C_11  and  N_5 
REMARK    4  A    between atoms: O_20  and  C_10 
REMARK    5  A    between atoms: C_13  and  C_11 
ROOT
ATOM      1  C   UNL d   1       0.298   1.188   0.118  0.00  0.00     0.062 A 
ATOM      2  C   UNL d   1       0.186   0.101   0.990  0.00  0.00     0.069 A 
ATOM      3  C   UNL d   1      -0.203   1.032  -1.175  0.00  0.00     0.108 A 
ATOM      4  N   UNL d   1      -0.910  -0.040  -1.605  0.00  0.00    -0.346 N 
ATOM      5  HN  UNL d   1      -1.295  -0.083  -2.549  1.00  0.00     0.167 HD
ATOM      6  C   UNL d   1      -0.537  -1.030   0.548  0.00  0.00     0.073 A 
ATOM      7  C   UNL d   1      -1.079  -1.042  -0.730  0.00  0.00     0.142 A 
ENDROOT
BRANCH   1   8
ATOM      8  C   UNL d   1       1.013   2.449   0.412  0.00  0.00     0.255 C 
ATOM      9  N   UNL d   1       0.400   3.684   0.167  0.00  0.00    -0.348 N 
ATOM     10  C   UNL d   1      -0.989   3.905  -0.235  0.00  0.00     0.153 C 
ATOM     11  O   UNL d   1       2.175   2.338   0.798  0.00  0.00    -0.267 OA
BRANCH   9  12
ATOM     12  C   UNL d   1       1.212   4.890   0.323  0.00  0.00     0.164 C 
BRANCH  12  13
ATOM     13  C   UNL d   1       1.162   5.508   1.702  0.00  0.00    -0.039 A 
ATOM     14  C   UNL d   1       0.157   6.422   2.058  0.00  0.00     0.032 A 
ATOM     15  C   UNL d   1       0.193   7.057   3.302  0.00  0.00     0.034 A 
ATOM     16 CL   UNL d   1      -1.026   8.203   3.710  0.00  0.00    -0.084 Cl
ATOM     17  C   UNL d   1       1.216   6.788   4.207  0.00  0.00     0.024 A 
ATOM     18  C   UNL d   1       2.201   5.859   3.876  0.00  0.00     0.002 A 
ATOM     19  C   UNL d   1       2.167   5.218   2.636  0.00  0.00     0.009 A 
ENDBRANCH  12  13
ENDBRANCH   9  12
ENDBRANCH   1   8
BRANCH   2  20
ATOM     20  C   UNL d   1       0.768   0.011   2.376  0.00  0.00     0.418 C 
ATOM     21  F   UNL d   1       1.498   1.061   2.817  0.00  0.00    -0.166 F 
ATOM     22  F   UNL d   1      -0.217  -0.156   3.309  0.00  0.00    -0.166 F 
ATOM     23  F   UNL d   1       1.568  -1.087   2.511  0.00  0.00    -0.166 F 
ENDBRANCH   2  20
BRANCH   7  24
ATOM     24  O   UNL d   1      -1.812  -2.153  -1.076  0.00  0.00    -0.341 OA
ATOM     25  C   UNL d   1      -2.442  -2.028  -2.349  0.00  0.00     0.211 C 
ENDBRANCH   7  24
TORSDOF 5
