REMARK  11 active torsions:
REMARK  status: ('A' for Active; 'I' for Inactive)
REMARK    1  A    between atoms: C_9  and  C_1 
REMARK    2  A    between atoms: C_10  and  C_2 
REMARK    3  A    between atoms: C_11  and  C_2 
REMARK    4  A    between atoms: N_12  and  C_5 
REMARK    5  A    between atoms: C_6  and  N_12 
REMARK    6  A    between atoms: O_16  and  C_9 
REMARK    7  A    between atoms: O_18  and  C_10 
REMARK    8  A    between atoms: O_17  and  C_11 
REMARK    9  A    between atoms: C_19  and  O_16 
REMARK   10  A    between atoms: C_21  and  O_17 
REMARK   11  A    between atoms: C_20  and  O_18 
ROOT
ATOM      1  N   UNL d   1       0.173  -2.552   0.099  0.00  0.00    -0.345 N 
ATOM      2  H   UNL d   1      -0.773  -2.871   0.301  0.00  0.00     0.167 HD
ENDROOT
BRANCH   1   3
ATOM      3  C   UNL d   1       1.110  -3.559   0.011  0.00  0.00     0.114 C 
ATOM      4  C   UNL d   1       0.924  -4.895  -0.010  0.00  0.00     0.129 C 
BRANCH   4   5
ATOM      5  C   UNL d   1      -0.421  -5.518  -0.100  0.00  0.00     0.300 C 
ATOM      6  O   UNL d   1      -0.635  -6.620  -0.582  0.00  0.00    -0.259 OA
BRANCH   5   7
ATOM      7  O   UNL d   1      -1.397  -4.652   0.298  0.00  0.00    -0.318 OA
BRANCH   7   8
ATOM      8  C   UNL d   1      -2.712  -4.941  -0.202  0.00  0.00     0.174 C 
ATOM      9  C   UNL d   1      -2.838  -4.325  -1.586  0.00  0.00     0.034 C 
ENDBRANCH   7   8
ENDBRANCH   5   7
ENDBRANCH   4   5
BRANCH   4  10
ATOM     10  C   UNL d   1       2.142  -5.725  -0.131  0.00  0.00     0.300 C 
ATOM     11  O   UNL d   1       3.217  -5.313  -0.556  0.00  0.00    -0.259 OA
BRANCH  10  12
ATOM     12  O   UNL d   1       1.897  -6.995   0.266  0.00  0.00    -0.318 OA
BRANCH  12  13
ATOM     13  C   UNL d   1       2.828  -7.979  -0.204  0.00  0.00     0.174 C 
ATOM     14  C   UNL d   1       2.405  -8.413  -1.597  0.00  0.00     0.034 C 
ENDBRANCH  12  13
ENDBRANCH  10  12
ENDBRANCH   4  10
ENDBRANCH   1   3
BRANCH   1  15
ATOM     15  C   UNL d   1       0.383  -1.219   0.089  0.00  0.00     0.149 A 
ATOM     16  N   UNL d   1       1.462  -0.609  -0.346  0.00  0.00    -0.331 N 
ATOM     17  C   UNL d   1       1.316   0.776  -0.249  0.00  0.00     0.117 A 
ATOM     18  HN  UNL d   1       2.291  -1.082  -0.705  1.00  0.00     0.168 HD
ATOM     19  C   UNL d   1       0.143   1.179   0.362  0.00  0.00     0.089 A 
ATOM     20  S   UNL d   1      -0.852  -0.172   0.680  0.00  0.00    -0.063 SA
BRANCH  17  21
ATOM     21  C   UNL d   1       2.281   1.720  -0.810  0.00  0.00     0.310 C 
ATOM     22  O   UNL d   1       2.143   2.937  -0.734  0.00  0.00    -0.258 OA
BRANCH  21  23
ATOM     23  O   UNL d   1       3.263   1.096  -1.524  0.00  0.00    -0.317 OA
BRANCH  23  24
ATOM     24  C   UNL d   1       3.942   1.919  -2.479  0.00  0.00     0.175 C 
ATOM     25  C   UNL d   1       3.145   1.901  -3.772  0.00  0.00     0.034 C 
ENDBRANCH  23  24
ENDBRANCH  21  23
ENDBRANCH  17  21
ENDBRANCH   1  15
TORSDOF 11
