REMARK  3 active torsions:
REMARK  status: ('A' for Active; 'I' for Inactive)
REMARK    1  A    between atoms: N_2  and  C_1 
REMARK    2  A    between atoms: N_8  and  C_3 
REMARK    3  A    between atoms: N_9  and  C_6 
ROOT
ATOM      1  C   UNL d   1       1.639  -1.246  -0.082  0.00  0.00     0.131 A 
ATOM      2  C   UNL d   1       2.470  -0.114  -0.031  0.00  0.00     0.066 A 
ATOM      3  C   UNL d   1       0.239  -1.170  -0.161  0.00  0.00     0.064 A 
ATOM      4  C   UNL d   1       1.779   1.121  -0.038  0.00  0.00     0.063 A 
ATOM      5  C   UNL d   1       0.369   1.257  -0.018  0.00  0.00     0.054 A 
ATOM      6  C   UNL d   1      -0.388   0.073  -0.114  0.00  0.00     0.063 A 
ATOM      7 CL   UNL d   1      -2.119   0.060  -0.039  0.00  0.00    -0.082 Cl
ENDROOT
BRANCH   2   8
ATOM      8  N   UNL d   1       3.852  -0.126   0.080  0.00  0.00    -0.379 N 
ATOM      9  C   UNL d   1       4.573   0.954   0.770  0.00  0.00     0.123 C 
ATOM     10  C   UNL d   1       5.557   0.333   1.759  0.00  0.00     0.020 C 
ATOM     11  C   UNL d   1       6.502  -0.645   1.069  0.00  0.00     0.003 C 
ATOM     12  C   UNL d   1       5.738  -1.678   0.237  0.00  0.00     0.020 C 
ATOM     13  C   UNL d   1       4.720  -1.020  -0.698  0.00  0.00     0.123 C 
ENDBRANCH   2   8
BRANCH   1  14
ATOM     14  N   UNL d   1       2.163  -2.582   0.106  0.00  0.00    -0.113 N 
ATOM     15  O   UNL d   1       2.589  -2.882   1.228  0.00  0.00    -0.532 OA
ATOM     16  O   UNL d   1       2.081  -3.353  -0.863  0.00  0.00    -0.532 OA
ENDBRANCH   1  14
BRANCH   5  17
ATOM     17  N   UNL d   1      -0.220   2.510   0.195  0.00  0.00    -0.379 N 
ATOM     18  C   UNL d   1       0.518   3.514   0.974  0.00  0.00     0.123 C 
ATOM     19  C   UNL d   1      -0.478   4.473   1.624  0.00  0.00     0.020 C 
ATOM     20  C   UNL d   1      -1.432   5.079   0.597  0.00  0.00     0.003 C 
ATOM     21  C   UNL d   1      -2.079   4.001  -0.275  0.00  0.00     0.020 C 
ATOM     22  C   UNL d   1      -1.026   3.076  -0.893  0.00  0.00     0.123 C 
ENDBRANCH   5  17
TORSDOF 3
