REMARK  2 active torsions:
REMARK  status: ('A' for Active; 'I' for Inactive)
REMARK    1  A    between atoms: C_6  and  C_2 
REMARK    2  A    between atoms: C_3  and  C_10 
ROOT
ATOM      1  C   UNL d   1      -0.285   0.552   0.605  0.00  0.00     0.150 A 
ATOM      2  C   UNL d   1       1.008   0.552   0.125  0.00  0.00     0.124 A 
ATOM      3  N   UNL d   1      -0.859  -0.691   0.454  0.00  0.00    -0.336 N 
ATOM      4  HN  UNL d   1      -1.798  -0.993   0.715  1.00  0.00     0.168 HD
ATOM      5  C   UNL d   1      -1.004   1.644   1.174  0.00  0.00     0.120 C 
ATOM      6  C   UNL d   1       0.097  -1.394  -0.110  0.00  0.00     0.235 A 
ATOM      7  N   UNL d   1      -1.555   2.554   1.642  0.00  0.00    -0.190 NA
ATOM      8  O   UNL d   1       1.252  -0.715  -0.351  0.00  0.00    -0.302 OA
ENDROOT
BRANCH   2   9
ATOM      9  C   UNL d   1       2.107   1.501   0.025  0.00  0.00     0.002 A 
ATOM     10  C   UNL d   1       3.011   1.434  -1.048  0.00  0.00     0.030 A 
ATOM     11  C   UNL d   1       4.081   2.340  -1.159  0.00  0.00     0.048 A 
ATOM     12  C   UNL d   1       4.245   3.318  -0.168  0.00  0.00     0.016 A 
ATOM     13  C   UNL d   1       3.356   3.394   0.902  0.00  0.00     0.002 A 
ATOM     14  C   UNL d   1       2.294   2.493   0.996  0.00  0.00     0.014 A 
BRANCH  11  15
ATOM     15  C   UNL d   1       5.045   2.273  -2.317  0.00  0.00     0.417 C 
ATOM     16  F   UNL d   1       4.752   1.291  -3.216  0.00  0.00    -0.166 F 
ATOM     17  F   UNL d   1       5.082   3.432  -3.031  0.00  0.00    -0.166 F 
ATOM     18  F   UNL d   1       6.325   2.040  -1.916  0.00  0.00    -0.166 F 
ENDBRANCH  11  15
ENDBRANCH   2   9
TORSDOF 2
