REMARK  3 active torsions:
REMARK  status: ('A' for Active; 'I' for Inactive)
REMARK    1  A    between atoms: C_8  and  C_1 
REMARK       I    between atoms: C_4  and  N_7 
REMARK    2  A    between atoms: C_11  and  C_4 
REMARK    3  A    between atoms: N_7  and  C_12 
ROOT
ATOM      1  C   UNL d   1       0.083   2.921   0.245  0.00  0.00     0.012 A 
ATOM      2  C   UNL d   1       1.510   4.457  -1.022  0.00  0.00     0.035 A 
ATOM      3  C   UNL d   1       0.986   3.183  -0.793  0.00  0.00     0.044 A 
ATOM      4  C   UNL d   1      -0.212   3.942   1.154  0.00  0.00     0.015 A 
ATOM      5  C   UNL d   1       0.359   5.206   0.987  0.00  0.00     0.003 A 
ATOM      6  C   UNL d   1       1.201   5.467  -0.105  0.00  0.00     0.029 A 
ENDROOT
BRANCH   2   7
ATOM      7  N   UNL d   1       2.296   4.767  -2.163  0.00  0.00    -0.327 N 
ATOM      8  C   UNL d   1       2.601   3.900  -3.197  0.00  0.00     0.229 C 
ATOM      9  O   UNL d   1       2.238   2.722  -3.265  0.00  0.00    -0.272 OA
ATOM     10  H   UNL d   1       2.596   5.729  -2.244  0.00  0.00     0.169 HD
BRANCH   8  11
ATOM     11  C   UNL d   1       3.417   4.494  -4.365  0.00  0.00     0.030 C 
ATOM     12  C   UNL d   1       4.690   5.184  -3.861  0.00  0.00     0.025 C 
ATOM     13  C   UNL d   1       3.832   3.338  -5.304  0.00  0.00     0.025 C 
ATOM     14  C   UNL d   1       2.552   5.478  -5.160  0.00  0.00     0.025 C 
ENDBRANCH   8  11
ENDBRANCH   2   7
BRANCH   1  15
ATOM     15  C   UNL d   1      -0.593   1.628   0.259  0.00  0.00     0.137 A 
ATOM     16  N   UNL d   1      -0.278   0.642  -0.660  0.00  0.00    -0.329 N 
ATOM     17  C   UNL d   1      -1.209  -0.248  -0.449  0.00  0.00     0.261 A 
ATOM     18  HN  UNL d   1       0.488   0.617  -1.332  1.00  0.00     0.168 HD
ATOM     19  O   UNL d   1      -2.057   0.076   0.553  0.00  0.00    -0.231 OA
ATOM     20  N   UNL d   1      -1.648   1.322   1.035  0.00  0.00    -0.243 N 
ATOM     21  HN  UNL d   1      -2.053   1.869   1.795  1.00  0.00     0.196 HD
ENDBRANCH   1  15
TORSDOF 3
