REMARK  3 active torsions:
REMARK  status: ('A' for Active; 'I' for Inactive)
REMARK    1  A    between atoms: C_12  and  C_2 
REMARK    2  A    between atoms: N_6  and  C_12 
REMARK    3  A    between atoms: C_20  and  C_15 
ROOT
ATOM      1  N   UNL d   1      -0.497  -0.782   0.017  0.00  0.00    -0.217 N 
ATOM      2  C   UNL d   1      -1.853  -1.022  -0.054  0.00  0.00     0.140 A 
ATOM      3  N   UNL d   1       0.474  -1.706   0.268  0.00  0.00    -0.293 N 
ATOM      4  HN  UNL d   1       0.249  -2.636   0.621  1.00  0.00     0.187 HD
ATOM      5  C   UNL d   1      -0.389   0.577  -0.144  0.00  0.00     0.182 A 
ATOM      6  N   UNL d   1      -2.495   0.114  -0.263  0.00  0.00    -0.284 N 
ATOM      7  HN  UNL d   1      -3.504   0.221  -0.370  1.00  0.00     0.188 HD
ATOM      8  N   UNL d   1      -1.565   1.127  -0.311  0.00  0.00    -0.277 N 
ATOM      9  HN  UNL d   1      -1.756   2.119  -0.451  1.00  0.00     0.189 HD
ATOM     10  C   UNL d   1       1.706  -1.343   0.035  0.00  0.00     0.046 C 
ATOM     11  S   UNL d   1       1.147   1.351  -0.077  0.00  0.00    -0.085 SA
ATOM     12  C   UNL d   1       2.117  -0.051  -0.672  0.00  0.00     0.142 C 
ENDROOT
BRANCH   2  13
ATOM     13  C   UNL d   1      -2.458  -2.365   0.092  0.00  0.00     0.227 C 
BRANCH  13  14
ATOM     14  N   UNL d   1      -2.056  -3.260  -0.976  0.00  0.00    -0.266 N 
ATOM     15  N   UNL d   1      -1.373  -4.388  -0.684  0.00  0.00    -0.019 NA
ATOM     16  N   UNL d   1      -1.164  -5.037  -1.821  0.00  0.00    -0.282 N 
ATOM     17  C   UNL d   1      -1.743  -4.320  -2.833  0.00  0.00     0.074 A 
ATOM     18  HN  UNL d   1      -0.660  -5.918  -1.924  1.00  0.00     0.184 HD
ATOM     19  C   UNL d   1      -2.332  -3.171  -2.317  0.00  0.00     0.077 A 
ATOM     20  C   UNL d   1      -1.811  -4.577  -4.210  0.00  0.00     0.033 A 
ATOM     21  C   UNL d   1      -3.008  -2.239  -3.114  0.00  0.00     0.033 A 
ATOM     22  C   UNL d   1      -3.065  -2.510  -4.487  0.00  0.00     0.002 A 
ATOM     23  C   UNL d   1      -2.478  -3.657  -5.029  0.00  0.00     0.002 A 
ENDBRANCH  13  14
ENDBRANCH   2  13
BRANCH  10  24
ATOM     24  C   UNL d   1       2.793  -2.315   0.366  0.00  0.00    -0.011 A 
ATOM     25  C   UNL d   1       2.553  -3.686   0.201  0.00  0.00     0.015 A 
ATOM     26  C   UNL d   1       3.553  -4.616   0.502  0.00  0.00     0.020 A 
ATOM     27  C   UNL d   1       4.787  -4.176   0.973  0.00  0.00     0.011 A 
ATOM     28  C   UNL d   1       5.031  -2.815   1.154  0.00  0.00     0.020 A 
ATOM     29 BR   UNL d   1       6.140  -5.431   1.382  0.00  0.00    -0.051 Br
ATOM     30  C   UNL d   1       4.032  -1.883   0.856  0.00  0.00     0.015 A 
ENDBRANCH  10  24
TORSDOF 3
