REMARK  5 active torsions:
REMARK  status: ('A' for Active; 'I' for Inactive)
REMARK    1  A    between atoms: C_3  and  C_1 
REMARK    2  A    between atoms: O_5  and  C_1 
REMARK       I    between atoms: C_2  and  N_7 
REMARK       I    between atoms: N_4  and  C_2 
REMARK    3  A    between atoms: O_11  and  C_3 
REMARK    4  A    between atoms: C_6  and  N_4 
REMARK    5  A    between atoms: N_7  and  O_5 
ROOT
ATOM      1  C   UNL d   1       0.453   2.080   2.682  0.00  0.00     0.322 C 
ATOM      2  N   UNL d   1       0.312   1.958   4.042  0.00  0.00    -0.310 N 
ATOM      3  N   UNL d   1       1.198   1.091   2.076  0.00  0.00    -0.118 NA
ATOM      4  O   UNL d   1      -0.160   2.956   2.078  0.00  0.00    -0.252 OA
ATOM      5  H   UNL d   1      -0.547   2.387   4.378  0.00  0.00     0.170 HD
ATOM      6  H   UNL d   1       1.147   0.201   2.559  0.00  0.00     0.165 HD
ENDROOT
BRANCH   3   7
ATOM      7  O   UNL d   1       0.949   0.996   0.676  0.00  0.00    -0.276 OA
BRANCH   7   8
ATOM      8  C   UNL d   1       2.174   1.132  -0.070  0.00  0.00     0.160 C 
ATOM      9  C   UNL d   1       1.776   1.121  -1.549  0.00  0.00     0.059 C 
ATOM     10  C   UNL d   1       2.905   2.437   0.256  0.00  0.00     0.059 C 
BRANCH   8  11
ATOM     11  C   UNL d   1       3.054  -0.101   0.177  0.00  0.00     0.177 C 
ATOM     12  O   UNL d   1       4.275  -0.126   0.139  0.00  0.00    -0.648 OA
BRANCH  11  13
ATOM     13  O   UNL d   1       2.318  -1.218   0.439  0.00  0.00    -0.774 OA
ATOM     14  H   UNL d   1       1.361  -0.997   0.413  0.00  0.00     0.167 HD
ENDBRANCH  11  13
ENDBRANCH   8  11
ENDBRANCH   7   8
ENDBRANCH   3   7
BRANCH   2  15
ATOM     15  C   UNL d   1       1.000   1.111   4.933  0.00  0.00     0.057 A 
ATOM     16  C   UNL d   1       0.295   0.474   5.967  0.00  0.00     0.060 A 
ATOM     17 CL   UNL d   1      -1.419   0.649   6.117  0.00  0.00    -0.082 Cl
ATOM     18  C   UNL d   1       0.956  -0.378   6.853  0.00  0.00     0.026 A 
ATOM     19  C   UNL d   1       2.334  -0.562   6.743  0.00  0.00     0.002 A 
ATOM     20  C   UNL d   1       3.049   0.097   5.744  0.00  0.00     0.002 A 
ATOM     21  C   UNL d   1       2.384   0.923   4.834  0.00  0.00     0.031 A 
ENDBRANCH   2  15
TORSDOF 5
