REMARK  6 active torsions:
REMARK  status: ('A' for Active; 'I' for Inactive)
REMARK    1  A    between atoms: N_7  and  C_1 
REMARK    2  A    between atoms: C_2  and  C_3 
REMARK    3  A    between atoms: C_4  and  C_8 
REMARK    4  A    between atoms: C_8  and  C_13 
REMARK    5  A    between atoms: O_25  and  C_8 
REMARK    6  A    between atoms: C_13  and  N_11 
ROOT
ATOM      1  N   UNL d   1       0.713   2.109   0.284  0.00  0.00    -0.363 N 
ATOM      2  N   UNL d   1       2.386   4.502  -0.001  0.00  0.00     0.094 N 
ATOM      3  C   UNL d   1       1.564   2.238  -0.909  0.00  0.00     0.154 C 
ATOM      4  C   UNL d   1       0.178   3.405   0.722  0.00  0.00     0.154 C 
ATOM      5  C   UNL d   1       2.751   3.171  -0.561  0.00  0.00     0.292 C 
ATOM      6  C   UNL d   1       1.379   4.321   1.075  0.00  0.00     0.292 C 
ENDROOT
BRANCH   1   7
ATOM      7  C   UNL d   1      -0.135   1.008   0.327  0.00  0.00     0.125 A 
ATOM      8  N   UNL d   1      -0.454   0.404  -0.847  0.00  0.00    -0.350 N 
ATOM      9  C   UNL d   1      -1.147  -0.758  -0.820  0.00  0.00     0.106 A 
ATOM     10  HN  UNL d   1      -0.176   0.821  -1.736  1.00  0.00     0.166 HD
ATOM     11  C   UNL d   1      -1.556  -1.393   0.342  0.00  0.00     0.065 A 
ATOM     12  C   UNL d   1      -1.263  -0.758   1.550  0.00  0.00     0.045 A 
ATOM     13  C   UNL d   1      -0.548   0.441   1.549  0.00  0.00     0.078 A 
ATOM     14 CL   UNL d   1      -0.094   1.077   3.096  0.00  0.00    -0.080 Cl
BRANCH  11  15
ATOM     15  C   UNL d   1      -2.237  -2.721   0.273  0.00  0.00     0.418 C 
ATOM     16  F   UNL d   1      -2.531  -3.243   1.496  0.00  0.00    -0.166 F 
ATOM     17  F   UNL d   1      -3.416  -2.672  -0.406  0.00  0.00    -0.166 F 
ATOM     18  F   UNL d   1      -1.480  -3.660  -0.358  0.00  0.00    -0.166 F 
ENDBRANCH  11  15
ENDBRANCH   1   7
BRANCH   2  19
ATOM     19  C   UNL d   1       1.974   5.428  -1.064  0.00  0.00     0.313 C 
BRANCH  19  20
ATOM     20  C   UNL d   1       1.795   6.896  -0.639  0.00  0.00     0.253 C 
BRANCH  20  21
ATOM     21  C   UNL d   1       3.084   7.550  -0.108  0.00  0.00     0.414 C 
ATOM     22  F   UNL d   1       4.130   6.717   0.033  0.00  0.00    -0.168 F 
ATOM     23  F   UNL d   1       3.478   8.525  -0.976  0.00  0.00    -0.168 F 
ATOM     24  F   UNL d   1       2.865   8.156   1.083  0.00  0.00    -0.168 F 
ENDBRANCH  20  21
BRANCH  20  25
ATOM     25  O   UNL d   1       1.252   7.609  -1.784  0.00  0.00    -0.385 OA
ATOM     26  H   UNL d   1       1.971   8.165  -2.145  0.00  0.00     0.210 HD
ENDBRANCH  20  25
ENDBRANCH  19  20
ENDBRANCH   2  19
TORSDOF 6
