REMARK  4 active torsions:
REMARK  status: ('A' for Active; 'I' for Inactive)
REMARK    1  A    between atoms: C_9  and  N_1 
REMARK    2  A    between atoms: C_7  and  C_17 
REMARK    3  A    between atoms: C_12  and  C_9 
REMARK       I    between atoms: N_15  and  C_12 
REMARK    4  A    between atoms: C_17  and  N_15 
ROOT
ATOM      1  C   UNL d   1       3.850   1.582  -0.436  0.00  0.00     0.236 C 
ATOM      2  N   UNL d   1       3.018   2.680  -0.424  0.00  0.00    -0.355 N 
ATOM      3  O   UNL d   1       5.069   1.689  -0.571  0.00  0.00    -0.272 OA
ATOM      4  H   UNL d   1       2.015   2.565  -0.290  0.00  0.00     0.162 HD
ENDROOT
BRANCH   1   5
ATOM      5  C   UNL d   1       3.212   0.244  -0.092  0.00  0.00     0.238 C 
BRANCH   5   6
ATOM      6  N   UNL d   1       2.085  -0.151  -0.916  0.00  0.00    -0.271 N 
ATOM      7  C   UNL d   1       2.126  -1.246  -1.736  0.00  0.00     0.262 A 
ATOM      8  C   UNL d   1       0.741  -1.584  -2.048  0.00  0.00     0.048 A 
ATOM      9  O   UNL d   1       3.082  -1.894  -2.112  0.00  0.00    -0.267 OA
ATOM     10  C   UNL d   1       0.224  -2.693  -2.692  0.00  0.00     0.018 A 
ATOM     11  C   UNL d   1      -0.071  -0.633  -1.453  0.00  0.00     0.048 A 
ATOM     12  C   UNL d   1      -1.167  -2.815  -2.736  0.00  0.00     0.001 A 
ATOM     13  C   UNL d   1      -1.996  -1.830  -2.157  0.00  0.00     0.001 A 
ATOM     14  C   UNL d   1      -1.447  -0.719  -1.504  0.00  0.00     0.018 A 
ATOM     15  C   UNL d   1       0.807   0.293  -0.732  0.00  0.00     0.262 A 
ATOM     16  O   UNL d   1       0.433   1.251  -0.078  0.00  0.00    -0.267 OA
ENDBRANCH   5   6
ENDBRANCH   1   5
BRANCH   2  17
ATOM     17  C   UNL d   1       3.578   3.980  -0.703  0.00  0.00     0.168 C 
BRANCH  17  18
ATOM     18  C   UNL d   1       2.631   5.078  -0.349  0.00  0.00     0.002 A 
ATOM     19  S   UNL d   1       3.041   6.199   0.875  0.00  0.00    -0.092 SA
ATOM     20  C   UNL d   1       1.711   7.226   0.500  0.00  0.00     0.015 A 
ATOM     21  C   UNL d   1       1.415   8.478   1.073  0.00  0.00     0.019 A 
ATOM     22  C   UNL d   1       0.912   6.670  -0.501  0.00  0.00    -0.018 A 
ATOM     23  C   UNL d   1       0.307   9.189   0.605  0.00  0.00     0.001 A 
ATOM     24  C   UNL d   1      -0.501   8.660  -0.392  0.00  0.00     0.001 A 
ATOM     25  C   UNL d   1      -0.216   7.405  -0.939  0.00  0.00     0.013 A 
ATOM     26  C   UNL d   1       1.433   5.409  -0.946  0.00  0.00     0.029 A 
ENDBRANCH  17  18
ENDBRANCH   2  17
TORSDOF 4
