REMARK  6 active torsions:
REMARK  status: ('A' for Active; 'I' for Inactive)
REMARK    1  A    between atoms: C_9  and  C_2 
REMARK    2  A    between atoms: N_11  and  N_7 
REMARK    3  A    between atoms: C_10  and  C_15 
REMARK    4  A    between atoms: C_17  and  N_11 
REMARK    5  A    between atoms: O_14  and  C_16 
REMARK    6  A    between atoms: C_15  and  O_14 
ROOT
ATOM      1  O   UNL d   1       8.902  -7.644  -1.370  0.00  0.00    -0.346 OA
ENDROOT
BRANCH   1   2
ATOM      2  C   UNL d   1       9.387  -8.636  -2.172  0.00  0.00     0.069 A 
ATOM      3  C   UNL d   1      10.559  -9.236  -1.704  0.00  0.00     0.037 A 
ATOM      4  C   UNL d   1      11.168 -10.272  -2.418  0.00  0.00     0.016 A 
ATOM      5  C   UNL d   1      10.613 -10.727  -3.620  0.00  0.00    -0.008 A 
ATOM      6  C   UNL d   1       9.445 -10.112  -4.090  0.00  0.00     0.016 A 
ATOM      7  C   UNL d   1       8.832  -9.076  -3.371  0.00  0.00     0.037 A 
BRANCH   5   8
ATOM      8  C   UNL d   1      11.224 -11.806  -4.385  0.00  0.00     0.063 A 
ATOM      9  N   UNL d   1      11.074 -11.887  -5.766  0.00  0.00    -0.292 N 
ATOM     10  N   UNL d   1      11.703 -12.933  -6.275  0.00  0.00    -0.061 NA
ATOM     11  HN  UNL d   1      10.541 -11.217  -6.322  1.00  0.00     0.183 HD
ATOM     12  S   UNL d   1      12.473 -13.855  -5.111  0.00  0.00    -0.010 SA
ATOM     13  C   UNL d   1      11.969 -12.834  -3.828  0.00  0.00     0.096 A 
ENDBRANCH   5   8
ENDBRANCH   1   2
BRANCH   1  14
ATOM     14  C   UNL d   1       7.715  -6.982  -1.784  0.00  0.00     0.229 C 
BRANCH  14  15
ATOM     15  C   UNL d   1       7.340  -5.863  -0.808  0.00  0.00     0.024 C 
ATOM     16  N   UNL d   1       6.294  -5.150  -1.116  0.00  0.00    -0.307 N 
ATOM     17  HN  UNL d   1       5.738  -5.381  -1.939  1.00  0.00     0.186 HD
ATOM     18  C   UNL d   1       8.229  -5.669   0.402  0.00  0.00     0.067 C 
BRANCH  16  19
ATOM     19  N   UNL d   1       5.952  -4.099  -0.333  0.00  0.00    -0.301 N 
ATOM     20  H   UNL d   1       6.245  -4.036   0.636  0.00  0.00     0.187 HD
BRANCH  19  21
ATOM     21  C   UNL d   1       4.750  -3.405  -0.589  0.00  0.00     0.048 A 
ATOM     22  C   UNL d   1       3.904  -3.716  -1.659  0.00  0.00     0.031 A 
ATOM     23  C   UNL d   1       2.756  -2.958  -1.912  0.00  0.00     0.002 A 
ATOM     24  C   UNL d   1       2.457  -1.855  -1.116  0.00  0.00     0.000 A 
ATOM     25  C   UNL d   1       3.305  -1.509  -0.068  0.00  0.00     0.002 A 
ATOM     26  C   UNL d   1       4.445  -2.276   0.189  0.00  0.00     0.031 A 
ENDBRANCH  19  21
ENDBRANCH  16  19
ENDBRANCH  14  15
ENDBRANCH   1  14
TORSDOF 6
