REMARK  5 active torsions:
REMARK  status: ('A' for Active; 'I' for Inactive)
REMARK    1  A    between atoms: C_4  and  C_2 
REMARK    2  A    between atoms: C_5  and  C_3 
REMARK       I    between atoms: N_8  and  C_4 
REMARK    3  A    between atoms: C_15  and  N_8 
REMARK    4  A    between atoms: C_16  and  N_9 
REMARK    5  A    between atoms: C_21  and  C_16 
ROOT
ATOM      1  C   UNL d   1      -0.944   3.929   0.426  0.00  0.00     0.258 C 
ATOM      2  N   UNL d   1      -1.458   2.645   0.332  0.00  0.00    -0.352 N 
ATOM      3  O   UNL d   1      -1.637   4.919   0.235  0.00  0.00    -0.267 OA
ATOM      4  H   UNL d   1      -0.892   1.916   0.748  0.00  0.00     0.163 HD
ENDROOT
BRANCH   2   5
ATOM      5  C   UNL d   1      -2.878   2.382   0.092  0.00  0.00     0.088 C 
ATOM      6  C   UNL d   1      -3.217   0.901   0.291  0.00  0.00     0.055 C 
ATOM      7  C   UNL d   1      -2.789   0.022  -0.890  0.00  0.00     0.275 C 
ATOM      8  N   UNL d   1      -3.358   0.505  -2.156  0.00  0.00     0.092 N 
ATOM      9  C   UNL d   1      -2.922   1.888  -2.412  0.00  0.00     0.275 C 
ATOM     10  C   UNL d   1      -3.361   2.834  -1.294  0.00  0.00     0.055 C 
BRANCH   8  11
ATOM     11  C   UNL d   1      -2.973  -0.354  -3.299  0.00  0.00     0.311 C 
BRANCH  11  12
ATOM     12  C   UNL d   1      -3.443  -1.790  -3.179  0.00  0.00    -0.030 A 
ATOM     13  C   UNL d   1      -4.810  -2.095  -3.100  0.00  0.00     0.009 A 
ATOM     14  C   UNL d   1      -5.234  -3.415  -2.937  0.00  0.00     0.001 A 
ATOM     15  C   UNL d   1      -4.299  -4.446  -2.861  0.00  0.00     0.000 A 
ATOM     16  C   UNL d   1      -2.939  -4.160  -2.964  0.00  0.00     0.001 A 
ATOM     17  C   UNL d   1      -2.513  -2.840  -3.127  0.00  0.00     0.009 A 
ENDBRANCH  11  12
ENDBRANCH   8  11
ENDBRANCH   2   5
BRANCH   1  18
ATOM     18  C   UNL d   1       0.477   4.028   0.757  0.00  0.00     0.073 C 
ATOM     19  S   UNL d   1       1.488   2.657   0.869  0.00  0.00    -0.084 SA
ATOM     20  C   UNL d   1       2.918   3.605   0.999  0.00  0.00     0.022 C 
ATOM     21  C   UNL d   1       2.597   4.944   1.136  0.00  0.00     0.022 C 
ATOM     22  C   UNL d   1       1.197   5.188   0.982  0.00  0.00     0.026 C 
BRANCH  20  23
ATOM     23  C   UNL d   1       4.230   2.996   0.929  0.00  0.00     0.021 A 
ATOM     24  S   UNL d   1       5.653   3.801   1.460  0.00  0.00    -0.101 SA
ATOM     25  C   UNL d   1       6.663   2.516   0.960  0.00  0.00     0.050 A 
ATOM     26  C   UNL d   1       5.944   1.480   0.412  0.00  0.00     0.008 A 
ATOM     27  C   UNL d   1       4.546   1.753   0.404  0.00  0.00     0.021 A 
ENDBRANCH  20  23
ENDBRANCH   1  18
TORSDOF 5
