REMARK  7 active torsions:
REMARK  status: ('A' for Active; 'I' for Inactive)
REMARK    1  A    between atoms: C_6  and  C_1 
REMARK    2  A    between atoms: C_11  and  C_2 
REMARK    3  A    between atoms: C_3  and  C_12 
REMARK       I    between atoms: C_4  and  N_7 
REMARK       I    between atoms: N_9  and  C_4 
REMARK    4  A    between atoms: N_7  and  C_15 
REMARK    5  A    between atoms: C_12  and  N_9 
REMARK    6  A    between atoms: S_16  and  C_11 
REMARK    7  A    between atoms: C_20  and  S_16 
ROOT
ATOM      1  C   UNL d   1       2.132  -4.623   0.769  0.00  0.00     0.321 C 
ATOM      2  N   UNL d   1       2.523  -5.896   1.014  0.00  0.00    -0.309 N 
ATOM      3  N   UNL d   1       3.009  -3.592   0.917  0.00  0.00    -0.338 N 
ATOM      4  O   UNL d   1       0.982  -4.459   0.368  0.00  0.00    -0.247 OA
ATOM      5  H   UNL d   1       1.773  -6.517   0.732  0.00  0.00     0.170 HD
ATOM      6  H   UNL d   1       3.978  -3.818   0.770  0.00  0.00     0.164 HD
ENDROOT
BRANCH   3   7
ATOM      7  C   UNL d   1       2.585  -2.290   0.436  0.00  0.00     0.171 C 
BRANCH   7   8
ATOM      8  C   UNL d   1       3.202  -1.124   1.162  0.00  0.00     0.007 A 
ATOM      9  C   UNL d   1       3.565   0.115   0.625  0.00  0.00    -0.033 A 
ATOM     10  C   UNL d   1       3.812   1.063   1.681  0.00  0.00     0.016 A 
ATOM     11  C   UNL d   1       3.745   0.505   2.935  0.00  0.00     0.051 A 
ATOM     12  S   UNL d   1       3.344  -1.148   2.873  0.00  0.00    -0.104 SA
BRANCH   9  13
ATOM     13  C   UNL d   1       3.591   0.419  -0.856  0.00  0.00     0.119 C 
BRANCH  13  14
ATOM     14  S   UNL d   1       4.428   1.964  -1.350  0.00  0.00    -0.125 SA
BRANCH  14  15
ATOM     15  C   UNL d   1       6.168   1.548  -1.333  0.00  0.00     0.001 A 
ATOM     16  C   UNL d   1       6.995   2.232  -2.237  0.00  0.00     0.020 A 
ATOM     17  C   UNL d   1       8.379   2.023  -2.248  0.00  0.00     0.025 A 
ATOM     18  C   UNL d   1       8.948   1.132  -1.344  0.00  0.00     0.034 A 
ATOM     19  C   UNL d   1       8.144   0.448  -0.437  0.00  0.00     0.025 A 
ATOM     20 CL   UNL d   1      10.650   0.886  -1.335  0.00  0.00    -0.084 Cl
ATOM     21  C   UNL d   1       6.759   0.656  -0.433  0.00  0.00     0.020 A 
ENDBRANCH  14  15
ENDBRANCH  13  14
ENDBRANCH   9  13
ENDBRANCH   7   8
ENDBRANCH   3   7
BRANCH   2  22
ATOM     22  C   UNL d   1       3.662  -6.527   1.530  0.00  0.00     0.037 A 
ATOM     23  C   UNL d   1       4.717  -5.884   2.174  0.00  0.00     0.045 A 
ATOM     24  C   UNL d   1       5.839  -6.618   2.613  0.00  0.00     0.050 A 
ATOM     25  C   UNL d   1       5.871  -8.010   2.433  0.00  0.00     0.016 A 
ATOM     26  C   UNL d   1       4.801  -8.662   1.834  0.00  0.00     0.003 A 
ATOM     27  C   UNL d   1       3.705  -7.923   1.387  0.00  0.00     0.029 A 
BRANCH  24  28
ATOM     28  C   UNL d   1       7.017  -5.924   3.252  0.00  0.00     0.417 C 
ATOM     29  F   UNL d   1       6.824  -4.591   3.450  0.00  0.00    -0.166 F 
ATOM     30  F   UNL d   1       8.143  -6.027   2.492  0.00  0.00    -0.166 F 
ATOM     31  F   UNL d   1       7.337  -6.444   4.468  0.00  0.00    -0.166 F 
ENDBRANCH  24  28
ENDBRANCH   2  22
TORSDOF 7
