REMARK  4 active torsions:
REMARK  status: ('A' for Active; 'I' for Inactive)
REMARK    1  A    between atoms: C_5  and  N_1 
REMARK    2  A    between atoms: C_4  and  C_13 
REMARK    3  A    between atoms: C_19  and  N_6 
REMARK    4  A    between atoms: C_14  and  C_20 
ROOT
ATOM      1  C   UNL d   1      -2.424  -9.219  -4.031  0.00  0.00    -0.001 A 
ATOM      2  C   UNL d   1      -2.101  -9.212  -2.668  0.00  0.00     0.016 A 
ATOM      3  C   UNL d   1      -2.402  -7.998  -4.719  0.00  0.00     0.016 A 
ATOM      4  C   UNL d   1      -1.626  -6.822  -2.736  0.00  0.00     0.031 A 
ATOM      5  C   UNL d   1      -1.706  -8.027  -2.034  0.00  0.00     0.030 A 
ATOM      6  C   UNL d   1      -2.022  -6.813  -4.076  0.00  0.00     0.030 A 
ENDROOT
BRANCH   4   7
ATOM      7  N   UNL d   1      -1.159  -5.694  -2.044  0.00  0.00    -0.365 N 
ATOM      8  C   UNL d   1      -0.434  -4.821  -2.667  0.00  0.00     0.099 C 
ATOM      9  HN  UNL d   1      -1.387  -5.563  -1.059  1.00  0.00     0.165 HD
BRANCH   8  10
ATOM     10  C   UNL d   1       0.159  -3.662  -1.971  0.00  0.00    -0.021 A 
ATOM     11  C   UNL d   1       0.116  -3.572  -0.575  0.00  0.00     0.015 A 
ATOM     12  C   UNL d   1       0.725  -2.495   0.073  0.00  0.00     0.037 A 
ATOM     13  C   UNL d   1       1.370  -1.507  -0.684  0.00  0.00     0.102 A 
ATOM     14  C   UNL d   1       1.407  -1.592  -2.084  0.00  0.00     0.037 A 
ATOM     15  C   UNL d   1       0.802  -2.675  -2.727  0.00  0.00     0.015 A 
BRANCH  13  16
ATOM     16  N   UNL d   1       2.015  -0.377  -0.006  0.00  0.00    -0.116 N 
ATOM     17  O   UNL d   1       2.572   0.477  -0.712  0.00  0.00    -0.532 OA
ATOM     18  O   UNL d   1       1.965  -0.341   1.232  0.00  0.00    -0.532 OA
ENDBRANCH  13  16
ENDBRANCH   8  10
ENDBRANCH   4   7
BRANCH   1  19
ATOM     19  C   UNL d   1      -2.741 -10.463  -4.717  0.00  0.00     0.102 A 
ATOM     20  O   UNL d   1      -2.955 -10.394  -6.072  0.00  0.00    -0.304 OA
ATOM     21  C   UNL d   1      -3.180 -11.682  -6.441  0.00  0.00     0.233 A 
ATOM     22  N   UNL d   1      -3.138 -12.560  -5.465  0.00  0.00    -0.354 N 
ATOM     23  C   UNL d   1      -2.858 -11.791  -4.362  0.00  0.00     0.127 A 
ATOM     24  HN  UNL d   1      -3.280 -13.569  -5.515  1.00  0.00     0.166 HD
ENDBRANCH   1  19
TORSDOF 4
