REMARK  2 active torsions:
REMARK  status: ('A' for Active; 'I' for Inactive)
REMARK    1  A    between atoms: N_8  and  C_1 
REMARK       I    between atoms: C_4  and  N_7 
REMARK       I    between atoms: N_9  and  C_4 
REMARK    2  A    between atoms: C_15  and  N_9 
ROOT
ATOM      1  C   UNL d   1      -3.346   2.038   3.792  0.00  0.00     0.323 C 
ATOM      2  N   UNL d   1      -2.264   2.351   2.966  0.00  0.00    -0.331 N 
ATOM      3  N   UNL d   1       0.045   2.544   1.092  0.00  0.00     0.105 N 
ATOM      4  N   UNL d   1      -4.385   2.941   3.770  0.00  0.00    -0.309 N 
ATOM      5  O   UNL d   1      -3.325   1.036   4.503  0.00  0.00    -0.247 OA
ATOM      6  C   UNL d   1      -1.219   1.329   2.916  0.00  0.00     0.158 C 
ATOM      7  C   UNL d   1      -2.309   3.300   1.849  0.00  0.00     0.158 C 
ATOM      8  C   UNL d   1      -0.953   3.615   1.165  0.00  0.00     0.293 C 
ATOM      9  C   UNL d   1       0.116   1.854   2.390  0.00  0.00     0.293 C 
ATOM     10  H   UNL d   1      -4.435   3.568   2.987  0.00  0.00     0.170 HD
ENDROOT
BRANCH   3  11
ATOM     11  C   UNL d   1       0.031   1.702  -0.122  0.00  0.00     0.290 C 
ATOM     12  C   UNL d   1       1.125   0.628  -0.066  0.00  0.00    -0.009 A 
ATOM     13  C   UNL d   1       0.542  -0.659  -0.053  0.00  0.00    -0.017 A 
ATOM     14  C   UNL d   1       2.498   0.802   0.038  0.00  0.00     0.010 A 
ATOM     15  C   UNL d   1       1.335  -1.787   0.078  0.00  0.00     0.013 A 
ATOM     16  C   UNL d   1      -0.889  -0.526  -0.222  0.00  0.00    -0.017 C 
ATOM     17  C   UNL d   1       2.719  -1.618   0.195  0.00  0.00     0.001 A 
ATOM     18  C   UNL d   1       3.295  -0.336   0.171  0.00  0.00     0.001 A 
ATOM     19  C   UNL d   1      -1.206   0.843  -0.371  0.00  0.00    -0.009 C 
ATOM     20  C   UNL d   1      -1.880  -1.492  -0.286  0.00  0.00     0.013 C 
ATOM     21  C   UNL d   1      -2.480   1.232  -0.755  0.00  0.00     0.010 C 
ATOM     22  C   UNL d   1      -3.480   0.261  -0.829  0.00  0.00     0.001 C 
ATOM     23  C   UNL d   1      -3.188  -1.086  -0.566  0.00  0.00     0.001 C 
ENDBRANCH   3  11
BRANCH   4  24
ATOM     24  C   UNL d   1      -5.442   3.029   4.703  0.00  0.00     0.036 A 
ATOM     25  C   UNL d   1      -5.506   2.267   5.875  0.00  0.00     0.032 A 
ATOM     26  C   UNL d   1      -6.540   2.458   6.797  0.00  0.00     0.044 A 
ATOM     27  C   UNL d   1      -7.511   3.412   6.541  0.00  0.00     0.116 A 
ATOM     28  C   UNL d   1      -7.480   4.170   5.378  0.00  0.00     0.044 A 
ATOM     29  F   UNL d   1      -8.491   3.613   7.434  0.00  0.00    -0.206 F 
ATOM     30  C   UNL d   1      -6.445   3.977   4.457  0.00  0.00     0.032 A 
ENDBRANCH   4  24
TORSDOF 2
