REMARK  7 active torsions:
REMARK  status: ('A' for Active; 'I' for Inactive)
REMARK    1  A    between atoms: N_3  and  C_1 
REMARK       I    between atoms: C_9  and  N_3 
REMARK    2  A    between atoms: S_12  and  C_4 
REMARK    3  A    between atoms: C_19  and  C_9 
REMARK       I    between atoms: N_10  and  C_11 
REMARK    4  A    between atoms: C_11  and  C_16 
REMARK    5  A    between atoms: C_16  and  S_12 
REMARK    6  A    between atoms: C_13  and  C_18 
REMARK    7  A    between atoms: O_24  and  C_21 
ROOT
ATOM      1  S   UNL d   1       2.737  -3.166  -2.585  0.00  0.00    -0.094 SA
ENDROOT
BRANCH   1   2
ATOM      2  C   UNL d   1       2.459  -1.473  -2.963  0.00  0.00     0.130 A 
ATOM      3  S   UNL d   1       2.571  -0.873  -4.564  0.00  0.00    -0.026 SA
ATOM      4  C   UNL d   1       2.176   0.677  -3.960  0.00  0.00     0.168 A 
ATOM      5  N   UNL d   1       2.032   0.711  -2.651  0.00  0.00    -0.278 N 
ATOM      6  N   UNL d   1       2.169  -0.549  -2.070  0.00  0.00    -0.286 N 
ATOM      7  HN  UNL d   1       1.841   1.562  -2.122  1.00  0.00     0.189 HD
ATOM      8  HN  UNL d   1       2.057  -0.733  -1.073  1.00  0.00     0.188 HD
BRANCH   4   9
ATOM      9  N   UNL d   1       2.071   1.799  -4.769  0.00  0.00    -0.302 N 
ATOM     10  C   UNL d   1       1.972   1.774  -6.144  0.00  0.00     0.257 C 
ATOM     11  O   UNL d   1       1.908   0.762  -6.840  0.00  0.00    -0.267 OA
ATOM     12  H   UNL d   1       1.915   2.658  -4.263  0.00  0.00     0.171 HD
BRANCH  10  13
ATOM     13  C   UNL d   1       1.882   3.087  -6.857  0.00  0.00     0.032 A 
ATOM     14  C   UNL d   1       2.478   4.263  -6.389  0.00  0.00     0.017 A 
ATOM     15  C   UNL d   1       2.437   5.426  -7.172  0.00  0.00     0.001 A 
ATOM     16  C   UNL d   1       1.803   5.422  -8.417  0.00  0.00     0.000 A 
ATOM     17  C   UNL d   1       1.198   4.259  -8.883  0.00  0.00     0.001 A 
ATOM     18  C   UNL d   1       1.240   3.099  -8.108  0.00  0.00     0.017 A 
ENDBRANCH  10  13
ENDBRANCH   4   9
ENDBRANCH   1   2
BRANCH   1  19
ATOM     19  C   UNL d   1       2.148  -3.278  -0.877  0.00  0.00     0.184 C 
BRANCH  19  20
ATOM     20  C   UNL d   1       2.500  -4.627  -0.247  0.00  0.00     0.229 C 
ATOM     21  N   UNL d   1       1.708  -5.766  -0.491  0.00  0.00    -0.351 N 
ATOM     22  C   UNL d   1       1.943  -6.892   0.414  0.00  0.00     0.126 C 
ATOM     23  C   UNL d   1       0.415  -5.700  -1.171  0.00  0.00     0.126 C 
ATOM     24  C   UNL d   1       1.241  -8.219   0.101  0.00  0.00     0.029 C 
ATOM     25  C   UNL d   1      -0.139  -8.145  -0.577  0.00  0.00     0.024 C 
ATOM     26  C   UNL d   1      -0.098  -7.055  -1.659  0.00  0.00     0.029 C 
ATOM     27  O   UNL d   1       3.469  -4.686   0.529  0.00  0.00    -0.273 OA
BRANCH  25  28
ATOM     28  C   UNL d   1      -1.356  -8.074   0.354  0.00  0.00    -0.021 A 
ATOM     29  C   UNL d   1      -2.513  -8.874   0.160  0.00  0.00     0.074 A 
ATOM     30  C   UNL d   1      -3.626  -8.730   1.007  0.00  0.00     0.037 A 
ATOM     31  C   UNL d   1      -3.587  -7.873   2.101  0.00  0.00     0.003 A 
ATOM     32  C   UNL d   1      -2.442  -7.128   2.338  0.00  0.00     0.001 A 
ATOM     33  C   UNL d   1      -1.353  -7.208   1.466  0.00  0.00     0.010 A 
BRANCH  29  34
ATOM     34  O   UNL d   1      -2.512  -9.787  -0.872  0.00  0.00    -0.355 OA
ATOM     35  C   UNL d   1      -3.416 -10.887  -0.716  0.00  0.00     0.210 C 
ENDBRANCH  29  34
ENDBRANCH  25  28
ENDBRANCH  19  20
ENDBRANCH   1  19
TORSDOF 7
