REMARK  6 active torsions:
REMARK  status: ('A' for Active; 'I' for Inactive)
REMARK    1  A    between atoms: N_2  and  S_1 
REMARK    2  A    between atoms: C_5  and  S_1 
REMARK    3  A    between atoms: C_3  and  N_2 
REMARK    4  A    between atoms: O_8  and  C_4 
REMARK    5  A    between atoms: C_16  and  O_8 
REMARK    6  A    between atoms: C_18  and  C_11 
ROOT
ATOM      1  C   UNL d   1       0.919   2.096  -1.486  0.00  0.00     0.094 A 
ATOM      2  C   UNL d   1       2.064   2.806  -1.874  0.00  0.00     0.175 A 
ATOM      3  N   UNL d   1       2.127   4.165  -1.864  0.00  0.00    -0.345 N 
ATOM      4  HN  UNL d   1       2.986   4.655  -2.115  1.00  0.00     0.167 HD
ATOM      5  C   UNL d   1      -0.216   2.836  -1.142  0.00  0.00     0.036 A 
ATOM      6  C   UNL d   1       1.016   4.841  -1.512  0.00  0.00     0.090 A 
ATOM      7  C   UNL d   1      -0.169   4.227  -1.155  0.00  0.00     0.019 A 
ENDROOT
BRANCH   1   8
ATOM      8  N   UNL d   1       0.845   0.671  -1.390  0.00  0.00    -0.276 N 
ATOM      9  H   UNL d   1       0.053   0.207  -1.832  0.00  0.00     0.179 HD
BRANCH   8  10
ATOM     10  S   UNL d   1       1.266  -0.066   0.076  0.00  0.00     0.263 S 
ATOM     11  O   UNL d   1       2.625   0.305   0.416  0.00  0.00    -0.200 OA
ATOM     12  O   UNL d   1       0.871  -1.454  -0.051  0.00  0.00    -0.200 OA
BRANCH  10  13
ATOM     13  C   UNL d   1       0.181   0.682   1.284  0.00  0.00     0.079 A 
ATOM     14  C   UNL d   1      -1.073   0.122   1.551  0.00  0.00     0.026 A 
ATOM     15  C   UNL d   1      -1.916   0.724   2.496  0.00  0.00     0.009 A 
ATOM     16  C   UNL d   1      -1.517   1.883   3.184  0.00  0.00    -0.055 A 
ATOM     17  C   UNL d   1      -0.235   2.400   2.934  0.00  0.00     0.009 A 
ATOM     18  C   UNL d   1       0.614   1.801   2.000  0.00  0.00     0.026 A 
BRANCH  16  19
ATOM     19  C   UNL d   1      -2.430   2.593   4.174  0.00  0.00     0.010 C 
ATOM     20  C   UNL d   1      -3.723   3.071   3.505  0.00  0.00     0.015 C 
ATOM     21  C   UNL d   1      -2.743   1.740   5.405  0.00  0.00     0.015 C 
ENDBRANCH  16  19
ENDBRANCH  10  13
ENDBRANCH   8  10
ENDBRANCH   1   8
BRANCH   2  22
ATOM     22  O   UNL d   1       3.165   2.109  -2.368  0.00  0.00    -0.292 OA
BRANCH  22  23
ATOM     23  C   UNL d   1       3.924   2.757  -3.328  0.00  0.00     0.078 A 
ATOM     24  C   UNL d   1       5.316   2.716  -3.203  0.00  0.00     0.039 A 
ATOM     25  C   UNL d   1       6.123   3.376  -4.142  0.00  0.00     0.026 A 
ATOM     26  C   UNL d   1       5.535   4.061  -5.204  0.00  0.00     0.034 A 
ATOM     27  C   UNL d   1       4.151   4.074  -5.356  0.00  0.00     0.026 A 
ATOM     28 CL   UNL d   1       6.522   4.900  -6.340  0.00  0.00    -0.084 Cl
ATOM     29  C   UNL d   1       3.348   3.405  -4.430  0.00  0.00     0.039 A 
ENDBRANCH  22  23
ENDBRANCH   2  22
TORSDOF 6
