REMARK  1 active torsions:
REMARK  status: ('A' for Active; 'I' for Inactive)
REMARK    1  A    between atoms: N_2  and  N_1 
ROOT
ATOM      1  N   UNL d   1       1.962   0.023  -0.054  0.00  0.00    -0.169 N 
ATOM      2  C   UNL d   1       1.263  -0.415   1.037  0.00  0.00     0.281 A 
ATOM      3  C   UNL d   1       1.171   0.532  -1.046  0.00  0.00     0.281 A 
ATOM      4  C   UNL d   1      -0.142  -0.140   0.728  0.00  0.00     0.050 A 
ATOM      5  C   UNL d   1      -0.201   0.389  -0.554  0.00  0.00     0.050 A 
ATOM      6  O   UNL d   1       1.650  -0.954   2.057  0.00  0.00    -0.265 OA
ATOM      7  O   UNL d   1       1.472   1.041  -2.109  0.00  0.00    -0.265 OA
ATOM      8  C   UNL d   1      -1.277  -0.334   1.491  0.00  0.00     0.018 A 
ATOM      9  C   UNL d   1      -1.402   0.703  -1.159  0.00  0.00     0.018 A 
ATOM     10  C   UNL d   1      -2.503  -0.004   0.905  0.00  0.00     0.001 A 
ATOM     11  C   UNL d   1      -2.566   0.495  -0.413  0.00  0.00     0.001 A 
ENDROOT
BRANCH   1  12
ATOM     12  N   UNL d   1       3.323  -0.031  -0.137  0.00  0.00    -0.169 N 
ATOM     13  C   UNL d   1       4.151   0.657   0.712  0.00  0.00     0.281 A 
ATOM     14  C   UNL d   1       5.508   0.287   0.306  0.00  0.00     0.050 A 
ATOM     15  O   UNL d   1       3.887   1.442   1.601  0.00  0.00    -0.265 OA
ATOM     16  C   UNL d   1       6.727   0.648   0.845  0.00  0.00     0.018 A 
ATOM     17  C   UNL d   1       5.412  -0.548  -0.798  0.00  0.00     0.050 A 
ATOM     18  C   UNL d   1       7.874   0.160   0.212  0.00  0.00     0.001 A 
ATOM     19  C   UNL d   1       7.777  -0.658  -0.934  0.00  0.00     0.001 A 
ATOM     20  C   UNL d   1       6.531  -1.026  -1.450  0.00  0.00     0.018 A 
ATOM     21  C   UNL d   1       3.990  -0.785  -1.061  0.00  0.00     0.281 A 
ATOM     22  O   UNL d   1       3.565  -1.538  -1.916  0.00  0.00    -0.265 OA
ENDBRANCH   1  12
TORSDOF 1
