REMARK  3 active torsions:
REMARK  status: ('A' for Active; 'I' for Inactive)
REMARK    1  A    between atoms: C_8  and  C_2 
REMARK    2  A    between atoms: C_15  and  N_4 
REMARK    3  A    between atoms: C_11  and  C_15 
ROOT
ATOM      1  N   UNL d   1      -3.651  -1.446  -0.029  0.00  0.00    -0.394 N 
ATOM      2  HN  UNL d   1      -3.690  -0.429  -0.095  1.00  0.00     0.159 HD
ATOM      3  C   UNL d   1      -2.531  -2.079   0.008  0.00  0.00     0.096 C 
ENDROOT
BRANCH   1   4
ATOM      4  C   UNL d   1      -4.867  -2.259   0.028  0.00  0.00     0.159 C 
BRANCH   4   5
ATOM      5  C   UNL d   1      -5.980  -1.495   0.695  0.00  0.00    -0.025 A 
ATOM      6  C   UNL d   1      -6.630  -1.990   1.820  0.00  0.00     0.096 A 
ATOM      7  N   UNL d   1      -7.634  -1.350   2.465  0.00  0.00    -0.375 N 
ATOM      8  C   UNL d   1      -8.006  -0.151   1.967  0.00  0.00     0.087 A 
ATOM      9  HN  UNL d   1      -8.086  -1.753   3.285  1.00  0.00     0.164 HD
ATOM     10  C   UNL d   1      -7.427   0.433   0.853  0.00  0.00     0.018 A 
ATOM     11  C   UNL d   1      -6.402  -0.254   0.209  0.00  0.00     0.011 A 
ENDBRANCH   4   5
ENDBRANCH   1   4
BRANCH   3  12
ATOM     12  C   UNL d   1      -1.252  -1.329  -0.005  0.00  0.00     0.001 A 
ATOM     13  C   UNL d   1      -0.003  -1.964   0.016  0.00  0.00     0.047 A 
ATOM     14  C   UNL d   1       1.170  -1.199   0.014  0.00  0.00     0.048 A 
ATOM     15 CL   UNL d   1       0.172  -3.682   0.049  0.00  0.00    -0.083 Cl
ATOM     16  C   UNL d   1       1.095   0.193  -0.011  0.00  0.00     0.035 A 
ATOM     17  C   UNL d   1      -0.140   0.834  -0.032  0.00  0.00     0.025 A 
ATOM     18 CL   UNL d   1       2.538   1.129  -0.013  0.00  0.00    -0.084 Cl
ATOM     19  C   UNL d   1      -1.310   0.074  -0.029  0.00  0.00     0.016 A 
ENDBRANCH   3  12
TORSDOF 3
