REMARK  6 active torsions:
REMARK  status: ('A' for Active; 'I' for Inactive)
REMARK    1  A    between atoms: N_6  and  C_1 
REMARK    2  A    between atoms: C_2  and  C_3 
REMARK       I    between atoms: C_9  and  N_7 
REMARK    3  A    between atoms: C_12  and  C_9 
REMARK    4  A    between atoms: C_23  and  C_12 
REMARK    5  A    between atoms: S_22  and  C_23 
REMARK    6  A    between atoms: C_24  and  S_22 
ROOT
ATOM      1  N   UNL d   1       0.584   2.249  -0.178  0.00  0.00    -0.363 N 
ATOM      2  N   UNL d   1       2.456   4.373   0.004  0.00  0.00    -0.349 N 
ATOM      3  C   UNL d   1       2.959   5.604  -0.372  0.00  0.00     0.220 C 
ATOM      4  C   UNL d   1       1.333   2.661  -1.377  0.00  0.00     0.144 C 
ATOM      5  C   UNL d   1       0.239   3.391   0.685  0.00  0.00     0.144 C 
ATOM      6  C   UNL d   1       2.680   3.228  -0.898  0.00  0.00     0.145 C 
ATOM      7  C   UNL d   1       1.562   4.065   1.144  0.00  0.00     0.145 C 
ATOM      8  O   UNL d   1       3.628   5.736  -1.400  0.00  0.00    -0.273 OA
ENDROOT
BRANCH   1   9
ATOM      9  C   UNL d   1      -0.167   1.096  -0.142  0.00  0.00     0.125 A 
ATOM     10  N   UNL d   1      -1.400   1.171   0.423  0.00  0.00    -0.350 N 
ATOM     11  C   UNL d   1      -2.170   0.057   0.503  0.00  0.00     0.106 A 
ATOM     12  HN  UNL d   1      -1.744   2.059   0.786  1.00  0.00     0.166 HD
ATOM     13  C   UNL d   1      -1.789  -1.187   0.025  0.00  0.00     0.065 A 
ATOM     14  C   UNL d   1      -0.516  -1.282  -0.523  0.00  0.00     0.045 A 
ATOM     15  C   UNL d   1       0.309  -0.157  -0.587  0.00  0.00     0.078 A 
ATOM     16 CL   UNL d   1       1.943  -0.458  -1.089  0.00  0.00    -0.080 Cl
BRANCH  13  17
ATOM     17  C   UNL d   1      -2.710  -2.360   0.134  0.00  0.00     0.418 C 
ATOM     18  F   UNL d   1      -2.211  -3.488  -0.444  0.00  0.00    -0.166 F 
ATOM     19  F   UNL d   1      -2.985  -2.692   1.424  0.00  0.00    -0.166 F 
ATOM     20  F   UNL d   1      -3.912  -2.137  -0.463  0.00  0.00    -0.166 F 
ENDBRANCH  13  17
ENDBRANCH   1   9
BRANCH   3  21
ATOM     21  C   UNL d   1       2.749   6.811   0.522  0.00  0.00     0.113 C 
BRANCH  21  22
ATOM     22  C   UNL d   1       2.348   8.042  -0.285  0.00  0.00     0.088 C 
BRANCH  22  23
ATOM     23  S   UNL d   1       0.617   7.913  -0.871  0.00  0.00    -0.130 SA
BRANCH  23  24
ATOM     24  C   UNL d   1       0.484   9.468  -1.740  0.00  0.00     0.000 A 
ATOM     25  C   UNL d   1       0.245   9.473  -3.117  0.00  0.00     0.019 A 
ATOM     26  C   UNL d   1       0.130  10.684  -3.808  0.00  0.00     0.008 A 
ATOM     27  C   UNL d   1       0.242  11.904  -3.133  0.00  0.00    -0.062 A 
ATOM     28  C   UNL d   1       0.465  11.896  -1.751  0.00  0.00     0.008 A 
ATOM     29  C   UNL d   1       0.118  13.196  -3.886  0.00  0.00     0.048 C 
ATOM     30  C   UNL d   1       0.581  10.684  -1.062  0.00  0.00     0.019 A 
ENDBRANCH  23  24
ENDBRANCH  22  23
ENDBRANCH  21  22
ENDBRANCH   3  21
TORSDOF 6
