REMARK  1 active torsions:
REMARK  status: ('A' for Active; 'I' for Inactive)
REMARK    1  A    between atoms: C_12  and  N_5 
ROOT
ATOM      1  C   UNL d   1      -0.209  -0.660   0.032  0.00  0.00     0.145 A 
ATOM      2  C   UNL d   1      -0.280   0.712  -0.015  0.00  0.00     0.095 A 
ATOM      3  N   UNL d   1       0.935  -1.394   0.096  0.00  0.00    -0.336 N 
ATOM      4  HN  UNL d   1       0.942  -2.413   0.136  1.00  0.00     0.168 HD
ATOM      5  N   UNL d   1      -1.525  -1.122  -0.023  0.00  0.00    -0.239 N 
ATOM      6  C   UNL d   1       0.924   1.494   0.009  0.00  0.00     0.263 A 
ATOM      7  N   UNL d   1      -2.401  -0.066  -0.111  0.00  0.00    -0.302 N 
ATOM      8  HN  UNL d   1      -3.418  -0.108  -0.175  1.00  0.00     0.186 HD
ATOM      9  N   UNL d   1       2.079   0.708   0.055  0.00  0.00    -0.314 N 
ATOM     10  C   UNL d   1      -1.633   1.025  -0.096  0.00  0.00     0.128 A 
ATOM     11  C   UNL d   1       2.018  -0.677   0.102  0.00  0.00     0.187 A 
ATOM     12  O   UNL d   1       0.919   2.721  -0.014  0.00  0.00    -0.267 OA
ATOM     13  C   UNL d   1       3.358   1.383   0.047  0.00  0.00     0.160 C 
ENDROOT
BRANCH   5  14
ATOM     14  C   UNL d   1      -2.026  -2.459  -0.004  0.00  0.00     0.058 A 
ATOM     15  C   UNL d   1      -1.183  -3.565   0.161  0.00  0.00     0.031 A 
ATOM     16  C   UNL d   1      -1.708  -4.861   0.175  0.00  0.00     0.002 A 
ATOM     17  C   UNL d   1      -3.077  -5.066   0.021  0.00  0.00     0.000 A 
ATOM     18  C   UNL d   1      -3.926  -3.974  -0.143  0.00  0.00     0.002 A 
ATOM     19  C   UNL d   1      -3.406  -2.677  -0.153  0.00  0.00     0.031 A 
ENDBRANCH   5  14
TORSDOF 1
