REMARK  6 active torsions:
REMARK  status: ('A' for Active; 'I' for Inactive)
REMARK    1  A    between atoms: C_12  and  C_2 
REMARK    2  A    between atoms: C_11  and  C_4 
REMARK    3  A    between atoms: S_10  and  C_11 
REMARK    4  A    between atoms: C_13  and  S_10 
REMARK    5  A    between atoms: O_22  and  C_12 
REMARK    6  A    between atoms: C_27  and  O_22 
ROOT
ATOM      1  C   UNL d   1      -0.574   0.666  -0.039  0.00  0.00     0.062 A 
ATOM      2  C   UNL d   1      -2.002   0.777  -0.025  0.00  0.00     0.086 A 
ATOM      3  C   UNL d   1      -0.296  -0.699  -0.036  0.00  0.00     0.132 A 
ATOM      4  C   UNL d   1      -2.488  -0.524   0.028  0.00  0.00     0.083 A 
ATOM      5  O   UNL d   1      -1.452  -1.415   0.007  0.00  0.00    -0.309 OA
ATOM      6  C   UNL d   1       0.527   1.548  -0.037  0.00  0.00     0.172 A 
ATOM      7  C   UNL d   1       0.993  -1.227  -0.065  0.00  0.00     0.192 A 
ATOM      8  C   UNL d   1       1.829   1.041  -0.052  0.00  0.00     0.197 A 
ATOM      9  C   UNL d   1       2.058  -0.330  -0.071  0.00  0.00     0.199 A 
ATOM     10  F   UNL d   1       0.346   2.875   0.011  0.00  0.00    -0.202 F 
ATOM     11  F   UNL d   1       1.211  -2.548  -0.076  0.00  0.00    -0.200 F 
ATOM     12  F   UNL d   1       2.870   1.887  -0.034  0.00  0.00    -0.199 F 
ATOM     13  F   UNL d   1       3.314  -0.791  -0.085  0.00  0.00    -0.199 F 
ENDROOT
BRANCH   4  14
ATOM     14  C   UNL d   1      -3.857  -1.116   0.079  0.00  0.00     0.180 C 
BRANCH  14  15
ATOM     15  S   UNL d   1      -4.497  -1.382  -1.608  0.00  0.00     0.056 S 
ATOM     16  O   UNL d   1      -4.793  -0.041  -2.215  0.00  0.00    -0.252 OA
BRANCH  15  17
ATOM     17  C   UNL d   1      -6.107  -2.108  -1.188  0.00  0.00     0.032 A 
ATOM     18  C   UNL d   1      -7.299  -1.448  -1.514  0.00  0.00     0.023 A 
ATOM     19  C   UNL d   1      -8.537  -2.055  -1.277  0.00  0.00     0.025 A 
ATOM     20  C   UNL d   1      -8.588  -3.329  -0.715  0.00  0.00     0.034 A 
ATOM     21  C   UNL d   1      -7.412  -3.994  -0.378  0.00  0.00     0.025 A 
ATOM     22 CL   UNL d   1     -10.107  -4.092  -0.455  0.00  0.00    -0.084 Cl
ATOM     23  C   UNL d   1      -6.172  -3.387  -0.619  0.00  0.00     0.023 A 
ENDBRANCH  15  17
ENDBRANCH  14  15
ENDBRANCH   4  14
BRANCH   2  24
ATOM     24  C   UNL d   1      -2.843   1.958  -0.082  0.00  0.00     0.296 C 
ATOM     25  O   UNL d   1      -3.993   1.976   0.336  0.00  0.00    -0.259 OA
BRANCH  24  26
ATOM     26  O   UNL d   1      -2.224   2.994  -0.709  0.00  0.00    -0.318 OA
BRANCH  26  27
ATOM     27  C   UNL d   1      -3.075   4.070  -1.121  0.00  0.00     0.174 C 
ATOM     28  C   UNL d   1      -3.618   3.751  -2.502  0.00  0.00     0.034 C 
ENDBRANCH  26  27
ENDBRANCH  24  26
ENDBRANCH   2  24
TORSDOF 6
