REMARK  1 active torsions:
REMARK  status: ('A' for Active; 'I' for Inactive)
REMARK    1  A    between atoms: O_9  and  C_4 
ROOT
ATOM      1  C   UNL d   1       2.453  -0.747   0.003  0.00  0.00     0.108 A 
ATOM      2  C   UNL d   1       2.458   0.754   0.029  0.00  0.00     0.267 A 
ATOM      3  N   UNL d   1       1.223   1.401   0.039  0.00  0.00    -0.317 N 
ATOM      4  C   UNL d   1       1.294  -1.427   0.020  0.00  0.00     0.100 A 
ATOM      5  C   UNL d   1       0.008  -0.720   0.030  0.00  0.00     0.025 A 
ATOM      6  C   UNL d   1      -0.012   0.684   0.025  0.00  0.00     0.050 A 
ATOM      7  O   UNL d   1       3.525   1.370   0.039  0.00  0.00    -0.267 OA
ATOM      8  I   UNL d   1       4.283  -1.726  -0.074  0.00  0.00    -0.036 I 
ATOM      9  C   UNL d   1       1.211   2.857   0.069  0.00  0.00     0.159 C 
ATOM     10  C   UNL d   1      -1.207  -1.429   0.018  0.00  0.00     0.016 A 
ATOM     11  C   UNL d   1      -1.252   1.347  -0.004  0.00  0.00     0.031 A 
ATOM     12  C   UNL d   1      -2.428  -0.759  -0.021  0.00  0.00     0.001 A 
ATOM     13  C   UNL d   1      -2.449   0.629  -0.037  0.00  0.00     0.002 A 
ENDROOT
BRANCH   4  14
ATOM     14  O   UNL d   1       1.217  -2.809   0.005  0.00  0.00    -0.358 OA
ATOM     15  H   UNL d   1       2.128  -3.158  -0.019  0.00  0.00     0.217 HD
ENDBRANCH   4  14
TORSDOF 1
