REMARK  3 active torsions:
REMARK  status: ('A' for Active; 'I' for Inactive)
REMARK       I    between atoms: N_2  and  C_1 
REMARK    1  A    between atoms: C_5  and  C_1 
REMARK       I    between atoms: C_3  and  N_2 
REMARK    2  A    between atoms: C_4  and  C_3 
REMARK       I    between atoms: N_6  and  C_4 
REMARK    3  A    between atoms: C_7  and  N_6 
ROOT
ATOM      1  C   UNL d   1      -0.757  -0.825   0.270  0.00  0.00     0.260 C 
ATOM      2  N   UNL d   1       0.531  -1.308   0.334  0.00  0.00    -0.285 N 
ATOM      3  C   UNL d   1       1.031  -2.221   1.241  0.00  0.00     0.316 C 
ATOM      4  O   UNL d   1      -1.656  -1.117   1.050  0.00  0.00    -0.267 OA
ATOM      5  O   UNL d   1       0.457  -2.860   2.107  0.00  0.00    -0.262 OA
ATOM      6  H   UNL d   1       1.220  -0.969  -0.333  0.00  0.00     0.172 HD
ENDROOT
BRANCH   3   7
ATOM      7  C   UNL d   1       2.544  -2.422   1.044  0.00  0.00     0.314 C 
ATOM      8  N   UNL d   1       3.081  -3.336   1.925  0.00  0.00    -0.316 N 
ATOM      9  H   UNL d   1       2.388  -3.838   2.477  0.00  0.00     0.169 HD
ATOM     10  O   UNL d   1       3.075  -1.810   0.128  0.00  0.00    -0.262 OA
BRANCH   8  11
ATOM     11  C   UNL d   1       4.432  -3.720   2.040  0.00  0.00     0.074 A 
ATOM     12  C   UNL d   1       5.521  -2.990   1.544  0.00  0.00     0.144 A 
ATOM     13  C   UNL d   1       6.828  -3.457   1.676  0.00  0.00     0.063 A 
ATOM     14  F   UNL d   1       5.364  -1.778   0.996  0.00  0.00    -0.204 F 
ATOM     15  C   UNL d   1       7.062  -4.665   2.321  0.00  0.00     0.014 A 
ATOM     16  C   UNL d   1       6.001  -5.394   2.854  0.00  0.00     0.021 A 
ATOM     17 BR   UNL d   1       8.829  -5.314   2.489  0.00  0.00    -0.051 Br
ATOM     18  C   UNL d   1       4.692  -4.917   2.723  0.00  0.00     0.034 A 
ENDBRANCH   8  11
ENDBRANCH   3   7
BRANCH   1  19
ATOM     19  C   UNL d   1      -1.018   0.202  -0.783  0.00  0.00     0.054 A 
ATOM     20  C   UNL d   1      -0.430   0.208  -2.057  0.00  0.00     0.049 A 
ATOM     21 CL   UNL d   1       0.604  -1.052  -2.635  0.00  0.00    -0.083 Cl
ATOM     22  C   UNL d   1      -0.699   1.255  -2.949  0.00  0.00     0.025 A 
ATOM     23  C   UNL d   1      -1.565   2.287  -2.588  0.00  0.00     0.002 A 
ATOM     24  C   UNL d   1      -2.180   2.270  -1.341  0.00  0.00     0.001 A 
ATOM     25  C   UNL d   1      -1.912   1.233  -0.444  0.00  0.00     0.019 A 
ENDBRANCH   1  19
TORSDOF 3
