REMARK  4 active torsions:
REMARK  status: ('A' for Active; 'I' for Inactive)
REMARK    1  A    between atoms: O_13  and  C_1 
REMARK    2  A    between atoms: C_9  and  N_2 
REMARK    3  A    between atoms: N_7  and  C_3 
REMARK    4  A    between atoms: C_15  and  N_10 
ROOT
ATOM      1  C   UNL d   1      -5.123   1.639   0.461  0.00  0.00     0.193 C 
ATOM      2  N   UNL d   1      -5.421   2.965   0.154  0.00  0.00    -0.232 N 
ATOM      3  C   UNL d   1      -3.750   1.561   0.407  0.00  0.00     0.124 C 
ATOM      4  N   UNL d   1      -4.305   3.679  -0.160  0.00  0.00    -0.294 N 
ATOM      5  HN  UNL d   1      -4.257   4.634  -0.516  1.00  0.00     0.187 HD
ATOM      6  C   UNL d   1      -3.285   2.853   0.102  0.00  0.00     0.055 C 
ATOM      7  C   UNL d   1      -1.892   3.350  -0.001  0.00  0.00     0.072 C 
ENDROOT
BRANCH   3   8
ATOM      8  N   UNL d   1      -3.010   0.398   0.650  0.00  0.00    -0.294 N 
ATOM      9  N   UNL d   1      -2.443  -0.251  -0.266  0.00  0.00    -0.300 N 
ATOM     10  HN  UNL d   1      -2.098  -1.191  -0.073  1.00  0.00     0.187 HD
ATOM     11  HN  UNL d   1      -2.928   0.063   1.610  1.00  0.00     0.187 HD
BRANCH   9  12
ATOM     12  C   UNL d   1      -2.274   0.297  -1.553  0.00  0.00     0.048 A 
ATOM     13  C   UNL d   1      -0.977   0.611  -1.978  0.00  0.00     0.031 A 
ATOM     14  C   UNL d   1      -0.748   1.158  -3.242  0.00  0.00     0.002 A 
ATOM     15  C   UNL d   1      -1.820   1.385  -4.103  0.00  0.00     0.000 A 
ATOM     16  C   UNL d   1      -3.112   1.037  -3.711  0.00  0.00     0.002 A 
ATOM     17  C   UNL d   1      -3.334   0.474  -2.451  0.00  0.00     0.031 A 
ENDBRANCH   9  12
ENDBRANCH   3   8
BRANCH   1  18
ATOM     18  O   UNL d   1      -6.018   0.670   0.678  0.00  0.00    -0.343 OA
ATOM     19  H   UNL d   1      -6.878   0.920   0.300  0.00  0.00     0.219 HD
ENDBRANCH   1  18
BRANCH   2  20
ATOM     20  C   UNL d   1      -6.690   3.604   0.127  0.00  0.00     0.060 A 
ATOM     21  C   UNL d   1      -7.722   3.206   0.986  0.00  0.00     0.055 A 
ATOM     22  C   UNL d   1      -8.955   3.856   0.921  0.00  0.00     0.036 A 
ATOM     23 CL   UNL d   1     -10.218   3.391   1.995  0.00  0.00    -0.084 Cl
ATOM     24  C   UNL d   1      -9.175   4.884   0.006  0.00  0.00     0.024 A 
ATOM     25  C   UNL d   1      -8.142   5.292  -0.838  0.00  0.00     0.004 A 
ATOM     26  C   UNL d   1      -6.895   4.669  -0.765  0.00  0.00     0.032 A 
ENDBRANCH   2  20
TORSDOF 4
