REMARK  7 active torsions:
REMARK  status: ('A' for Active; 'I' for Inactive)
REMARK    1  A    between atoms: C_10  and  C_1 
REMARK    2  A    between atoms: O_13  and  C_9 
REMARK    3  A    between atoms: O_19  and  C_10 
REMARK    4  A    between atoms: C_17  and  O_13 
REMARK    5  A    between atoms: C_16  and  C_18 
REMARK    6  A    between atoms: C_18  and  C_20 
REMARK    7  A    between atoms: C_26  and  O_19 
ROOT
ATOM      1  C   UNL d   1      -2.337  -0.200   0.089  0.00  0.00     0.127 A 
ATOM      2  N   UNL d   1      -0.203  -0.690   0.043  0.00  0.00    -0.247 N 
ATOM      3  N   UNL d   1      -1.647   1.008   0.104  0.00  0.00    -0.335 N 
ATOM      4  HN  UNL d   1      -2.046   1.946   0.140  1.00  0.00     0.168 HD
ATOM      5  C   UNL d   1      -0.372   0.685   0.063  0.00  0.00     0.127 A 
ATOM      6  C   UNL d   1      -1.443  -1.253   0.093  0.00  0.00     0.154 A 
ATOM      7  N   UNL d   1       0.955  -1.381  -0.098  0.00  0.00    -0.272 N 
ATOM      8  HN  UNL d   1       1.013  -2.399  -0.112  1.00  0.00     0.189 HD
ATOM      9  C   UNL d   1       1.977  -0.597  -0.212  0.00  0.00     0.163 A 
ATOM     10  C   UNL d   1       0.796   1.479  -0.005  0.00  0.00     0.054 A 
ATOM     11  C   UNL d   1       1.987   0.882  -0.134  0.00  0.00     0.061 A 
ENDROOT
BRANCH   9  12
ATOM     12  O   UNL d   1       3.270  -1.037  -0.466  0.00  0.00    -0.293 OA
BRANCH  12  13
ATOM     13  C   UNL d   1       3.439  -2.344  -0.964  0.00  0.00     0.077 A 
ATOM     14  C   UNL d   1       2.657  -2.830  -2.013  0.00  0.00     0.038 A 
ATOM     15  C   UNL d   1       2.872  -4.120  -2.496  0.00  0.00     0.010 A 
ATOM     16  C   UNL d   1       3.887  -4.921  -1.956  0.00  0.00    -0.051 A 
ATOM     17  C   UNL d   1       4.701  -4.396  -0.938  0.00  0.00     0.010 A 
ATOM     18  C   UNL d   1       4.478  -3.108  -0.440  0.00  0.00     0.038 A 
BRANCH  16  19
ATOM     19  C   UNL d   1       4.115  -6.311  -2.494  0.00  0.00     0.116 C 
BRANCH  19  20
ATOM     20  C   UNL d   1       4.001  -7.398  -1.446  0.00  0.00     0.127 C 
ATOM     21  O   UNL d   1       4.959  -8.122  -1.168  0.00  0.00    -0.298 OA
ATOM     22  C   UNL d   1       2.658  -7.600  -0.791  0.00  0.00     0.091 C 
ENDBRANCH  19  20
ENDBRANCH  16  19
ENDBRANCH  12  13
ENDBRANCH   9  12
BRANCH   1  23
ATOM     23  C   UNL d   1      -3.788  -0.330  -0.024  0.00  0.00     0.311 C 
ATOM     24  O   UNL d   1      -4.356  -1.414  -0.110  0.00  0.00    -0.258 OA
BRANCH  23  25
ATOM     25  O   UNL d   1      -4.408   0.879  -0.136  0.00  0.00    -0.317 OA
BRANCH  25  26
ATOM     26  C   UNL d   1      -5.724   0.842  -0.699  0.00  0.00     0.175 C 
ATOM     27  C   UNL d   1      -5.596   0.922  -2.210  0.00  0.00     0.034 C 
ENDBRANCH  25  26
ENDBRANCH  23  25
ENDBRANCH   1  23
TORSDOF 7
