REMARK  6 active torsions:
REMARK  status: ('A' for Active; 'I' for Inactive)
REMARK    1  A    between atoms: N_6  and  C_1 
REMARK    2  A    between atoms: C_8  and  C_2 
REMARK    3  A    between atoms: C_9  and  C_5 
REMARK       I    between atoms: C_7  and  N_6 
REMARK    4  A    between atoms: C_11  and  C_7 
REMARK    5  A    between atoms: O_13  and  C_8 
REMARK    6  A    between atoms: C_18  and  O_13 
ROOT
ATOM      1  C   UNL d   1       0.311   1.407   0.083  0.00  0.00     0.094 A 
ATOM      2  C   UNL d   1       1.576   0.852   0.000  0.00  0.00     0.074 A 
ATOM      3  S   UNL d   1      -0.919   0.242   0.244  0.00  0.00    -0.071 SA
ATOM      4  C   UNL d   1       1.463  -0.590  -0.052  0.00  0.00     0.040 A 
ATOM      5  C   UNL d   1       0.168  -1.072   0.035  0.00  0.00     0.018 A 
ENDROOT
BRANCH   1   6
ATOM      6  N   UNL d   1      -0.174   2.706   0.073  0.00  0.00    -0.316 N 
ATOM      7  C   UNL d   1       0.247   3.575  -0.920  0.00  0.00     0.256 C 
ATOM      8  O   UNL d   1       1.024   3.277  -1.826  0.00  0.00    -0.267 OA
ATOM      9  H   UNL d   1      -1.118   2.835   0.414  0.00  0.00     0.169 HD
BRANCH   7  10
ATOM     10  C   UNL d   1      -0.361   4.939  -0.927  0.00  0.00     0.032 A 
ATOM     11  C   UNL d   1      -0.694   5.623   0.250  0.00  0.00     0.017 A 
ATOM     12  C   UNL d   1      -1.132   6.954   0.182  0.00  0.00     0.001 A 
ATOM     13  C   UNL d   1      -1.247   7.599  -1.051  0.00  0.00     0.000 A 
ATOM     14  C   UNL d   1      -0.944   6.913  -2.224  0.00  0.00     0.001 A 
ATOM     15  C   UNL d   1      -0.503   5.589  -2.162  0.00  0.00     0.017 A 
ENDBRANCH   7  10
ENDBRANCH   1   6
BRANCH   2  16
ATOM     16  C   UNL d   1       2.877   1.527   0.056  0.00  0.00     0.296 C 
ATOM     17  O   UNL d   1       3.932   0.925  -0.102  0.00  0.00    -0.259 OA
BRANCH  16  18
ATOM     18  O   UNL d   1       2.801   2.823   0.486  0.00  0.00    -0.318 OA
BRANCH  18  19
ATOM     19  C   UNL d   1       3.995   3.385   1.038  0.00  0.00     0.174 C 
ATOM     20  C   UNL d   1       4.710   4.297   0.059  0.00  0.00     0.034 C 
ENDBRANCH  18  19
ENDBRANCH  16  18
ENDBRANCH   2  16
BRANCH   5  21
ATOM     21  C   UNL d   1      -0.293  -2.478  -0.019  0.00  0.00    -0.019 A 
ATOM     22  C   UNL d   1       0.482  -3.447  -0.684  0.00  0.00     0.013 A 
ATOM     23  C   UNL d   1       0.085  -4.788  -0.739  0.00  0.00     0.001 A 
ATOM     24  C   UNL d   1      -1.101  -5.188  -0.133  0.00  0.00     0.000 A 
ATOM     25  C   UNL d   1      -1.886  -4.247   0.529  0.00  0.00     0.001 A 
ATOM     26  C   UNL d   1      -1.485  -2.907   0.587  0.00  0.00     0.013 A 
ENDBRANCH   5  21
TORSDOF 6
