REMARK  4 active torsions:
REMARK  status: ('A' for Active; 'I' for Inactive)
REMARK    1  A    between atoms: C_2  and  C_1 
REMARK    2  A    between atoms: O_8  and  C_5 
REMARK    3  A    between atoms: C_12  and  O_8 
REMARK    4  A    between atoms: O_19  and  C_14 
ROOT
ATOM      1  C   UNL d   1      -3.484  -3.780  -1.378  0.00  0.00     0.063 A 
ATOM      2  N   UNL d   1      -1.368  -4.857  -0.934  0.00  0.00    -0.346 N 
ATOM      3  HN  UNL d   1      -0.509  -5.289  -1.275  1.00  0.00     0.167 HD
ATOM      4  C   UNL d   1      -1.615  -4.726   0.390  0.00  0.00     0.147 A 
ATOM      5  C   UNL d   1      -2.306  -4.391  -1.785  0.00  0.00     0.106 A 
ATOM      6  C   UNL d   1      -3.686  -3.614  -0.003  0.00  0.00     0.022 A 
ATOM      7  C   UNL d   1      -2.734  -4.087   0.899  0.00  0.00     0.057 A 
ENDROOT
BRANCH   4   8
ATOM      8  O   UNL d   1      -0.711  -5.241   1.309  0.00  0.00    -0.294 OA
BRANCH   8   9
ATOM      9  C   UNL d   1      -0.054  -6.397   0.950  0.00  0.00     0.078 A 
ATOM     10  C   UNL d   1       1.302  -6.483   1.267  0.00  0.00     0.040 A 
ATOM     11  C   UNL d   1       2.030  -7.629   0.927  0.00  0.00     0.039 A 
ATOM     12  C   UNL d   1       1.399  -8.690   0.274  0.00  0.00     0.068 A 
ATOM     13  C   UNL d   1       0.029  -8.625   0.017  0.00  0.00     0.039 A 
ATOM     14  C   UNL d   1      -0.700  -7.486   0.358  0.00  0.00     0.040 A 
BRANCH  12  15
ATOM     15  O   UNL d   1       2.012  -9.846  -0.125  0.00  0.00    -0.356 OA
ATOM     16  C   UNL d   1       3.393  -9.721  -0.446  0.00  0.00     0.210 C 
ENDBRANCH  12  15
ENDBRANCH   8   9
ENDBRANCH   4   8
BRANCH   1  17
ATOM     17  C   UNL d   1      -4.501  -3.336  -2.384  0.00  0.00     0.418 C 
ATOM     18  F   UNL d   1      -4.155  -3.612  -3.672  0.00  0.00    -0.166 F 
ATOM     19  F   UNL d   1      -4.730  -1.995  -2.339  0.00  0.00    -0.166 F 
ATOM     20  F   UNL d   1      -5.713  -3.928  -2.191  0.00  0.00    -0.166 F 
ENDBRANCH   1  17
TORSDOF 4
