REMARK  4 active torsions:
REMARK  status: ('A' for Active; 'I' for Inactive)
REMARK    1  A    between atoms: C_7  and  C_1 
REMARK       I    between atoms: N_11  and  C_7 
REMARK    2  A    between atoms: N_9  and  C_12 
REMARK    3  A    between atoms: C_20  and  N_11 
REMARK    4  A    between atoms: C_21  and  C_20 
ROOT
ATOM      1  C   UNL d   1       4.969  -6.361  -0.187  0.00  0.00     0.030 A 
ATOM      2  C   UNL d   1       5.363  -5.018  -0.296  0.00  0.00     0.030 A 
ATOM      3  C   UNL d   1       3.598  -6.601  -0.031  0.00  0.00     0.030 A 
ATOM      4  C   UNL d   1       3.082  -4.222  -0.067  0.00  0.00    -0.040 A 
ATOM      5  C   UNL d   1       4.442  -3.965  -0.243  0.00  0.00     0.011 A 
ATOM      6  C   UNL d   1       2.665  -5.553   0.027  0.00  0.00     0.011 A 
ENDROOT
BRANCH   4   7
ATOM      7  C   UNL d   1       2.099  -3.089   0.025  0.00  0.00     0.161 C 
BRANCH   7   8
ATOM      8  N   UNL d   1       1.606  -2.672  -1.266  0.00  0.00    -0.352 N 
ATOM      9  C   UNL d   1       0.737  -1.600  -1.355  0.00  0.00     0.262 C 
ATOM     10  O   UNL d   1       0.390  -1.008  -0.335  0.00  0.00    -0.267 OA
ATOM     11  H   UNL d   1       1.893  -3.179  -2.094  0.00  0.00     0.163 HD
BRANCH   9  12
ATOM     12  C   UNL d   1       0.273  -1.225  -2.670  0.00  0.00     0.114 A 
ATOM     13  C   UNL d   1      -0.570  -0.184  -3.060  0.00  0.00     0.046 A 
ATOM     14  N   UNL d   1      -0.814  -0.119  -4.431  0.00  0.00    -0.298 N 
ATOM     15  C   UNL d   1      -1.231   0.848  -2.218  0.00  0.00     0.071 C 
ATOM     16  N   UNL d   1      -0.185  -1.072  -5.092  0.00  0.00    -0.269 N 
ATOM     17  HN  UNL d   1      -1.408   0.582  -4.871  1.00  0.00     0.187 HD
ATOM     18  S   UNL d   1       0.710  -2.067  -4.098  0.00  0.00     0.009 SA
ATOM     19  HN  UNL d   1      -0.240  -1.188  -6.104  1.00  0.00     0.195 HD
ENDBRANCH   9  12
ENDBRANCH   7   8
ENDBRANCH   4   7
BRANCH   1  20
ATOM     20  N   UNL d   1       5.912  -7.370  -0.312  0.00  0.00    -0.378 N 
ATOM     21  C   UNL d   1       5.524  -8.749  -0.647  0.00  0.00     0.153 C 
ATOM     22  C   UNL d   1       6.700  -9.445  -1.376  0.00  0.00     0.291 C 
ATOM     23  N   UNL d   1       7.957  -9.433  -0.590  0.00  0.00     0.087 N 
ATOM     24  C   UNL d   1       8.291  -8.036  -0.225  0.00  0.00     0.291 C 
ATOM     25  C   UNL d   1       9.045 -10.034  -1.359  0.00  0.00     0.310 C 
ATOM     26  C   UNL d   1       7.137  -7.311   0.512  0.00  0.00     0.153 C 
ENDBRANCH   1  20
TORSDOF 4
