REMARK  4 active torsions:
REMARK  status: ('A' for Active; 'I' for Inactive)
REMARK    1  A    between atoms: C_7  and  C_1 
REMARK    2  A    between atoms: N_4  and  C_2 
REMARK       I    between atoms: C_5  and  N_4 
REMARK    3  A    between atoms: C_9  and  C_5 
REMARK    4  A    between atoms: O_14  and  C_7 
ROOT
ATOM      1  C   UNL d   1      -0.921   1.450  -0.341  0.00  0.00     0.107 C 
ATOM      2  C   UNL d   1       0.446   1.182  -0.317  0.00  0.00     0.064 C 
ATOM      3  S   UNL d   1      -1.841   0.002  -0.389  0.00  0.00    -0.093 SA
ATOM      4  C   UNL d   1       0.713  -0.223  -0.118  0.00  0.00    -0.027 C 
ATOM      5  C   UNL d   1      -0.453  -0.962  -0.198  0.00  0.00     0.059 C 
ATOM      6  C   UNL d   1       2.028  -0.842   0.233  0.00  0.00     0.051 C 
ENDROOT
BRANCH   2   7
ATOM      7  N   UNL d   1       1.367   2.217  -0.308  0.00  0.00    -0.325 N 
ATOM      8  C   UNL d   1       2.644   2.359  -0.772  0.00  0.00     0.226 C 
ATOM      9  O   UNL d   1       3.330   3.267  -0.304  0.00  0.00    -0.273 OA
ATOM     10  H   UNL d   1       1.024   3.097   0.070  0.00  0.00     0.169 HD
BRANCH   8  11
ATOM     11  C   UNL d   1       3.179   1.660  -1.976  0.00  0.00     0.078 A 
ATOM     12  C   UNL d   1       2.449   1.912  -3.289  0.00  0.00     0.015 A 
ATOM     13  C   UNL d   1       2.665   0.518  -2.797  0.00  0.00     0.015 A 
ENDBRANCH   8  11
ENDBRANCH   2   7
BRANCH   1  14
ATOM     14  C   UNL d   1      -1.645   2.713  -0.365  0.00  0.00     0.302 C 
ATOM     15  O   UNL d   1      -2.856   2.862  -0.511  0.00  0.00    -0.259 OA
BRANCH  14  16
ATOM     16  O   UNL d   1      -0.779   3.755  -0.169  0.00  0.00    -0.322 OA
ATOM     17  C   UNL d   1      -1.388   5.048  -0.161  0.00  0.00     0.213 C 
ENDBRANCH  14  16
ENDBRANCH   1  14
TORSDOF 4
