REMARK  4 active torsions:
REMARK  status: ('A' for Active; 'I' for Inactive)
REMARK    1  A    between atoms: C_6  and  C_1 
REMARK    2  A    between atoms: C_10  and  C_3 
REMARK    3  A    between atoms: C_7  and  C_4 
REMARK       I    between atoms: N_8  and  C_7 
REMARK    4  A    between atoms: C_9  and  N_8 
ROOT
ATOM      1  C   UNL d   1       0.186   1.221   0.157  0.00  0.00     0.100 A 
ATOM      2  S   UNL d   1      -0.980  -0.055   0.228  0.00  0.00    -0.079 SA
ATOM      3  C   UNL d   1       1.476   0.718   0.021  0.00  0.00    -0.003 A 
ATOM      4  C   UNL d   1       0.207  -1.270   0.185  0.00  0.00     0.074 A 
ATOM      5  C   UNL d   1       1.460  -0.719   0.021  0.00  0.00     0.038 A 
ENDROOT
BRANCH   4   6
ATOM      6  C   UNL d   1      -0.075  -2.694   0.335  0.00  0.00     0.264 C 
ATOM      7  N   UNL d   1      -1.391  -3.065   0.210  0.00  0.00    -0.308 N 
ATOM      8  H   UNL d   1      -2.060  -2.383  -0.123  0.00  0.00     0.170 HD
ATOM      9  O   UNL d   1       0.845  -3.488   0.521  0.00  0.00    -0.267 OA
BRANCH   7  10
ATOM     10  C   UNL d   1      -1.899  -4.364   0.256  0.00  0.00     0.107 A 
ATOM     11  N   UNL d   1      -3.125  -4.494  -0.296  0.00  0.00    -0.352 N 
ATOM     12  C   UNL d   1      -3.643  -5.742  -0.368  0.00  0.00     0.089 A 
ATOM     13  HN  UNL d   1      -3.639  -3.684  -0.644  1.00  0.00     0.166 HD
ATOM     14  C   UNL d   1      -3.010  -6.873   0.118  0.00  0.00     0.017 A 
ATOM     15  C   UNL d   1      -1.775  -6.712   0.731  0.00  0.00     0.005 A 
ATOM     16  C   UNL d   1      -1.211  -5.442   0.803  0.00  0.00     0.048 A 
ENDBRANCH   7  10
ENDBRANCH   4   6
BRANCH   1  17
ATOM     17  C   UNL d   1      -0.311   2.632   0.252  0.00  0.00     0.424 C 
ATOM     18  F   UNL d   1      -1.570   2.725   0.759  0.00  0.00    -0.166 F 
ATOM     19  F   UNL d   1       0.470   3.409   1.044  0.00  0.00    -0.166 F 
ATOM     20  F   UNL d   1      -0.351   3.228  -0.970  0.00  0.00    -0.166 F 
ENDBRANCH   1  17
BRANCH   3  21
ATOM     21  C   UNL d   1       2.711   1.517  -0.040  0.00  0.00    -0.025 A 
ATOM     22  C   UNL d   1       3.874   1.017   0.572  0.00  0.00     0.012 A 
ATOM     23  C   UNL d   1       5.082   1.717   0.516  0.00  0.00     0.001 A 
ATOM     24  C   UNL d   1       5.144   2.940  -0.140  0.00  0.00     0.000 A 
ATOM     25  C   UNL d   1       4.003   3.450  -0.756  0.00  0.00     0.001 A 
ATOM     26  C   UNL d   1       2.799   2.736  -0.723  0.00  0.00     0.012 A 
ENDBRANCH   3  21
TORSDOF 4
