REMARK  7 active torsions:
REMARK  status: ('A' for Active; 'I' for Inactive)
REMARK    1  A    between atoms: C_11  and  C_1 
REMARK    2  A    between atoms: N_5  and  C_2 
REMARK    3  A    between atoms: C_20  and  C_6 
REMARK    4  A    between atoms: C_8  and  C_9 
REMARK    5  A    between atoms: N_22  and  C_9 
REMARK    6  A    between atoms: O_17  and  C_11 
REMARK    7  A    between atoms: N_13  and  O_17 
ROOT
ATOM      1  C   UNL d   1      -1.585  -1.121   0.259  0.00  0.00     0.320 C 
ATOM      2  O   UNL d   1      -2.359  -2.026   0.550  0.00  0.00    -0.257 OA
ENDROOT
BRANCH   1   3
ATOM      3  C   UNL d   1      -0.155  -1.321   0.104  0.00  0.00     0.102 A 
ATOM      4  C   UNL d   1       0.582  -2.537  -0.095  0.00  0.00     0.084 A 
ATOM      5  N   UNL d   1       1.901  -2.277  -0.113  0.00  0.00    -0.259 N 
ATOM      6  O   UNL d   1       2.042  -0.921   0.001  0.00  0.00    -0.241 OA
ATOM      7  HN  UNL d   1       2.653  -2.961  -0.195  1.00  0.00     0.195 HD
ATOM      8  C   UNL d   1       0.823  -0.341   0.107  0.00  0.00     0.091 A 
ATOM      9  C   UNL d   1       0.837   1.132   0.198  0.00  0.00     0.080 C 
BRANCH   4  10
ATOM     10  C   UNL d   1       0.125  -3.914  -0.323  0.00  0.00    -0.006 A 
ATOM     11  C   UNL d   1       0.905  -4.996   0.119  0.00  0.00     0.014 A 
ATOM     12  C   UNL d   1       0.527  -6.314  -0.156  0.00  0.00     0.001 A 
ATOM     13  C   UNL d   1      -0.639  -6.569  -0.873  0.00  0.00     0.000 A 
ATOM     14  C   UNL d   1      -1.422  -5.508  -1.320  0.00  0.00     0.001 A 
ATOM     15  C   UNL d   1      -1.037  -4.190  -1.056  0.00  0.00     0.014 A 
ENDBRANCH   4  10
ENDBRANCH   1   3
BRANCH   1  16
ATOM     16  O   UNL d   1      -1.958   0.187   0.030  0.00  0.00    -0.193 OA
BRANCH  16  17
ATOM     17  N   UNL d   1      -3.367   0.304   0.011  0.00  0.00    -0.244 N 
ATOM     18  C   UNL d   1      -3.742   1.495  -0.353  0.00  0.00     0.133 C 
ATOM     19  HN  UNL d   1      -4.009  -0.451   0.253  1.00  0.00     0.196 HD
BRANCH  18  20
ATOM     20  C   UNL d   1      -5.173   1.713  -0.476  0.00  0.00     0.117 A 
ATOM     21  O   UNL d   1      -5.598   2.955  -0.877  0.00  0.00    -0.285 OA
ATOM     22  C   UNL d   1      -6.953   2.892  -0.952  0.00  0.00     0.215 A 
ATOM     23  C   UNL d   1      -7.426   1.653  -0.590  0.00  0.00     0.066 A 
ATOM     24  C   UNL d   1      -6.270   0.890  -0.276  0.00  0.00     0.045 A 
BRANCH  22  25
ATOM     25  N   UNL d   1      -7.619   4.077  -1.390  0.00  0.00    -0.090 N 
ATOM     26  O   UNL d   1      -8.842   3.989  -1.564  0.00  0.00    -0.530 OA
ATOM     27  O   UNL d   1      -6.933   5.095  -1.556  0.00  0.00    -0.530 OA
ENDBRANCH  22  25
ENDBRANCH  18  20
BRANCH  18  28
ATOM     28  N   UNL d   1      -2.855   2.517  -0.610  0.00  0.00    -0.285 NA
ATOM     29  H   UNL d   1      -3.259   3.448  -0.564  0.00  0.00     0.125 HD
ATOM     30  H   UNL d   1      -1.974   2.426  -0.124  0.00  0.00     0.125 HD
ENDBRANCH  18  28
ENDBRANCH  16  17
ENDBRANCH   1  16
TORSDOF 7
