REMARK  5 active torsions:
REMARK  status: ('A' for Active; 'I' for Inactive)
REMARK    1  A    between atoms: C_8  and  N_1 
REMARK    2  A    between atoms: C_9  and  C_2 
REMARK    3  A    between atoms: S_10  and  C_3 
REMARK    4  A    between atoms: C_11  and  C_9 
REMARK    5  A    between atoms: O_20  and  C_18 
ROOT
ATOM      1  N   UNL d   1      -0.238  -0.946   0.963  0.00  0.00    -0.279 N 
ATOM      2  C   UNL d   1       0.834  -0.766   0.084  0.00  0.00     0.109 A 
ATOM      3  C   UNL d   1      -1.278  -0.261   0.343  0.00  0.00     0.164 A 
ATOM      4  N   UNL d   1       0.433  -0.062  -0.962  0.00  0.00    -0.286 N 
ATOM      5  HN  UNL d   1       1.014   0.209  -1.755  1.00  0.00     0.188 HD
ATOM      6  N   UNL d   1      -0.884   0.238  -0.803  0.00  0.00    -0.278 N 
ATOM      7  HN  UNL d   1      -1.463   0.760  -1.460  1.00  0.00     0.189 HD
ENDROOT
BRANCH   2   8
ATOM      8  C   UNL d   1       2.201  -1.368   0.160  0.00  0.00     0.117 C 
BRANCH   8   9
ATOM      9  C   UNL d   1       2.226  -2.871   0.002  0.00  0.00    -0.048 A 
ATOM     10  C   UNL d   1       1.664  -3.475  -1.139  0.00  0.00     0.044 A 
ATOM     11  C   UNL d   1       1.693  -4.861  -1.299  0.00  0.00     0.068 A 
ATOM     12  C   UNL d   1       2.305  -5.647  -0.321  0.00  0.00     0.037 A 
ATOM     13  C   UNL d   1       2.884  -5.061   0.804  0.00  0.00     0.003 A 
ATOM     14  C   UNL d   1       2.848  -3.677   0.965  0.00  0.00     0.007 A 
BRANCH  11  15
ATOM     15  O   UNL d   1       1.168  -5.561  -2.349  0.00  0.00    -0.356 OA
ATOM     16  C   UNL d   1       0.521  -4.805  -3.366  0.00  0.00     0.210 C 
ENDBRANCH  11  15
ENDBRANCH   8   9
ENDBRANCH   2   8
BRANCH   1  17
ATOM     17  C   UNL d   1      -0.265  -1.657   2.201  0.00  0.00     0.043 A 
ATOM     18  C   UNL d   1       0.824  -1.613   3.079  0.00  0.00     0.032 A 
ATOM     19  C   UNL d   1       0.770  -2.278   4.311  0.00  0.00     0.026 A 
ATOM     20  C   UNL d   1      -0.377  -2.976   4.678  0.00  0.00     0.034 A 
ATOM     21  C   UNL d   1      -1.464  -3.035   3.813  0.00  0.00     0.026 A 
ATOM     22 CL   UNL d   1      -0.455  -3.753   6.209  0.00  0.00    -0.084 Cl
ATOM     23  C   UNL d   1      -1.403  -2.391   2.572  0.00  0.00     0.032 A 
ENDBRANCH   1  17
BRANCH   3  24
ATOM     24  S   UNL d   1      -2.834   0.115   1.018  0.00  0.00    -0.105 SA
ATOM     25  H   UNL d   1      -2.546  -0.016   2.320  0.00  0.00     0.110 HD
ENDBRANCH   3  24
TORSDOF 5
