REMARK  6 active torsions:
REMARK  status: ('A' for Active; 'I' for Inactive)
REMARK    1  A    between atoms: C_13  and  C_5 
REMARK    2  A    between atoms: N_14  and  C_7 
REMARK    3  A    between atoms: C_12  and  C_15 
REMARK    4  A    between atoms: O_22  and  C_13 
REMARK    5  A    between atoms: C_16  and  N_14 
REMARK    6  A    between atoms: C_28  and  O_22 
ROOT
ATOM      1  C   UNL d   1       1.546  -0.811   0.098  0.00  0.00     0.162 A 
ATOM      2  N   UNL d   1       0.874   0.388   0.067  0.00  0.00    -0.221 N 
ATOM      3  N   UNL d   1       0.904  -2.007   0.163  0.00  0.00    -0.325 N 
ATOM      4  HN  UNL d   1       1.436  -2.876   0.214  1.00  0.00     0.169 HD
ATOM      5  C   UNL d   1       2.875  -0.436  -0.009  0.00  0.00     0.167 A 
ATOM      6  N   UNL d   1       1.719   1.433   0.010  0.00  0.00    -0.013 NA
ATOM      7  C   UNL d   1      -0.406  -2.032   0.159  0.00  0.00     0.120 A 
ATOM      8  N   UNL d   1       2.952   0.942  -0.046  0.00  0.00    -0.275 N 
ATOM      9  HN  UNL d   1       3.810   1.490  -0.106  1.00  0.00     0.184 HD
ATOM     10  C   UNL d   1      -1.211  -0.752   0.120  0.00  0.00     0.036 A 
ATOM     11  C   UNL d   1      -0.520   0.468   0.069  0.00  0.00     0.070 A 
ATOM     12  C   UNL d   1      -2.606  -0.736   0.173  0.00  0.00     0.017 A 
ATOM     13  C   UNL d   1      -1.191   1.692   0.029  0.00  0.00     0.032 A 
ATOM     14  C   UNL d   1      -3.288   0.486   0.141  0.00  0.00     0.001 A 
ATOM     15  C   UNL d   1      -2.584   1.692   0.062  0.00  0.00     0.002 A 
ENDROOT
BRANCH   7  16
ATOM     16  N   UNL d   1      -1.085  -3.242   0.167  0.00  0.00    -0.342 N 
ATOM     17  H   UNL d   1      -1.893  -3.319  -0.435  0.00  0.00     0.167 HD
BRANCH  16  18
ATOM     18  C   UNL d   1      -0.484  -4.478   0.490  0.00  0.00     0.034 A 
ATOM     19  C   UNL d   1       0.418  -4.591   1.558  0.00  0.00     0.045 A 
ATOM     20  C   UNL d   1       1.062  -5.801   1.855  0.00  0.00     0.050 A 
ATOM     21  C   UNL d   1       0.802  -6.917   1.049  0.00  0.00     0.016 A 
ATOM     22  C   UNL d   1      -0.088  -6.821  -0.021  0.00  0.00     0.003 A 
ATOM     23  C   UNL d   1      -0.730  -5.610  -0.296  0.00  0.00     0.029 A 
BRANCH  20  24
ATOM     24  C   UNL d   1       2.027  -5.899   3.009  0.00  0.00     0.417 C 
ATOM     25  F   UNL d   1       2.134  -4.755   3.740  0.00  0.00    -0.166 F 
ATOM     26  F   UNL d   1       1.671  -6.872   3.896  0.00  0.00    -0.166 F 
ATOM     27  F   UNL d   1       3.292  -6.208   2.608  0.00  0.00    -0.166 F 
ENDBRANCH  20  24
ENDBRANCH  16  18
ENDBRANCH   7  16
BRANCH   5  28
ATOM     28  C   UNL d   1       4.036  -1.298  -0.148  0.00  0.00     0.315 C 
ATOM     29  O   UNL d   1       5.171  -0.878  -0.350  0.00  0.00    -0.257 OA
BRANCH  28  30
ATOM     30  O   UNL d   1       3.714  -2.624  -0.109  0.00  0.00    -0.317 OA
BRANCH  30  31
ATOM     31  C   UNL d   1       4.706  -3.544  -0.575  0.00  0.00     0.175 C 
ATOM     32  C   UNL d   1       4.567  -3.689  -2.080  0.00  0.00     0.034 C 
ENDBRANCH  30  31
ENDBRANCH  28  30
ENDBRANCH   5  28
TORSDOF 6
