REMARK  3 active torsions:
REMARK  status: ('A' for Active; 'I' for Inactive)
REMARK    1  A    between atoms: C_7  and  C_3 
REMARK    2  A    between atoms: C_13  and  C_4 
REMARK    3  A    between atoms: O_14  and  C_13 
ROOT
ATOM      1  N   UNL d   1       0.792   0.213  -1.194  0.00  0.00    -0.351 N 
ATOM      2  HN  UNL d   1       1.161   0.388  -2.129  1.00  0.00     0.166 HD
ATOM      3  C   UNL d   1       1.314   0.741  -0.018  0.00  0.00     0.049 A 
ATOM      4  C   UNL d   1      -0.250  -0.550  -0.920  0.00  0.00     0.075 A 
ATOM      5  S   UNL d   1      -0.658  -0.684   0.741  0.00  0.00    -0.084 SA
ATOM      6  C   UNL d   1       0.658   0.339   1.131  0.00  0.00     0.082 A 
ENDROOT
BRANCH   3   7
ATOM      7  C   UNL d   1       2.481   1.619  -0.023  0.00  0.00    -0.009 A 
ATOM      8  C   UNL d   1       2.698   2.559   0.995  0.00  0.00     0.014 A 
ATOM      9  C   UNL d   1       3.835   3.374   0.985  0.00  0.00     0.007 A 
ATOM     10  C   UNL d   1       4.773   3.272  -0.047  0.00  0.00    -0.062 A 
ATOM     11  C   UNL d   1       4.554   2.346  -1.072  0.00  0.00     0.007 A 
ATOM     12  C   UNL d   1       5.993   4.145  -0.035  0.00  0.00     0.048 C 
ATOM     13  C   UNL d   1       3.416   1.532  -1.062  0.00  0.00     0.014 A 
ENDBRANCH   3   7
BRANCH   4  14
ATOM     14  C   UNL d   1      -1.063  -1.265  -1.955  0.00  0.00     0.229 C 
BRANCH  14  15
ATOM     15  O   UNL d   1      -0.228  -1.522  -3.085  0.00  0.00    -0.394 OA
ATOM     16  H   UNL d   1       0.446  -0.813  -3.081  0.00  0.00     0.209 HD
ENDBRANCH  14  15
ENDBRANCH   4  14
TORSDOF 3
