REMARK  5 active torsions:
REMARK  status: ('A' for Active; 'I' for Inactive)
REMARK    1  A    between atoms: C_11  and  N_3 
REMARK    2  A    between atoms: N_17  and  C_9 
REMARK    3  A    between atoms: C_25  and  C_11 
REMARK    4  A    between atoms: C_12  and  C_19 
REMARK    5  A    between atoms: N_13  and  N_17 
ROOT
ATOM      1  C   UNL d   1      -0.172  -0.829   0.013  0.00  0.00     0.160 A 
ATOM      2  C   UNL d   1      -0.407   0.514   0.018  0.00  0.00     0.164 A 
ATOM      3  N   UNL d   1       1.925   0.881   0.069  0.00  0.00    -0.260 N 
ATOM      4  N   UNL d   1      -1.311  -1.548  -0.090  0.00  0.00    -0.172 N 
ATOM      5  HN  UNL d   1      -1.399  -2.563  -0.136  1.00  0.00     0.186 HD
ATOM      6  N   UNL d   1       1.090  -1.356   0.082  0.00  0.00    -0.287 N 
ATOM      7  C   UNL d   1       2.183  -0.498   0.170  0.00  0.00     0.333 A 
ATOM      8  C   UNL d   1       0.653   1.469   0.024  0.00  0.00     0.283 A 
ATOM      9  C   UNL d   1      -2.283  -0.660  -0.118  0.00  0.00     0.701 A 
ATOM     10  N   UNL d   1      -1.777   0.624  -0.004  0.00  0.00    -0.177 N 
ATOM     11  O   UNL d   1       3.320  -0.945   0.335  0.00  0.00    -0.246 OA
ATOM     12  O   UNL d   1       0.462   2.682  -0.001  0.00  0.00    -0.265 OA
ATOM     13  C   UNL d   1       1.317  -2.788   0.085  0.00  0.00     0.163 C 
ATOM     14  C   UNL d   1      -2.566   1.831  -0.015  0.00  0.00     0.176 C 
ENDROOT
BRANCH   9  15
ATOM     15  N   UNL d   1      -3.606  -0.907  -0.341  0.00  0.00    -0.132 N 
ATOM     16  H   UNL d   1      -4.263  -0.426   0.273  0.00  0.00     0.205 HD
BRANCH  15  17
ATOM     17  N   UNL d   1      -4.069  -2.140  -0.764  0.00  0.00    -0.296 N 
ATOM     18  C   UNL d   1      -3.410  -2.643  -1.769  0.00  0.00     0.126 C 
ATOM     19  HN  UNL d   1      -4.859  -2.615  -0.326  1.00  0.00     0.186 HD
BRANCH  18  20
ATOM     20  C   UNL d   1      -3.695  -3.945  -2.315  0.00  0.00     0.021 A 
ATOM     21  S   UNL d   1      -2.772  -4.483  -3.655  0.00  0.00    -0.101 SA
ATOM     22  C   UNL d   1      -3.614  -5.968  -3.721  0.00  0.00     0.050 A 
ATOM     23  C   UNL d   1      -4.575  -6.059  -2.739  0.00  0.00     0.008 A 
ATOM     24  C   UNL d   1      -4.620  -4.889  -1.922  0.00  0.00     0.021 A 
ENDBRANCH  18  20
ENDBRANCH  15  17
ENDBRANCH   9  15
BRANCH   3  25
ATOM     25  C   UNL d   1       3.084   1.765   0.045  0.00  0.00     0.175 C 
BRANCH  25  26
ATOM     26  C   UNL d   1       3.682   1.900  -1.342  0.00  0.00    -0.040 A 
ATOM     27  C   UNL d   1       3.277   2.932  -2.200  0.00  0.00     0.009 A 
ATOM     28  C   UNL d   1       3.828   3.046  -3.480  0.00  0.00     0.001 A 
ATOM     29  C   UNL d   1       4.778   2.125  -3.921  0.00  0.00     0.000 A 
ATOM     30  C   UNL d   1       5.183   1.092  -3.082  0.00  0.00     0.001 A 
ATOM     31  C   UNL d   1       4.641   0.982  -1.800  0.00  0.00     0.009 A 
ENDBRANCH  25  26
ENDBRANCH   3  25
TORSDOF 5
