REMARK  8 active torsions:
REMARK  status: ('A' for Active; 'I' for Inactive)
REMARK    1  A    between atoms: N_2  and  C_1 
REMARK    2  A    between atoms: N_8  and  C_1 
REMARK    3  A    between atoms: C_3  and  N_2 
REMARK    4  A    between atoms: O_17  and  C_4 
REMARK    5  A    between atoms: O_18  and  C_6 
REMARK    6  A    between atoms: C_19  and  N_8 
REMARK    7  A    between atoms: C_15  and  C_20 
REMARK    8  A    between atoms: C_20  and  C_19 
ROOT
ATOM      1  N   UNL d   1       2.315   0.076  -0.018  0.00  0.00    -0.367 N 
ATOM      2  H   UNL d   1       2.748  -0.545   0.659  0.00  0.00     0.161 HD
ENDROOT
BRANCH   1   3
ATOM      3  C   UNL d   1       0.970  -0.147  -0.185  0.00  0.00     0.172 C 
ATOM      4  S   UNL d   1       0.259  -1.292   0.802  0.00  0.00    -0.041 SA
BRANCH   3   5
ATOM      5  N   UNL d   1       0.358   0.650  -1.121  0.00  0.00    -0.333 N 
ATOM      6  H   UNL d   1       0.708   1.595  -1.153  0.00  0.00     0.168 HD
BRANCH   5   7
ATOM      7  C   UNL d   1      -0.829   0.425  -1.852  0.00  0.00     0.035 A 
ATOM      8  C   UNL d   1      -1.559   1.539  -2.285  0.00  0.00     0.036 A 
ATOM      9  C   UNL d   1      -2.708   1.388  -3.069  0.00  0.00    -0.059 A 
ATOM     10  C   UNL d   1      -3.524   2.576  -3.485  0.00  0.00     0.048 C 
ATOM     11  C   UNL d   1      -3.089   0.102  -3.475  0.00  0.00     0.013 A 
ATOM     12  C   UNL d   1      -2.344  -1.018  -3.093  0.00  0.00    -0.059 A 
ATOM     13  C   UNL d   1      -1.238  -0.851  -2.250  0.00  0.00     0.036 A 
ATOM     14  C   UNL d   1      -2.734  -2.377  -3.590  0.00  0.00     0.048 C 
ENDBRANCH   5   7
ENDBRANCH   3   5
ENDBRANCH   1   3
BRANCH   1  15
ATOM     15  C   UNL d   1       3.175   0.823  -0.920  0.00  0.00     0.126 C 
BRANCH  15  16
ATOM     16  C   UNL d   1       4.658   0.744  -0.554  0.00  0.00     0.058 C 
BRANCH  16  17
ATOM     17  C   UNL d   1       5.447   1.678  -1.443  0.00  0.00    -0.054 A 
ATOM     18  C   UNL d   1       5.985   1.232  -2.660  0.00  0.00     0.046 A 
ATOM     19  C   UNL d   1       6.600   2.124  -3.558  0.00  0.00     0.102 A 
ATOM     20  C   UNL d   1       6.658   3.489  -3.225  0.00  0.00     0.101 A 
ATOM     21  C   UNL d   1       6.159   3.918  -1.987  0.00  0.00     0.040 A 
ATOM     22  C   UNL d   1       5.559   3.025  -1.101  0.00  0.00     0.010 A 
BRANCH  19  23
ATOM     23  O   UNL d   1       7.139   1.726  -4.753  0.00  0.00    -0.353 OA
ATOM     24  C   UNL d   1       7.057   0.355  -5.117  0.00  0.00     0.210 C 
ENDBRANCH  19  23
BRANCH  20  25
ATOM     25  O   UNL d   1       7.157   4.534  -3.962  0.00  0.00    -0.353 OA
ATOM     26  C   UNL d   1       7.571   4.301  -5.298  0.00  0.00     0.210 C 
ENDBRANCH  20  25
ENDBRANCH  16  17
ENDBRANCH  15  16
ENDBRANCH   1  15
TORSDOF 8
