REMARK  3 active torsions:
REMARK  status: ('A' for Active; 'I' for Inactive)
REMARK    1  A    between atoms: S_5  and  C_1 
REMARK    2  A    between atoms: C_4  and  C_3 
REMARK       I    between atoms: N_8  and  C_4 
REMARK    3  A    between atoms: C_9  and  S_5 
ROOT
ATOM      1  C   UNL d   1       1.362  -1.340  -0.315  0.00  0.00     0.017 A 
ATOM      2  C   UNL d   1       0.046  -0.774  -0.134  0.00  0.00     0.007 A 
ATOM      3  C   UNL d   1      -1.245  -1.421  -0.107  0.00  0.00     0.044 A 
ATOM      4  C   UNL d   1       0.013   0.649   0.021  0.00  0.00    -0.024 A 
ATOM      5  C   UNL d   1       2.524  -0.546  -0.211  0.00  0.00     0.020 A 
ATOM      6  C   UNL d   1      -2.441  -0.675  -0.028  0.00  0.00     0.018 A 
ATOM      7  C   UNL d   1       2.438   0.819  -0.001  0.00  0.00     0.002 A 
ATOM      8  C   UNL d   1      -2.418   0.705   0.063  0.00  0.00     0.002 A 
ATOM      9  C   UNL d   1       1.192   1.410   0.090  0.00  0.00     0.012 A 
ATOM     10  C   UNL d   1      -1.196   1.355   0.103  0.00  0.00     0.012 A 
ENDROOT
BRANCH   1  11
ATOM     11  S   UNL d   1       1.715  -3.054  -0.700  0.00  0.00    -0.090 SA
BRANCH  11  12
ATOM     12  C   UNL d   1       1.822  -3.134  -2.480  0.00  0.00     0.005 A 
ATOM     13  C   UNL d   1       1.712  -2.038  -3.344  0.00  0.00     0.019 A 
ATOM     14  C   UNL d   1       1.826  -2.208  -4.728  0.00  0.00     0.001 A 
ATOM     15  C   UNL d   1       2.048  -3.476  -5.266  0.00  0.00     0.000 A 
ATOM     16  C   UNL d   1       2.157  -4.574  -4.420  0.00  0.00     0.001 A 
ATOM     17  C   UNL d   1       2.046  -4.402  -3.038  0.00  0.00     0.019 A 
ENDBRANCH  11  12
ENDBRANCH   1  11
BRANCH   3  18
ATOM     18  C   UNL d   1      -1.515  -2.887  -0.099  0.00  0.00     0.250 C 
ATOM     19  O   UNL d   1      -2.423  -3.370  -0.766  0.00  0.00    -0.268 OA
ATOM     20  N   UNL d   1      -0.812  -3.665   0.773  0.00  0.00    -0.366 N 
ATOM     21  H   UNL d   1       0.105  -3.371   1.086  0.00  0.00     0.159 HD
ATOM     22  H   UNL d   1      -0.949  -4.661   0.659  0.00  0.00     0.159 HD
ENDBRANCH   3  18
TORSDOF 3
