REMARK  4 active torsions:
REMARK  status: ('A' for Active; 'I' for Inactive)
REMARK    1  A    between atoms: N_6  and  C_1 
REMARK    2  A    between atoms: C_10  and  C_1 
REMARK    3  A    between atoms: C_9  and  C_3 
REMARK    4  A    between atoms: C_13  and  N_6 
ROOT
ATOM      1  C   UNL d   1       3.356  -3.568  -0.672  0.00  0.00     0.124 C 
ATOM      2  N   UNL d   1       5.942  -3.510  -0.591  0.00  0.00    -0.191 NA
ATOM      3  N   UNL d   1       2.204  -5.776  -1.363  0.00  0.00    -0.191 NA
ATOM      4  C   UNL d   1       4.783  -3.549  -0.628  0.00  0.00     0.110 C 
ATOM      5  C   UNL d   1       2.727  -4.788  -1.045  0.00  0.00     0.110 C 
ATOM      6  C   UNL d   1       2.598  -2.484  -0.406  0.00  0.00     0.036 C 
ENDROOT
BRANCH   6   7
ATOM      7  C   UNL d   1       3.112  -1.162  -0.088  0.00  0.00     0.027 C 
ATOM      8  C   UNL d   1       2.407  -0.032   0.135  0.00  0.00     0.023 C 
BRANCH   8   9
ATOM      9  N   UNL d   1       1.022   0.123   0.155  0.00  0.00    -0.259 NA
ATOM     10  H   UNL d   1       0.614  -0.383  -0.631  0.00  0.00     0.134 HD
BRANCH   9  11
ATOM     11  C   UNL d   1       0.186  -0.197   1.269  0.00  0.00     0.012 A 
ATOM     12  C   UNL d   1      -1.072   0.421   1.330  0.00  0.00     0.024 A 
ATOM     13  C   UNL d   1      -2.019   0.055   2.293  0.00  0.00     0.008 A 
ATOM     14  C   UNL d   1      -1.742  -0.970   3.201  0.00  0.00    -0.062 A 
ATOM     15  C   UNL d   1      -0.482  -1.577   3.163  0.00  0.00     0.008 A 
ATOM     16  C   UNL d   1      -2.791  -1.405   4.184  0.00  0.00     0.048 C 
ATOM     17  C   UNL d   1       0.474  -1.191   2.210  0.00  0.00     0.024 A 
ENDBRANCH   9  11
ENDBRANCH   8   9
BRANCH   8  18
ATOM     18  C   UNL d   1       3.182   1.257   0.159  0.00  0.00    -0.015 A 
ATOM     19  C   UNL d   1       4.308   1.446  -0.669  0.00  0.00     0.014 A 
ATOM     20  C   UNL d   1       5.002   2.659  -0.701  0.00  0.00     0.007 A 
ATOM     21  C   UNL d   1       4.570   3.737   0.072  0.00  0.00    -0.062 A 
ATOM     22  C   UNL d   1       3.438   3.577   0.878  0.00  0.00     0.007 A 
ATOM     23  C   UNL d   1       5.311   5.039   0.007  0.00  0.00     0.048 C 
ATOM     24  C   UNL d   1       2.755   2.352   0.922  0.00  0.00     0.014 A 
ENDBRANCH   8  18
ENDBRANCH   6   7
TORSDOF 4
