REMARK  5 active torsions:
REMARK  status: ('A' for Active; 'I' for Inactive)
REMARK    1  A    between atoms: C_2  and  C_1 
REMARK    2  A    between atoms: O_5  and  C_2 
REMARK    3  A    between atoms: C_9  and  O_5 
REMARK    4  A    between atoms: C_6  and  C_9 
REMARK    5  A    between atoms: C_7  and  C_6 
ROOT
ATOM      1  O   UNL d   1      -3.818  -1.215  -0.324  0.00  0.00    -0.310 OA
ENDROOT
BRANCH   1   2
ATOM      2  C   UNL d   1      -3.952  -0.534  -1.494  0.00  0.00     0.295 C 
ATOM      3  O   UNL d   1      -3.626  -0.985  -2.579  0.00  0.00    -0.259 OA
BRANCH   2   4
ATOM      4  C   UNL d   1      -4.451   0.862  -1.230  0.00  0.00     0.057 A 
ATOM      5  C   UNL d   1      -4.762   1.787  -2.247  0.00  0.00     0.022 A 
ATOM      6  C   UNL d   1      -5.174   3.094  -1.917  0.00  0.00     0.021 A 
ATOM      7  I   UNL d   1      -4.679   1.411  -4.318  0.00  0.00    -0.043 I 
ATOM      8  C   UNL d   1      -5.276   3.497  -0.587  0.00  0.00     0.025 A 
ATOM      9  C   UNL d   1      -4.970   2.595   0.421  0.00  0.00     0.035 A 
ATOM     10  C   UNL d   1      -4.563   1.296   0.111  0.00  0.00     0.042 A 
ATOM     11 CL   UNL d   1      -5.078   3.088   2.066  0.00  0.00    -0.084 Cl
ENDBRANCH   2   4
ENDBRANCH   1   2
BRANCH   1  12
ATOM     12  C   UNL d   1      -3.126  -2.462  -0.412  0.00  0.00     0.263 C 
BRANCH  12  13
ATOM     13  C   UNL d   1      -4.007  -3.693  -0.644  0.00  0.00     0.183 C 
ATOM     14  O   UNL d   1      -5.236  -3.633  -0.642  0.00  0.00    -0.290 OA
BRANCH  13  15
ATOM     15  C   UNL d   1      -3.326  -5.013  -0.854  0.00  0.00     0.012 A 
ATOM     16  C   UNL d   1      -1.935  -5.163  -0.749  0.00  0.00     0.016 A 
ATOM     17  C   UNL d   1      -1.331  -6.399  -1.009  0.00  0.00     0.020 A 
ATOM     18  C   UNL d   1      -2.115  -7.494  -1.365  0.00  0.00     0.011 A 
ATOM     19  C   UNL d   1      -3.501  -7.372  -1.438  0.00  0.00     0.020 A 
ATOM     20 BR   UNL d   1      -1.288  -9.145  -1.768  0.00  0.00    -0.051 Br
ATOM     21  C   UNL d   1      -4.105  -6.134  -1.180  0.00  0.00     0.016 A 
ENDBRANCH  13  15
ENDBRANCH  12  13
ENDBRANCH   1  12
TORSDOF 5
