REMARK  5 active torsions:
REMARK  status: ('A' for Active; 'I' for Inactive)
REMARK    1  A    between atoms: C_6  and  C_1 
REMARK    2  A    between atoms: C_16  and  C_5 
REMARK       I    between atoms: C_7  and  N_10 
REMARK    3  A    between atoms: C_11  and  C_7 
REMARK    4  A    between atoms: N_10  and  C_16 
REMARK    5  A    between atoms: O_22  and  C_19 
ROOT
ATOM      1  C   UNL d   1       4.944   1.460  -0.037  0.00  0.00     0.251 C 
ATOM      2  N   UNL d   1       3.708   0.875   0.104  0.00  0.00    -0.351 N 
ATOM      3  O   UNL d   1       5.102   2.639  -0.333  0.00  0.00    -0.268 OA
ATOM      4  H   UNL d   1       3.595  -0.130   0.165  0.00  0.00     0.163 HD
ENDROOT
BRANCH   2   5
ATOM      5  C   UNL d   1       2.506   1.650  -0.068  0.00  0.00     0.180 C 
BRANCH   5   6
ATOM      6  C   UNL d   1       1.292   0.796   0.143  0.00  0.00     0.034 A 
ATOM      7  N   UNL d   1       1.402  -0.571   0.418  0.00  0.00    -0.351 N 
ATOM      8  C   UNL d   1       0.202  -1.110   0.569  0.00  0.00     0.091 A 
ATOM      9  HN  UNL d   1       2.282  -1.080   0.492  1.00  0.00     0.166 HD
ATOM     10  S   UNL d   1      -1.110  -0.007   0.377  0.00  0.00    -0.081 SA
ATOM     11  C   UNL d   1      -0.010   1.260   0.085  0.00  0.00     0.078 A 
BRANCH   8  12
ATOM     12  C   UNL d   1       0.020  -2.515   0.878  0.00  0.00     0.038 A 
ATOM     13  S   UNL d   1      -1.525  -3.262   1.028  0.00  0.00    -0.099 SA
ATOM     14  C   UNL d   1      -0.848  -4.787   1.383  0.00  0.00     0.050 A 
ATOM     15  C   UNL d   1       0.526  -4.750   1.389  0.00  0.00     0.008 A 
ATOM     16  C   UNL d   1       1.024  -3.445   1.096  0.00  0.00     0.022 A 
ENDBRANCH   8  12
ENDBRANCH   5   6
ENDBRANCH   2   5
BRANCH   1  17
ATOM     17  C   UNL d   1       6.117   0.569   0.162  0.00  0.00     0.032 A 
ATOM     18  C   UNL d   1       7.298   0.830  -0.544  0.00  0.00     0.020 A 
ATOM     19  C   UNL d   1       8.413  -0.004  -0.388  0.00  0.00     0.038 A 
ATOM     20  C   UNL d   1       8.353  -1.091   0.486  0.00  0.00     0.068 A 
ATOM     21  C   UNL d   1       7.193  -1.315   1.231  0.00  0.00     0.038 A 
ATOM     22  C   UNL d   1       6.074  -0.496   1.067  0.00  0.00     0.020 A 
BRANCH  20  23
ATOM     23  O   UNL d   1       9.380  -1.959   0.733  0.00  0.00    -0.356 OA
ATOM     24  C   UNL d   1      10.241  -2.215  -0.372  0.00  0.00     0.210 C 
ENDBRANCH  20  23
ENDBRANCH   1  17
TORSDOF 5
