REMARK  2 active torsions:
REMARK  status: ('A' for Active; 'I' for Inactive)
REMARK    1  A    between atoms: C_6  and  C_3 
REMARK    2  A    between atoms: O_10  and  N_7 
ROOT
ATOM      1  S   UNL d   1      -0.884  -1.079   0.022  0.00  0.00    -0.077 SA
ATOM      2  C   UNL d   1       0.237   0.189   0.015  0.00  0.00     0.075 A 
ATOM      3  C   UNL d   1      -2.198   0.020   0.013  0.00  0.00     0.023 A 
ATOM      4  C   UNL d   1      -0.340   1.431   0.005  0.00  0.00     0.033 A 
ATOM      5  C   UNL d   1      -1.764   1.333   0.004  0.00  0.00     0.022 A 
ATOM      6 CL   UNL d   1       1.919  -0.159   0.020  0.00  0.00    -0.076 Cl
ENDROOT
BRANCH   3   7
ATOM      7  C   UNL d   1      -3.547  -0.487   0.018  0.00  0.00     0.132 C 
ATOM      8  N   UNL d   1      -4.556   0.327   0.015  0.00  0.00    -0.279 N 
ATOM      9  HN  UNL d   1      -4.494   1.345   0.009  1.00  0.00     0.193 HD
BRANCH   8  10
ATOM     10  O   UNL d   1      -5.746  -0.412   0.021  0.00  0.00    -0.290 OA
ATOM     11  H   UNL d   1      -6.427   0.287   0.021  0.00  0.00     0.244 HD
ENDBRANCH   8  10
ENDBRANCH   3   7
TORSDOF 2
