REMARK  2 active torsions:
REMARK  status: ('A' for Active; 'I' for Inactive)
REMARK    1  A    between atoms: C_11  and  N_1 
REMARK    2  A    between atoms: C_7  and  C_16 
ROOT
ATOM      1  N   UNL d   1       2.492   0.053   0.083  0.00  0.00    -0.252 N 
ATOM      2  C   UNL d   1       1.709  -1.092  -0.001  0.00  0.00     0.236 C 
ATOM      3  C   UNL d   1       1.695   1.191   0.149  0.00  0.00     0.236 C 
ATOM      4  C   UNL d   1       0.327  -0.613  -0.340  0.00  0.00     0.092 C 
ATOM      5  C   UNL d   1       0.296   0.704   0.404  0.00  0.00     0.092 C 
ATOM      6  C   UNL d   1      -0.878   1.542  -0.063  0.00  0.00     0.015 C 
ATOM      7  O   UNL d   1       2.019  -2.267   0.110  0.00  0.00    -0.272 OA
ATOM      8  O   UNL d   1       1.998   2.369   0.047  0.00  0.00    -0.272 OA
ATOM      9  C   UNL d   1      -0.885  -1.446   0.021  0.00  0.00     0.019 C 
ATOM     10  C   UNL d   1      -2.179   0.762   0.193  0.00  0.00     0.005 C 
ATOM     11  C   UNL d   1      -2.174  -0.681  -0.367  0.00  0.00    -0.018 C 
ATOM     12  C   UNL d   1      -2.381  -0.673  -1.887  0.00  0.00     0.010 C 
ENDROOT
BRANCH   1  13
ATOM     13  C   UNL d   1       3.915   0.066   0.051  0.00  0.00     0.045 A 
ATOM     14  C   UNL d   1       4.642  -1.032  -0.433  0.00  0.00     0.031 A 
ATOM     15  C   UNL d   1       6.042  -1.005  -0.505  0.00  0.00     0.016 A 
ATOM     16  C   UNL d   1       6.755   0.118  -0.076  0.00  0.00    -0.008 A 
ATOM     17  C   UNL d   1       6.041   1.205   0.434  0.00  0.00     0.016 A 
ATOM     18  C   UNL d   1       4.641   1.183   0.486  0.00  0.00     0.031 A 
BRANCH  16  19
ATOM     19  C   UNL d   1       8.207   0.175  -0.140  0.00  0.00     0.063 A 
ATOM     20  N   UNL d   1       8.937   0.905   0.796  0.00  0.00    -0.292 N 
ATOM     21  N   UNL d   1      10.238   0.844   0.565  0.00  0.00    -0.061 NA
ATOM     22  HN  UNL d   1       8.519   1.424   1.568  1.00  0.00     0.183 HD
ATOM     23  S   UNL d   1      10.615  -0.068  -0.784  0.00  0.00    -0.010 SA
ATOM     24  C   UNL d   1       8.973  -0.435  -1.118  0.00  0.00     0.096 A 
ENDBRANCH  16  19
ENDBRANCH   1  13
TORSDOF 2
