REMARK  6 active torsions:
REMARK  status: ('A' for Active; 'I' for Inactive)
REMARK    1  A    between atoms: C_5  and  N_1 
REMARK    2  A    between atoms: S_11  and  C_4 
REMARK    3  A    between atoms: C_7  and  C_9 
REMARK    4  A    between atoms: C_8  and  C_10 
REMARK    5  A    between atoms: C_15  and  S_11 
REMARK    6  A    between atoms: N_25  and  C_18 
ROOT
ATOM      1  N   UNL d   1       0.049   0.863   0.013  0.00  0.00    -0.251 N 
ATOM      2  C   UNL d   1      -1.088   0.126   0.255  0.00  0.00     0.232 C 
ATOM      3  C   UNL d   1       1.148   0.045  -0.121  0.00  0.00     0.245 C 
ATOM      4  C   UNL d   1       0.705  -1.403  -0.162  0.00  0.00     0.154 C 
ATOM      5  C   UNL d   1      -0.765  -1.338   0.195  0.00  0.00     0.129 C 
ATOM      6  O   UNL d   1      -2.218   0.529   0.501  0.00  0.00    -0.273 OA
ATOM      7  O   UNL d   1       2.330   0.379  -0.150  0.00  0.00    -0.271 OA
ENDROOT
BRANCH   1   8
ATOM      8  C   UNL d   1       0.111   2.291  -0.007  0.00  0.00     0.046 A 
ATOM      9  C   UNL d   1      -0.832   3.083   0.670  0.00  0.00     0.046 A 
ATOM     10  C   UNL d   1      -0.748   4.489   0.685  0.00  0.00     0.050 A 
ATOM     11  C   UNL d   1       0.277   5.118  -0.034  0.00  0.00     0.032 A 
ATOM     12  C   UNL d   1       1.223   4.362  -0.741  0.00  0.00     0.050 A 
ATOM     13  C   UNL d   1       1.130   2.958  -0.711  0.00  0.00     0.046 A 
BRANCH  10  14
ATOM     14  C   UNL d   1      -1.722   5.317   1.493  0.00  0.00     0.417 C 
ATOM     15  F   UNL d   1      -2.633   4.577   2.182  0.00  0.00    -0.166 F 
ATOM     16  F   UNL d   1      -1.089   6.085   2.423  0.00  0.00    -0.166 F 
ATOM     17  F   UNL d   1      -2.440   6.179   0.723  0.00  0.00    -0.166 F 
ENDBRANCH  10  14
BRANCH  12  18
ATOM     18  C   UNL d   1       2.326   5.055  -1.508  0.00  0.00     0.417 C 
ATOM     19  F   UNL d   1       3.183   4.202  -2.132  0.00  0.00    -0.166 F 
ATOM     20  F   UNL d   1       1.841   5.875  -2.482  0.00  0.00    -0.166 F 
ATOM     21  F   UNL d   1       3.096   5.843  -0.708  0.00  0.00    -0.166 F 
ENDBRANCH  12  18
ENDBRANCH   1   8
BRANCH   4  22
ATOM     22  S   UNL d   1       1.056  -2.036  -1.849  0.00  0.00    -0.113 SA
BRANCH  22  23
ATOM     23  C   UNL d   1       0.640  -3.780  -1.710  0.00  0.00     0.022 A 
ATOM     24  C   UNL d   1      -0.331  -4.329  -2.577  0.00  0.00     0.022 A 
ATOM     25  C   UNL d   1      -0.638  -5.693  -2.489  0.00  0.00     0.024 A 
ATOM     26  C   UNL d   1       0.096  -6.533  -1.653  0.00  0.00     0.002 A 
ATOM     27  C   UNL d   1       1.101  -6.004  -0.848  0.00  0.00     0.001 A 
ATOM     28  C   UNL d   1       1.365  -4.630  -0.864  0.00  0.00     0.020 A 
BRANCH  24  29
ATOM     29  N   UNL d   1      -1.136  -3.502  -3.389  0.00  0.00    -0.302 NA
ATOM     30  H   UNL d   1      -0.612  -2.681  -3.691  0.00  0.00     0.124 HD
ATOM     31  H   UNL d   1      -1.560  -3.991  -4.171  0.00  0.00     0.124 HD
ENDBRANCH  24  29
ENDBRANCH  22  23
ENDBRANCH   4  22
TORSDOF 6
