REMARK  4 active torsions:
REMARK  status: ('A' for Active; 'I' for Inactive)
REMARK    1  A    between atoms: C_2  and  S_1 
REMARK    2  A    between atoms: N_6  and  S_1 
REMARK    3  A    between atoms: C_3  and  C_13 
REMARK    4  A    between atoms: C_17  and  N_6 
ROOT
ATOM      1  C   UNL d   1       2.502  -2.575  -3.397  0.00  0.00     0.012 A 
ATOM      2  C   UNL d   1       0.832  -2.105  -1.700  0.00  0.00     0.043 A 
ATOM      3  C   UNL d   1       2.125  -1.950  -2.198  0.00  0.00     0.045 A 
ATOM      4  C   UNL d   1       1.555  -3.349  -4.086  0.00  0.00     0.015 A 
ATOM      5  C   UNL d   1       0.262  -3.504  -3.581  0.00  0.00     0.003 A 
ATOM      6  C   UNL d   1      -0.097  -2.886  -2.384  0.00  0.00     0.030 A 
ENDROOT
BRANCH   2   7
ATOM      7  N   UNL d   1       0.428  -1.409  -0.538  0.00  0.00    -0.281 N 
ATOM      8  H   UNL d   1       0.407  -0.391  -0.535  0.00  0.00     0.179 HD
BRANCH   7   9
ATOM      9  S   UNL d   1       0.416  -2.145   0.967  0.00  0.00     0.266 S 
ATOM     10  O   UNL d   1      -0.041  -1.157   1.917  0.00  0.00    -0.200 OA
ATOM     11  O   UNL d   1      -0.253  -3.424   0.844  0.00  0.00    -0.200 OA
BRANCH   9  12
ATOM     12  C   UNL d   1       2.113  -2.461   1.332  0.00  0.00     0.118 A 
ATOM     13  C   UNL d   1       3.011  -1.397   1.349  0.00  0.00     0.142 A 
ATOM     14  C   UNL d   1       4.346  -1.606   1.681  0.00  0.00     0.086 A 
ATOM     15  F   UNL d   1       2.618  -0.157   1.028  0.00  0.00    -0.204 F 
ATOM     16  C   UNL d   1       4.769  -2.890   2.004  0.00  0.00     0.119 A 
ATOM     17  C   UNL d   1       3.881  -3.963   1.998  0.00  0.00     0.044 A 
ATOM     18  F   UNL d   1       6.051  -3.098   2.330  0.00  0.00    -0.206 F 
ATOM     19  C   UNL d   1       2.543  -3.753   1.658  0.00  0.00     0.031 A 
ENDBRANCH   9  12
ENDBRANCH   7   9
ENDBRANCH   2   7
BRANCH   1  20
ATOM     20  C   UNL d   1       3.853  -2.394  -3.919  0.00  0.00     0.137 A 
ATOM     21  N   UNL d   1       4.812  -1.672  -3.236  0.00  0.00    -0.329 N 
ATOM     22  C   UNL d   1       5.838  -1.741  -4.045  0.00  0.00     0.261 A 
ATOM     23  HN  UNL d   1       4.739  -1.205  -2.333  1.00  0.00     0.168 HD
ATOM     24  O   UNL d   1       5.602  -2.450  -5.176  0.00  0.00    -0.231 OA
ATOM     25  N   UNL d   1       4.281  -2.889  -5.093  0.00  0.00    -0.243 N 
ATOM     26  HN  UNL d   1       3.762  -3.453  -5.766  1.00  0.00     0.196 HD
ENDBRANCH   1  20
TORSDOF 4
