REMARK  5 active torsions:
REMARK  status: ('A' for Active; 'I' for Inactive)
REMARK    1  A    between atoms: C_5  and  C_3 
REMARK    2  A    between atoms: C_15  and  C_4 
REMARK       I    between atoms: N_10  and  C_5 
REMARK    3  A    between atoms: C_8  and  C_11 
REMARK       I    between atoms: C_9  and  N_12 
REMARK       I    between atoms: N_13  and  C_9 
REMARK    4  A    between atoms: N_12  and  N_10 
REMARK    5  A    between atoms: C_18  and  N_13 
ROOT
ATOM      1  C   UNL d   1      -2.178  -1.750   0.357  0.00  0.00     0.311 C 
ATOM      2  N   UNL d   1      -1.681  -2.974   0.776  0.00  0.00    -0.259 N 
ATOM      3  O   UNL d   1      -3.393  -1.567   0.256  0.00  0.00    -0.262 OA
ATOM      4  H   UNL d   1      -0.680  -3.159   0.856  0.00  0.00     0.190 HD
ENDROOT
BRANCH   2   5
ATOM      5  N   UNL d   1      -2.572  -4.008   1.133  0.00  0.00    -0.248 N 
ATOM      6  C   UNL d   1      -2.009  -5.248   1.386  0.00  0.00     0.339 C 
ATOM      7  N   UNL d   1      -2.958  -6.218   1.623  0.00  0.00    -0.308 N 
ATOM      8  O   UNL d   1      -0.790  -5.391   1.400  0.00  0.00    -0.245 OA
ATOM      9  H   UNL d   1      -3.914  -5.897   1.704  0.00  0.00     0.170 HD
ATOM     10  H   UNL d   1      -3.487  -3.950   0.691  0.00  0.00     0.192 HD
BRANCH   7  11
ATOM     11  C   UNL d   1      -2.735  -7.599   1.826  0.00  0.00     0.037 A 
ATOM     12  C   UNL d   1      -1.470  -8.189   1.762  0.00  0.00     0.045 A 
ATOM     13  C   UNL d   1      -1.304  -9.578   1.898  0.00  0.00     0.050 A 
ATOM     14  C   UNL d   1      -2.431 -10.379   2.127  0.00  0.00     0.016 A 
ATOM     15  C   UNL d   1      -3.696  -9.799   2.219  0.00  0.00     0.003 A 
ATOM     16  C   UNL d   1      -3.846  -8.416   2.066  0.00  0.00     0.029 A 
BRANCH  13  17
ATOM     17  C   UNL d   1       0.061 -10.205   1.761  0.00  0.00     0.417 C 
ATOM     18  F   UNL d   1       1.071  -9.305   1.605  0.00  0.00    -0.166 F 
ATOM     19  F   UNL d   1       0.401 -10.963   2.840  0.00  0.00    -0.166 F 
ATOM     20  F   UNL d   1       0.137 -11.037   0.684  0.00  0.00    -0.166 F 
ENDBRANCH  13  17
ENDBRANCH   7  11
ENDBRANCH   2   5
BRANCH   1  21
ATOM     21  C   UNL d   1      -1.158  -0.760   0.044  0.00  0.00     0.219 A 
ATOM     22  N   UNL d   1       0.156  -0.932   0.063  0.00  0.00    -0.329 N 
ATOM     23  C   UNL d   1       0.660   0.291  -0.345  0.00  0.00     0.074 A 
ATOM     24  HN  UNL d   1       0.676  -1.772   0.319  1.00  0.00     0.168 HD
ATOM     25  C   UNL d   1      -0.385   1.155  -0.612  0.00  0.00     0.079 A 
ATOM     26  C   UNL d   1      -0.551   2.526  -1.131  0.00  0.00     0.079 C 
ATOM     27  O   UNL d   1      -1.551   0.493  -0.347  0.00  0.00    -0.291 OA
BRANCH  23  28
ATOM     28  C   UNL d   1       2.082   0.544  -0.538  0.00  0.00    -0.007 A 
ATOM     29  C   UNL d   1       2.918  -0.506  -0.942  0.00  0.00     0.014 A 
ATOM     30  C   UNL d   1       4.275  -0.284  -1.195  0.00  0.00     0.001 A 
ATOM     31  C   UNL d   1       4.814   0.991  -1.045  0.00  0.00     0.000 A 
ATOM     32  C   UNL d   1       4.004   2.039  -0.615  0.00  0.00     0.001 A 
ATOM     33  C   UNL d   1       2.649   1.815  -0.351  0.00  0.00     0.014 A 
ENDBRANCH  23  28
ENDBRANCH   1  21
TORSDOF 5
