REMARK  4 active torsions:
REMARK  status: ('A' for Active; 'I' for Inactive)
REMARK    1  A    between atoms: C_10  and  N_1 
REMARK    2  A    between atoms: N_9  and  N_2 
REMARK    3  A    between atoms: C_7  and  C_11 
REMARK       I    between atoms: C_8  and  N_9 
REMARK       I    between atoms: N_13  and  C_8 
REMARK    4  A    between atoms: C_20  and  N_13 
ROOT
ATOM      1  N   UNL d   1      -0.943  -0.990   0.486  0.00  0.00    -0.308 N 
ATOM      2  N   UNL d   1       0.398   1.402   0.475  0.00  0.00    -0.264 N 
ATOM      3  C   UNL d   1      -1.683   0.157   0.123  0.00  0.00     0.244 C 
ATOM      4  C   UNL d   1       1.185   0.271   0.637  0.00  0.00     0.253 C 
ATOM      5  C   UNL d   1      -0.822   1.345  -0.323  0.00  0.00     0.250 C 
ATOM      6  C   UNL d   1       0.498  -1.001   0.167  0.00  0.00     0.236 C 
ATOM      7  O   UNL d   1       2.356   0.314   1.012  0.00  0.00    -0.270 OA
ATOM      8  O   UNL d   1      -2.909   0.233   0.079  0.00  0.00    -0.271 OA
ENDROOT
BRANCH   2   9
ATOM      9  N   UNL d   1       1.089   2.656   0.491  0.00  0.00    -0.149 NA
ATOM     10  C   UNL d   1       1.549   3.181  -0.722  0.00  0.00     0.317 C 
ATOM     11  N   UNL d   1       2.425   4.230  -0.508  0.00  0.00    -0.312 N 
ATOM     12  O   UNL d   1       1.175   2.761  -1.812  0.00  0.00    -0.252 OA
ATOM     13  H   UNL d   1       2.703   4.394   0.447  0.00  0.00     0.170 HD
ATOM     14  H   UNL d   1       1.775   2.680   1.242  0.00  0.00     0.158 HD
BRANCH  11  15
ATOM     15  C   UNL d   1       3.019   5.064  -1.480  0.00  0.00     0.036 A 
ATOM     16  C   UNL d   1       2.687   5.042  -2.837  0.00  0.00     0.031 A 
ATOM     17  C   UNL d   1       3.306   5.919  -3.736  0.00  0.00     0.026 A 
ATOM     18  C   UNL d   1       4.264   6.820  -3.281  0.00  0.00     0.034 A 
ATOM     19  C   UNL d   1       4.607   6.854  -1.933  0.00  0.00     0.026 A 
ATOM     20 CL   UNL d   1       5.021   7.898  -4.386  0.00  0.00    -0.084 Cl
ATOM     21  C   UNL d   1       3.982   5.981  -1.036  0.00  0.00     0.031 A 
ENDBRANCH  11  15
ENDBRANCH   2   9
BRANCH   1  22
ATOM     22  C   UNL d   1      -1.559  -2.252   0.780  0.00  0.00     0.038 A 
ATOM     23  C   UNL d   1      -2.805  -2.621   0.250  0.00  0.00     0.046 A 
ATOM     24  C   UNL d   1      -3.365  -3.891   0.497  0.00  0.00     0.050 A 
ATOM     25  C   UNL d   1      -2.668  -4.798   1.306  0.00  0.00     0.016 A 
ATOM     26  C   UNL d   1      -1.446  -4.439   1.864  0.00  0.00     0.003 A 
ATOM     27  C   UNL d   1      -0.901  -3.180   1.603  0.00  0.00     0.030 A 
BRANCH  24  28
ATOM     28  C   UNL d   1      -4.677  -4.304  -0.124  0.00  0.00     0.417 C 
ATOM     29  F   UNL d   1      -5.329  -3.296  -0.766  0.00  0.00    -0.166 F 
ATOM     30  F   UNL d   1      -4.516  -5.291  -1.050  0.00  0.00    -0.166 F 
ATOM     31  F   UNL d   1      -5.557  -4.796   0.792  0.00  0.00    -0.166 F 
ENDBRANCH  24  28
ENDBRANCH   1  22
TORSDOF 4
