REMARK  3 active torsions:
REMARK  status: ('A' for Active; 'I' for Inactive)
REMARK    1  A    between atoms: C_9  and  C_3 
REMARK    2  A    between atoms: C_8  and  C_4 
REMARK    3  A    between atoms: C_10  and  C_6 
ROOT
ATOM      1  N   UNL d   1      -1.068  -1.063   0.135  0.00  0.00    -0.354 N 
ATOM      2  HN  UNL d   1      -1.623  -1.917   0.199  1.00  0.00     0.166 HD
ATOM      3  C   UNL d   1       0.290  -1.132   0.078  0.00  0.00     0.049 C 
ATOM      4  C   UNL d   1       0.465   1.288   0.018  0.00  0.00    -0.016 C 
ATOM      5  C   UNL d   1       1.091   0.018  -0.070  0.00  0.00    -0.023 C 
ATOM      6  C   UNL d   1      -1.676   0.141   0.105  0.00  0.00     0.043 C 
ATOM      7  C   UNL d   1      -0.936   1.315   0.114  0.00  0.00     0.043 C 
ATOM      8  C   UNL d   1       2.569  -0.101  -0.353  0.00  0.00     0.051 C 
ENDROOT
BRANCH   4   9
ATOM      9  C   UNL d   1       1.195   2.585  -0.017  0.00  0.00    -0.025 A 
ATOM     10  C   UNL d   1       2.348   2.815   0.752  0.00  0.00     0.013 A 
ATOM     11  C   UNL d   1       3.039   4.032   0.693  0.00  0.00     0.020 A 
ATOM     12  C   UNL d   1       2.556   5.061  -0.109  0.00  0.00     0.011 A 
ATOM     13  C   UNL d   1       1.394   4.885  -0.849  0.00  0.00     0.020 A 
ATOM     14 BR   UNL d   1       3.482   6.706  -0.187  0.00  0.00    -0.051 Br
ATOM     15  C   UNL d   1       0.728   3.653  -0.811  0.00  0.00     0.013 A 
ENDBRANCH   4   9
BRANCH   6  16
ATOM     16  C   UNL d   1      -3.157   0.121   0.037  0.00  0.00    -0.009 A 
ATOM     17  C   UNL d   1      -3.894  -0.948   0.580  0.00  0.00     0.013 A 
ATOM     18  C   UNL d   1      -5.291  -0.982   0.509  0.00  0.00     0.001 A 
ATOM     19  C   UNL d   1      -5.984   0.051  -0.113  0.00  0.00     0.000 A 
ATOM     20  C   UNL d   1      -5.283   1.111  -0.678  0.00  0.00     0.001 A 
ATOM     21  C   UNL d   1      -3.885   1.143  -0.604  0.00  0.00     0.013 A 
ENDBRANCH   6  16
BRANCH   3  22
ATOM     22  C   UNL d   1       0.801  -2.525   0.166  0.00  0.00    -0.009 A 
ATOM     23  C   UNL d   1       0.136  -3.573  -0.499  0.00  0.00     0.014 A 
ATOM     24  C   UNL d   1       0.590  -4.894  -0.427  0.00  0.00     0.001 A 
ATOM     25  C   UNL d   1       1.728  -5.199   0.311  0.00  0.00     0.000 A 
ATOM     26  C   UNL d   1       2.393  -4.191   1.001  0.00  0.00     0.001 A 
ATOM     27  C   UNL d   1       1.921  -2.874   0.944  0.00  0.00     0.014 A 
ENDBRANCH   3  22
TORSDOF 3
