REMARK  4 active torsions:
REMARK  status: ('A' for Active; 'I' for Inactive)
REMARK    1  A    between atoms: C_2  and  C_1 
REMARK       I    between atoms: N_5  and  C_2 
REMARK    2  A    between atoms: C_3  and  C_4 
REMARK    3  A    between atoms: C_7  and  N_5 
REMARK    4  A    between atoms: O_19  and  C_6 
ROOT
ATOM      1  C   UNL d   1       0.921   1.291  -0.295  0.00  0.00     0.098 A 
ATOM      2  C   UNL d   1       1.739   0.203   0.090  0.00  0.00     0.069 A 
ATOM      3  C   UNL d   1      -0.419   0.976  -0.599  0.00  0.00     0.158 A 
ATOM      4  N   UNL d   1      -0.958  -0.269  -0.497  0.00  0.00    -0.346 N 
ATOM      5  HN  UNL d   1      -1.937  -0.438  -0.727  1.00  0.00     0.167 HD
ATOM      6  C   UNL d   1      -0.166  -1.267  -0.088  0.00  0.00     0.091 A 
ATOM      7  C   UNL d   1       1.163  -1.081   0.213  0.00  0.00     0.034 A 
ENDROOT
BRANCH   1   8
ATOM      8  C   UNL d   1       1.349   2.735  -0.428  0.00  0.00     0.261 C 
ATOM      9  N   UNL d   1       2.463   3.188   0.284  0.00  0.00    -0.321 N 
ATOM     10  H   UNL d   1       3.264   2.576   0.246  0.00  0.00     0.169 HD
ATOM     11  O   UNL d   1       0.752   3.480  -1.202  0.00  0.00    -0.267 OA
BRANCH   9  12
ATOM     12  C   UNL d   1       2.823   4.563   0.214  0.00  0.00     0.057 A 
ATOM     13  C   UNL d   1       1.976   5.603   0.625  0.00  0.00     0.062 A 
ATOM     14  C   UNL d   1       2.361   6.939   0.445  0.00  0.00     0.050 A 
ATOM     15 CL   UNL d   1       0.497   5.309   1.480  0.00  0.00    -0.082 Cl
ATOM     16  C   UNL d   1       3.593   7.224  -0.138  0.00  0.00     0.035 A 
ATOM     17  C   UNL d   1       4.464   6.199  -0.499  0.00  0.00     0.026 A 
ATOM     18 CL   UNL d   1       4.055   8.863  -0.396  0.00  0.00    -0.084 Cl
ATOM     19  C   UNL d   1       4.086   4.867  -0.309  0.00  0.00     0.033 A 
ENDBRANCH   9  12
ENDBRANCH   1   8
BRANCH   2  20
ATOM     20  C   UNL d   1       3.205   0.284   0.386  0.00  0.00     0.418 C 
ATOM     21  F   UNL d   1       3.867   1.206  -0.366  0.00  0.00    -0.166 F 
ATOM     22  F   UNL d   1       3.454   0.618   1.679  0.00  0.00    -0.166 F 
ATOM     23  F   UNL d   1       3.866  -0.887   0.169  0.00  0.00    -0.166 F 
ENDBRANCH   2  20
BRANCH   3  24
ATOM     24  O   UNL d   1      -1.286   1.977  -0.981  0.00  0.00    -0.340 OA
ATOM     25  C   UNL d   1      -2.501   1.513  -1.561  0.00  0.00     0.211 C 
ENDBRANCH   3  24
TORSDOF 4
