REMARK  6 active torsions:
REMARK  status: ('A' for Active; 'I' for Inactive)
REMARK    1  A    between atoms: O_7  and  S_1 
REMARK    2  A    between atoms: C_15  and  S_1 
REMARK    3  A    between atoms: S_2  and  O_8 
REMARK    4  A    between atoms: C_14  and  S_2 
REMARK    5  A    between atoms: C_5  and  O_7 
REMARK    6  A    between atoms: O_8  and  C_6 
ROOT
ATOM      1  C   UNL d   1       2.456   2.744  -3.118  0.00  0.00     0.046 A 
ATOM      2  C   UNL d   1       1.438   3.441  -3.759  0.00  0.00     0.086 A 
ATOM      3  C   UNL d   1       0.843   1.207  -2.184  0.00  0.00     0.125 A 
ATOM      4  C   UNL d   1      -0.189   1.872  -2.872  0.00  0.00     0.127 A 
ATOM      5  C   UNL d   1       3.846   3.206  -3.270  0.00  0.00     0.165 C 
ATOM      6  O   UNL d   1       1.637   4.581  -4.486  0.00  0.00    -0.340 OA
ATOM      7  C   UNL d   1       2.169   1.620  -2.347  0.00  0.00     0.059 A 
ATOM      8  C   UNL d   1       0.124   2.978  -3.674  0.00  0.00     0.079 A 
ATOM      9  C   UNL d   1       2.870   5.278  -4.224  0.00  0.00     0.067 C 
ATOM     10  C   UNL d   1       4.066   4.326  -4.241  0.00  0.00     0.121 C 
ATOM     11  O   UNL d   1       4.766   2.652  -2.679  0.00  0.00    -0.292 OA
ATOM     12  C   UNL d   1       2.764   6.071  -2.907  0.00  0.00     0.046 C 
ATOM     13  C   UNL d   1       3.032   6.280  -5.376  0.00  0.00     0.046 C 
ENDROOT
BRANCH   3  14
ATOM     14  O   UNL d   1       0.494   0.164  -1.357  0.00  0.00    -0.226 OA
BRANCH  14  15
ATOM     15  S   UNL d   1       1.442  -0.253  -0.088  0.00  0.00     0.303 S 
ATOM     16  O   UNL d   1       1.823   0.955   0.623  0.00  0.00    -0.193 OA
ATOM     17  O   UNL d   1       2.434  -1.210  -0.541  0.00  0.00    -0.193 OA
BRANCH  15  18
ATOM     18  C   UNL d   1       0.349  -1.141   0.989  0.00  0.00     0.086 A 
ATOM     19  C   UNL d   1      -0.627  -1.974   0.442  0.00  0.00     0.026 A 
ATOM     20  C   UNL d   1      -1.553  -2.580   1.290  0.00  0.00     0.008 A 
ATOM     21  C   UNL d   1      -1.504  -2.356   2.674  0.00  0.00    -0.062 A 
ATOM     22  C   UNL d   1      -0.498  -1.542   3.208  0.00  0.00     0.008 A 
ATOM     23  C   UNL d   1      -2.540  -2.975   3.565  0.00  0.00     0.048 C 
ATOM     24  C   UNL d   1       0.432  -0.932   2.368  0.00  0.00     0.026 A 
ENDBRANCH  15  18
ENDBRANCH  14  15
ENDBRANCH   3  14
BRANCH   4  25
ATOM     25  O   UNL d   1      -1.469   1.388  -2.701  0.00  0.00    -0.226 OA
BRANCH  25  26
ATOM     26  S   UNL d   1      -2.783   2.248  -3.156  0.00  0.00     0.303 S 
ATOM     27  O   UNL d   1      -2.745   3.547  -2.506  0.00  0.00    -0.193 OA
ATOM     28  O   UNL d   1      -2.924   2.139  -4.596  0.00  0.00    -0.193 OA
BRANCH  26  29
ATOM     29  C   UNL d   1      -4.154   1.386  -2.423  0.00  0.00     0.086 A 
ATOM     30  C   UNL d   1      -4.125   1.120  -1.052  0.00  0.00     0.026 A 
ATOM     31  C   UNL d   1      -5.221   0.498  -0.453  0.00  0.00     0.008 A 
ATOM     32  C   UNL d   1      -6.342   0.140  -1.216  0.00  0.00    -0.062 A 
ATOM     33  C   UNL d   1      -6.354   0.412  -2.591  0.00  0.00     0.008 A 
ATOM     34  C   UNL d   1      -7.525  -0.497  -0.547  0.00  0.00     0.048 C 
ATOM     35  C   UNL d   1      -5.261   1.034  -3.199  0.00  0.00     0.026 A 
ENDBRANCH  26  29
ENDBRANCH  25  26
ENDBRANCH   4  25
TORSDOF 6
