REMARK  3 active torsions:
REMARK  status: ('A' for Active; 'I' for Inactive)
REMARK    1  A    between atoms: N_3  and  C_1 
REMARK    2  A    between atoms: C_5  and  C_10 
REMARK    3  A    between atoms: O_19  and  C_9 
ROOT
ATOM      1  C   UNL d   1       1.407  -1.373  -0.024  0.00  0.00     0.064 A 
ATOM      2  C   UNL d   1       2.570  -0.562  -0.084  0.00  0.00     0.078 A 
ATOM      3  C   UNL d   1       2.472   0.849  -0.040  0.00  0.00    -0.038 A 
ATOM      4  C   UNL d   1       0.125  -0.730   0.012  0.00  0.00     0.002 A 
ATOM      5  C   UNL d   1       3.869  -1.148  -0.234  0.00  0.00     0.102 C 
ATOM      6  N   UNL d   1       4.941  -1.591  -0.331  0.00  0.00    -0.191 NA
ATOM      7  C   UNL d   1       0.041   0.684   0.021  0.00  0.00    -0.023 A 
ATOM      8  C   UNL d   1       1.208   1.448   0.020  0.00  0.00     0.020 A 
ATOM      9  C   UNL d   1       3.663   1.774  -0.091  0.00  0.00     0.050 C 
ATOM     10  C   UNL d   1      -1.099  -1.441   0.008  0.00  0.00     0.014 A 
ATOM     11  C   UNL d   1      -1.208   1.329   0.002  0.00  0.00     0.012 A 
ATOM     12  C   UNL d   1      -2.338  -0.789  -0.022  0.00  0.00     0.001 A 
ATOM     13  C   UNL d   1      -2.391   0.597  -0.033  0.00  0.00     0.001 A 
ENDROOT
BRANCH   1  14
ATOM     14  N   UNL d   1       1.397  -2.795  -0.123  0.00  0.00    -0.363 N 
ATOM     15  C   UNL d   1       2.261  -3.561   0.464  0.00  0.00     0.102 C 
ATOM     16  HN  UNL d   1       0.669  -3.234  -0.688  1.00  0.00     0.165 HD
BRANCH  15  17
ATOM     17  C   UNL d   1       2.148  -5.039   0.382  0.00  0.00     0.016 A 
ATOM     18  C   UNL d   1       3.169  -5.867   0.860  0.00  0.00     0.099 A 
ATOM     19  C   UNL d   1       3.009  -7.259   0.831  0.00  0.00     0.069 A 
ATOM     20 CL   UNL d   1       4.255  -8.295   1.425  0.00  0.00    -0.081 Cl
ATOM     21  C   UNL d   1       1.834  -7.828   0.342  0.00  0.00     0.050 A 
ATOM     22  C   UNL d   1       0.823  -6.997  -0.134  0.00  0.00     0.036 A 
ATOM     23  C   UNL d   1       0.975  -5.611  -0.128  0.00  0.00     0.039 A 
ATOM     24 CL   UNL d   1      -0.645  -7.689  -0.708  0.00  0.00    -0.084 Cl
BRANCH  18  25
ATOM     25  O   UNL d   1       4.316  -5.311   1.365  0.00  0.00    -0.358 OA
ATOM     26  H   UNL d   1       4.916  -6.037   1.624  0.00  0.00     0.217 HD
ENDBRANCH  18  25
ENDBRANCH  15  17
ENDBRANCH   1  14
TORSDOF 3
