REMARK  2 active torsions:
REMARK  status: ('A' for Active; 'I' for Inactive)
REMARK    1  A    between atoms: C_2  and  C_1 
REMARK       I    between atoms: N_9  and  C_2 
REMARK    2  A    between atoms: C_11  and  N_9 
ROOT
ATOM      1  N   UNL d   1       2.644  -4.678  -2.889  0.00  0.00    -0.191 NA
ATOM      2  C   UNL d   1       2.101  -3.040   0.171  0.00  0.00     0.055 A 
ATOM      3  C   UNL d   1       2.901  -4.155  -1.883  0.00  0.00     0.102 C 
ATOM      4  C   UNL d   1       3.157  -3.507  -0.634  0.00  0.00     0.071 A 
ATOM      5  C   UNL d   1       4.488  -3.273  -0.258  0.00  0.00     0.025 A 
ATOM      6  C   UNL d   1       2.407  -2.349   1.350  0.00  0.00     0.031 A 
ATOM      7  C   UNL d   1       4.775  -2.600   0.928  0.00  0.00     0.002 A 
ATOM      8  C   UNL d   1       3.735  -2.140   1.732  0.00  0.00     0.002 A 
ENDROOT
BRANCH   2   9
ATOM      9  N   UNL d   1       0.755  -3.316  -0.177  0.00  0.00    -0.321 N 
ATOM     10  C   UNL d   1      -0.312  -2.458   0.066  0.00  0.00     0.266 C 
ATOM     11  O   UNL d   1      -0.147  -1.300   0.441  0.00  0.00    -0.267 OA
ATOM     12  H   UNL d   1       0.574  -4.090  -0.808  0.00  0.00     0.169 HD
BRANCH  10  13
ATOM     13  C   UNL d   1      -1.628  -2.995  -0.209  0.00  0.00     0.114 A 
ATOM     14  C   UNL d   1      -2.849  -2.348  -0.363  0.00  0.00     0.046 A 
ATOM     15  N   UNL d   1      -3.934  -3.200  -0.554  0.00  0.00    -0.298 N 
ATOM     16  C   UNL d   1      -3.137  -0.890  -0.351  0.00  0.00     0.071 C 
ATOM     17  N   UNL d   1      -3.577  -4.471  -0.541  0.00  0.00    -0.269 N 
ATOM     18  HN  UNL d   1      -4.893  -2.880  -0.687  1.00  0.00     0.187 HD
ATOM     19  S   UNL d   1      -1.940  -4.679  -0.310  0.00  0.00     0.009 SA
ATOM     20  HN  UNL d   1      -4.233  -5.243  -0.661  1.00  0.00     0.195 HD
ENDBRANCH  10  13
ENDBRANCH   2   9
TORSDOF 2
