REMARK  6 active torsions:
REMARK  status: ('A' for Active; 'I' for Inactive)
REMARK    1  A    between atoms: C_10  and  N_1 
REMARK    2  A    between atoms: C_2  and  C_12 
REMARK    3  A    between atoms: O_20  and  C_3 
REMARK    4  A    between atoms: C_7  and  C_4 
REMARK    5  A    between atoms: O_22  and  C_5 
REMARK    6  A    between atoms: O_21  and  C_6 
ROOT
ATOM      1  C   UNL d   1      -2.491  -5.728  -2.946  0.00  0.00     0.055 C 
ATOM      2  C   UNL d   1      -2.853  -4.626  -2.253  0.00  0.00     0.035 C 
ATOM      3  C   UNL d   1      -2.511  -5.720  -4.380  0.00  0.00     0.100 C 
ATOM      4  N   UNL d   1      -2.490  -5.722  -5.540  0.00  0.00    -0.191 NA
ENDROOT
BRANCH   1   5
ATOM      5  C   UNL d   1      -2.028  -6.956  -2.241  0.00  0.00    -0.015 A 
ATOM      6  C   UNL d   1      -2.538  -7.329  -0.984  0.00  0.00     0.015 A 
ATOM      7  C   UNL d   1      -2.112  -8.499  -0.342  0.00  0.00     0.037 A 
ATOM      8  C   UNL d   1      -1.169  -9.325  -0.967  0.00  0.00     0.102 A 
ATOM      9  C   UNL d   1      -0.656  -8.986  -2.220  0.00  0.00     0.037 A 
ATOM     10  C   UNL d   1      -1.083  -7.809  -2.848  0.00  0.00     0.015 A 
BRANCH   8  11
ATOM     11  N   UNL d   1      -0.725 -10.556  -0.301  0.00  0.00    -0.116 N 
ATOM     12  O   UNL d   1       0.115 -11.256  -0.889  0.00  0.00    -0.532 OA
ATOM     13  O   UNL d   1      -1.209 -10.821   0.806  0.00  0.00    -0.532 OA
ENDBRANCH   8  11
ENDBRANCH   1   5
BRANCH   2  14
ATOM     14  C   UNL d   1      -3.299  -3.377  -2.880  0.00  0.00    -0.029 A 
ATOM     15  C   UNL d   1      -4.655  -3.113  -3.045  0.00  0.00     0.051 A 
ATOM     16  C   UNL d   1      -5.084  -1.945  -3.689  0.00  0.00     0.105 A 
ATOM     17  C   UNL d   1      -4.140  -1.006  -4.147  0.00  0.00     0.135 A 
ATOM     18  C   UNL d   1      -2.769  -1.232  -3.891  0.00  0.00     0.105 A 
ATOM     19  C   UNL d   1      -2.359  -2.441  -3.311  0.00  0.00     0.051 A 
BRANCH  16  20
ATOM     20  O   UNL d   1      -6.451  -1.830  -3.713  0.00  0.00    -0.353 OA
ATOM     21  C   UNL d   1      -7.023  -1.238  -4.871  0.00  0.00     0.210 C 
ENDBRANCH  16  20
BRANCH  17  22
ATOM     22  O   UNL d   1      -4.600   0.179  -4.666  0.00  0.00    -0.351 OA
ATOM     23  C   UNL d   1      -4.029   0.571  -5.915  0.00  0.00     0.210 C 
ENDBRANCH  17  22
BRANCH  18  24
ATOM     24  O   UNL d   1      -1.883  -0.223  -4.190  0.00  0.00    -0.353 OA
ATOM     25  C   UNL d   1      -0.610  -0.281  -3.554  0.00  0.00     0.210 C 
ENDBRANCH  18  24
ENDBRANCH   2  14
TORSDOF 6
