REMARK  3 active torsions:
REMARK  status: ('A' for Active; 'I' for Inactive)
REMARK    1  A    between atoms: C_9  and  C_2 
REMARK    2  A    between atoms: C_16  and  C_3 
REMARK    3  A    between atoms: C_12  and  C_9 
ROOT
ATOM      1  C   UNL d   1      -2.288  -0.651   0.278  0.00  0.00     0.231 C 
ATOM      2  C   UNL d   1      -4.008  -1.978   0.731  0.00  0.00     0.096 C 
ATOM      3  C   UNL d   1      -3.583  -1.079  -0.379  0.00  0.00     0.128 C 
ATOM      4  C   UNL d   1      -1.073  -1.557   0.127  0.00  0.00     0.206 C 
ATOM      5  C   UNL d   1      -1.751   0.720  -0.089  0.00  0.00     0.206 C 
ATOM      6  N   UNL d   1      -3.516  -1.686   1.899  0.00  0.00    -0.264 N 
ATOM      7  HN  UNL d   1      -3.752  -2.122   2.791  1.00  0.00     0.194 HD
ATOM      8  O   UNL d   1      -2.587  -0.643   1.682  0.00  0.00    -0.251 OA
ATOM      9  C   UNL d   1       0.102  -0.705  -0.014  0.00  0.00     0.028 A 
ATOM     10  C   UNL d   1      -0.288   0.624  -0.139  0.00  0.00     0.028 A 
ATOM     11  O   UNL d   1      -1.028  -2.775   0.176  0.00  0.00    -0.288 OA
ATOM     12  O   UNL d   1      -2.376   1.745  -0.294  0.00  0.00    -0.288 OA
ATOM     13  C   UNL d   1       1.432  -1.081   0.024  0.00  0.00     0.016 A 
ATOM     14  C   UNL d   1       0.643   1.639  -0.240  0.00  0.00     0.016 A 
ATOM     15  C   UNL d   1       1.996   1.282  -0.192  0.00  0.00     0.001 A 
ATOM     16  C   UNL d   1       2.386  -0.066  -0.060  0.00  0.00     0.001 A 
ENDROOT
BRANCH   3  17
ATOM     17  C   UNL d   1      -3.476  -1.523  -1.813  0.00  0.00    -0.044 A 
ATOM     18  C   UNL d   1      -3.723  -0.557  -2.811  0.00  0.00     0.008 A 
ATOM     19  C   UNL d   1      -3.598  -0.862  -4.167  0.00  0.00     0.001 A 
ATOM     20  C   UNL d   1      -3.216  -2.140  -4.553  0.00  0.00     0.000 A 
ATOM     21  C   UNL d   1      -2.961  -3.108  -3.583  0.00  0.00     0.001 A 
ATOM     22  C   UNL d   1      -3.090  -2.805  -2.221  0.00  0.00     0.008 A 
ENDBRANCH   3  17
BRANCH   2  23
ATOM     23  C   UNL d   1      -5.052  -3.047   0.577  0.00  0.00     0.214 C 
ATOM     24  O   UNL d   1      -6.016  -2.792  -0.141  0.00  0.00    -0.285 OA
BRANCH  23  25
ATOM     25  C   UNL d   1      -4.840  -4.253   1.360  0.00  0.00     0.057 A 
ATOM     26  S   UNL d   1      -6.199  -5.142   1.908  0.00  0.00    -0.098 SA
ATOM     27  C   UNL d   1      -5.220  -6.258   2.756  0.00  0.00     0.050 A 
ATOM     28  C   UNL d   1      -3.879  -5.991   2.596  0.00  0.00     0.009 A 
ATOM     29  C   UNL d   1      -3.659  -4.830   1.797  0.00  0.00     0.023 A 
ENDBRANCH  23  25
ENDBRANCH   2  23
TORSDOF 3
