REMARK  7 active torsions:
REMARK  status: ('A' for Active; 'I' for Inactive)
REMARK    1  A    between atoms: N_2  and  S_1 
REMARK    2  A    between atoms: C_8  and  S_1 
REMARK    3  A    between atoms: C_3  and  N_2 
REMARK       I    between atoms: C_13  and  N_16 
REMARK    4  A    between atoms: C_23  and  C_13 
REMARK    5  A    between atoms: C_15  and  O_17 
REMARK    6  A    between atoms: N_16  and  C_24 
REMARK    7  A    between atoms: O_17  and  C_23 
ROOT
ATOM      1  C   UNL d   1       0.513  -1.644  -0.235  0.00  0.00     0.075 A 
ATOM      2  C   UNL d   1       1.466  -2.664  -0.161  0.00  0.00     0.027 A 
ATOM      3  C   UNL d   1      -0.839  -1.956  -0.418  0.00  0.00     0.027 A 
ATOM      4  C   UNL d   1      -0.266  -4.314  -0.510  0.00  0.00     0.034 A 
ATOM      5  C   UNL d   1      -1.225  -3.299  -0.557  0.00  0.00     0.031 A 
ATOM      6  C   UNL d   1       1.076  -4.002  -0.294  0.00  0.00     0.031 A 
ENDROOT
BRANCH   4   7
ATOM      7  N   UNL d   1      -0.661  -5.657  -0.587  0.00  0.00    -0.325 N 
ATOM      8  C   UNL d   1      -0.712  -6.343  -1.786  0.00  0.00     0.246 C 
ATOM      9  O   UNL d   1      -0.432  -5.860  -2.876  0.00  0.00    -0.271 OA
ATOM     10  H   UNL d   1      -0.900  -6.128   0.276  0.00  0.00     0.169 HD
BRANCH   8  11
ATOM     11  C   UNL d   1      -1.177  -7.800  -1.658  0.00  0.00     0.278 C 
BRANCH  11  12
ATOM     12  O   UNL d   1      -0.048  -8.624  -1.416  0.00  0.00    -0.340 OA
BRANCH  12  13
ATOM     13  C   UNL d   1      -0.187  -9.986  -1.389  0.00  0.00     0.091 A 
ATOM     14  C   UNL d   1      -1.346 -10.779  -1.386  0.00  0.00     0.069 A 
ATOM     15  C   UNL d   1      -1.243 -12.177  -1.329  0.00  0.00     0.050 A 
ATOM     16 CL   UNL d   1      -2.971 -10.191  -1.449  0.00  0.00    -0.081 Cl
ATOM     17  C   UNL d   1       0.002 -12.795  -1.290  0.00  0.00     0.035 A 
ATOM     18  C   UNL d   1       1.160 -12.031  -1.302  0.00  0.00     0.026 A 
ATOM     19 CL   UNL d   1       0.098 -14.511  -1.244  0.00  0.00    -0.084 Cl
ATOM     20  C   UNL d   1       1.062 -10.637  -1.345  0.00  0.00     0.040 A 
ENDBRANCH  12  13
ENDBRANCH  11  12
ENDBRANCH   8  11
ENDBRANCH   4   7
BRANCH   1  21
ATOM     21  S   UNL d   1       1.038   0.025   0.101  0.00  0.00     0.247 S 
ATOM     22  O   UNL d   1      -0.133   0.792   0.461  0.00  0.00    -0.205 OA
ATOM     23  O   UNL d   1       2.178  -0.049   0.994  0.00  0.00    -0.205 OA
BRANCH  21  24
ATOM     24  N   UNL d   1       1.526   0.604  -1.419  0.00  0.00    -0.165 NA
ATOM     25  H   UNL d   1       1.213   1.576  -1.465  0.00  0.00     0.147 HD
BRANCH  24  26
ATOM     26  C   UNL d   1       2.866   0.453  -1.751  0.00  0.00     0.117 A 
ATOM     27  N   UNL d   1       3.786   1.383  -1.481  0.00  0.00    -0.249 N 
ATOM     28  O   UNL d   1       4.984   0.863  -1.952  0.00  0.00    -0.241 OA
ATOM     29  HN  UNL d   1       3.639   2.284  -1.025  1.00  0.00     0.196 HD
ATOM     30  C   UNL d   1       4.744  -0.327  -2.570  0.00  0.00     0.075 A 
ATOM     31  C   UNL d   1       3.407  -0.621  -2.477  0.00  0.00     0.079 A 
ATOM     32  C   UNL d   1       5.899  -0.999  -3.190  0.00  0.00     0.079 C 
ENDBRANCH  24  26
ENDBRANCH  21  24
ENDBRANCH   1  21
TORSDOF 7
