REMARK  0 active torsions:
REMARK  status: ('A' for Active; 'I' for Inactive)
ROOT
ATOM      1  C   UNL d   1       1.496   0.661   0.002  0.00  0.00     0.172 A 
ATOM      2  N   UNL d   1       0.821  -0.524   0.000  0.00  0.00    -0.278 N 
ATOM      3  N   UNL d   1       2.785   0.481   0.000  0.00  0.00    -0.278 N 
ATOM      4  HN  UNL d   1       3.507   1.202   0.003  1.00  0.00     0.189 HD
ATOM      5  S   UNL d   1       0.471   2.052   0.006  0.00  0.00    -0.050 SA
ATOM      6  N   UNL d   1       2.974  -0.891  -0.006  0.00  0.00    -0.287 N 
ATOM      7  HN  UNL d   1       3.878  -1.364  -0.009  1.00  0.00     0.188 HD
ATOM      8  C   UNL d   1       1.790  -1.494  -0.008  0.00  0.00     0.101 A 
ATOM      9  C   UNL d   1      -0.571  -0.416   0.004  0.00  0.00     0.060 A 
ATOM     10  C   UNL d   1      -0.939   0.942   0.005  0.00  0.00     0.035 A 
ATOM     11  C   UNL d   1       1.605  -2.959  -0.021  0.00  0.00     0.091 C 
ATOM     12  C   UNL d   1      -1.517  -1.425   0.005  0.00  0.00     0.031 A 
ATOM     13  C   UNL d   1      -2.274   1.311   0.004  0.00  0.00     0.021 A 
ATOM     14  C   UNL d   1      -2.864  -1.051   0.005  0.00  0.00     0.002 A 
ATOM     15  C   UNL d   1      -3.240   0.302   0.003  0.00  0.00     0.002 A 
ENDROOT
TORSDOF 0
