REMARK  4 active torsions:
REMARK  status: ('A' for Active; 'I' for Inactive)
REMARK    1  A    between atoms: C_6  and  C_1 
REMARK    2  A    between atoms: C_10  and  N_2 
REMARK    3  A    between atoms: N_8  and  C_3 
REMARK       I    between atoms: N_12  and  C_6 
REMARK    4  A    between atoms: C_11  and  C_10 
ROOT
ATOM      1  C   UNL d   1      -0.151  -1.302   0.094  0.00  0.00     0.113 A 
ATOM      2  N   UNL d   1       1.018   0.649   0.001  0.00  0.00    -0.318 N 
ATOM      3  C   UNL d   1       1.077  -0.745   0.064  0.00  0.00     0.104 A 
ATOM      4  C   UNL d   1      -0.270   1.189  -0.012  0.00  0.00     0.147 A 
ATOM      5  S   UNL d   1      -1.433  -0.141   0.061  0.00  0.00    -0.052 SA
ATOM      6  S   UNL d   1      -0.745   2.785  -0.083  0.00  0.00    -0.052 SA
ENDROOT
BRANCH   1   7
ATOM      7  C   UNL d   1      -0.424  -2.761   0.174  0.00  0.00     0.259 C 
ATOM      8  O   UNL d   1       0.468  -3.597   0.285  0.00  0.00    -0.267 OA
ATOM      9  N   UNL d   1      -1.733  -3.139   0.133  0.00  0.00    -0.365 N 
ATOM     10  H   UNL d   1      -2.483  -2.465   0.054  0.00  0.00     0.159 HD
ATOM     11  H   UNL d   1      -1.954  -4.123   0.182  0.00  0.00     0.159 HD
ENDBRANCH   1   7
BRANCH   3  12
ATOM     12  N   UNL d   1       2.271  -1.435   0.092  0.00  0.00    -0.287 NA
ATOM     13  H   UNL d   1       2.927  -1.032   0.757  0.00  0.00     0.125 HD
ATOM     14  H   UNL d   1       2.127  -2.434   0.287  0.00  0.00     0.125 HD
ENDBRANCH   3  12
BRANCH   2  15
ATOM     15  C   UNL d   1       2.228   1.458  -0.144  0.00  0.00     0.158 C 
BRANCH  15  16
ATOM     16  C   UNL d   1       2.767   1.958   1.171  0.00  0.00    -0.017 C 
ATOM     17  C   UNL d   1       2.346   1.676   2.412  0.00  0.00     0.008 C 
ENDBRANCH  15  16
ENDBRANCH   2  15
TORSDOF 4
