REMARK  6 active torsions:
REMARK  status: ('A' for Active; 'I' for Inactive)
REMARK    1  A    between atoms: C_13  and  C_2 
REMARK       I    between atoms: C_6  and  N_8 
REMARK    2  A    between atoms: C_14  and  C_6 
REMARK    3  A    between atoms: O_17  and  C_7 
REMARK    4  A    between atoms: N_8  and  C_13 
REMARK    5  A    between atoms: O_18  and  C_9 
REMARK    6  A    between atoms: C_11  and  C_14 
ROOT
ATOM      1  C   UNL d   1       5.778  -0.633   0.033  0.00  0.00     0.222 C 
ATOM      2  N   UNL d   1       5.328  -1.012   1.280  0.00  0.00    -0.356 N 
ATOM      3  O   UNL d   1       5.334  -1.125  -1.006  0.00  0.00    -0.273 OA
ATOM      4  H   UNL d   1       5.794  -0.686   2.117  0.00  0.00     0.162 HD
ENDROOT
BRANCH   1   5
ATOM      5  C   UNL d   1       6.861   0.431   0.017  0.00  0.00     0.141 C 
BRANCH   5   6
ATOM      6  C   UNL d   1       8.263  -0.134  -0.023  0.00  0.00    -0.047 A 
ATOM      7  C   UNL d   1       8.644  -1.042  -1.025  0.00  0.00     0.047 A 
ATOM      8  C   UNL d   1       9.939  -1.585  -1.071  0.00  0.00     0.102 A 
ATOM      9  C   UNL d   1      10.894  -1.149  -0.141  0.00  0.00     0.101 A 
ATOM     10  C   UNL d   1      10.518  -0.234   0.850  0.00  0.00     0.040 A 
ATOM     11  C   UNL d   1       9.218   0.273   0.910  0.00  0.00     0.010 A 
BRANCH   8  12
ATOM     12  O   UNL d   1      10.301  -2.517  -2.008  0.00  0.00    -0.353 OA
ATOM     13  C   UNL d   1       9.267  -3.405  -2.427  0.00  0.00     0.210 C 
ENDBRANCH   8  12
BRANCH   9  14
ATOM     14  O   UNL d   1      12.195  -1.565  -0.027  0.00  0.00    -0.353 OA
ATOM     15  C   UNL d   1      12.862  -1.922  -1.231  0.00  0.00     0.210 C 
ENDBRANCH   9  14
ENDBRANCH   5   6
ENDBRANCH   1   5
BRANCH   2  16
ATOM     16  C   UNL d   1       4.280  -2.001   1.381  0.00  0.00     0.168 C 
BRANCH  16  17
ATOM     17  C   UNL d   1       3.978  -2.315   2.809  0.00  0.00     0.002 A 
ATOM     18  S   UNL d   1       2.733  -1.487   3.640  0.00  0.00    -0.092 SA
ATOM     19  C   UNL d   1       2.909  -2.458   5.053  0.00  0.00     0.015 A 
ATOM     20  C   UNL d   1       3.938  -3.390   4.903  0.00  0.00    -0.018 A 
ATOM     21  C   UNL d   1       2.150  -2.386   6.239  0.00  0.00     0.019 A 
ATOM     22  C   UNL d   1       4.208  -4.270   5.979  0.00  0.00     0.013 A 
ATOM     23  C   UNL d   1       4.550  -3.283   3.608  0.00  0.00     0.029 A 
ATOM     24  C   UNL d   1       3.460  -4.199   7.158  0.00  0.00     0.001 A 
ATOM     25  C   UNL d   1       2.441  -3.266   7.284  0.00  0.00     0.001 A 
ENDBRANCH  16  17
ENDBRANCH   2  16
TORSDOF 6
