REMARK  7 active torsions:
REMARK  status: ('A' for Active; 'I' for Inactive)
REMARK       I    between atoms: N_4  and  C_1 
REMARK    1  A    between atoms: C_14  and  C_1 
REMARK       I    between atoms: C_2  and  N_5 
REMARK    2  A    between atoms: C_3  and  C_2 
REMARK    3  A    between atoms: N_5  and  N_4 
REMARK    4  A    between atoms: C_13  and  C_6 
REMARK    5  A    between atoms: C_10  and  C_15 
REMARK    6  A    between atoms: S_11  and  C_14 
REMARK    7  A    between atoms: C_15  and  S_11 
ROOT
ATOM      1  C   UNL d   1       1.019   0.068   0.046  0.00  0.00     0.245 C 
ATOM      2  N   UNL d   1       0.270  -0.603   0.993  0.00  0.00    -0.267 N 
ATOM      3  O   UNL d   1       0.498   0.676  -0.890  0.00  0.00    -0.271 OA
ATOM      4  H   UNL d   1       0.656  -1.029   1.835  0.00  0.00     0.190 HD
ENDROOT
BRANCH   1   5
ATOM      5  C   UNL d   1       2.523  -0.019   0.242  0.00  0.00     0.178 C 
BRANCH   5   6
ATOM      6  S   UNL d   1       3.137   1.502   1.028  0.00  0.00    -0.155 SA
BRANCH   6   7
ATOM      7  C   UNL d   1       4.926   1.194   0.881  0.00  0.00     0.113 C 
BRANCH   7   8
ATOM      8  C   UNL d   1       5.747   2.323   1.472  0.00  0.00    -0.038 A 
ATOM      9  C   UNL d   1       6.153   3.466   0.719  0.00  0.00    -0.019 A 
ATOM     10  C   UNL d   1       6.937   4.462   1.362  0.00  0.00    -0.025 A 
ATOM     11  C   UNL d   1       5.823   3.680  -0.639  0.00  0.00     0.013 A 
ATOM     12  C   UNL d   1       7.364   5.595   0.649  0.00  0.00     0.012 A 
ATOM     13  C   UNL d   1       7.284   4.319   2.712  0.00  0.00     0.012 A 
ATOM     14  C   UNL d   1       7.030   5.771  -0.691  0.00  0.00     0.001 A 
ATOM     15  C   UNL d   1       6.257   4.813  -1.335  0.00  0.00     0.001 A 
ATOM     16  C   UNL d   1       6.868   3.212   3.444  0.00  0.00     0.001 A 
ATOM     17  C   UNL d   1       6.107   2.224   2.831  0.00  0.00     0.009 A 
ENDBRANCH   7   8
ENDBRANCH   6   7
ENDBRANCH   5   6
ENDBRANCH   1   5
BRANCH   2  18
ATOM     18  N   UNL d   1      -1.128  -0.512   0.924  0.00  0.00    -0.264 N 
ATOM     19  C   UNL d   1      -1.875  -1.114   1.909  0.00  0.00     0.259 C 
ATOM     20  O   UNL d   1      -1.379  -1.735   2.844  0.00  0.00    -0.267 OA
ATOM     21  H   UNL d   1      -1.509   0.056   0.170  0.00  0.00     0.190 HD
BRANCH  19  22
ATOM     22  C   UNL d   1      -3.342  -0.949   1.727  0.00  0.00     0.076 C 
ATOM     23  C   UNL d   1      -4.180  -1.401   2.675  0.00  0.00     0.017 C 
BRANCH  23  24
ATOM     24  C   UNL d   1      -5.651  -1.360   2.612  0.00  0.00    -0.036 A 
ATOM     25  C   UNL d   1      -6.362  -1.457   1.409  0.00  0.00     0.011 A 
ATOM     26  C   UNL d   1      -7.761  -1.502   1.409  0.00  0.00     0.001 A 
ATOM     27  C   UNL d   1      -8.464  -1.457   2.610  0.00  0.00     0.000 A 
ATOM     28  C   UNL d   1      -7.771  -1.363   3.814  0.00  0.00     0.001 A 
ATOM     29  C   UNL d   1      -6.373  -1.318   3.814  0.00  0.00     0.011 A 
ENDBRANCH  23  24
ENDBRANCH  19  22
ENDBRANCH   2  18
TORSDOF 7
