REMARK  3 active torsions:
REMARK  status: ('A' for Active; 'I' for Inactive)
REMARK       I    between atoms: N_3  and  C_1 
REMARK    1  A    between atoms: C_8  and  C_1 
REMARK    2  A    between atoms: C_2  and  C_8 
REMARK    3  A    between atoms: C_11  and  N_3 
ROOT
ATOM      1  C   UNL d   1       0.803   0.014  -0.065  0.00  0.00     0.226 C 
ATOM      2  N   UNL d   1       0.216   0.923   0.800  0.00  0.00    -0.327 N 
ATOM      3  O   UNL d   1       0.205  -0.774  -0.794  0.00  0.00    -0.273 OA
ATOM      4  H   UNL d   1       0.812   1.633   1.204  0.00  0.00     0.169 HD
ENDROOT
BRANCH   1   5
ATOM      5  C   UNL d   1       2.327   0.042  -0.041  0.00  0.00     0.141 C 
BRANCH   5   6
ATOM      6  C   UNL d   1       2.916  -1.072   0.795  0.00  0.00    -0.044 A 
ATOM      7  C   UNL d   1       2.582  -2.415   0.549  0.00  0.00     0.050 A 
ATOM      8  C   UNL d   1       3.126  -3.431   1.332  0.00  0.00     0.119 A 
ATOM      9  F   UNL d   1       2.780  -4.702   1.090  0.00  0.00    -0.206 F 
ATOM     10  C   UNL d   1       4.016  -3.149   2.356  0.00  0.00     0.084 A 
ATOM     11  C   UNL d   1       4.365  -1.827   2.587  0.00  0.00     0.119 A 
ATOM     12  C   UNL d   1       3.831  -0.790   1.820  0.00  0.00     0.050 A 
ATOM     13  F   UNL d   1       5.233  -1.536   3.565  0.00  0.00    -0.206 F 
ENDBRANCH   5   6
ENDBRANCH   1   5
BRANCH   2  14
ATOM     14  C   UNL d   1      -1.155   1.002   1.128  0.00  0.00     0.034 A 
ATOM     15  C   UNL d   1      -2.083   0.007   0.808  0.00  0.00     0.031 A 
ATOM     16  C   UNL d   1      -3.423   0.130   1.193  0.00  0.00     0.026 A 
ATOM     17  C   UNL d   1      -3.841   1.253   1.898  0.00  0.00     0.034 A 
ATOM     18  C   UNL d   1      -2.930   2.253   2.226  0.00  0.00     0.026 A 
ATOM     19 CL   UNL d   1      -5.487   1.403   2.373  0.00  0.00    -0.084 Cl
ATOM     20  C   UNL d   1      -1.588   2.123   1.849  0.00  0.00     0.031 A 
ENDBRANCH   2  14
TORSDOF 3
