REMARK  5 active torsions:
REMARK  status: ('A' for Active; 'I' for Inactive)
REMARK    1  A    between atoms: C_7  and  S_1 
REMARK    2  A    between atoms: N_9  and  S_1 
REMARK    3  A    between atoms: C_8  and  C_2 
REMARK    4  A    between atoms: C_6  and  C_17 
REMARK    5  A    between atoms: C_17  and  N_9 
ROOT
ATOM      1  S   UNL d   1       0.958  -0.072   0.079  0.00  0.00     0.259 S 
ATOM      2  O   UNL d   1       0.260  -0.831   1.089  0.00  0.00    -0.201 OA
ATOM      3  O   UNL d   1       2.400  -0.016   0.029  0.00  0.00    -0.201 OA
ENDROOT
BRANCH   1   4
ATOM      4  C   UNL d   1       0.349   1.596   0.154  0.00  0.00     0.082 A 
ATOM      5  C   UNL d   1       1.151   2.658  -0.266  0.00  0.00     0.065 A 
ATOM      6  C   UNL d   1       0.697   3.974  -0.125  0.00  0.00     0.103 A 
ATOM      7  O   UNL d   1       1.576   4.935  -0.559  0.00  0.00    -0.348 OA
ATOM      8  C   UNL d   1      -0.574   4.224   0.414  0.00  0.00     0.102 A 
ATOM      9  C   UNL d   1       1.579   6.110   0.253  0.00  0.00     0.178 C 
ATOM     10  C   UNL d   1       0.498   7.085  -0.183  0.00  0.00     0.053 C 
ATOM     11  C   UNL d   1      -0.816   6.383  -0.475  0.00  0.00     0.178 C 
ATOM     12  O   UNL d   1      -1.152   5.460   0.561  0.00  0.00    -0.348 OA
ATOM     13  C   UNL d   1      -1.350   3.157   0.878  0.00  0.00     0.041 A 
ATOM     14  C   UNL d   1      -0.893   1.843   0.755  0.00  0.00     0.028 A 
ENDBRANCH   1   4
BRANCH   1  15
ATOM     15  N   UNL d   1       0.412  -0.624  -1.413  0.00  0.00    -0.310 N 
ATOM     16  H   UNL d   1      -0.601  -0.595  -1.551  0.00  0.00     0.172 HD
BRANCH  15  17
ATOM     17  C   UNL d   1       1.200  -0.270  -2.585  0.00  0.00     0.189 C 
BRANCH  17  18
ATOM     18  C   UNL d   1       0.536  -0.815  -3.816  0.00  0.00     0.035 A 
ATOM     19  N   UNL d   1      -0.858  -0.835  -3.929  0.00  0.00    -0.351 N 
ATOM     20  C   UNL d   1      -1.216  -1.407  -5.069  0.00  0.00     0.091 A 
ATOM     21  HN  UNL d   1      -1.506  -0.464  -3.234  1.00  0.00     0.166 HD
ATOM     22  S   UNL d   1       0.100  -1.889  -6.076  0.00  0.00    -0.081 SA
ATOM     23  C   UNL d   1       1.207  -1.329  -4.909  0.00  0.00     0.078 A 
BRANCH  20  24
ATOM     24  C   UNL d   1      -2.603  -1.618  -5.433  0.00  0.00     0.038 A 
ATOM     25  S   UNL d   1      -3.084  -2.447  -6.865  0.00  0.00    -0.099 SA
ATOM     26  C   UNL d   1      -4.744  -2.273  -6.509  0.00  0.00     0.050 A 
ATOM     27  C   UNL d   1      -4.946  -1.593  -5.332  0.00  0.00     0.008 A 
ATOM     28  C   UNL d   1      -3.716  -1.218  -4.712  0.00  0.00     0.022 A 
ENDBRANCH  20  24
ENDBRANCH  17  18
ENDBRANCH  15  17
ENDBRANCH   1  15
TORSDOF 5
