REMARK  3 active torsions:
REMARK  status: ('A' for Active; 'I' for Inactive)
REMARK    1  A    between atoms: N_9  and  C_3 
REMARK    2  A    between atoms: C_17  and  C_4 
REMARK       I    between atoms: C_7  and  N_10 
REMARK       I    between atoms: N_11  and  C_7 
REMARK    3  A    between atoms: C_12  and  N_11 
ROOT
ATOM      1  C   UNL d   1       1.342  -6.278   1.043  0.00  0.00     0.323 C 
ATOM      2  N   UNL d   1       0.660  -2.608   0.122  0.00  0.00    -0.359 N 
ATOM      3  N   UNL d   1       0.246  -5.423   0.907  0.00  0.00    -0.332 N 
ATOM      4  N   UNL d   1       1.402  -6.897   2.274  0.00  0.00    -0.308 N 
ATOM      5  O   UNL d   1       2.123  -6.480   0.117  0.00  0.00    -0.247 OA
ATOM      6  C   UNL d   1       0.692  -3.666  -0.892  0.00  0.00     0.145 C 
ATOM      7  C   UNL d   1      -0.074  -4.928  -0.440  0.00  0.00     0.147 C 
ATOM      8  C   UNL d   1       0.637  -3.462   2.434  0.00  0.00     0.040 C 
ATOM      9  C   UNL d   1       1.478  -2.857   1.313  0.00  0.00     0.126 C 
ATOM     10  C   UNL d   1      -0.277  -4.616   2.014  0.00  0.00     0.129 C 
ATOM     11  H   UNL d   1       0.498  -7.009   2.701  0.00  0.00     0.170 HD
ENDROOT
BRANCH   2  12
ATOM     12  C   UNL d   1       0.265  -1.324  -0.129  0.00  0.00     0.164 A 
ATOM     13  N   UNL d   1       0.519  -0.319   0.678  0.00  0.00    -0.321 N 
ATOM     14  C   UNL d   1       0.008   0.874   0.168  0.00  0.00     0.123 A 
ATOM     15  HN  UNL d   1       1.024  -0.400   1.561  1.00  0.00     0.169 HD
ATOM     16  N   UNL d   1      -0.676   0.824  -0.979  0.00  0.00    -0.309 N 
ATOM     17  S   UNL d   1      -0.660  -0.765  -1.483  0.00  0.00     0.024 SA
ATOM     18  HN  UNL d   1      -1.123   1.607  -1.455  1.00  0.00     0.176 HD
BRANCH  14  19
ATOM     19  C   UNL d   1       0.243   2.121   0.905  0.00  0.00     0.009 A 
ATOM     20  C   UNL d   1       1.172   2.142   1.959  0.00  0.00     0.015 A 
ATOM     21  C   UNL d   1       1.410   3.312   2.684  0.00  0.00     0.001 A 
ATOM     22  C   UNL d   1       0.720   4.479   2.364  0.00  0.00     0.000 A 
ATOM     23  C   UNL d   1      -0.204   4.475   1.318  0.00  0.00     0.001 A 
ATOM     24  C   UNL d   1      -0.439   3.304   0.590  0.00  0.00     0.015 A 
ENDBRANCH  14  19
ENDBRANCH   2  12
BRANCH   4  25
ATOM     25  C   UNL d   1       2.447  -7.723   2.748  0.00  0.00     0.043 A 
ATOM     26  C   UNL d   1       2.176  -8.761   3.671  0.00  0.00    -0.013 A 
ATOM     27  C   UNL d   1       3.267  -9.471   4.220  0.00  0.00     0.042 A 
ATOM     28  C   UNL d   1       0.775  -9.168   4.054  0.00  0.00     0.052 C 
ATOM     29 CL   UNL d   1       3.040 -10.723   5.398  0.00  0.00    -0.084 Cl
ATOM     30  C   UNL d   1       4.581  -9.193   3.839  0.00  0.00     0.024 A 
ATOM     31  C   UNL d   1       4.833  -8.201   2.899  0.00  0.00     0.004 A 
ATOM     32  C   UNL d   1       3.774  -7.471   2.362  0.00  0.00     0.030 A 
ENDBRANCH   4  25
TORSDOF 3
