REMARK  4 active torsions:
REMARK  status: ('A' for Active; 'I' for Inactive)
REMARK    1  A    between atoms: C_9  and  C_1 
REMARK    2  A    between atoms: C_17  and  C_7 
REMARK       I    between atoms: N_15  and  C_9 
REMARK    3  A    between atoms: C_13  and  C_23 
REMARK    4  A    between atoms: C_23  and  N_15 
ROOT
ATOM      1  C   UNL d   1      -1.270  -2.804   0.005  0.00  0.00     0.254 C 
ATOM      2  N   UNL d   1      -0.307  -3.788   0.081  0.00  0.00    -0.352 N 
ATOM      3  O   UNL d   1      -0.966  -1.610  -0.034  0.00  0.00    -0.268 OA
ATOM      4  H   UNL d   1      -0.560  -4.773   0.088  0.00  0.00     0.163 HD
ENDROOT
BRANCH   2   5
ATOM      5  C   UNL d   1       1.074  -3.367   0.100  0.00  0.00     0.169 C 
BRANCH   5   6
ATOM      6  C   UNL d   1       2.028  -4.502   0.265  0.00  0.00     0.001 A 
ATOM      7  S   UNL d   1       2.508  -5.000   1.831  0.00  0.00    -0.091 SA
ATOM      8  C   UNL d   1       3.733  -6.039   1.220  0.00  0.00     0.032 A 
ATOM      9  C   UNL d   1       3.680  -6.090  -0.162  0.00  0.00     0.022 A 
ATOM     10  C   UNL d   1       2.715  -5.195  -0.712  0.00  0.00     0.018 A 
BRANCH   8  11
ATOM     11  C   UNL d   1       4.663  -6.734   2.122  0.00  0.00     0.049 A 
ATOM     12  N   UNL d   1       5.083  -7.945   1.676  0.00  0.00    -0.365 N 
ATOM     13  C   UNL d   1       5.980  -8.609   2.441  0.00  0.00     0.088 A 
ATOM     14  HN  UNL d   1       4.738  -8.338   0.801  1.00  0.00     0.165 HD
ATOM     15  C   UNL d   1       6.500  -8.117   3.626  0.00  0.00     0.017 A 
ATOM     16  C   UNL d   1       6.071  -6.871   4.062  0.00  0.00     0.004 A 
ATOM     17  C   UNL d   1       5.138  -6.168   3.303  0.00  0.00     0.031 A 
ENDBRANCH   8  11
ENDBRANCH   5   6
ENDBRANCH   2   5
BRANCH   1  18
ATOM     18  C   UNL d   1      -2.701  -3.159  -0.049  0.00  0.00     0.061 A 
ATOM     19  C   UNL d   1      -3.229  -4.474  -0.050  0.00  0.00     0.082 A 
ATOM     20  N   UNL d   1      -2.557  -5.639   0.012  0.00  0.00    -0.310 N 
ATOM     21  C   UNL d   1      -4.735  -4.682  -0.130  0.00  0.00     0.068 A 
ATOM     22  S   UNL d   1      -3.693  -6.853  -0.020  0.00  0.00     0.068 SA
ATOM     23  HN  UNL d   1      -1.546  -5.755   0.068  1.00  0.00     0.176 HD
ATOM     24  N   UNL d   1      -5.095  -5.973  -0.123  0.00  0.00    -0.310 N 
ATOM     25  HN  UNL d   1      -6.044  -6.342  -0.172  1.00  0.00     0.176 HD
ATOM     26  C   UNL d   1      -5.631  -3.587  -0.205  0.00  0.00     0.032 A 
ATOM     27  C   UNL d   1      -5.053  -2.311  -0.194  0.00  0.00     0.003 A 
ATOM     28  C   UNL d   1      -3.657  -2.110  -0.119  0.00  0.00     0.019 A 
ENDBRANCH   1  18
TORSDOF 4
