REMARK  2 active torsions:
REMARK  status: ('A' for Active; 'I' for Inactive)
REMARK    1  A    between atoms: C_6  and  N_1 
REMARK    2  A    between atoms: C_11  and  C_6 
ROOT
ATOM      1  N   UNL d   1       1.881   0.030  -0.097  0.00  0.00    -0.276 N 
ATOM      2  C   UNL d   1       1.096   1.149  -0.127  0.00  0.00     0.262 A 
ATOM      3  C   UNL d   1       1.138  -1.114  -0.022  0.00  0.00     0.262 A 
ATOM      4  C   UNL d   1      -0.289   0.685  -0.055  0.00  0.00     0.048 A 
ATOM      5  C   UNL d   1      -0.263  -0.697   0.003  0.00  0.00     0.048 A 
ATOM      6  O   UNL d   1       1.428   2.316  -0.216  0.00  0.00    -0.267 OA
ATOM      7  O   UNL d   1       1.509  -2.272   0.007  0.00  0.00    -0.267 OA
ATOM      8  C   UNL d   1      -1.420  -1.450   0.053  0.00  0.00     0.018 A 
ATOM      9  C   UNL d   1      -1.475   1.393  -0.060  0.00  0.00     0.018 A 
ATOM     10  C   UNL d   1      -2.662   0.654  -0.006  0.00  0.00     0.001 A 
ATOM     11  C   UNL d   1      -2.634  -0.756   0.047  0.00  0.00     0.001 A 
ENDROOT
BRANCH   1  12
ATOM     12  C   UNL d   1       3.326   0.055  -0.165  0.00  0.00     0.175 C 
BRANCH  12  13
ATOM     13  C   UNL d   1       3.953   0.164   1.196  0.00  0.00    -0.024 A 
ATOM     14  C   UNL d   1       4.309   1.402   1.725  0.00  0.00     0.096 A 
ATOM     15  N   UNL d   1       4.859   1.573   2.949  0.00  0.00    -0.375 N 
ATOM     16  C   UNL d   1       5.053   0.462   3.690  0.00  0.00     0.087 A 
ATOM     17  HN  UNL d   1       5.114   2.498   3.296  1.00  0.00     0.164 HD
ATOM     18  C   UNL d   1       4.729  -0.815   3.261  0.00  0.00     0.018 A 
ATOM     19  C   UNL d   1       4.170  -0.963   1.995  0.00  0.00     0.011 A 
ENDBRANCH  12  13
ENDBRANCH   1  12
TORSDOF 2
