REMARK  4 active torsions:
REMARK  status: ('A' for Active; 'I' for Inactive)
REMARK    1  A    between atoms: C_2  and  C_1 
REMARK    2  A    between atoms: C_5  and  C_1 
REMARK    3  A    between atoms: C_6  and  C_2 
REMARK    4  A    between atoms: N_7  and  C_3 
ROOT
ATOM      1  C   UNL d   1       0.968  -0.236   0.026  0.00  0.00     0.011 C 
ATOM      2  C   UNL d   1       0.265   0.898  -0.192  0.00  0.00     0.098 C 
ENDROOT
BRANCH   1   3
ATOM      3  C   UNL d   1       0.414  -1.627   0.309  0.00  0.00     0.054 C 
ATOM      4  S   UNL d   1       1.219  -2.699   1.374  0.00  0.00    -0.078 SA
BRANCH   3   5
ATOM      5  C   UNL d   1      -0.825  -2.089  -0.422  0.00  0.00    -0.014 A 
ATOM      6  C   UNL d   1      -1.140  -1.615  -1.702  0.00  0.00     0.013 A 
ATOM      7  C   UNL d   1      -2.308  -2.035  -2.349  0.00  0.00     0.001 A 
ATOM      8  C   UNL d   1      -3.159  -2.955  -1.740  0.00  0.00     0.000 A 
ATOM      9  C   UNL d   1      -2.849  -3.456  -0.479  0.00  0.00     0.001 A 
ATOM     10  C   UNL d   1      -1.694  -3.022   0.176  0.00  0.00     0.013 A 
ENDBRANCH   3   5
ENDBRANCH   1   3
BRANCH   1  11
ATOM     11  C   UNL d   1       2.443  -0.086  -0.094  0.00  0.00    -0.023 A 
ATOM     12  C   UNL d   1       3.230   0.198   1.033  0.00  0.00     0.012 A 
ATOM     13  C   UNL d   1       4.622   0.245   0.929  0.00  0.00     0.001 A 
ATOM     14  C   UNL d   1       5.236   0.036  -0.305  0.00  0.00     0.000 A 
ATOM     15  C   UNL d   1       4.460  -0.209  -1.438  0.00  0.00     0.001 A 
ATOM     16  C   UNL d   1       3.069  -0.271  -1.334  0.00  0.00     0.012 A 
ENDBRANCH   1  11
BRANCH   2  17
ATOM     17  N   UNL d   1      -1.083   1.243  -0.196  0.00  0.00    -0.398 N 
ATOM     18  C   UNL d   1      -2.073   0.696   0.733  0.00  0.00     0.148 C 
ATOM     19  C   UNL d   1      -1.534   2.482  -0.844  0.00  0.00     0.148 C 
ENDBRANCH   2  17
TORSDOF 4
