REMARK  3 active torsions:
REMARK  status: ('A' for Active; 'I' for Inactive)
REMARK    1  A    between atoms: N_2  and  C_1 
REMARK    2  A    between atoms: N_4  and  C_11 
REMARK    3  A    between atoms: C_5  and  C_7 
ROOT
ATOM      1  C   UNL d   1      -0.713  -2.704  -0.022  0.00  0.00     0.246 C 
ATOM      2  N   UNL d   1      -0.903  -3.259  -1.379  0.00  0.00    -0.259 NA
ATOM      3  O   UNL d   1       0.113  -3.591   0.785  0.00  0.00    -0.324 OA
ATOM      4  C   UNL d   1      -0.650  -4.621  -1.094  0.00  0.00     0.046 A 
ATOM      5  C   UNL d   1      -0.523  -6.966  -1.459  0.00  0.00     0.104 A 
ATOM      6  C   UNL d   1      -0.058  -4.790   0.148  0.00  0.00     0.092 A 
ATOM      7  C   UNL d   1      -0.858  -5.691  -1.939  0.00  0.00     0.062 A 
ATOM      8  C   UNL d   1       0.308  -6.028   0.632  0.00  0.00     0.041 A 
ATOM      9  C   UNL d   1       0.054  -7.139  -0.179  0.00  0.00     0.039 A 
ATOM     10  H   UNL d   1      -0.164  -2.919  -1.992  0.00  0.00     0.130 HD
ENDROOT
BRANCH   1  11
ATOM     11  C   UNL d   1      -0.106  -1.326   0.006  0.00  0.00     0.029 A 
ATOM     12  S   UNL d   1      -1.153   0.039   0.092  0.00  0.00    -0.067 SA
ATOM     13  C   UNL d   1       0.148   1.126   0.048  0.00  0.00     0.144 A 
ATOM     14  C   UNL d   1       1.368   0.491  -0.035  0.00  0.00     0.045 A 
ATOM     15  C   UNL d   1       1.220  -0.932  -0.059  0.00  0.00     0.021 A 
BRANCH  13  16
ATOM     16  N   UNL d   1      -0.087   2.547   0.089  0.00  0.00    -0.108 N 
ATOM     17  O   UNL d   1       0.918   3.269   0.036  0.00  0.00    -0.531 OA
ATOM     18  O   UNL d   1      -1.254   2.949   0.175  0.00  0.00    -0.531 OA
ENDBRANCH  13  16
ENDBRANCH   1  11
BRANCH   5  19
ATOM     19  N   UNL d   1      -0.786  -8.140  -2.299  0.00  0.00    -0.116 N 
ATOM     20  O   UNL d   1      -1.207  -7.946  -3.448  0.00  0.00    -0.532 OA
ATOM     21  O   UNL d   1      -0.572  -9.258  -1.808  0.00  0.00    -0.532 OA
ENDBRANCH   5  19
TORSDOF 3
