REMARK  6 active torsions:
REMARK  status: ('A' for Active; 'I' for Inactive)
REMARK    1  A    between atoms: C_9  and  C_1 
REMARK    2  A    between atoms: C_11  and  N_2 
REMARK    3  A    between atoms: C_7  and  C_3 
REMARK    4  A    between atoms: C_16  and  C_4 
REMARK    5  A    between atoms: N_8  and  C_12 
REMARK    6  A    between atoms: C_19  and  C_9 
ROOT
ATOM      1  C   UNL d   1      -0.215  -1.157  -0.024  0.00  0.00     0.073 C 
ATOM      2  N   UNL d   1      -0.424   1.060  -0.125  0.00  0.00    -0.254 N 
ATOM      3  C   UNL d   1       1.044  -0.502  -0.246  0.00  0.00     0.077 C 
ATOM      4  C   UNL d   1      -1.167  -0.118  -0.010  0.00  0.00     0.083 C 
ATOM      5  N   UNL d   1       0.860   0.805  -0.439  0.00  0.00    -0.291 N 
ATOM      6  HN  UNL d   1       1.555   1.478  -0.761  1.00  0.00     0.187 HD
ENDROOT
BRANCH   2   7
ATOM      7  C   UNL d   1      -0.827   2.429  -0.016  0.00  0.00     0.057 A 
ATOM      8  C   UNL d   1      -1.904   2.828   0.782  0.00  0.00     0.034 A 
ATOM      9  C   UNL d   1      -2.330   4.162   0.773  0.00  0.00     0.038 A 
ATOM     10  C   UNL d   1      -1.664   5.101  -0.026  0.00  0.00     0.103 A 
ATOM     11  C   UNL d   1      -0.548   4.726  -0.783  0.00  0.00     0.038 A 
ATOM     12  C   UNL d   1      -0.122   3.396  -0.762  0.00  0.00     0.034 A 
BRANCH  10  13
ATOM     13  N   UNL d   1      -2.152   6.484  -0.088  0.00  0.00    -0.116 N 
ATOM     14  O   UNL d   1      -1.542   7.280  -0.817  0.00  0.00    -0.532 OA
ATOM     15  O   UNL d   1      -3.154   6.773   0.582  0.00  0.00    -0.532 OA
ENDBRANCH  10  13
ENDBRANCH   2   7
BRANCH   4  16
ATOM     16  C   UNL d   1      -2.648  -0.171   0.005  0.00  0.00    -0.006 A 
ATOM     17  C   UNL d   1      -3.408   0.646  -0.851  0.00  0.00     0.014 A 
ATOM     18  C   UNL d   1      -4.805   0.658  -0.796  0.00  0.00     0.001 A 
ATOM     19  C   UNL d   1      -5.472  -0.202   0.069  0.00  0.00     0.000 A 
ATOM     20  C   UNL d   1      -4.741  -1.063   0.883  0.00  0.00     0.001 A 
ATOM     21  C   UNL d   1      -3.341  -1.032   0.866  0.00  0.00     0.014 A 
ENDBRANCH   4  16
BRANCH   1  22
ATOM     22  C   UNL d   1      -0.530  -2.591   0.028  0.00  0.00     0.197 C 
ATOM     23  O   UNL d   1      -1.564  -3.034  -0.465  0.00  0.00    -0.286 OA
BRANCH  22  24
ATOM     24  C   UNL d   1       0.406  -3.582   0.618  0.00  0.00     0.015 A 
ATOM     25  C   UNL d   1       0.430  -4.867   0.046  0.00  0.00     0.015 A 
ATOM     26  C   UNL d   1       1.338  -5.827   0.500  0.00  0.00     0.001 A 
ATOM     27  C   UNL d   1       2.218  -5.510   1.531  0.00  0.00     0.000 A 
ATOM     28  C   UNL d   1       2.174  -4.250   2.129  0.00  0.00     0.001 A 
ATOM     29  C   UNL d   1       1.259  -3.288   1.688  0.00  0.00     0.015 A 
ENDBRANCH  22  24
ENDBRANCH   1  22
BRANCH   3  30
ATOM     30  C   UNL d   1       2.406  -1.035  -0.399  0.00  0.00     0.015 A 
ATOM     31  C   UNL d   1       3.524  -0.444   0.234  0.00  0.00     0.048 A 
ATOM     32  C   UNL d   1       4.809  -0.973   0.060  0.00  0.00     0.048 A 
ATOM     33 CL   UNL d   1       3.405   0.918   1.301  0.00  0.00    -0.083 Cl
ATOM     34  C   UNL d   1       4.991  -2.113  -0.712  0.00  0.00     0.035 A 
ATOM     35  C   UNL d   1       3.905  -2.714  -1.341  0.00  0.00     0.025 A 
ATOM     36 CL   UNL d   1       6.563  -2.787  -0.887  0.00  0.00    -0.084 Cl
ATOM     37  C   UNL d   1       2.627  -2.160  -1.211  0.00  0.00     0.017 A 
ENDBRANCH   3  30
TORSDOF 6
