REMARK  6 active torsions:
REMARK  status: ('A' for Active; 'I' for Inactive)
REMARK    1  A    between atoms: C_2  and  S_1 
REMARK    2  A    between atoms: N_4  and  S_1 
REMARK    3  A    between atoms: C_3  and  N_10 
REMARK       I    between atoms: C_12  and  N_19 
REMARK    4  A    between atoms: C_20  and  C_12 
REMARK    5  A    between atoms: C_24  and  C_13 
REMARK    6  A    between atoms: N_19  and  C_24 
ROOT
ATOM      1  S   UNL d   1       1.307   0.036   0.420  0.00  0.00     0.267 S 
ATOM      2  O   UNL d   1       0.422   0.565   1.437  0.00  0.00    -0.200 OA
ATOM      3  O   UNL d   1       1.978  -1.234   0.591  0.00  0.00    -0.200 OA
ENDROOT
BRANCH   1   4
ATOM      4  C   UNL d   1       2.599   1.249   0.261  0.00  0.00     0.120 A 
ATOM      5  S   UNL d   1       3.644   1.067  -1.082  0.00  0.00    -0.080 SA
ATOM      6  C   UNL d   1       4.423   2.560  -0.766  0.00  0.00     0.002 A 
ATOM      7  C   UNL d   1       3.936   3.150   0.384  0.00  0.00     0.018 A 
ATOM      8  C   UNL d   1       2.893   2.389   0.982  0.00  0.00     0.034 A 
BRANCH   6   9
ATOM      9  C   UNL d   1       5.488   3.070  -1.685  0.00  0.00     0.169 C 
BRANCH   9  10
ATOM     10  N   UNL d   1       4.865   3.785  -2.777  0.00  0.00    -0.352 N 
ATOM     11  C   UNL d   1       4.676   5.151  -2.732  0.00  0.00     0.251 C 
ATOM     12  O   UNL d   1       5.010   5.849  -1.781  0.00  0.00    -0.268 OA
ATOM     13  H   UNL d   1       4.368   3.237  -3.463  0.00  0.00     0.163 HD
BRANCH  11  14
ATOM     14  C   UNL d   1       4.013   5.764  -3.915  0.00  0.00     0.032 A 
ATOM     15  C   UNL d   1       3.261   6.932  -3.730  0.00  0.00     0.018 A 
ATOM     16  C   UNL d   1       2.655   7.561  -4.823  0.00  0.00     0.025 A 
ATOM     17  C   UNL d   1       2.811   7.028  -6.101  0.00  0.00     0.034 A 
ATOM     18  C   UNL d   1       3.568   5.872  -6.297  0.00  0.00     0.025 A 
ATOM     19 CL   UNL d   1       2.083   7.809  -7.449  0.00  0.00    -0.084 Cl
ATOM     20  C   UNL d   1       4.172   5.240  -5.204  0.00  0.00     0.018 A 
ENDBRANCH  11  14
ENDBRANCH   9  10
ENDBRANCH   6   9
ENDBRANCH   1   4
BRANCH   1  21
ATOM     21  N   UNL d   1       0.468   0.015  -1.044  0.00  0.00    -0.303 N 
ATOM     22  C   UNL d   1      -0.063   1.310  -1.540  0.00  0.00     0.165 C 
ATOM     23  C   UNL d   1      -1.497   1.561  -1.069  0.00  0.00     0.294 C 
ATOM     24  N   UNL d   1      -2.461   0.510  -1.436  0.00  0.00     0.105 N 
ATOM     25  C   UNL d   1      -1.951  -0.794  -0.985  0.00  0.00     0.294 C 
ATOM     26  C   UNL d   1      -0.461  -1.125  -1.257  0.00  0.00     0.165 C 
BRANCH  24  27
ATOM     27  C   UNL d   1      -3.042   0.564  -2.797  0.00  0.00     0.290 C 
ATOM     28  C   UNL d   1      -2.118   0.211  -3.959  0.00  0.00    -0.009 C 
ATOM     29  C   UNL d   1      -1.823   1.362  -4.719  0.00  0.00    -0.017 C 
ATOM     30  C   UNL d   1      -1.607  -1.026  -4.324  0.00  0.00     0.010 C 
ATOM     31  C   UNL d   1      -0.868   1.319  -5.723  0.00  0.00     0.013 C 
ATOM     32  C   UNL d   1      -2.658   2.451  -4.260  0.00  0.00    -0.017 A 
ATOM     33  C   UNL d   1      -0.248   0.096  -5.998  0.00  0.00     0.001 C 
ATOM     34  C   UNL d   1      -0.640  -1.072  -5.328  0.00  0.00     0.001 C 
ATOM     35  C   UNL d   1      -3.444   1.997  -3.177  0.00  0.00    -0.009 A 
ATOM     36  C   UNL d   1      -2.776   3.753  -4.716  0.00  0.00     0.013 A 
ATOM     37  C   UNL d   1      -4.355   2.833  -2.545  0.00  0.00     0.010 A 
ATOM     38  C   UNL d   1      -4.463   4.149  -2.999  0.00  0.00     0.001 A 
ATOM     39  C   UNL d   1      -3.680   4.605  -4.073  0.00  0.00     0.001 A 
ENDBRANCH  24  27
ENDBRANCH   1  21
TORSDOF 6
