REMARK  2 active torsions:
REMARK  status: ('A' for Active; 'I' for Inactive)
REMARK    1  A    between atoms: S_2  and  C_1 
REMARK    2  A    between atoms: N_10  and  S_2 
ROOT
ATOM      1  C   UNL d   1      -0.012  -1.681  -0.027  0.00  0.00     0.157 A 
ATOM      2  C   UNL d   1      -1.211  -0.977  -0.004  0.00  0.00     0.184 A 
ATOM      3  C   UNL d   1       1.194  -0.995   0.013  0.00  0.00     0.184 A 
ATOM      4  C   UNL d   1       1.198   0.397   0.051  0.00  0.00     0.198 A 
ATOM      5  C   UNL d   1      -1.203   0.413   0.037  0.00  0.00     0.198 A 
ATOM      6  C   UNL d   1       0.002   1.101   0.059  0.00  0.00     0.199 A 
ATOM      7  F   UNL d   1       2.369  -1.636   0.019  0.00  0.00    -0.201 F 
ATOM      8  F   UNL d   1      -2.389  -1.616  -0.030  0.00  0.00    -0.201 F 
ATOM      9  F   UNL d   1       2.362   1.059   0.077  0.00  0.00    -0.199 F 
ATOM     10  F   UNL d   1      -2.360   1.088   0.047  0.00  0.00    -0.199 F 
ATOM     11  F   UNL d   1       0.011   2.441   0.087  0.00  0.00    -0.199 F 
ENDROOT
BRANCH   1  12
ATOM     12  S   UNL d   1      -0.063  -3.420  -0.100  0.00  0.00     0.245 S 
ATOM     13  O   UNL d   1       1.250  -3.954  -0.365  0.00  0.00    -0.206 OA
ATOM     14  O   UNL d   1      -0.885  -3.901   0.983  0.00  0.00    -0.206 OA
BRANCH  12  15
ATOM     15  N   UNL d   1      -0.918  -3.699  -1.520  0.00  0.00    -0.225 NA
ATOM     16  H   UNL d   1      -0.336  -4.228  -2.173  0.00  0.00     0.136 HD
ATOM     17  H   UNL d   1      -1.806  -4.158  -1.307  0.00  0.00     0.136 HD
ENDBRANCH  12  15
ENDBRANCH   1  12
TORSDOF 2
