REMARK  6 active torsions:
REMARK  status: ('A' for Active; 'I' for Inactive)
REMARK    1  A    between atoms: N_3  and  S_1 
REMARK    2  A    between atoms: C_8  and  S_1 
REMARK    3  A    between atoms: N_2  and  C_5 
REMARK    4  A    between atoms: C_16  and  N_3 
REMARK    5  A    between atoms: C_15  and  C_8 
REMARK    6  A    between atoms: C_18  and  C_16 
ROOT
ATOM      1  C   UNL d   1       0.866  -2.182   1.365  0.00  0.00     0.142 C 
ENDROOT
BRANCH   1   2
ATOM      2  N   UNL d   1       0.369  -2.877   0.148  0.00  0.00    -0.215 NA
ATOM      3  H   UNL d   1       0.641  -3.859   0.173  0.00  0.00     0.140 HD
BRANCH   2   4
ATOM      4  S   UNL d   1       0.897  -2.149  -1.291  0.00  0.00     0.213 S 
ATOM      5  O   UNL d   1       2.334  -2.338  -1.308  0.00  0.00    -0.211 OA
ATOM      6  O   UNL d   1       0.299  -0.832  -1.345  0.00  0.00    -0.211 OA
BRANCH   4   7
ATOM      7  C   UNL d   1       0.145  -3.224  -2.522  0.00  0.00     0.195 C 
BRANCH   7   8
ATOM      8  C   UNL d   1       0.518  -2.762  -3.909  0.00  0.00    -0.043 A 
ATOM      9  C   UNL d   1       1.696  -3.214  -4.526  0.00  0.00     0.010 A 
ATOM     10  C   UNL d   1       2.008  -2.826  -5.832  0.00  0.00     0.024 A 
ATOM     11  C   UNL d   1       1.148  -1.981  -6.528  0.00  0.00     0.034 A 
ATOM     12  C   UNL d   1      -0.011  -1.503  -5.922  0.00  0.00     0.024 A 
ATOM     13 CL   UNL d   1       1.514  -1.531  -8.148  0.00  0.00    -0.084 Cl
ATOM     14  C   UNL d   1      -0.323  -1.889  -4.615  0.00  0.00     0.010 A 
ENDBRANCH   7   8
ENDBRANCH   4   7
ENDBRANCH   2   4
ENDBRANCH   1   2
BRANCH   1  15
ATOM     15  C   UNL d   1       0.423  -2.877   2.633  0.00  0.00    -0.044 A 
ATOM     16  C   UNL d   1       0.775  -4.206   2.880  0.00  0.00     0.010 A 
ATOM     17  C   UNL d   1       0.365  -4.849   4.054  0.00  0.00     0.030 A 
ATOM     18  C   UNL d   1      -0.393  -4.201   5.039  0.00  0.00     0.030 A 
ATOM     19  C   UNL d   1      -0.709  -2.857   4.789  0.00  0.00     0.030 A 
ATOM     20  C   UNL d   1      -0.315  -2.203   3.610  0.00  0.00     0.010 A 
BRANCH  18  21
ATOM     21  N   UNL d   1      -0.820  -4.863   6.169  0.00  0.00    -0.378 N 
ATOM     22  C   UNL d   1      -2.028  -4.470   6.913  0.00  0.00     0.153 C 
ATOM     23  C   UNL d   1      -2.900  -5.718   7.205  0.00  0.00     0.291 C 
ATOM     24  N   UNL d   1      -2.152  -6.797   7.891  0.00  0.00     0.087 N 
ATOM     25  C   UNL d   1      -0.982  -7.166   7.062  0.00  0.00     0.291 C 
ATOM     26  C   UNL d   1      -3.008  -7.955   8.127  0.00  0.00     0.310 C 
ATOM     27  C   UNL d   1      -0.059  -5.956   6.798  0.00  0.00     0.153 C 
ENDBRANCH  18  21
ENDBRANCH   1  15
TORSDOF 6
