REMARK  4 active torsions:
REMARK  status: ('A' for Active; 'I' for Inactive)
REMARK    1  A    between atoms: C_3  and  C_1 
REMARK    2  A    between atoms: C_4  and  C_2 
REMARK       I    between atoms: N_11  and  C_3 
REMARK    3  A    between atoms: N_18  and  C_7 
REMARK    4  A    between atoms: C_13  and  N_11 
ROOT
ATOM      1  C   UNL d   1       1.700  -0.141   0.184  0.00  0.00     0.079 A 
ATOM      2  C   UNL d   1       0.724  -1.109  -0.014  0.00  0.00     0.136 A 
ATOM      3  N   UNL d   1      -0.613  -0.775  -0.086  0.00  0.00    -0.328 N 
ATOM      4  HN  UNL d   1      -1.315  -1.501  -0.232  1.00  0.00     0.168 HD
ATOM      5  C   UNL d   1      -0.983   0.496   0.037  0.00  0.00     0.155 A 
ATOM      6  N   UNL d   1      -0.135   1.479   0.271  0.00  0.00    -0.342 N 
ATOM      7  HN  UNL d   1      -0.450   2.441   0.400  1.00  0.00     0.167 HD
ATOM      8  C   UNL d   1       1.174   1.144   0.329  0.00  0.00     0.110 A 
ENDROOT
BRANCH   1   9
ATOM      9  C   UNL d   1       3.198  -0.194   0.267  0.00  0.00     0.259 C 
ATOM     10  N   UNL d   1       3.880  -1.339  -0.085  0.00  0.00    -0.323 N 
ATOM     11  H   UNL d   1       3.365  -2.182  -0.295  0.00  0.00     0.169 HD
ATOM     12  O   UNL d   1       3.763   0.835   0.631  0.00  0.00    -0.267 OA
BRANCH  10  13
ATOM     13  C   UNL d   1       5.282  -1.499  -0.227  0.00  0.00     0.037 A 
ATOM     14  C   UNL d   1       6.216  -0.473  -0.081  0.00  0.00     0.071 A 
ATOM     15  C   UNL d   1       7.566  -0.725  -0.320  0.00  0.00     0.118 A 
ATOM     16  F   UNL d   1       8.452   0.274  -0.200  0.00  0.00    -0.206 F 
ATOM     17  C   UNL d   1       8.014  -1.985  -0.695  0.00  0.00     0.042 A 
ATOM     18  C   UNL d   1       7.096  -3.022  -0.820  0.00  0.00     0.005 A 
ATOM     19  C   UNL d   1       5.739  -2.780  -0.585  0.00  0.00     0.029 A 
ENDBRANCH  10  13
ENDBRANCH   1   9
BRANCH   2  20
ATOM     20  C   UNL d   1       0.927  -2.602  -0.116  0.00  0.00     0.433 C 
ATOM     21  F   UNL d   1       2.214  -3.027  -0.224  0.00  0.00    -0.165 F 
ATOM     22  F   UNL d   1       0.431  -3.267   0.967  0.00  0.00    -0.165 F 
ATOM     23  F   UNL d   1       0.302  -3.144  -1.202  0.00  0.00    -0.165 F 
ENDBRANCH   2  20
BRANCH   5  24
ATOM     24  N   UNL d   1      -2.322   0.786  -0.040  0.00  0.00    -0.274 NA
ATOM     25  H   UNL d   1      -2.530   1.642   0.458  0.00  0.00     0.127 HD
ATOM     26  H   UNL d   1      -2.887  -0.024   0.167  0.00  0.00     0.127 HD
ENDBRANCH   5  24
TORSDOF 4
