REMARK  6 active torsions:
REMARK  status: ('A' for Active; 'I' for Inactive)
REMARK    1  A    between atoms: C_4  and  N_1 
REMARK       I    between atoms: C_5  and  N_1 
REMARK    2  A    between atoms: C_16  and  C_5 
REMARK    3  A    between atoms: C_6  and  C_17 
REMARK    4  A    between atoms: O_13  and  C_6 
REMARK    5  A    between atoms: S_9  and  C_16 
REMARK    6  A    between atoms: C_17  and  S_9 
ROOT
ATOM      1  N   UNL d   1       1.115   0.048  -0.140  0.00  0.00    -0.312 N 
ATOM      2  C   UNL d   1       2.469  -0.101   0.078  0.00  0.00     0.232 C 
ATOM      3  O   UNL d   1       3.019  -0.952   0.779  0.00  0.00    -0.272 OA
ATOM      4  H   UNL d   1       0.809   0.710  -0.839  0.00  0.00     0.170 HD
ENDROOT
BRANCH   1   5
ATOM      5  C   UNL d   1       0.115  -0.659   0.539  0.00  0.00     0.107 A 
ATOM      6  N   UNL d   1       0.420  -1.398   1.621  0.00  0.00    -0.351 N 
ATOM      7  C   UNL d   1      -0.594  -2.030   2.263  0.00  0.00     0.113 A 
ATOM      8  HN  UNL d   1       1.383  -1.480   1.948  1.00  0.00     0.166 HD
ATOM      9  C   UNL d   1      -1.916  -1.965   1.862  0.00  0.00     0.049 A 
ATOM     10  C   UNL d   1      -2.221  -1.204   0.743  0.00  0.00     0.029 A 
ATOM     11 CL   UNL d   1      -3.147  -2.795   2.721  0.00  0.00    -0.083 Cl
ATOM     12  C   UNL d   1      -1.194  -0.532   0.076  0.00  0.00     0.050 A 
ENDBRANCH   1   5
BRANCH   2  13
ATOM     13  C   UNL d   1       3.323   0.942  -0.628  0.00  0.00     0.177 C 
BRANCH  13  14
ATOM     14  S   UNL d   1       3.812   2.260   0.532  0.00  0.00    -0.149 SA
BRANCH  14  15
ATOM     15  C   UNL d   1       4.669   1.300   1.832  0.00  0.00     0.184 C 
BRANCH  15  16
ATOM     16  C   UNL d   1       5.850   0.518   1.299  0.00  0.00     0.149 C 
ATOM     17  O   UNL d   1       6.963   0.996   1.128  0.00  0.00    -0.649 OA
BRANCH  16  18
ATOM     18  O   UNL d   1       5.573  -0.771   0.989  0.00  0.00    -0.776 OA
ATOM     19  H   UNL d   1       4.627  -1.036   1.122  0.00  0.00     0.167 HD
ENDBRANCH  16  18
ENDBRANCH  15  16
ENDBRANCH  14  15
ENDBRANCH  13  14
ENDBRANCH   2  13
TORSDOF 6
