REMARK  2 active torsions:
REMARK  status: ('A' for Active; 'I' for Inactive)
REMARK    1  A    between atoms: C_3  and  C_1 
REMARK    2  A    between atoms: O_14  and  C_3 
ROOT
ATOM      1  C   UNL d   1       0.747   0.786   1.146  0.00  0.00     0.047 C 
ATOM      2  C   UNL d   1      -1.503   0.285   0.110  0.00  0.00     0.020 C 
ATOM      3  C   UNL d   1      -0.776   1.043   1.235  0.00  0.00     0.041 C 
ATOM      4  C   UNL d   1       0.984  -0.744   1.264  0.00  0.00     0.025 C 
ATOM      5  C   UNL d   1       1.259   1.245  -0.239  0.00  0.00     0.025 C 
ATOM      6  C   UNL d   1       0.252  -1.505   0.147  0.00  0.00    -0.012 C 
ATOM      7  C   UNL d   1       0.523   0.491  -1.364  0.00  0.00    -0.012 C 
ATOM      8  C   UNL d   1      -1.256  -1.224   0.250  0.00  0.00     0.025 C 
ATOM      9  C   UNL d   1      -0.988   0.766  -1.257  0.00  0.00     0.025 C 
ATOM     10  C   UNL d   1       0.771  -1.019  -1.215  0.00  0.00     0.009 C 
ATOM     11 BR   UNL d   1      -3.419   0.639   0.233  0.00  0.00    -0.085 Br
ENDROOT
BRANCH   1  12
ATOM     12  C   UNL d   1       1.496   1.498   2.278  0.00  0.00     0.148 C 
ATOM     13  O   UNL d   1       2.183   0.926   3.111  0.00  0.00    -0.649 OA
BRANCH  12  14
ATOM     14  O   UNL d   1       1.352   2.840   2.297  0.00  0.00    -0.776 OA
ATOM     15  H   UNL d   1       0.790   3.223   1.600  0.00  0.00     0.167 HD
ENDBRANCH  12  14
ENDBRANCH   1  12
TORSDOF 2
