REMARK  4 active torsions:
REMARK  status: ('A' for Active; 'I' for Inactive)
REMARK    1  A    between atoms: C_15  and  C_5 
REMARK    2  A    between atoms: C_6  and  C_7 
REMARK    3  A    between atoms: O_17  and  C_6 
REMARK    4  A    between atoms: C_23  and  O_17 
ROOT
ATOM      1  C   UNL d   1      -2.049   0.329   0.040  0.00  0.00    -0.006 C 
ATOM      2  C   UNL d   1      -1.060  -0.797  -0.006  0.00  0.00     0.189 C 
ATOM      3  C   UNL d   1       0.380  -0.412   0.024  0.00  0.00     0.021 A 
ATOM      4  C   UNL d   1       0.758   0.943  -0.009  0.00  0.00    -0.043 A 
ATOM      5  C   UNL d   1      -3.259   0.124  -0.507  0.00  0.00     0.022 C 
ATOM      6  C   UNL d   1       3.101   0.281  -0.047  0.00  0.00     0.040 A 
ATOM      7  C   UNL d   1       2.117   1.277  -0.061  0.00  0.00     0.025 A 
ATOM      8  C   UNL d   1       1.363  -1.411   0.042  0.00  0.00     0.017 A 
ATOM      9  C   UNL d   1      -1.545   1.598   0.662  0.00  0.00     0.047 C 
ATOM     10  O   UNL d   1      -1.404  -1.974  -0.083  0.00  0.00    -0.287 OA
ATOM     11  C   UNL d   1       2.719  -1.066   0.013  0.00  0.00     0.018 A 
ATOM     12  C   UNL d   1      -0.274   2.038  -0.049  0.00  0.00     0.044 C 
ENDROOT
BRANCH   5  13
ATOM     13  C   UNL d   1      -4.293   1.153  -0.630  0.00  0.00    -0.035 A 
ATOM     14  C   UNL d   1      -4.320   1.982  -1.761  0.00  0.00     0.014 A 
ATOM     15  C   UNL d   1      -5.319   2.949  -1.898  0.00  0.00     0.043 A 
ATOM     16  C   UNL d   1      -6.282   3.082  -0.905  0.00  0.00     0.116 A 
ATOM     17  C   UNL d   1      -6.256   2.281   0.230  0.00  0.00     0.043 A 
ATOM     18  F   UNL d   1      -7.251   3.997  -1.046  0.00  0.00    -0.206 F 
ATOM     19  C   UNL d   1      -5.257   1.314   0.372  0.00  0.00     0.014 A 
ENDBRANCH   5  13
BRANCH   6  20
ATOM     20  C   UNL d   1       4.514   0.720  -0.185  0.00  0.00     0.293 C 
ATOM     21  O   UNL d   1       4.840   1.891  -0.302  0.00  0.00    -0.259 OA
BRANCH  20  22
ATOM     22  O   UNL d   1       5.334  -0.353  -0.290  0.00  0.00    -0.318 OA
BRANCH  22  23
ATOM     23  C   UNL d   1       6.597  -0.084  -0.913  0.00  0.00     0.174 C 
ATOM     24  C   UNL d   1       6.415  -0.263  -2.410  0.00  0.00     0.034 C 
ENDBRANCH  22  23
ENDBRANCH  20  22
ENDBRANCH   6  20
TORSDOF 4
