REMARK  2 active torsions:
REMARK  status: ('A' for Active; 'I' for Inactive)
REMARK       I    between atoms: C_3  and  N_1 
REMARK    1  A    between atoms: C_6  and  C_3 
REMARK    2  A    between atoms: C_13  and  C_4 
ROOT
ATOM      1  N   UNL d   1      -2.460   0.324  -0.388  0.00  0.00    -0.339 N 
ATOM      2  C   UNL d   1      -0.127   0.770   0.135  0.00  0.00    -0.017 A 
ATOM      3  C   UNL d   1      -3.381   0.554  -1.405  0.00  0.00     0.224 C 
ATOM      4  C   UNL d   1      -1.534   1.326   0.169  0.00  0.00     0.154 C 
ATOM      5  C   UNL d   1       0.136  -0.581  -0.024  0.00  0.00    -0.007 A 
ATOM      6  C   UNL d   1      -2.302  -1.056   0.106  0.00  0.00     0.132 C 
ATOM      7  S   UNL d   1       1.796  -0.942  -0.030  0.00  0.00    -0.106 SA
ATOM      8  C   UNL d   1      -0.913  -1.633  -0.215  0.00  0.00     0.067 C 
ATOM      9  C   UNL d   1       1.093   1.518   0.210  0.00  0.00     0.018 A 
ATOM     10  C   UNL d   1       2.208   0.710   0.138  0.00  0.00     0.051 A 
ATOM     11  O   UNL d   1      -4.067  -0.345  -1.886  0.00  0.00    -0.273 OA
ENDROOT
BRANCH   4  12
ATOM     12  C   UNL d   1      -1.879   1.711   1.607  0.00  0.00    -0.031 A 
ATOM     13  C   UNL d   1      -2.781   2.772   1.812  0.00  0.00     0.011 A 
ATOM     14  C   UNL d   1      -3.177   3.148   3.101  0.00  0.00     0.024 A 
ATOM     15  C   UNL d   1      -2.680   2.461   4.204  0.00  0.00     0.034 A 
ATOM     16  C   UNL d   1      -1.792   1.406   4.033  0.00  0.00     0.024 A 
ATOM     17 CL   UNL d   1      -3.177   2.913   5.789  0.00  0.00    -0.084 Cl
ATOM     18  C   UNL d   1      -1.398   1.032   2.744  0.00  0.00     0.011 A 
ENDBRANCH   4  12
BRANCH   3  19
ATOM     19  C   UNL d   1      -3.582   1.950  -1.909  0.00  0.00     0.078 A 
ATOM     20  C   UNL d   1      -4.925   2.614  -1.694  0.00  0.00     0.015 A 
ATOM     21  C   UNL d   1      -4.504   2.224  -3.079  0.00  0.00     0.015 A 
ENDBRANCH   3  19
TORSDOF 2
