REMARK  3 active torsions:
REMARK  status: ('A' for Active; 'I' for Inactive)
REMARK    1  A    between atoms: C_9  and  N_1 
REMARK    2  A    between atoms: N_7  and  N_2 
REMARK    3  A    between atoms: C_15  and  C_12 
ROOT
ATOM      1  N   UNL d   1      -0.700  -1.165   0.172  0.00  0.00    -0.308 N 
ATOM      2  N   UNL d   1       0.739   1.100   0.241  0.00  0.00    -0.251 N 
ATOM      3  C   UNL d   1      -1.423   0.034   0.105  0.00  0.00     0.244 C 
ATOM      4  C   UNL d   1       1.483  -0.073   0.016  0.00  0.00     0.257 C 
ATOM      5  C   UNL d   1      -0.582   1.208  -0.373  0.00  0.00     0.255 C 
ATOM      6  C   UNL d   1       0.611  -1.234  -0.476  0.00  0.00     0.236 C 
ATOM      7  O   UNL d   1       2.705  -0.174   0.094  0.00  0.00    -0.270 OA
ATOM      8  O   UNL d   1      -2.637   0.130   0.273  0.00  0.00    -0.271 OA
ENDROOT
BRANCH   2   9
ATOM      9  N   UNL d   1       1.270   2.285   0.701  0.00  0.00    -0.306 N 
ATOM     10  C   UNL d   1       2.254   2.246   1.538  0.00  0.00     0.120 C 
ATOM     11  HN  UNL d   1       0.893   3.179   0.385  1.00  0.00     0.186 HD
BRANCH  10  12
ATOM     12  C   UNL d   1       2.806   3.485   2.119  0.00  0.00    -0.004 A 
ATOM     13  C   UNL d   1       3.826   3.405   3.054  0.00  0.00     0.100 A 
ATOM     14  N   UNL d   1       4.347   4.483   3.688  0.00  0.00    -0.374 N 
ATOM     15  C   UNL d   1       3.823   5.688   3.369  0.00  0.00     0.087 A 
ATOM     16  HN  UNL d   1       5.097   4.390   4.372  1.00  0.00     0.164 HD
ATOM     17  C   UNL d   1       2.808   5.866   2.439  0.00  0.00     0.018 A 
ATOM     18  C   UNL d   1       2.291   4.740   1.802  0.00  0.00     0.015 A 
ENDBRANCH  10  12
ENDBRANCH   2   9
BRANCH   1  19
ATOM     19  C   UNL d   1      -1.292  -2.346   0.676  0.00  0.00     0.037 A 
ATOM     20  C   UNL d   1      -1.242  -3.543  -0.047  0.00  0.00     0.031 A 
ATOM     21  C   UNL d   1      -1.780  -4.714   0.493  0.00  0.00     0.026 A 
ATOM     22  C   UNL d   1      -2.330  -4.698   1.774  0.00  0.00     0.034 A 
ATOM     23  C   UNL d   1      -2.381  -3.514   2.505  0.00  0.00     0.026 A 
ATOM     24 CL   UNL d   1      -2.941  -6.153   2.458  0.00  0.00    -0.084 Cl
ATOM     25  C   UNL d   1      -1.884  -2.333   1.946  0.00  0.00     0.031 A 
ENDBRANCH   1  19
TORSDOF 3
