REMARK  2 active torsions:
REMARK  status: ('A' for Active; 'I' for Inactive)
REMARK    1  A    between atoms: C_4  and  C_1 
REMARK    2  A    between atoms: O_18  and  C_8 
ROOT
ATOM      1  C   UNL d   1      -2.355   0.032  -0.065  0.00  0.00     0.063 A 
ATOM      2  N   UNL d   1      -1.590   0.045  -1.209  0.00  0.00    -0.340 N 
ATOM      3  HN  UNL d   1      -1.925   0.062  -2.172  1.00  0.00     0.167 HD
ATOM      4  N   UNL d   1      -0.254  -0.040   0.577  0.00  0.00    -0.317 N 
ATOM      5  C   UNL d   1      -0.336   0.030  -0.807  0.00  0.00     0.111 A 
ATOM      6  C   UNL d   1      -1.542  -0.034   1.052  0.00  0.00     0.128 A 
ATOM      7  C   UNL d   1       0.949  -0.103   1.277  0.00  0.00     0.098 A 
ATOM      8  C   UNL d   1       0.890   0.067  -1.527  0.00  0.00     0.049 A 
ATOM      9  C   UNL d   1       2.105  -0.081   0.592  0.00  0.00     0.018 A 
ATOM     10  C   UNL d   1       2.060   0.014  -0.861  0.00  0.00     0.005 A 
ENDROOT
BRANCH   1  11
ATOM     11  C   UNL d   1      -3.822   0.047  -0.047  0.00  0.00     0.029 A 
ATOM     12  C   UNL d   1      -4.591   0.694  -1.058  0.00  0.00     0.102 A 
ATOM     13  C   UNL d   1      -5.998   0.638  -0.966  0.00  0.00     0.070 A 
ATOM     14 CL   UNL d   1      -7.115   1.356  -2.079  0.00  0.00    -0.081 Cl
ATOM     15  C   UNL d   1      -6.619  -0.023   0.105  0.00  0.00     0.050 A 
ATOM     16  C   UNL d   1      -5.859  -0.636   1.087  0.00  0.00     0.036 A 
ATOM     17  C   UNL d   1      -4.474  -0.612   1.013  0.00  0.00     0.040 A 
ATOM     18 CL   UNL d   1      -6.633  -1.427   2.404  0.00  0.00    -0.084 Cl
BRANCH  12  19
ATOM     19  O   UNL d   1      -3.838   1.347  -1.995  0.00  0.00    -0.353 OA
ATOM     20  C   UNL d   1      -4.392   1.953  -3.145  0.00  0.00     0.210 C 
ENDBRANCH  12  19
ENDBRANCH   1  11
TORSDOF 2
