REMARK  5 active torsions:
REMARK  status: ('A' for Active; 'I' for Inactive)
REMARK    1  A    between atoms: C_10  and  N_1 
REMARK    2  A    between atoms: C_9  and  C_2 
REMARK    3  A    between atoms: N_13  and  C_11 
REMARK    4  A    between atoms: C_12  and  N_13 
REMARK    5  A    between atoms: O_20  and  C_17 
ROOT
ATOM      1  N   UNL d   1       3.883   0.711   0.143  0.00  0.00    -0.223 N 
ATOM      2  C   UNL d   1       3.738  -0.671  -0.044  0.00  0.00     0.145 A 
ATOM      3  N   UNL d   1       5.826  -0.143  -0.214  0.00  0.00    -0.226 N 
ATOM      4  HN  UNL d   1       6.835  -0.240  -0.332  1.00  0.00     0.210 HD
ATOM      5  N   UNL d   1       5.202   1.004  -0.033  0.00  0.00    -0.219 N 
ATOM      6  HN  UNL d   1       5.625   1.932  -0.026  1.00  0.00     0.210 HD
ATOM      7  N   UNL d   1       4.946  -1.180  -0.222  0.00  0.00    -0.268 N 
ATOM      8  HN  UNL d   1       5.175  -2.166  -0.344  1.00  0.00     0.190 HD
ENDROOT
BRANCH   2   9
ATOM      9  C   UNL d   1       2.487  -1.331  -0.157  0.00  0.00     0.063 C 
ATOM     10  C   UNL d   1       2.303  -2.602   0.236  0.00  0.00     0.066 C 
BRANCH  10  11
ATOM     11  N   UNL d   1       3.174  -3.475   0.856  0.00  0.00    -0.269 NA
ATOM     12  H   UNL d   1       3.166  -4.390   0.405  0.00  0.00     0.133 HD
BRANCH  11  13
ATOM     13  C   UNL d   1       3.196  -3.692   2.267  0.00  0.00     0.018 A 
ATOM     14  C   UNL d   1       3.995  -4.723   2.818  0.00  0.00    -0.041 A 
ATOM     15  C   UNL d   1       4.817  -5.668   1.982  0.00  0.00     0.050 C 
ATOM     16  C   UNL d   1       4.014  -4.915   4.213  0.00  0.00     0.008 A 
ATOM     17  C   UNL d   1       3.304  -4.073   5.063  0.00  0.00     0.001 A 
ATOM     18  C   UNL d   1       2.564  -3.025   4.532  0.00  0.00     0.002 A 
ATOM     19  C   UNL d   1       2.520  -2.834   3.148  0.00  0.00     0.024 A 
ENDBRANCH  11  13
ENDBRANCH  10  11
ENDBRANCH   2   9
BRANCH   1  20
ATOM     20  C   UNL d   1       2.970   1.770   0.444  0.00  0.00     0.060 A 
ATOM     21  C   UNL d   1       1.641   1.554   0.827  0.00  0.00     0.034 A 
ATOM     22  C   UNL d   1       0.777   2.640   1.052  0.00  0.00     0.039 A 
ATOM     23  C   UNL d   1       1.235   3.949   0.916  0.00  0.00     0.068 A 
ATOM     24  C   UNL d   1       2.574   4.173   0.614  0.00  0.00     0.039 A 
ATOM     25  C   UNL d   1       3.434   3.098   0.371  0.00  0.00     0.034 A 
BRANCH  23  26
ATOM     26  O   UNL d   1       0.478   5.073   1.095  0.00  0.00    -0.356 OA
ATOM     27  C   UNL d   1      -0.902   4.939   0.774  0.00  0.00     0.210 C 
ENDBRANCH  23  26
ENDBRANCH   1  20
TORSDOF 5
