REMARK  5 active torsions:
REMARK  status: ('A' for Active; 'I' for Inactive)
REMARK    1  A    between atoms: N_2  and  S_1 
REMARK    2  A    between atoms: C_6  and  S_1 
REMARK    3  A    between atoms: C_3  and  C_7 
REMARK    4  A    between atoms: C_5  and  N_4 
REMARK       I    between atoms: C_15  and  N_18 
REMARK    5  A    between atoms: N_18  and  C_25 
ROOT
ATOM      1  N   UNL d   1       0.491   0.628  -1.135  0.00  0.00    -0.203 NA
ATOM      2  N   UNL d   1      -1.360   2.796  -0.771  0.00  0.00    -0.365 N 
ATOM      3  C   UNL d   1       0.916   2.054  -1.345  0.00  0.00     0.127 C 
ATOM      4  C   UNL d   1      -0.990   0.465  -1.329  0.00  0.00     0.127 C 
ATOM      5  C   UNL d   1       0.069   3.041  -0.504  0.00  0.00     0.140 C 
ATOM      6  C   UNL d   1      -1.791   1.431  -0.435  0.00  0.00     0.140 C 
ENDROOT
BRANCH   1   7
ATOM      7  S   UNL d   1       1.150  -0.159   0.215  0.00  0.00     0.243 S 
ATOM      8  O   UNL d   1       0.354  -1.330   0.511  0.00  0.00    -0.206 OA
ATOM      9  O   UNL d   1       1.435   0.835   1.228  0.00  0.00    -0.206 OA
BRANCH   7  10
ATOM     10  C   UNL d   1       2.696  -0.747  -0.431  0.00  0.00     0.074 A 
ATOM     11  C   UNL d   1       3.908  -0.297   0.091  0.00  0.00     0.027 A 
ATOM     12  C   UNL d   1       5.104  -0.860  -0.370  0.00  0.00     0.031 A 
ATOM     13  C   UNL d   1       5.096  -1.871  -1.346  0.00  0.00     0.034 A 
ATOM     14  C   UNL d   1       3.873  -2.289  -1.875  0.00  0.00     0.031 A 
ATOM     15  C   UNL d   1       2.674  -1.734  -1.419  0.00  0.00     0.027 A 
BRANCH  13  16
ATOM     16  N   UNL d   1       6.342  -2.423  -1.717  0.00  0.00    -0.328 N 
ATOM     17  C   UNL d   1       6.569  -3.438  -2.628  0.00  0.00     0.218 C 
ATOM     18  O   UNL d   1       5.729  -4.015  -3.311  0.00  0.00    -0.274 OA
ATOM     19  C   UNL d   1       8.024  -3.819  -2.743  0.00  0.00     0.117 C 
ATOM     20  H   UNL d   1       7.150  -2.047  -1.237  0.00  0.00     0.169 HD
ENDBRANCH  13  16
ENDBRANCH   7  10
ENDBRANCH   1   7
BRANCH   2  21
ATOM     21  C   UNL d   1      -2.265   3.825  -0.567  0.00  0.00     0.103 A 
ATOM     22  C   UNL d   1      -2.068   5.032  -1.234  0.00  0.00     0.064 A 
ATOM     23  C   UNL d   1      -3.030   6.046  -1.173  0.00  0.00     0.052 A 
ATOM     24  C   UNL d   1      -4.170   5.827  -0.405  0.00  0.00     0.033 A 
ATOM     25  C   UNL d   1      -4.295   4.612   0.237  0.00  0.00     0.090 A 
ATOM     26  N   UNL d   1      -3.379   3.616   0.157  0.00  0.00    -0.352 N 
ATOM     27  HN  UNL d   1      -3.532   2.727   0.634  1.00  0.00     0.166 HD
BRANCH  23  28
ATOM     28  C   UNL d   1      -2.851   7.312  -1.961  0.00  0.00     0.417 C 
ATOM     29  F   UNL d   1      -1.674   7.362  -2.649  0.00  0.00    -0.166 F 
ATOM     30  F   UNL d   1      -3.830   7.489  -2.890  0.00  0.00    -0.166 F 
ATOM     31  F   UNL d   1      -2.870   8.424  -1.177  0.00  0.00    -0.166 F 
ENDBRANCH  23  28
ENDBRANCH   2  21
TORSDOF 5
