REMARK  4 active torsions:
REMARK  status: ('A' for Active; 'I' for Inactive)
REMARK    1  A    between atoms: S_2  and  C_1 
REMARK    2  A    between atoms: N_7  and  S_2 
REMARK    3  A    between atoms: C_12  and  N_7 
REMARK    4  A    between atoms: C_15  and  C_12 
ROOT
ATOM      1  S   UNL d   1       2.086  -3.033   0.052  0.00  0.00     0.249 S 
ATOM      2  O   UNL d   1       0.719  -2.640  -0.210  0.00  0.00    -0.205 OA
ATOM      3  O   UNL d   1       2.872  -2.455   1.118  0.00  0.00    -0.205 OA
ENDROOT
BRANCH   1   4
ATOM      4  C   UNL d   1       1.992  -4.747   0.489  0.00  0.00     0.133 A 
ATOM      5  S   UNL d   1       2.896  -5.851  -0.462  0.00  0.00    -0.068 SA
ATOM      6  C   UNL d   1       2.369  -7.169   0.463  0.00  0.00     0.054 A 
ATOM      7 BR   UNL d   1       2.869  -8.936   0.098  0.00  0.00    -0.043 Br
ATOM      8  C   UNL d   1       1.550  -6.812   1.503  0.00  0.00     0.048 A 
ATOM      9  C   UNL d   1       1.343  -5.407   1.510  0.00  0.00     0.042 A 
ATOM     10 BR   UNL d   1       0.274  -4.593   2.837  0.00  0.00    -0.049 Br
ENDBRANCH   1   4
BRANCH   1  11
ATOM     11  N   UNL d   1       2.978  -2.841  -1.364  0.00  0.00    -0.211 NA
ATOM     12  H   UNL d   1       3.866  -3.342  -1.320  0.00  0.00     0.140 HD
BRANCH  11  13
ATOM     13  C   UNL d   1       2.248  -3.013  -2.624  0.00  0.00     0.143 C 
BRANCH  13  14
ATOM     14  C   UNL d   1       3.176  -2.923  -3.813  0.00  0.00    -0.043 A 
ATOM     15  C   UNL d   1       3.277  -3.981  -4.728  0.00  0.00     0.032 A 
ATOM     16  C   UNL d   1       4.113  -3.869  -5.840  0.00  0.00     0.034 A 
ATOM     17 CL   UNL d   1       4.218  -5.171  -6.960  0.00  0.00    -0.084 Cl
ATOM     18  C   UNL d   1       4.858  -2.712  -6.054  0.00  0.00     0.024 A 
ATOM     19  C   UNL d   1       4.771  -1.657  -5.147  0.00  0.00     0.002 A 
ATOM     20  C   UNL d   1       3.935  -1.762  -4.033  0.00  0.00     0.008 A 
ENDBRANCH  13  14
ENDBRANCH  11  13
ENDBRANCH   1  11
TORSDOF 4
