REMARK  3 active torsions:
REMARK  status: ('A' for Active; 'I' for Inactive)
REMARK    1  A    between atoms: C_5  and  C_1 
REMARK       I    between atoms: C_2  and  N_3 
REMARK    2  A    between atoms: C_9  and  C_2 
REMARK    3  A    between atoms: N_4  and  C_6 
ROOT
ATOM      1  C   UNL d   1      -0.282  -6.812  -6.508  0.00  0.00     0.227 C 
ATOM      2  N   UNL d   1       0.090  -5.937  -5.499  0.00  0.00    -0.348 N 
ATOM      3  N   UNL d   1      -0.688  -3.539  -4.086  0.00  0.00    -0.364 N 
ATOM      4  C   UNL d   1      -0.565  -6.047  -4.184  0.00  0.00     0.145 C 
ATOM      5  C   UNL d   1       0.918  -4.728  -5.590  0.00  0.00     0.145 C 
ATOM      6  C   UNL d   1       0.057  -3.474  -5.358  0.00  0.00     0.144 C 
ATOM      7  C   UNL d   1      -1.413  -4.801  -3.838  0.00  0.00     0.144 C 
ATOM      8  O   UNL d   1      -1.191  -7.625  -6.290  0.00  0.00    -0.273 OA
ENDROOT
BRANCH   3   9
ATOM      9  C   UNL d   1      -0.179  -2.822  -3.010  0.00  0.00     0.103 A 
ATOM     10  C   UNL d   1      -1.017  -2.434  -1.967  0.00  0.00     0.049 A 
ATOM     11  C   UNL d   1      -0.541  -1.591  -0.959  0.00  0.00     0.021 A 
ATOM     12  C   UNL d   1       0.781  -1.151  -0.992  0.00  0.00     0.063 A 
ATOM     13  C   UNL d   1       1.557  -1.599  -2.047  0.00  0.00     0.106 A 
ATOM     14  N   UNL d   1       1.108  -2.409  -3.041  0.00  0.00    -0.352 N 
ATOM     15  HN  UNL d   1       1.729  -2.699  -3.796  1.00  0.00     0.166 HD
BRANCH  12  16
ATOM     16  C   UNL d   1       1.333  -0.214   0.033  0.00  0.00     0.418 C 
ATOM     17  F   UNL d   1       2.653   0.077  -0.145  0.00  0.00    -0.166 F 
ATOM     18  F   UNL d   1       1.228  -0.700   1.299  0.00  0.00    -0.166 F 
ATOM     19  F   UNL d   1       0.689   0.987   0.042  0.00  0.00    -0.166 F 
ENDBRANCH  12  16
ENDBRANCH   3   9
BRANCH   1  20
ATOM     20  C   UNL d   1       0.415  -6.826  -7.902  0.00  0.00     0.030 C 
ATOM     21  C   UNL d   1       1.926  -7.072  -7.779  0.00  0.00     0.025 C 
ATOM     22  C   UNL d   1      -0.157  -8.024  -8.711  0.00  0.00     0.025 C 
ATOM     23  C   UNL d   1       0.110  -5.572  -8.735  0.00  0.00     0.025 C 
ENDBRANCH   1  20
TORSDOF 3
