REMARK  5 active torsions:
REMARK  status: ('A' for Active; 'I' for Inactive)
REMARK    1  A    between atoms: N_7  and  C_1 
REMARK    2  A    between atoms: C_15  and  N_2 
REMARK    3  A    between atoms: C_6  and  S_12 
REMARK       I    between atoms: C_13  and  N_7 
REMARK    4  A    between atoms: S_12  and  C_18 
REMARK    5  A    between atoms: C_18  and  C_13 
ROOT
ATOM      1  C   UNL d   1      -0.457  -1.156  -0.145  0.00  0.00     0.132 C 
ATOM      2  N   UNL d   1       0.843  -0.732   0.105  0.00  0.00    -0.240 N 
ATOM      3  N   UNL d   1       0.883   0.604   0.363  0.00  0.00    -0.297 N 
ATOM      4  HN  UNL d   1       1.668   1.147   0.723  1.00  0.00     0.187 HD
ATOM      5  C   UNL d   1      -1.212  -0.015  -0.285  0.00  0.00     0.076 C 
ATOM      6  C   UNL d   1      -0.338   1.045   0.036  0.00  0.00     0.026 C 
ATOM      7  C   UNL d   1      -0.642   2.496   0.061  0.00  0.00     0.070 C 
ENDROOT
BRANCH   1   8
ATOM      8  N   UNL d   1      -0.842  -2.484  -0.173  0.00  0.00    -0.311 N 
ATOM      9  C   UNL d   1      -1.769  -2.970  -1.082  0.00  0.00     0.233 C 
ATOM     10  O   UNL d   1      -2.215  -2.327  -2.031  0.00  0.00    -0.272 OA
ATOM     11  H   UNL d   1      -0.300  -3.158   0.360  0.00  0.00     0.170 HD
BRANCH   9  12
ATOM     12  C   UNL d   1      -2.088  -4.452  -0.897  0.00  0.00     0.185 C 
BRANCH  12  13
ATOM     13  S   UNL d   1      -2.354  -4.783   0.868  0.00  0.00    -0.084 SA
BRANCH  13  14
ATOM     14  C   UNL d   1      -2.751  -6.458   0.899  0.00  0.00     0.146 A 
ATOM     15  N   UNL d   1      -3.014  -7.116   2.072  0.00  0.00    -0.341 N 
ATOM     16  C   UNL d   1      -3.325  -8.411   1.745  0.00  0.00     0.109 A 
ATOM     17  C   UNL d   1      -2.991  -6.603   3.422  0.00  0.00     0.158 C 
ATOM     18  C   UNL d   1      -3.218  -8.472   0.377  0.00  0.00     0.107 A 
ATOM     19  N   UNL d   1      -2.850  -7.249  -0.135  0.00  0.00    -0.345 N 
ATOM     20  HN  UNL d   1      -2.688  -7.011  -1.114  1.00  0.00     0.167 HD
ENDBRANCH  13  14
ENDBRANCH  12  13
ENDBRANCH   9  12
ENDBRANCH   1   8
BRANCH   2  21
ATOM     21  C   UNL d   1       2.046  -1.490   0.015  0.00  0.00     0.058 A 
ATOM     22  C   UNL d   1       2.104  -2.671  -0.745  0.00  0.00     0.031 A 
ATOM     23  C   UNL d   1       3.293  -3.394  -0.844  0.00  0.00     0.002 A 
ATOM     24  C   UNL d   1       4.436  -2.939  -0.197  0.00  0.00     0.000 A 
ATOM     25  C   UNL d   1       4.394  -1.751   0.538  0.00  0.00     0.002 A 
ATOM     26  C   UNL d   1       3.207  -1.021   0.638  0.00  0.00     0.031 A 
ENDBRANCH   2  21
TORSDOF 5
