REMARK  4 active torsions:
REMARK  status: ('A' for Active; 'I' for Inactive)
REMARK    1  A    between atoms: N_2  and  C_1 
REMARK    2  A    between atoms: N_8  and  C_5 
REMARK       I    between atoms: C_6  and  N_8 
REMARK       I    between atoms: N_12  and  C_6 
REMARK    3  A    between atoms: C_19  and  N_12 
REMARK    4  A    between atoms: C_17  and  C_19 
ROOT
ATOM      1  C   UNL d   1       3.716  -0.842  -0.040  0.00  0.00     0.321 C 
ATOM      2  N   UNL d   1       4.475  -1.960  -0.016  0.00  0.00    -0.308 N 
ATOM      3  N   UNL d   1       4.272   0.384  -0.183  0.00  0.00    -0.339 N 
ATOM      4  O   UNL d   1       2.497  -0.998   0.052  0.00  0.00    -0.247 OA
ATOM      5  H   UNL d   1       3.853  -2.758   0.053  0.00  0.00     0.170 HD
ATOM      6  H   UNL d   1       5.261   0.487  -0.061  0.00  0.00     0.164 HD
ENDROOT
BRANCH   2   7
ATOM      7  C   UNL d   1       5.823  -2.280  -0.045  0.00  0.00     0.045 A 
ATOM      8  C   UNL d   1       6.999  -1.469  -0.094  0.00  0.00     0.074 A 
ATOM      9  C   UNL d   1       8.157  -2.232  -0.114  0.00  0.00     0.145 A 
ATOM     10  S   UNL d   1       7.854  -3.898  -0.052  0.00  0.00    -0.076 SA
ATOM     11  C   UNL d   1       6.170  -3.623  -0.010  0.00  0.00     0.081 A 
BRANCH   9  12
ATOM     12  N   UNL d   1       9.513  -1.749  -0.170  0.00  0.00    -0.108 N 
ATOM     13  O   UNL d   1       9.650  -0.517  -0.172  0.00  0.00    -0.531 OA
ATOM     14  O   UNL d   1      10.435  -2.573  -0.212  0.00  0.00    -0.531 OA
ENDBRANCH   9  12
ENDBRANCH   2   7
BRANCH   3  15
ATOM     15  C   UNL d   1       3.456   1.578  -0.015  0.00  0.00     0.162 C 
BRANCH  15  16
ATOM     16  C   UNL d   1       2.876   2.174  -1.283  0.00  0.00    -0.039 A 
ATOM     17  C   UNL d   1       2.592   1.405  -2.424  0.00  0.00     0.035 A 
ATOM     18  C   UNL d   1       1.955   1.977  -3.531  0.00  0.00     0.073 A 
ATOM     19 CL   UNL d   1       1.609   1.000  -4.907  0.00  0.00    -0.081 Cl
ATOM     20  C   UNL d   1       1.589   3.320  -3.508  0.00  0.00     0.138 A 
ATOM     21  C   UNL d   1       1.853   4.100  -2.389  0.00  0.00     0.044 A 
ATOM     22  F   UNL d   1       0.964   3.882  -4.554  0.00  0.00    -0.204 F 
ATOM     23  C   UNL d   1       2.488   3.530  -1.281  0.00  0.00     0.012 A 
ENDBRANCH  15  16
ENDBRANCH   3  15
TORSDOF 4
