REMARK  2 active torsions:
REMARK  status: ('A' for Active; 'I' for Inactive)
REMARK    1  A    between atoms: C_7  and  C_1 
REMARK    2  A    between atoms: O_9  and  C_7 
ROOT
ATOM      1  C   UNL d   1       0.017  -1.633   0.049  0.00  0.00     0.157 A 
ATOM      2  O   UNL d   1       0.007   1.292   0.053  0.00  0.00    -0.310 OA
ATOM      3  C   UNL d   1      -1.248  -0.802   0.007  0.00  0.00    -0.006 A 
ATOM      4  C   UNL d   1       1.276  -0.793   0.014  0.00  0.00    -0.006 A 
ATOM      5  C   UNL d   1      -1.172   0.591   0.023  0.00  0.00     0.083 A 
ATOM      6  C   UNL d   1       1.191   0.599   0.030  0.00  0.00     0.083 A 
ATOM      7  C   UNL d   1      -2.513  -1.415  -0.034  0.00  0.00     0.011 A 
ATOM      8  C   UNL d   1       2.545  -1.397  -0.025  0.00  0.00     0.011 A 
ATOM      9  C   UNL d   1       2.350   1.380   0.029  0.00  0.00     0.038 A 
ATOM     10  C   UNL d   1      -2.336   1.363   0.016  0.00  0.00     0.038 A 
ATOM     11  C   UNL d   1      -3.675  -0.641  -0.032  0.00  0.00     0.001 A 
ATOM     12  C   UNL d   1       3.702  -0.615  -0.019  0.00  0.00     0.001 A 
ATOM     13  C   UNL d   1       3.605   0.774   0.010  0.00  0.00     0.003 A 
ATOM     14  C   UNL d   1      -3.587   0.749  -0.005  0.00  0.00     0.003 A 
ENDROOT
BRANCH   1  15
ATOM     15  C   UNL d   1       0.023  -2.579   1.249  0.00  0.00     0.271 C 
ATOM     16  O   UNL d   1       0.094  -3.801   1.149  0.00  0.00    -0.264 OA
BRANCH  15  17
ATOM     17  O   UNL d   1      -0.049  -1.902   2.430  0.00  0.00    -0.326 OA
ATOM     18  C   UNL d   1      -0.043  -2.732   3.590  0.00  0.00     0.213 C 
ENDBRANCH  15  17
ENDBRANCH   1  15
TORSDOF 2
