REMARK  2 active torsions:
REMARK  status: ('A' for Active; 'I' for Inactive)
REMARK    1  A    between atoms: C_3  and  C_1 
REMARK    2  A    between atoms: N_2  and  C_4 
ROOT
ATOM      1  C   UNL d   1       0.626   1.018   0.903  0.00  0.00     0.050 A 
ATOM      2  C   UNL d   1      -0.026   1.771   3.140  0.00  0.00     0.039 A 
ATOM      3  C   UNL d   1       0.287   0.739   2.240  0.00  0.00     0.046 A 
ATOM      4  C   UNL d   1       0.651   2.351   0.472  0.00  0.00     0.016 A 
ATOM      5  C   UNL d   1      -0.005   3.095   2.679  0.00  0.00     0.030 A 
ATOM      6  C   UNL d   1       0.336   3.381   1.354  0.00  0.00     0.003 A 
ENDROOT
BRANCH   2   7
ATOM      7  N   UNL d   1      -0.348   1.476   4.503  0.00  0.00    -0.333 N 
ATOM      8  C   UNL d   1      -0.345   0.227   5.101  0.00  0.00     0.096 A 
ATOM      9  C   UNL d   1      -0.673   0.354   6.434  0.00  0.00     0.019 A 
ATOM     10  C   UNL d   1      -0.904   1.719   6.676  0.00  0.00     0.019 A 
ATOM     11  C   UNL d   1      -0.708   2.384   5.485  0.00  0.00     0.096 A 
ENDBRANCH   2   7
BRANCH   1  12
ATOM     12  C   UNL d   1       0.957  -0.094  -0.062  0.00  0.00     0.417 C 
ATOM     13  F   UNL d   1       0.910  -1.335   0.499  0.00  0.00    -0.166 F 
ATOM     14  F   UNL d   1       2.206   0.028  -0.590  0.00  0.00    -0.166 F 
ATOM     15  F   UNL d   1       0.104  -0.133  -1.123  0.00  0.00    -0.166 F 
ENDBRANCH   1  12
TORSDOF 2
