REMARK  2 active torsions:
REMARK  status: ('A' for Active; 'I' for Inactive)
REMARK    1  A    between atoms: C_8  and  N_1 
REMARK    2  A    between atoms: S_11  and  C_3 
ROOT
ATOM      1  N   UNL d   1       2.429  -0.677   0.009  0.00  0.00    -0.257 N 
ATOM      2  C   UNL d   1       1.275  -1.454   0.042  0.00  0.00     0.267 A 
ATOM      3  C   UNL d   1       2.362   0.714   0.006  0.00  0.00     0.154 A 
ATOM      4  C   UNL d   1      -0.002  -0.724   0.035  0.00  0.00     0.060 A 
ATOM      5  N   UNL d   1       1.250   1.378  -0.002  0.00  0.00    -0.335 N 
ATOM      6  HN  UNL d   1       1.252   2.398  -0.008  1.00  0.00     0.168 HD
ATOM      7  C   UNL d   1       0.045   0.666  -0.003  0.00  0.00     0.050 A 
ATOM      8  O   UNL d   1       1.249  -2.683   0.076  0.00  0.00    -0.267 OA
ATOM      9  C   UNL d   1      -1.222  -1.412   0.050  0.00  0.00     0.026 A 
ATOM     10  C   UNL d   1      -1.159   1.372  -0.034  0.00  0.00     0.031 A 
ATOM     11  C   UNL d   1      -2.426  -0.703   0.024  0.00  0.00    -0.061 A 
ATOM     12  C   UNL d   1      -2.385   0.696  -0.025  0.00  0.00     0.009 A 
ATOM     13  C   UNL d   1      -3.741  -1.424   0.018  0.00  0.00     0.048 C 
ENDROOT
BRANCH   1  14
ATOM     14  C   UNL d   1       3.655  -1.390  -0.049  0.00  0.00     0.060 A 
ATOM     15  C   UNL d   1       4.330  -1.759   1.111  0.00  0.00     0.117 A 
ATOM     16  N   UNL d   1       5.465  -2.498   1.117  0.00  0.00    -0.373 N 
ATOM     17  C   UNL d   1       5.927  -2.906  -0.085  0.00  0.00     0.088 A 
ATOM     18  HN  UNL d   1       5.945  -2.736   1.985  1.00  0.00     0.164 HD
ATOM     19  C   UNL d   1       5.315  -2.604  -1.293  0.00  0.00     0.019 A 
ATOM     20  C   UNL d   1       4.156  -1.833  -1.273  0.00  0.00     0.033 A 
ENDBRANCH   1  14
BRANCH   3  21
ATOM     21  S   UNL d   1       3.874   1.618   0.032  0.00  0.00    -0.098 SA
ATOM     22  C   UNL d   1       3.290   3.326   0.023  0.00  0.00     0.099 C 
ENDBRANCH   3  21
TORSDOF 2
