REMARK  6 active torsions:
REMARK  status: ('A' for Active; 'I' for Inactive)
REMARK    1  A    between atoms: C_9  and  C_1 
REMARK    2  A    between atoms: N_17  and  C_3 
REMARK    3  A    between atoms: C_12  and  C_6 
REMARK    4  A    between atoms: C_14  and  C_9 
REMARK    5  A    between atoms: C_13  and  C_10 
REMARK    6  A    between atoms: O_28  and  C_26 
ROOT
ATOM      1  C   UNL d   1       2.398   0.138   0.069  0.00  0.00     0.155 A 
ATOM      2  C   UNL d   1       0.272   0.938   0.011  0.00  0.00     0.058 A 
ATOM      3  C   UNL d   1       1.646   1.298   0.087  0.00  0.00     0.080 A 
ATOM      4  C   UNL d   1       0.270  -0.457  -0.024  0.00  0.00     0.162 A 
ATOM      5  O   UNL d   1       1.550  -0.935   0.024  0.00  0.00    -0.286 OA
ATOM      6  C   UNL d   1      -0.988   1.572  -0.006  0.00  0.00     0.017 A 
ATOM      7  N   UNL d   1      -0.797  -1.278  -0.089  0.00  0.00    -0.335 N 
ATOM      8  HN  UNL d   1      -0.715  -2.294  -0.110  1.00  0.00     0.168 HD
ATOM      9  C   UNL d   1      -1.985  -0.633  -0.123  0.00  0.00     0.052 A 
ATOM     10  C   UNL d   1      -2.122   0.752  -0.067  0.00  0.00     0.046 A 
ENDROOT
BRANCH   1  11
ATOM     11  C   UNL d   1       3.838  -0.016   0.110  0.00  0.00     0.218 C 
ATOM     12  O   UNL d   1       4.602   0.951   0.207  0.00  0.00    -0.284 OA
BRANCH  11  13
ATOM     13  C   UNL d   1       4.491  -1.353   0.038  0.00  0.00     0.020 A 
ATOM     14  C   UNL d   1       3.950  -2.413  -0.701  0.00  0.00     0.052 A 
ATOM     15  C   UNL d   1       4.614  -3.640  -0.756  0.00  0.00     0.069 A 
ATOM     16  C   UNL d   1       5.829  -3.798  -0.084  0.00  0.00     0.037 A 
ATOM     17  C   UNL d   1       6.390  -2.741   0.629  0.00  0.00     0.004 A 
ATOM     18  C   UNL d   1       5.726  -1.519   0.686  0.00  0.00     0.016 A 
BRANCH  15  19
ATOM     19  O   UNL d   1       4.188  -4.745  -1.442  0.00  0.00    -0.356 OA
ATOM     20  C   UNL d   1       2.950  -4.628  -2.137  0.00  0.00     0.210 C 
ENDBRANCH  15  19
ENDBRANCH  11  13
ENDBRANCH   1  11
BRANCH   3  21
ATOM     21  N   UNL d   1       2.161   2.539   0.163  0.00  0.00    -0.396 N 
ATOM     22  H   UNL d   1       1.592   3.353  -0.067  0.00  0.00     0.156 HD
ATOM     23  H   UNL d   1       3.167   2.693   0.067  0.00  0.00     0.156 HD
ENDBRANCH   3  21
BRANCH   6  24
ATOM     24  C   UNL d   1      -1.124   3.016   0.089  0.00  0.00     0.086 A 
ATOM     25  O   UNL d   1      -0.166   3.780  -0.514  0.00  0.00    -0.322 OA
ATOM     26  C   UNL d   1      -0.478   5.082  -0.289  0.00  0.00     0.142 A 
ATOM     27  C   UNL d   1      -1.648   5.176   0.424  0.00  0.00     0.027 A 
ATOM     28  C   UNL d   1      -2.076   3.846   0.652  0.00  0.00     0.040 A 
ENDBRANCH   6  24
BRANCH   9  29
ATOM     29  C   UNL d   1      -3.161  -1.527  -0.197  0.00  0.00     0.031 A 
ATOM     30  S   UNL d   1      -4.631  -1.005  -0.931  0.00  0.00    -0.100 SA
ATOM     31  C   UNL d   1      -5.420  -2.483  -0.608  0.00  0.00     0.050 A 
ATOM     32  C   UNL d   1      -4.588  -3.379   0.022  0.00  0.00     0.008 A 
ATOM     33  C   UNL d   1      -3.286  -2.834   0.247  0.00  0.00     0.021 A 
ENDBRANCH   9  29
TORSDOF 6
