REMARK  4 active torsions:
REMARK  status: ('A' for Active; 'I' for Inactive)
REMARK    1  A    between atoms: C_4  and  C_3 
REMARK    2  A    between atoms: C_13  and  C_7 
REMARK    3  A    between atoms: N_8  and  C_12 
REMARK    4  A    between atoms: C_9  and  C_11 
ROOT
ATOM      1  N   UNL d   1       1.256   0.124   0.204  0.00  0.00    -0.318 N 
ATOM      2  HN  UNL d   1       2.234   0.257   0.463  1.00  0.00     0.169 HD
ATOM      3  C   UNL d   1       0.291   1.079  -0.032  0.00  0.00     0.140 A 
ATOM      4  N   UNL d   1      -0.895   0.580  -0.408  0.00  0.00    -0.242 N 
ATOM      5  HN  UNL d   1      -1.739   1.088  -0.672  1.00  0.00     0.196 HD
ATOM      6  C   UNL d   1       0.601  -1.001   0.010  0.00  0.00     0.182 A 
ATOM      7  O   UNL d   1      -0.700  -0.799  -0.353  0.00  0.00    -0.217 OA
ENDROOT
BRANCH   3   8
ATOM      8  C   UNL d   1       0.588   2.500   0.000  0.00  0.00     0.040 A 
ATOM      9  C   UNL d   1      -0.273   3.493   0.493  0.00  0.00     0.064 A 
ATOM     10  C   UNL d   1       0.115   4.841   0.355  0.00  0.00     0.034 A 
ATOM     11  C   UNL d   1       1.338   5.146  -0.217  0.00  0.00     0.088 A 
ATOM     12  N   UNL d   1       2.199   4.210  -0.653  0.00  0.00    -0.374 N 
ATOM     13  C   UNL d   1       1.807   2.918  -0.535  0.00  0.00     0.103 A 
ATOM     14  HN  UNL d   1       3.103   4.460  -1.053  1.00  0.00     0.164 HD
BRANCH   9  15
ATOM     15  C   UNL d   1      -1.592   3.229   1.177  0.00  0.00     0.418 C 
ATOM     16  F   UNL d   1      -1.784   1.963   1.630  0.00  0.00    -0.166 F 
ATOM     17  F   UNL d   1      -1.739   4.016   2.285  0.00  0.00    -0.166 F 
ATOM     18  F   UNL d   1      -2.654   3.527   0.382  0.00  0.00    -0.166 F 
ENDBRANCH   9  15
ENDBRANCH   3   8
BRANCH   6  19
ATOM     19  C   UNL d   1       1.061  -2.387   0.072  0.00  0.00     0.017 A 
ATOM     20  C   UNL d   1       2.423  -2.665   0.282  0.00  0.00     0.018 A 
ATOM     21  C   UNL d   1       2.893  -3.985   0.315  0.00  0.00     0.037 A 
ATOM     22  C   UNL d   1       1.992  -5.043   0.144  0.00  0.00     0.102 A 
ATOM     23  C   UNL d   1       0.630  -4.785  -0.051  0.00  0.00     0.037 A 
ATOM     24  C   UNL d   1       0.174  -3.464  -0.086  0.00  0.00     0.018 A 
BRANCH  22  25
ATOM     25  N   UNL d   1       2.472  -6.431   0.163  0.00  0.00    -0.116 N 
ATOM     26  O   UNL d   1       1.637  -7.333   0.009  0.00  0.00    -0.532 OA
ATOM     27  O   UNL d   1       3.682  -6.622   0.331  0.00  0.00    -0.532 OA
ENDBRANCH  22  25
ENDBRANCH   6  19
TORSDOF 4
