REMARK  6 active torsions:
REMARK  status: ('A' for Active; 'I' for Inactive)
REMARK    1  A    between atoms: S_3  and  N_1 
REMARK    2  A    between atoms: S_4  and  N_2 
REMARK    3  A    between atoms: C_13  and  S_3 
REMARK    4  A    between atoms: C_14  and  S_4 
REMARK    5  A    between atoms: C_11  and  C_17 
REMARK    6  A    between atoms: C_12  and  C_16 
ROOT
ATOM      1  N   UNL d   1      -1.227  -0.004  -1.179  0.00  0.00    -0.251 N 
ATOM      2  N   UNL d   1       1.883  -0.017  -0.273  0.00  0.00    -0.251 N 
ATOM      3  N   UNL d   1      -0.151  -1.143   0.611  0.00  0.00     0.152 N 
ATOM      4  N   UNL d   1      -0.101   1.219   0.544  0.00  0.00     0.152 NA
ATOM      5  C   UNL d   1       1.214   1.262  -0.081  0.00  0.00     0.414 C 
ATOM      6  C   UNL d   1      -1.183   1.232  -0.430  0.00  0.00     0.414 C 
ATOM      7  C   UNL d   1       1.131  -1.253  -0.080  0.00  0.00     0.414 C 
ATOM      8  C   UNL d   1      -1.274  -1.163  -0.319  0.00  0.00     0.414 C 
ATOM      9  C   UNL d   1      -0.183   0.064   1.409  0.00  0.00     0.551 C 
ENDROOT
BRANCH   1  10
ATOM     10  S   UNL d   1      -1.830  -0.051  -2.728  0.00  0.00     0.263 S 
ATOM     11  O   UNL d   1      -1.312   1.096  -3.438  0.00  0.00    -0.200 OA
ATOM     12  O   UNL d   1      -1.633  -1.391  -3.246  0.00  0.00    -0.200 OA
BRANCH  10  13
ATOM     13  C   UNL d   1      -3.583   0.199  -2.555  0.00  0.00     0.080 A 
ATOM     14  C   UNL d   1      -4.091   1.505  -2.565  0.00  0.00     0.041 A 
ATOM     15  C   UNL d   1      -5.476   1.725  -2.504  0.00  0.00     0.049 A 
ATOM     16  C   UNL d   1      -6.337   0.616  -2.483  0.00  0.00     0.016 A 
ATOM     17  C   UNL d   1      -5.828  -0.685  -2.516  0.00  0.00     0.002 A 
ATOM     18  C   UNL d   1      -4.449  -0.898  -2.551  0.00  0.00     0.025 A 
BRANCH  15  19
ATOM     19  C   UNL d   1      -6.040   3.124  -2.434  0.00  0.00     0.417 C 
ATOM     20  F   UNL d   1      -5.090   4.095  -2.522  0.00  0.00    -0.166 F 
ATOM     21  F   UNL d   1      -6.940   3.384  -3.421  0.00  0.00    -0.166 F 
ATOM     22  F   UNL d   1      -6.692   3.349  -1.260  0.00  0.00    -0.166 F 
ENDBRANCH  15  19
ENDBRANCH  10  13
ENDBRANCH   1  10
BRANCH   2  23
ATOM     23  S   UNL d   1       3.550  -0.043  -0.034  0.00  0.00     0.263 S 
ATOM     24  O   UNL d   1       4.077   1.277  -0.299  0.00  0.00    -0.200 OA
ATOM     25  O   UNL d   1       3.814  -0.731   1.207  0.00  0.00    -0.200 OA
BRANCH  23  26
ATOM     26  C   UNL d   1       4.116  -1.067  -1.371  0.00  0.00     0.080 A 
ATOM     27  C   UNL d   1       3.848  -0.662  -2.684  0.00  0.00     0.041 A 
ATOM     28  C   UNL d   1       4.295  -1.438  -3.762  0.00  0.00     0.049 A 
ATOM     29  C   UNL d   1       5.032  -2.605  -3.497  0.00  0.00     0.016 A 
ATOM     30  C   UNL d   1       5.311  -2.994  -2.183  0.00  0.00     0.002 A 
ATOM     31  C   UNL d   1       4.849  -2.227  -1.113  0.00  0.00     0.025 A 
BRANCH  28  32
ATOM     32  C   UNL d   1       3.982  -1.042  -5.185  0.00  0.00     0.417 C 
ATOM     33  F   UNL d   1       3.297   0.130  -5.285  0.00  0.00    -0.166 F 
ATOM     34  F   UNL d   1       5.103  -0.886  -5.942  0.00  0.00    -0.166 F 
ATOM     35  F   UNL d   1       3.225  -1.976  -5.823  0.00  0.00    -0.166 F 
ENDBRANCH  28  32
ENDBRANCH  23  26
ENDBRANCH   2  23
TORSDOF 6
