REMARK  5 active torsions:
REMARK  status: ('A' for Active; 'I' for Inactive)
REMARK    1  A    between atoms: C_14  and  C_4 
REMARK    2  A    between atoms: O_16  and  C_7 
REMARK    3  A    between atoms: C_11  and  C_8 
REMARK    4  A    between atoms: O_18  and  C_9 
REMARK    5  A    between atoms: O_17  and  C_10 
ROOT
ATOM      1  N   UNL d   1       2.051   2.061   0.583  0.00  0.00    -0.337 N 
ATOM      2  HN  UNL d   1       2.397   1.248   0.072  1.00  0.00     0.167 HD
ATOM      3  N   UNL d   1       2.007   3.887   1.883  0.00  0.00    -0.307 N 
ATOM      4  C   UNL d   1       2.741   2.910   1.292  0.00  0.00     0.119 A 
ATOM      5  C   UNL d   1       0.748   2.507   0.677  0.00  0.00     0.103 A 
ATOM      6  C   UNL d   1       0.701   3.715   1.557  0.00  0.00     0.273 A 
ATOM      7  C   UNL d   1      -0.277   1.933   0.036  0.00  0.00     0.046 C 
ATOM      8  O   UNL d   1      -0.237   4.398   1.912  0.00  0.00    -0.266 OA
ATOM      9  H   UNL d   1       2.316   4.609   2.512  0.00  0.00     0.170 HD
ENDROOT
BRANCH   7  10
ATOM     10  C   UNL d   1      -1.652   2.416   0.097  0.00  0.00    -0.028 A 
ATOM     11  C   UNL d   1      -2.112   3.326  -0.850  0.00  0.00     0.051 A 
ATOM     12  C   UNL d   1      -3.425   3.823  -0.795  0.00  0.00     0.105 A 
ATOM     13  C   UNL d   1      -4.299   3.408   0.241  0.00  0.00     0.135 A 
ATOM     14  C   UNL d   1      -3.805   2.517   1.223  0.00  0.00     0.105 A 
ATOM     15  C   UNL d   1      -2.494   2.023   1.126  0.00  0.00     0.051 A 
BRANCH  12  16
ATOM     16  O   UNL d   1      -3.832   4.783  -1.694  0.00  0.00    -0.353 OA
ATOM     17  C   UNL d   1      -3.283   4.672  -3.007  0.00  0.00     0.210 C 
ENDBRANCH  12  16
BRANCH  13  18
ATOM     18  O   UNL d   1      -5.601   3.801   0.391  0.00  0.00    -0.351 OA
ATOM     19  C   UNL d   1      -6.288   4.482  -0.646  0.00  0.00     0.210 C 
ENDBRANCH  13  18
BRANCH  14  20
ATOM     20  O   UNL d   1      -4.408   2.031   2.353  0.00  0.00    -0.353 OA
ATOM     21  C   UNL d   1      -5.770   2.287   2.641  0.00  0.00     0.210 C 
ENDBRANCH  14  20
ENDBRANCH   7  10
BRANCH   4  22
ATOM     22  C   UNL d   1       4.196   2.855   1.482  0.00  0.00     0.008 A 
ATOM     23  C   UNL d   1       4.849   1.627   1.330  0.00  0.00     0.015 A 
ATOM     24  C   UNL d   1       6.231   1.546   1.504  0.00  0.00     0.001 A 
ATOM     25  C   UNL d   1       6.964   2.691   1.816  0.00  0.00     0.000 A 
ATOM     26  C   UNL d   1       6.317   3.919   1.953  0.00  0.00     0.001 A 
ATOM     27  C   UNL d   1       4.934   4.005   1.787  0.00  0.00     0.015 A 
ENDBRANCH   4  22
TORSDOF 5
