REMARK  9 active torsions:
REMARK  status: ('A' for Active; 'I' for Inactive)
REMARK    1  A    between atoms: C_16  and  N_1 
REMARK    2  A    between atoms: C_14  and  C_2 
REMARK    3  A    between atoms: S_10  and  C_5 
REMARK    4  A    between atoms: C_8  and  N_11 
REMARK    5  A    between atoms: N_18  and  C_8 
REMARK    6  A    between atoms: C_9  and  C_17 
REMARK       I    between atoms: N_12  and  C_9 
REMARK    7  A    between atoms: C_17  and  S_10 
REMARK    8  A    between atoms: N_11  and  N_12 
REMARK    9  A    between atoms: C_19  and  C_16 
ROOT
ATOM      1  N   UNL d   1      -0.174  -1.280   0.065  0.00  0.00    -0.307 N 
ATOM      2  C   UNL d   1       1.096  -0.717   0.055  0.00  0.00     0.135 A 
ATOM      3  N   UNL d   1       0.960   0.586   0.245  0.00  0.00    -0.283 N 
ATOM      4  HN  UNL d   1       1.726   1.253   0.340  1.00  0.00     0.188 HD
ATOM      5  C   UNL d   1      -1.035  -0.214   0.150  0.00  0.00     0.163 A 
ATOM      6  N   UNL d   1      -0.359   0.894   0.295  0.00  0.00    -0.278 N 
ATOM      7  HN  UNL d   1      -0.754   1.825   0.423  1.00  0.00     0.189 HD
ENDROOT
BRANCH   5   8
ATOM      8  S   UNL d   1      -2.754  -0.245   0.009  0.00  0.00    -0.083 SA
BRANCH   8   9
ATOM      9  C   UNL d   1      -3.269   0.556   1.547  0.00  0.00     0.186 C 
BRANCH   9  10
ATOM     10  C   UNL d   1      -3.162   2.072   1.659  0.00  0.00     0.245 C 
ATOM     11  N   UNL d   1      -2.209   2.724   0.914  0.00  0.00    -0.267 N 
ATOM     12  H   UNL d   1      -1.487   2.196   0.416  0.00  0.00     0.190 HD
ATOM     13  O   UNL d   1      -3.850   2.677   2.490  0.00  0.00    -0.271 OA
BRANCH  11  14
ATOM     14  N   UNL d   1      -1.800   4.008   1.330  0.00  0.00    -0.274 N 
ATOM     15  H   UNL d   1      -2.092   4.277   2.265  0.00  0.00     0.189 HD
BRANCH  14  16
ATOM     16  C   UNL d   1      -0.832   4.705   0.620  0.00  0.00     0.186 C 
ATOM     17  S   UNL d   1      -0.410   4.352  -0.963  0.00  0.00    -0.040 SA
BRANCH  16  18
ATOM     18  N   UNL d   1      -0.279   5.717   1.382  0.00  0.00    -0.370 N 
ATOM     19  C   UNL d   1       0.842   6.564   1.012  0.00  0.00     0.148 C 
ATOM     20  H   UNL d   1      -0.528   5.732   2.361  0.00  0.00     0.161 HD
ENDBRANCH  16  18
ENDBRANCH  14  16
ENDBRANCH  11  14
ENDBRANCH   9  10
ENDBRANCH   8   9
ENDBRANCH   5   8
BRANCH   1  21
ATOM     21  C   UNL d   1      -0.535  -2.687   0.080  0.00  0.00     0.159 C 
BRANCH  21  22
ATOM     22  C   UNL d   1      -0.034  -3.405   1.303  0.00  0.00    -0.017 C 
ATOM     23  C   UNL d   1      -0.809  -4.033   2.197  0.00  0.00     0.008 C 
ENDBRANCH  21  22
ENDBRANCH   1  21
BRANCH   2  24
ATOM     24  C   UNL d   1       2.414  -1.354  -0.054  0.00  0.00     0.009 A 
ATOM     25  C   UNL d   1       2.670  -2.522  -0.786  0.00  0.00     0.015 A 
ATOM     26  C   UNL d   1       3.963  -3.056  -0.845  0.00  0.00     0.001 A 
ATOM     27  C   UNL d   1       5.022  -2.417  -0.206  0.00  0.00     0.000 A 
ATOM     28  C   UNL d   1       4.796  -1.238   0.492  0.00  0.00     0.001 A 
ATOM     29  C   UNL d   1       3.503  -0.714   0.565  0.00  0.00     0.015 A 
ENDBRANCH   2  24
TORSDOF 9
