REMARK  1 active torsions:
REMARK  status: ('A' for Active; 'I' for Inactive)
REMARK    1  A    between atoms: C_8  and  N_1 
ROOT
ATOM      1  N   UNL d   1       0.915  -0.710   0.040  0.00  0.00    -0.213 N 
ATOM      2  C   UNL d   1       0.566   0.510   0.610  0.00  0.00     0.215 A 
ATOM      3  N   UNL d   1      -0.195  -1.204  -0.617  0.00  0.00    -0.219 N 
ATOM      4  HN  UNL d   1      -0.224  -2.077  -1.144  1.00  0.00     0.210 HD
ATOM      5  N   UNL d   1      -1.173  -0.411  -0.467  0.00  0.00    -0.225 N 
ATOM      6  HN  UNL d   1      -2.110  -0.543  -0.849  1.00  0.00     0.210 HD
ATOM      7  N   UNL d   1      -0.770   0.640   0.284  0.00  0.00    -0.259 N 
ATOM      8  S   UNL d   1       1.400   1.681   1.430  0.00  0.00    -0.037 SA
ATOM      9  H   UNL d   1      -1.377   1.421   0.482  0.00  0.00     0.191 HD
ENDROOT
BRANCH   1  10
ATOM     10  C   UNL d   1       2.103  -1.476   0.029  0.00  0.00     0.061 A 
ATOM     11  C   UNL d   1       3.156  -1.252   0.927  0.00  0.00     0.034 A 
ATOM     12  C   UNL d   1       4.315  -2.038   0.893  0.00  0.00     0.044 A 
ATOM     13  C   UNL d   1       4.431  -3.053  -0.045  0.00  0.00     0.116 A 
ATOM     14  C   UNL d   1       3.406  -3.304  -0.944  0.00  0.00     0.044 A 
ATOM     15  F   UNL d   1       5.541  -3.801  -0.079  0.00  0.00    -0.206 F 
ATOM     16  C   UNL d   1       2.245  -2.526  -0.900  0.00  0.00     0.034 A 
ENDBRANCH   1  10
TORSDOF 1
