REMARK  5 active torsions:
REMARK  status: ('A' for Active; 'I' for Inactive)
REMARK    1  A    between atoms: C_9  and  C_3 
REMARK    2  A    between atoms: C_11  and  C_4 
REMARK    3  A    between atoms: C_7  and  C_10 
REMARK    4  A    between atoms: S_21  and  C_15 
REMARK    5  A    between atoms: C_26  and  S_21 
ROOT
ATOM      1  N   UNL d   1       1.277   0.204  -0.016  0.00  0.00    -0.318 N 
ATOM      2  HN  UNL d   1       2.286   0.352  -0.031  1.00  0.00     0.169 HD
ATOM      3  C   UNL d   1       0.271   1.143   0.005  0.00  0.00     0.139 A 
ATOM      4  C   UNL d   1       0.615  -0.931  -0.012  0.00  0.00     0.182 A 
ATOM      5  N   UNL d   1      -0.965   0.618   0.030  0.00  0.00    -0.242 N 
ATOM      6  HN  UNL d   1      -1.858   1.110   0.053  1.00  0.00     0.196 HD
ATOM      7  O   UNL d   1      -0.739  -0.758   0.017  0.00  0.00    -0.217 OA
ENDROOT
BRANCH   3   8
ATOM      8  C   UNL d   1       0.555   2.567   0.001  0.00  0.00     0.025 A 
ATOM      9  C   UNL d   1      -0.460   3.513   0.064  0.00  0.00     0.104 A 
ATOM     10  N   UNL d   1      -0.256   4.854   0.076  0.00  0.00    -0.360 N 
ATOM     11  C   UNL d   1       1.022   5.290   0.017  0.00  0.00     0.069 A 
ATOM     12  HN  UNL d   1      -1.036   5.509   0.129  1.00  0.00     0.166 HD
ATOM     13  C   UNL d   1       2.104   4.423  -0.065  0.00  0.00     0.038 A 
ATOM     14  C   UNL d   1       1.865   3.047  -0.066  0.00  0.00     0.019 A 
BRANCH  11  15
ATOM     15  S   UNL d   1       1.313   7.048   0.010  0.00  0.00    -0.113 SA
BRANCH  15  16
ATOM     16  C   UNL d   1      -0.181   7.611   0.888  0.00  0.00     0.076 C 
ATOM     17  C   UNL d   1      -0.179   9.125   0.997  0.00  0.00     0.016 C 
ENDBRANCH  15  16
ENDBRANCH  11  15
ENDBRANCH   3   8
BRANCH   4  18
ATOM     18  C   UNL d   1       1.124  -2.296  -0.042  0.00  0.00     0.018 A 
ATOM     19  C   UNL d   1       2.513  -2.505  -0.010  0.00  0.00     0.032 A 
ATOM     20  C   UNL d   1       3.061  -3.797  -0.059  0.00  0.00     0.048 A 
ATOM     21  C   UNL d   1       2.191  -4.894  -0.135  0.00  0.00     0.016 A 
ATOM     22  C   UNL d   1       0.810  -4.703  -0.161  0.00  0.00     0.002 A 
ATOM     23  C   UNL d   1       0.279  -3.411  -0.115  0.00  0.00     0.016 A 
BRANCH  20  24
ATOM     24  C   UNL d   1       4.554  -4.011  -0.035  0.00  0.00     0.417 C 
ATOM     25  F   UNL d   1       5.269  -2.855   0.037  0.00  0.00    -0.166 F 
ATOM     26  F   UNL d   1       4.955  -4.764   1.025  0.00  0.00    -0.166 F 
ATOM     27  F   UNL d   1       5.003  -4.659  -1.146  0.00  0.00    -0.166 F 
ENDBRANCH  20  24
ENDBRANCH   4  18
TORSDOF 5
