REMARK  8 active torsions:
REMARK  status: ('A' for Active; 'I' for Inactive)
REMARK    1  A    between atoms: O_2  and  C_1 
REMARK    2  A    between atoms: C_5  and  O_2 
REMARK       I    between atoms: C_6  and  N_7 
REMARK    3  A    between atoms: C_21  and  C_6 
REMARK    4  A    between atoms: N_7  and  C_14 
REMARK    5  A    between atoms: C_10  and  C_22 
REMARK    6  A    between atoms: O_19  and  C_10 
REMARK    7  A    between atoms: S_13  and  C_21 
REMARK    8  A    between atoms: C_22  and  S_13 
ROOT
ATOM      1  N   UNL d   1      -1.663   3.555  -1.173  0.00  0.00    -0.344 N 
ATOM      2  HN  UNL d   1      -1.124   3.610  -2.037  1.00  0.00     0.167 HD
ATOM      3  C   UNL d   1      -1.226   2.864  -0.100  0.00  0.00     0.148 A 
ATOM      4  C   UNL d   1      -3.685   4.085   0.094  0.00  0.00     0.050 A 
ATOM      5  C   UNL d   1      -2.865   4.173  -1.035  0.00  0.00     0.119 A 
ATOM      6  C   UNL d   1      -1.955   2.726   1.072  0.00  0.00     0.059 A 
ATOM      7  C   UNL d   1      -3.198   3.348   1.169  0.00  0.00     0.035 A 
ENDROOT
BRANCH   4   8
ATOM      8  N   UNL d   1      -4.945   4.725   0.093  0.00  0.00    -0.325 N 
ATOM      9  C   UNL d   1      -5.997   4.439   0.948  0.00  0.00     0.231 C 
ATOM     10  O   UNL d   1      -6.014   3.565   1.817  0.00  0.00    -0.272 OA
ATOM     11  H   UNL d   1      -5.154   5.312  -0.708  0.00  0.00     0.169 HD
BRANCH   9  12
ATOM     12  C   UNL d   1      -7.265   5.221   0.650  0.00  0.00     0.177 C 
BRANCH  12  13
ATOM     13  S   UNL d   1      -8.254   4.351  -0.612  0.00  0.00    -0.149 SA
BRANCH  13  14
ATOM     14  C   UNL d   1      -8.481   2.713   0.169  0.00  0.00     0.184 C 
BRANCH  14  15
ATOM     15  C   UNL d   1      -9.209   2.789   1.490  0.00  0.00     0.149 C 
ATOM     16  O   UNL d   1     -10.432   2.834   1.595  0.00  0.00    -0.649 OA
BRANCH  15  17
ATOM     17  O   UNL d   1      -8.402   2.823   2.575  0.00  0.00    -0.776 OA
ATOM     18  H   UNL d   1      -7.432   2.835   2.383  0.00  0.00     0.167 HD
ENDBRANCH  15  17
ENDBRANCH  14  15
ENDBRANCH  13  14
ENDBRANCH  12  13
ENDBRANCH   9  12
ENDBRANCH   4   8
BRANCH   3  19
ATOM     19  O   UNL d   1       0.015   2.238  -0.093  0.00  0.00    -0.290 OA
BRANCH  19  20
ATOM     20  C   UNL d   1       0.949   2.553  -1.052  0.00  0.00     0.121 A 
ATOM     21  C   UNL d   1       1.416   3.851  -1.306  0.00  0.00     0.069 A 
ATOM     22 CL   UNL d   1       0.874   5.246  -0.434  0.00  0.00    -0.081 Cl
ATOM     23  C   UNL d   1       2.452   4.061  -2.226  0.00  0.00     0.027 A 
ATOM     24  C   UNL d   1       3.079   2.982  -2.847  0.00  0.00     0.003 A 
ATOM     25  C   UNL d   1       2.663   1.685  -2.560  0.00  0.00     0.027 A 
ATOM     26  C   UNL d   1       1.600   1.473  -1.675  0.00  0.00     0.069 A 
ATOM     27 CL   UNL d   1       1.157  -0.165  -1.334  0.00  0.00    -0.081 Cl
ENDBRANCH  19  20
ENDBRANCH   3  19
TORSDOF 8
