REMARK  5 active torsions:
REMARK  status: ('A' for Active; 'I' for Inactive)
REMARK    1  A    between atoms: C_8  and  N_1 
REMARK    2  A    between atoms: S_13  and  C_2 
REMARK    3  A    between atoms: O_20  and  C_3 
REMARK    4  A    between atoms: C_11  and  C_16 
REMARK       I    between atoms: N_12  and  C_11 
REMARK    5  A    between atoms: C_16  and  S_13 
ROOT
ATOM      1  N   UNL d   1      -0.211  -1.283   0.021  0.00  0.00    -0.254 N 
ATOM      2  C   UNL d   1       0.921  -0.636  -0.447  0.00  0.00     0.169 A 
ATOM      3  C   UNL d   1      -0.996  -0.234   0.494  0.00  0.00     0.245 A 
ATOM      4  N   UNL d   1       0.809   0.662  -0.285  0.00  0.00    -0.276 N 
ATOM      5  HN  UNL d   1       1.504   1.360  -0.549  1.00  0.00     0.189 HD
ATOM      6  N   UNL d   1      -0.398   0.916   0.299  0.00  0.00    -0.263 N 
ATOM      7  HN  UNL d   1      -0.769   1.835   0.540  1.00  0.00     0.190 HD
ENDROOT
BRANCH   2   8
ATOM      8  S   UNL d   1       2.281  -1.366  -1.235  0.00  0.00    -0.083 SA
BRANCH   8   9
ATOM      9  C   UNL d   1       3.582  -0.145  -0.804  0.00  0.00     0.185 C 
BRANCH   9  10
ATOM     10  C   UNL d   1       3.562   1.022  -1.784  0.00  0.00     0.229 C 
ATOM     11  N   UNL d   1       3.433   2.323  -1.324  0.00  0.00    -0.347 N 
ATOM     12  C   UNL d   1       3.326   3.405  -2.308  0.00  0.00     0.152 C 
ATOM     13  C   UNL d   1       3.266   2.796   0.059  0.00  0.00     0.152 C 
ATOM     14  C   UNL d   1       2.007   4.152  -2.104  0.00  0.00     0.187 C 
ATOM     15  O   UNL d   1       1.976   4.725  -0.785  0.00  0.00    -0.388 OA
ATOM     16  C   UNL d   1       2.017   3.686   0.208  0.00  0.00     0.187 C 
ATOM     17  O   UNL d   1       3.698   0.789  -2.990  0.00  0.00    -0.273 OA
ENDBRANCH   9  10
ENDBRANCH   8   9
ENDBRANCH   2   8
BRANCH   1  18
ATOM     18  C   UNL d   1      -0.536  -2.669   0.120  0.00  0.00     0.057 A 
ATOM     19  C   UNL d   1       0.330  -3.568   0.788  0.00  0.00    -0.034 A 
ATOM     20  C   UNL d   1      -0.081  -4.907   0.954  0.00  0.00     0.015 A 
ATOM     21  C   UNL d   1       1.664  -3.231   1.397  0.00  0.00     0.050 C 
ATOM     22  C   UNL d   1      -1.342  -5.347   0.553  0.00  0.00    -0.061 A 
ATOM     23  C   UNL d   1      -2.187  -4.454  -0.103  0.00  0.00     0.015 A 
ATOM     24  C   UNL d   1      -1.756  -6.767   0.808  0.00  0.00     0.048 C 
ATOM     25  C   UNL d   1      -1.797  -3.124  -0.354  0.00  0.00    -0.034 A 
ATOM     26  C   UNL d   1      -2.781  -2.292  -1.144  0.00  0.00     0.050 C 
ENDBRANCH   1  18
BRANCH   3  27
ATOM     27  O   UNL d   1      -2.149  -0.326   1.142  0.00  0.00    -0.331 OA
ATOM     28  H   UNL d   1      -2.316  -1.260   1.349  0.00  0.00     0.221 HD
ENDBRANCH   3  27
TORSDOF 5
