REMARK  3 active torsions:
REMARK  status: ('A' for Active; 'I' for Inactive)
REMARK    1  A    between atoms: N_9  and  C_2 
REMARK    2  A    between atoms: N_5  and  C_14 
REMARK       I    between atoms: C_12  and  N_9 
REMARK    3  A    between atoms: C_14  and  C_12 
ROOT
ATOM      1  C   UNL d   1       4.314  -0.400  -0.780  0.00  0.00     0.085 C 
ATOM      2  C   UNL d   1       3.091  -1.016  -0.558  0.00  0.00     0.093 C 
ATOM      3  C   UNL d   1       4.177   0.969  -1.137  0.00  0.00     0.003 C 
ATOM      4  C   UNL d   1       5.594  -1.074  -0.744  0.00  0.00     0.302 C 
ATOM      5  O   UNL d   1       6.715  -0.252  -1.005  0.00  0.00    -0.274 OA
ATOM      6  S   UNL d   1       1.833   0.123  -0.525  0.00  0.00    -0.082 SA
ATOM      7  C   UNL d   1       2.870   1.392  -1.042  0.00  0.00     0.065 C 
ATOM      8  C   UNL d   1       5.339   1.733  -1.557  0.00  0.00     0.010 A 
ATOM      9  C   UNL d   1       6.583   1.095  -1.449  0.00  0.00     0.090 A 
ATOM     10  O   UNL d   1       5.737  -2.269  -0.491  0.00  0.00    -0.259 OA
ATOM     11  C   UNL d   1       5.292   3.016  -2.100  0.00  0.00     0.015 A 
ATOM     12  C   UNL d   1       7.771   1.723  -1.820  0.00  0.00     0.038 A 
ATOM     13  C   UNL d   1       6.478   3.645  -2.501  0.00  0.00     0.001 A 
ATOM     14  C   UNL d   1       7.713   3.008  -2.351  0.00  0.00     0.003 A 
ENDROOT
BRANCH   2  15
ATOM     15  N   UNL d   1       2.906  -2.377  -0.465  0.00  0.00    -0.319 N 
ATOM     16  C   UNL d   1       1.833  -3.201  -0.358  0.00  0.00     0.235 C 
ATOM     17  O   UNL d   1       2.038  -4.380  -0.689  0.00  0.00    -0.272 OA
ATOM     18  H   UNL d   1       3.745  -2.926  -0.672  0.00  0.00     0.169 HD
BRANCH  16  19
ATOM     19  C   UNL d   1       0.485  -2.826   0.241  0.00  0.00     0.198 C 
BRANCH  19  20
ATOM     20  N   UNL d   1      -0.526  -2.220  -0.642  0.00  0.00    -0.274 NA
ATOM     21  C   UNL d   1      -1.849  -2.681  -0.435  0.00  0.00     0.017 A 
ATOM     22  C   UNL d   1      -2.600  -2.713  -1.611  0.00  0.00    -0.036 A 
ATOM     23  C   UNL d   1      -2.435  -3.081   0.759  0.00  0.00     0.024 A 
ATOM     24  C   UNL d   1      -3.914  -3.155  -1.636  0.00  0.00     0.009 A 
ATOM     25  C   UNL d   1      -1.777  -2.207  -2.742  0.00  0.00     0.055 C 
ATOM     26  C   UNL d   1      -4.486  -3.594  -0.443  0.00  0.00     0.001 A 
ATOM     27  C   UNL d   1      -3.751  -3.555   0.750  0.00  0.00     0.002 A 
ATOM     28  C   UNL d   1      -0.373  -2.217  -2.109  0.00  0.00     0.101 C 
ENDBRANCH  19  20
ENDBRANCH  16  19
ENDBRANCH   2  15
TORSDOF 3
