REMARK  0 active torsions:
REMARK  status: ('A' for Active; 'I' for Inactive)
ROOT
ATOM      1  C   UNL d   1       0.737   0.434   0.011  0.00  0.00     0.073 A 
ATOM      2  C   UNL d   1       1.244  -0.827  -0.020  0.00  0.00     0.093 A 
ATOM      3  C   UNL d   1       1.652   1.556   0.055  0.00  0.00     0.263 A 
ATOM      4  N   UNL d   1       3.019   1.203   0.044  0.00  0.00    -0.294 N 
ATOM      5  N   UNL d   1       2.568  -1.131  -0.026  0.00  0.00    -0.326 N 
ATOM      6  C   UNL d   1       3.500  -0.120   0.002  0.00  0.00     0.181 A 
ATOM      7  S   UNL d   1       0.104  -2.060  -0.047  0.00  0.00    -0.075 SA
ATOM      8  C   UNL d   1      -0.693   0.398  -0.005  0.00  0.00    -0.026 A 
ATOM      9  C   UNL d   1      -1.161  -0.910  -0.012  0.00  0.00    -0.008 A 
ATOM     10  S   UNL d   1       5.115  -0.587  -0.014  0.00  0.00    -0.040 SA
ATOM     11  O   UNL d   1       1.240   2.712   0.103  0.00  0.00    -0.267 OA
ATOM     12  C   UNL d   1       3.955   2.322   0.087  0.00  0.00     0.162 C 
ATOM     13  C   UNL d   1      -1.622   1.575   0.020  0.00  0.00     0.041 C 
ATOM     14  C   UNL d   1      -2.606  -1.304  -0.024  0.00  0.00     0.047 C 
ATOM     15  C   UNL d   1      -3.054   1.171  -0.363  0.00  0.00     0.005 C 
ATOM     16  C   UNL d   1      -3.485  -0.106   0.373  0.00  0.00     0.005 C 
ATOM     17  H   UNL d   1       2.870  -2.098  -0.055  0.00  0.00     0.169 HD
ENDROOT
TORSDOF 0
