REMARK  8 active torsions:
REMARK  status: ('A' for Active; 'I' for Inactive)
REMARK    1  A    between atoms: N_2  and  C_1 
REMARK    2  A    between atoms: N_6  and  C_1 
REMARK    3  A    between atoms: C_3  and  N_2 
REMARK       I    between atoms: C_5  and  N_8 
REMARK    4  A    between atoms: C_13  and  C_5 
REMARK    5  A    between atoms: N_8  and  N_6 
REMARK    6  A    between atoms: C_18  and  C_13 
REMARK    7  A    between atoms: O_23  and  C_15 
REMARK    8  A    between atoms: C_16  and  C_18 
ROOT
ATOM      1  N   UNL d   1       0.030   0.665  -1.033  0.00  0.00    -0.274 N 
ATOM      2  H   UNL d   1       0.493   0.938  -1.903  0.00  0.00     0.189 HD
ENDROOT
BRANCH   1   3
ATOM      3  C   UNL d   1       0.832   0.216  -0.012  0.00  0.00     0.191 C 
ATOM      4  S   UNL d   1       0.465  -1.020   1.043  0.00  0.00    -0.039 SA
BRANCH   3   5
ATOM      5  N   UNL d   1       2.047   0.868   0.056  0.00  0.00    -0.331 N 
ATOM      6  H   UNL d   1       2.846   0.312   0.348  0.00  0.00     0.168 HD
BRANCH   5   7
ATOM      7  C   UNL d   1       2.279   2.220  -0.286  0.00  0.00     0.056 A 
ATOM      8  C   UNL d   1       3.567   2.647  -0.641  0.00  0.00     0.061 A 
ATOM      9  C   UNL d   1       3.783   3.963  -1.060  0.00  0.00     0.033 A 
ATOM     10 CL   UNL d   1       4.902   1.552  -0.633  0.00  0.00    -0.082 Cl
ATOM     11  C   UNL d   1       2.733   4.891  -1.091  0.00  0.00    -0.060 A 
ATOM     12  C   UNL d   1       1.464   4.488  -0.659  0.00  0.00     0.009 A 
ATOM     13  C   UNL d   1       2.962   6.282  -1.601  0.00  0.00     0.048 C 
ATOM     14  C   UNL d   1       1.249   3.170  -0.255  0.00  0.00     0.032 A 
ENDBRANCH   5   7
ENDBRANCH   3   5
ENDBRANCH   1   3
BRANCH   1  15
ATOM     15  N   UNL d   1      -1.321   0.346  -1.169  0.00  0.00    -0.268 N 
ATOM     16  C   UNL d   1      -1.896   0.745  -2.365  0.00  0.00     0.236 C 
ATOM     17  O   UNL d   1      -1.234   1.172  -3.308  0.00  0.00    -0.272 OA
ATOM     18  H   UNL d   1      -1.865   0.331  -0.312  0.00  0.00     0.190 HD
BRANCH  16  19
ATOM     19  C   UNL d   1      -3.402   0.647  -2.382  0.00  0.00     0.109 C 
BRANCH  19  20
ATOM     20  C   UNL d   1      -3.890   0.427  -3.811  0.00  0.00     0.048 C 
BRANCH  20  21
ATOM     21  C   UNL d   1      -5.391   0.294  -3.884  0.00  0.00    -0.058 A 
ATOM     22  C   UNL d   1      -6.190   1.426  -4.089  0.00  0.00     0.010 A 
ATOM     23  C   UNL d   1      -7.580   1.305  -4.159  0.00  0.00     0.037 A 
ATOM     24  C   UNL d   1      -8.168   0.054  -4.021  0.00  0.00     0.065 A 
ATOM     25  C   UNL d   1      -7.393  -1.081  -3.807  0.00  0.00     0.037 A 
ATOM     26  C   UNL d   1      -6.002  -0.958  -3.737  0.00  0.00     0.010 A 
BRANCH  24  27
ATOM     27  O   UNL d   1      -9.527  -0.022  -4.103  0.00  0.00    -0.361 OA
ATOM     28  H   UNL d   1      -9.789  -0.953  -4.015  0.00  0.00     0.217 HD
ENDBRANCH  24  27
ENDBRANCH  20  21
ENDBRANCH  19  20
ENDBRANCH  16  19
ENDBRANCH   1  15
TORSDOF 8
