REMARK  4 active torsions:
REMARK  status: ('A' for Active; 'I' for Inactive)
REMARK    1  A    between atoms: C_12  and  N_4 
REMARK    2  A    between atoms: C_11  and  C_12 
REMARK       I    between atoms: N_16  and  C_11 
REMARK    3  A    between atoms: N_13  and  N_16 
REMARK    4  A    between atoms: C_21  and  C_18 
ROOT
ATOM      1  C   UNL d   1       0.547   0.626   0.261  0.00  0.00     0.073 A 
ATOM      2  C   UNL d   1       1.033  -0.592   0.704  0.00  0.00     0.091 A 
ATOM      3  C   UNL d   1       1.519   1.702   0.086  0.00  0.00     0.262 A 
ATOM      4  N   UNL d   1       2.823   1.356   0.430  0.00  0.00    -0.301 N 
ATOM      5  N   UNL d   1       2.292  -0.862   1.129  0.00  0.00    -0.346 N 
ATOM      6  HN  UNL d   1       2.562  -1.762   1.526  1.00  0.00     0.167 HD
ATOM      7  S   UNL d   1      -0.155  -1.812   0.660  0.00  0.00    -0.075 SA
ATOM      8  C   UNL d   1      -0.877   0.594   0.090  0.00  0.00    -0.026 C 
ATOM      9  C   UNL d   1      -1.357  -0.701   0.218  0.00  0.00    -0.008 C 
ATOM     10  C   UNL d   1       3.121   0.120   0.988  0.00  0.00     0.187 A 
ATOM     11  O   UNL d   1       1.229   2.809  -0.364  0.00  0.00    -0.267 OA
ATOM     12  C   UNL d   1      -1.808   1.755  -0.119  0.00  0.00     0.041 C 
ATOM     13  C   UNL d   1      -2.783  -1.114   0.036  0.00  0.00     0.047 C 
ATOM     14  C   UNL d   1      -3.248   1.319  -0.458  0.00  0.00     0.005 C 
ATOM     15  C   UNL d   1      -3.696   0.080   0.333  0.00  0.00     0.005 C 
ENDROOT
BRANCH   4  16
ATOM     16  C   UNL d   1       3.926   2.200  -0.010  0.00  0.00     0.237 C 
BRANCH  16  17
ATOM     17  C   UNL d   1       4.181   3.423   0.859  0.00  0.00     0.254 C 
ATOM     18  N   UNL d   1       3.271   4.451   0.658  0.00  0.00    -0.269 N 
ATOM     19  H   UNL d   1       2.419   4.287   0.118  0.00  0.00     0.190 HD
ATOM     20  O   UNL d   1       5.142   3.459   1.625  0.00  0.00    -0.270 OA
BRANCH  18  21
ATOM     21  N   UNL d   1       3.400   5.591   1.393  0.00  0.00    -0.308 N 
ATOM     22  C   UNL d   1       2.493   6.498   1.218  0.00  0.00     0.118 C 
ATOM     23  HN  UNL d   1       4.171   5.723   2.047  1.00  0.00     0.186 HD
BRANCH  22  24
ATOM     24  C   UNL d   1       2.472   7.719   2.053  0.00  0.00    -0.019 A 
ATOM     25  C   UNL d   1       3.484   7.957   2.989  0.00  0.00     0.013 A 
ATOM     26  C   UNL d   1       3.381   9.037   3.867  0.00  0.00     0.001 A 
ATOM     27  C   UNL d   1       2.271   9.880   3.807  0.00  0.00     0.000 A 
ATOM     28  C   UNL d   1       1.279   9.664   2.849  0.00  0.00     0.001 A 
ATOM     29  C   UNL d   1       1.380   8.587   1.963  0.00  0.00     0.013 A 
ENDBRANCH  22  24
ENDBRANCH  18  21
ENDBRANCH  16  17
ENDBRANCH   4  16
TORSDOF 4
