REMARK  1 active torsions:
REMARK  status: ('A' for Active; 'I' for Inactive)
REMARK    1  A    between atoms: C_16  and  C_12 
ROOT
ATOM      1  N   UNL d   1       1.161   0.571  -0.296  0.00  0.00    -0.197 N 
ATOM      2  C   UNL d   1      -1.130   0.295   0.306  0.00  0.00     0.069 C 
ATOM      3  C   UNL d   1      -1.042  -0.937  -0.297  0.00  0.00     0.092 C 
ATOM      4  N   UNL d   1       0.020  -1.435  -0.969  0.00  0.00    -0.329 N 
ATOM      5  HN  UNL d   1      -0.013  -2.312  -1.489  1.00  0.00     0.168 HD
ATOM      6  C   UNL d   1       1.083  -0.698  -0.895  0.00  0.00     0.170 C 
ATOM      7  C   UNL d   1       0.006   1.190   0.215  0.00  0.00     0.281 C 
ATOM      8  N   UNL d   1       2.337   1.310  -0.173  0.00  0.00    -0.297 N 
ATOM      9  HN  UNL d   1       2.303   2.326  -0.086  1.00  0.00     0.187 HD
ATOM     10  C   UNL d   1      -2.315   0.437   1.088  0.00  0.00     0.040 C 
ATOM     11  S   UNL d   1      -2.412  -1.895   0.030  0.00  0.00    -0.071 SA
ATOM     12  C   UNL d   1      -2.985  -0.768   1.193  0.00  0.00     0.018 C 
ATOM     13  S   UNL d   1       2.552  -1.375  -1.562  0.00  0.00    -0.086 SA
ATOM     14  C   UNL d   1       3.477   0.688  -0.172  0.00  0.00     0.010 C 
ATOM     15  O   UNL d   1      -0.057   2.344   0.639  0.00  0.00    -0.265 OA
ATOM     16  C   UNL d   1       3.611  -0.809  -0.225  0.00  0.00     0.136 C 
ATOM     17  C   UNL d   1       4.735   1.494   0.009  0.00  0.00     0.066 C 
ENDROOT
BRANCH  12  18
ATOM     18  C   UNL d   1      -3.919  -1.212   2.231  0.00  0.00    -0.019 A 
ATOM     19  C   UNL d   1      -5.075  -1.947   1.945  0.00  0.00     0.013 A 
ATOM     20  C   UNL d   1      -5.840  -2.487   2.984  0.00  0.00     0.001 A 
ATOM     21  C   UNL d   1      -5.460  -2.294   4.313  0.00  0.00     0.000 A 
ATOM     22  C   UNL d   1      -4.326  -1.543   4.610  0.00  0.00     0.001 A 
ATOM     23  C   UNL d   1      -3.566  -1.000   3.574  0.00  0.00     0.013 A 
ENDBRANCH  12  18
TORSDOF 1
