REMARK  3 active torsions:
REMARK  status: ('A' for Active; 'I' for Inactive)
REMARK    1  A    between atoms: C_4  and  C_1 
REMARK    2  A    between atoms: O_12  and  C_3 
REMARK    3  A    between atoms: C_10  and  N_5 
ROOT
ATOM      1  C   UNL d   1      -0.003   2.659  -0.014  0.00  0.00     0.015 A 
ATOM      2  C   UNL d   1       1.104   0.507   0.053  0.00  0.00     0.041 A 
ATOM      3  C   UNL d   1       1.176   1.904   0.036  0.00  0.00     0.093 A 
ATOM      4  C   UNL d   1      -0.136  -0.138   0.017  0.00  0.00     0.039 A 
ATOM      5  C   UNL d   1      -1.247   2.017  -0.041  0.00  0.00     0.033 A 
ATOM      6  C   UNL d   1      -1.306   0.624  -0.030  0.00  0.00     0.008 A 
ATOM      7  I   UNL d   1       2.832  -0.669   0.129  0.00  0.00    -0.042 I 
ATOM      8  I   UNL d   1      -3.150  -0.333  -0.093  0.00  0.00    -0.045 I 
ENDROOT
BRANCH   1   9
ATOM      9  C   UNL d   1       0.067   4.135  -0.053  0.00  0.00     0.102 C 
ATOM     10  N   UNL d   1      -0.993   4.873   0.055  0.00  0.00    -0.365 N 
ATOM     11  HN  UNL d   1      -1.913   4.448   0.173  1.00  0.00     0.165 HD
BRANCH  10  12
ATOM     12  C   UNL d   1      -0.849   6.272   0.005  0.00  0.00     0.031 A 
ATOM     13  C   UNL d   1      -1.827   7.013  -0.664  0.00  0.00     0.030 A 
ATOM     14  C   UNL d   1      -1.758   8.409  -0.725  0.00  0.00     0.009 A 
ATOM     15  C   UNL d   1      -0.702   9.093  -0.114  0.00  0.00    -0.062 A 
ATOM     16  C   UNL d   1       0.271   8.359   0.571  0.00  0.00     0.009 A 
ATOM     17  C   UNL d   1      -0.635  10.590  -0.179  0.00  0.00     0.048 C 
ATOM     18  C   UNL d   1       0.189   6.965   0.640  0.00  0.00     0.030 A 
ENDBRANCH  10  12
ENDBRANCH   1   9
BRANCH   3  19
ATOM     19  O   UNL d   1       2.383   2.552   0.077  0.00  0.00    -0.358 OA
ATOM     20  H   UNL d   1       3.086   1.878   0.122  0.00  0.00     0.217 HD
ENDBRANCH   3  19
TORSDOF 3
