REMARK  4 active torsions:
REMARK  status: ('A' for Active; 'I' for Inactive)
REMARK    1  A    between atoms: N_2  and  S_1 
REMARK    2  A    between atoms: C_4  and  S_1 
REMARK    3  A    between atoms: C_3  and  C_5 
REMARK    4  A    between atoms: C_7  and  N_6 
ROOT
ATOM      1  N   UNL d   1       0.395   1.566  -0.029  0.00  0.00    -0.305 N 
ATOM      2  N   UNL d   1      -0.089   4.460  -0.570  0.00  0.00    -0.366 N 
ATOM      3  C   UNL d   1       1.450   2.544  -0.461  0.00  0.00     0.155 C 
ATOM      4  C   UNL d   1       1.162   3.976   0.020  0.00  0.00     0.145 C 
ATOM      5  C   UNL d   1      -1.764   2.827   0.243  0.00  0.00     0.040 C 
ATOM      6  C   UNL d   1      -0.963   1.831  -0.588  0.00  0.00     0.137 C 
ATOM      7  C   UNL d   1      -1.291   4.275   0.224  0.00  0.00     0.126 C 
ENDROOT
BRANCH   1   8
ATOM      8  S   UNL d   1       0.875  -0.077  -0.052  0.00  0.00     0.260 S 
ATOM      9  O   UNL d   1      -0.086  -0.817   0.746  0.00  0.00    -0.200 OA
ATOM     10  O   UNL d   1       2.292  -0.161   0.237  0.00  0.00    -0.200 OA
BRANCH   8  11
ATOM     11  C   UNL d   1       0.640  -0.590  -1.752  0.00  0.00     0.080 A 
ATOM     12  C   UNL d   1       1.629  -0.345  -2.709  0.00  0.00     0.035 A 
ATOM     13  C   UNL d   1       1.415  -0.825  -3.996  0.00  0.00    -0.021 A 
ATOM     14  C   UNL d   1       2.290  -0.786  -5.191  0.00  0.00     0.068 C 
ATOM     15  C   UNL d   1       0.272  -1.546  -4.306  0.00  0.00     0.075 A 
ATOM     16  C   UNL d   1       1.287  -1.247  -6.250  0.00  0.00     0.180 C 
ATOM     17  O   UNL d   1       0.227  -1.988  -5.604  0.00  0.00    -0.350 OA
ATOM     18  C   UNL d   1      -0.703  -1.825  -3.371  0.00  0.00     0.039 A 
ATOM     19  C   UNL d   1      -0.514  -1.338  -2.075  0.00  0.00     0.028 A 
ENDBRANCH   8  11
ENDBRANCH   1   8
BRANCH   2  20
ATOM     20  C   UNL d   1      -0.059   5.320  -1.643  0.00  0.00     0.102 A 
ATOM     21  N   UNL d   1       1.019   6.107  -1.819  0.00  0.00    -0.352 N 
ATOM     22  C   UNL d   1       1.034   6.982  -2.854  0.00  0.00     0.106 A 
ATOM     23  HN  UNL d   1       1.814   6.046  -1.183  1.00  0.00     0.166 HD
ATOM     24  C   UNL d   1       0.026   7.086  -3.795  0.00  0.00     0.063 A 
ATOM     25  C   UNL d   1      -1.065   6.235  -3.643  0.00  0.00     0.021 A 
ATOM     26  C   UNL d   1      -1.113   5.362  -2.557  0.00  0.00     0.049 A 
BRANCH  24  27
ATOM     27  C   UNL d   1       0.113   8.063  -4.922  0.00  0.00     0.418 C 
ATOM     28  F   UNL d   1       1.213   8.859  -4.875  0.00  0.00    -0.166 F 
ATOM     29  F   UNL d   1       0.151   7.446  -6.138  0.00  0.00    -0.166 F 
ATOM     30  F   UNL d   1      -0.956   8.905  -4.969  0.00  0.00    -0.166 F 
ENDBRANCH  24  27
ENDBRANCH   2  20
TORSDOF 4
