REMARK  4 active torsions:
REMARK  status: ('A' for Active; 'I' for Inactive)
REMARK    1  A    between atoms: N_7  and  C_1 
REMARK       I    between atoms: C_8  and  N_7 
REMARK       I    between atoms: N_11  and  C_8 
REMARK    2  A    between atoms: N_9  and  C_15 
REMARK    3  A    between atoms: C_13  and  N_11 
REMARK    4  A    between atoms: C_15  and  C_13 
ROOT
ATOM      1  N   UNL d   1      -0.583   3.679  -1.106  0.00  0.00    -0.305 N 
ATOM      2  C   UNL d   1       0.634   4.322  -1.194  0.00  0.00     0.320 C 
ATOM      3  O   UNL d   1       1.306   4.442  -2.207  0.00  0.00    -0.247 OA
ATOM      4  N   UNL d   1       1.067   4.764   0.038  0.00  0.00    -0.341 N 
ATOM      5  H   UNL d   1      -0.798   3.288  -0.201  0.00  0.00     0.171 HD
ATOM      6  H   UNL d   1       0.359   5.062   0.699  0.00  0.00     0.164 HD
ENDROOT
BRANCH   1   7
ATOM      7  C   UNL d   1      -1.290   3.173  -2.193  0.00  0.00     0.092 A 
ATOM      8  C   UNL d   1      -1.282   3.555  -3.519  0.00  0.00     0.101 A 
ATOM      9  O   UNL d   1      -2.143   2.764  -4.218  0.00  0.00    -0.240 OA
ATOM     10  C   UNL d   1      -0.630   4.598  -4.337  0.00  0.00     0.081 C 
ATOM     11  N   UNL d   1      -2.751   1.865  -3.370  0.00  0.00    -0.263 N 
ATOM     12  C   UNL d   1      -2.248   2.116  -2.157  0.00  0.00     0.058 A 
ATOM     13  HN  UNL d   1      -3.442   1.156  -3.616  1.00  0.00     0.194 HD
ATOM     14  C   UNL d   1      -2.690   1.296  -1.006  0.00  0.00     0.072 C 
ENDBRANCH   1   7
BRANCH   4  15
ATOM     15  C   UNL d   1       2.348   5.444   0.154  0.00  0.00     0.154 C 
BRANCH  15  16
ATOM     16  C   UNL d   1       2.206   6.979   0.211  0.00  0.00     0.292 C 
BRANCH  16  17
ATOM     17  N   UNL d   1       1.480   7.475   1.404  0.00  0.00     0.094 N 
ATOM     18  C   UNL d   1       2.192   7.209   2.677  0.00  0.00     0.298 C 
ATOM     19  C   UNL d   1       3.450   8.067   2.886  0.00  0.00     0.198 C 
ATOM     20  O   UNL d   1       3.122   9.460   2.853  0.00  0.00    -0.388 OA
ATOM     21  C   UNL d   1       2.508   9.806   1.606  0.00  0.00     0.198 C 
ATOM     22  C   UNL d   1       1.262   8.944   1.317  0.00  0.00     0.298 C 
ENDBRANCH  16  17
ENDBRANCH  15  16
ENDBRANCH   4  15
TORSDOF 4
