REMARK  5 active torsions:
REMARK  status: ('A' for Active; 'I' for Inactive)
REMARK    1  A    between atoms: C_6  and  C_1 
REMARK    2  A    between atoms: C_12  and  C_3 
REMARK    3  A    between atoms: C_7  and  C_4 
REMARK    4  A    between atoms: O_8  and  C_7 
REMARK    5  A    between atoms: C_9  and  O_8 
ROOT
ATOM      1  C   UNL d   1       0.180   1.232   0.161  0.00  0.00     0.100 A 
ATOM      2  S   UNL d   1      -1.002  -0.010   0.318  0.00  0.00    -0.079 SA
ATOM      3  C   UNL d   1       1.461   0.700   0.024  0.00  0.00    -0.002 A 
ATOM      4  C   UNL d   1       0.141  -1.262   0.188  0.00  0.00     0.082 A 
ATOM      5  C   UNL d   1       1.407  -0.745  -0.001  0.00  0.00     0.038 A 
ENDROOT
BRANCH   4   6
ATOM      6  C   UNL d   1      -0.229  -2.666   0.305  0.00  0.00     0.305 C 
ATOM      7  O   UNL d   1       0.510  -3.613   0.061  0.00  0.00    -0.258 OA
BRANCH   6   8
ATOM      8  O   UNL d   1      -1.526  -2.783   0.809  0.00  0.00    -0.273 OA
BRANCH   8   9
ATOM      9  C   UNL d   1      -1.821  -3.967   1.498  0.00  0.00     0.101 A 
ATOM     10  C   UNL d   1      -1.163  -4.323   2.683  0.00  0.00     0.069 A 
ATOM     11  C   UNL d   1      -1.575  -5.450   3.392  0.00  0.00     0.050 A 
ATOM     12 CL   UNL d   1       0.098  -3.359   3.362  0.00  0.00    -0.081 Cl
ATOM     13  C   UNL d   1      -2.662  -6.192   2.933  0.00  0.00     0.035 A 
ATOM     14  C   UNL d   1      -3.342  -5.821   1.772  0.00  0.00     0.026 A 
ATOM     15 CL   UNL d   1      -3.195  -7.558   3.834  0.00  0.00    -0.084 Cl
ATOM     16  C   UNL d   1      -2.923  -4.704   1.049  0.00  0.00     0.041 A 
ENDBRANCH   8   9
ENDBRANCH   6   8
ENDBRANCH   4   6
BRANCH   1  17
ATOM     17  C   UNL d   1      -0.314   2.647   0.183  0.00  0.00     0.424 C 
ATOM     18  F   UNL d   1      -1.591   2.767   0.640  0.00  0.00    -0.166 F 
ATOM     19  F   UNL d   1       0.442   3.458   0.966  0.00  0.00    -0.166 F 
ATOM     20  F   UNL d   1      -0.315   3.186  -1.066  0.00  0.00    -0.166 F 
ENDBRANCH   1  17
BRANCH   3  21
ATOM     21  C   UNL d   1       2.706   1.486  -0.056  0.00  0.00    -0.025 A 
ATOM     22  C   UNL d   1       3.884   0.972   0.517  0.00  0.00     0.012 A 
ATOM     23  C   UNL d   1       5.094   1.671   0.442  0.00  0.00     0.001 A 
ATOM     24  C   UNL d   1       5.146   2.908  -0.190  0.00  0.00     0.000 A 
ATOM     25  C   UNL d   1       3.992   3.436  -0.759  0.00  0.00     0.001 A 
ATOM     26  C   UNL d   1       2.788   2.723  -0.709  0.00  0.00     0.012 A 
ENDBRANCH   3  21
TORSDOF 5
