REMARK  6 active torsions:
REMARK  status: ('A' for Active; 'I' for Inactive)
REMARK    1  A    between atoms: N_6  and  C_1 
REMARK    2  A    between atoms: C_8  and  C_2 
REMARK    3  A    between atoms: C_10  and  C_5 
REMARK       I    between atoms: C_7  and  N_6 
REMARK    4  A    between atoms: C_9  and  C_7 
REMARK    5  A    between atoms: O_15  and  C_8 
REMARK    6  A    between atoms: C_22  and  O_15 
ROOT
ATOM      1  C   UNL d   1       0.355   1.101   0.281  0.00  0.00     0.094 A 
ATOM      2  C   UNL d   1       1.542   0.441   0.552  0.00  0.00     0.074 A 
ATOM      3  S   UNL d   1      -0.867   0.005  -0.224  0.00  0.00    -0.071 SA
ATOM      4  C   UNL d   1       1.363  -0.984   0.442  0.00  0.00     0.040 A 
ATOM      5  C   UNL d   1       0.101  -1.364   0.054  0.00  0.00     0.018 A 
ENDROOT
BRANCH   1   6
ATOM      6  N   UNL d   1       0.054   2.465   0.266  0.00  0.00    -0.316 N 
ATOM      7  C   UNL d   1      -1.228   2.934   0.546  0.00  0.00     0.256 C 
ATOM      8  O   UNL d   1      -2.101   2.281   1.115  0.00  0.00    -0.267 OA
ATOM      9  H   UNL d   1       0.834   3.114   0.294  0.00  0.00     0.169 HD
BRANCH   7  10
ATOM     10  C   UNL d   1      -1.574   4.340   0.165  0.00  0.00     0.032 A 
ATOM     11  C   UNL d   1      -0.785   5.130  -0.682  0.00  0.00     0.020 A 
ATOM     12  C   UNL d   1      -1.242   6.401  -1.072  0.00  0.00     0.043 A 
ATOM     13  C   UNL d   1      -2.476   6.870  -0.626  0.00  0.00     0.116 A 
ATOM     14  C   UNL d   1      -3.269   6.101   0.211  0.00  0.00     0.043 A 
ATOM     15  F   UNL d   1      -2.909   8.073  -1.023  0.00  0.00    -0.206 F 
ATOM     16  C   UNL d   1      -2.816   4.841   0.605  0.00  0.00     0.020 A 
ENDBRANCH   7  10
ENDBRANCH   1   6
BRANCH   2  17
ATOM     17  C   UNL d   1       2.823   1.022   0.924  0.00  0.00     0.296 C 
ATOM     18  O   UNL d   1       3.208   2.132   0.569  0.00  0.00    -0.259 OA
BRANCH  17  19
ATOM     19  O   UNL d   1       3.555   0.123   1.641  0.00  0.00    -0.318 OA
BRANCH  19  20
ATOM     20  C   UNL d   1       4.940  -0.038   1.317  0.00  0.00     0.174 C 
ATOM     21  C   UNL d   1       5.685  -0.484   2.563  0.00  0.00     0.034 C 
ENDBRANCH  19  20
ENDBRANCH  17  19
ENDBRANCH   2  17
BRANCH   5  22
ATOM     22  C   UNL d   1      -0.401  -2.727  -0.131  0.00  0.00    -0.019 A 
ATOM     23  C   UNL d   1       0.419  -3.698  -0.728  0.00  0.00     0.013 A 
ATOM     24  C   UNL d   1      -0.001  -5.025  -0.825  0.00  0.00     0.001 A 
ATOM     25  C   UNL d   1      -1.248  -5.396  -0.329  0.00  0.00     0.000 A 
ATOM     26  C   UNL d   1      -2.078  -4.441   0.254  0.00  0.00     0.001 A 
ATOM     27  C   UNL d   1      -1.659  -3.114   0.354  0.00  0.00     0.013 A 
ENDBRANCH   5  22
TORSDOF 6
