REMARK  3 active torsions:
REMARK  status: ('A' for Active; 'I' for Inactive)
REMARK    1  A    between atoms: O_11  and  C_2 
REMARK    2  A    between atoms: C_14  and  O_11 
REMARK    3  A    between atoms: C_16  and  C_14 
ROOT
ATOM      1  C   UNL d   1      -0.037   0.756   0.029  0.00  0.00     0.042 A 
ATOM      2  C   UNL d   1       1.183   1.435   0.029  0.00  0.00     0.156 A 
ATOM      3  C   UNL d   1       0.067  -0.640   0.021  0.00  0.00     0.049 A 
ATOM      4  N   UNL d   1       2.385   0.837   0.029  0.00  0.00    -0.332 N 
ATOM      5  HN  UNL d   1       3.259   1.362   0.026  1.00  0.00     0.168 HD
ATOM      6  N   UNL d   1       1.250  -1.268   0.026  0.00  0.00    -0.351 N 
ATOM      7  HN  UNL d   1       1.312  -2.286   0.025  1.00  0.00     0.166 HD
ATOM      8  C   UNL d   1      -1.306   1.381   0.017  0.00  0.00     0.020 A 
ATOM      9  C   UNL d   1      -1.103  -1.386   0.005  0.00  0.00     0.054 A 
ATOM     10  C   UNL d   1       2.351  -0.501   0.032  0.00  0.00     0.182 A 
ATOM     11  C   UNL d   1      -2.357  -0.772  -0.015  0.00  0.00     0.036 A 
ATOM     12  C   UNL d   1      -2.465   0.614  -0.010  0.00  0.00     0.025 A 
ATOM     13 CL   UNL d   1      -3.782  -1.736  -0.052  0.00  0.00    -0.084 Cl
ENDROOT
BRANCH   2  14
ATOM     14  O   UNL d   1       1.129   2.813   0.096  0.00  0.00    -0.330 OA
BRANCH  14  15
ATOM     15  C   UNL d   1       2.285   3.452  -0.436  0.00  0.00     0.216 C 
BRANCH  15  16
ATOM     16  C   UNL d   1       2.059   4.940  -0.303  0.00  0.00    -0.034 A 
ATOM     17  C   UNL d   1       2.552   5.632   0.815  0.00  0.00     0.012 A 
ATOM     18  C   UNL d   1       2.309   6.998   0.962  0.00  0.00     0.043 A 
ATOM     19  C   UNL d   1       1.567   7.671  -0.001  0.00  0.00     0.116 A 
ATOM     20  C   UNL d   1       1.059   7.003  -1.108  0.00  0.00     0.043 A 
ATOM     21  F   UNL d   1       1.331   8.981   0.145  0.00  0.00    -0.206 F 
ATOM     22  C   UNL d   1       1.301   5.636  -1.259  0.00  0.00     0.012 A 
ENDBRANCH  15  16
ENDBRANCH  14  15
ENDBRANCH   2  14
TORSDOF 3
