REMARK  1 active torsions:
REMARK  status: ('A' for Active; 'I' for Inactive)
REMARK    1  A    between atoms: N_12  and  C_6 
ROOT
ATOM      1  C   UNL d   1      -1.514  -0.816  -0.025  0.00  0.00     0.089 A 
ATOM      2  C   UNL d   1      -0.989   0.447  -0.270  0.00  0.00     0.043 A 
ATOM      3  S   UNL d   1      -0.353  -2.054  -0.079  0.00  0.00    -0.075 SA
ATOM      4  C   UNL d   1       0.450   0.361  -0.480  0.00  0.00    -0.029 A 
ATOM      5  C   UNL d   1       0.903  -0.948  -0.384  0.00  0.00    -0.008 A 
ATOM      6  C   UNL d   1      -1.938   1.493  -0.252  0.00  0.00     0.092 A 
ATOM      7  N   UNL d   1      -2.793  -1.125   0.244  0.00  0.00    -0.346 N 
ATOM      8  HN  UNL d   1      -3.124  -2.074   0.420  1.00  0.00     0.167 HD
ATOM      9  N   UNL d   1      -3.229   1.219   0.022  0.00  0.00    -0.343 N 
ATOM     10  HN  UNL d   1      -3.924   1.965   0.052  1.00  0.00     0.167 HD
ATOM     11  C   UNL d   1      -3.581  -0.052   0.255  0.00  0.00     0.182 A 
ATOM     12  C   UNL d   1       1.410   1.492  -0.716  0.00  0.00     0.040 C 
ATOM     13  C   UNL d   1       2.324  -1.419  -0.481  0.00  0.00     0.046 C 
ATOM     14  C   UNL d   1       2.390   1.653   0.451  0.00  0.00     0.005 C 
ATOM     15  C   UNL d   1       3.187  -0.816   0.631  0.00  0.00     0.005 C 
ATOM     16  C   UNL d   1       3.556   0.658   0.423  0.00  0.00     0.001 C 
ENDROOT
BRANCH   6  17
ATOM     17  N   UNL d   1      -1.669   2.836  -0.481  0.00  0.00    -0.288 NA
ATOM     18  H   UNL d   1      -0.780   3.162  -0.130  0.00  0.00     0.125 HD
ATOM     19  H   UNL d   1      -2.467   3.394  -0.194  0.00  0.00     0.125 HD
ENDBRANCH   6  17
TORSDOF 1
