REMARK  1 active torsions:
REMARK  status: ('A' for Active; 'I' for Inactive)
REMARK    1  A    between atoms: C_6  and  N_1 
ROOT
ATOM      1  N   UNL d   1      -2.382  -0.781  -0.001  0.00  0.00    -0.241 N 
ATOM      2  C   UNL d   1      -1.299  -1.619   0.200  0.00  0.00     0.284 A 
ATOM      3  C   UNL d   1      -1.956   0.523  -0.197  0.00  0.00     0.284 A 
ATOM      4  C   UNL d   1      -0.105  -0.786   0.132  0.00  0.00     0.134 A 
ATOM      5  C   UNL d   1      -0.497   0.501  -0.101  0.00  0.00     0.134 A 
ATOM      6  N   UNL d   1       1.178  -1.184   0.242  0.00  0.00    -0.358 N 
ATOM      7  HN  UNL d   1       1.457  -2.151   0.409  1.00  0.00     0.165 HD
ATOM      8  N   UNL d   1       0.357   1.535  -0.232  0.00  0.00    -0.358 N 
ATOM      9  HN  UNL d   1       0.058   2.496  -0.400  1.00  0.00     0.165 HD
ATOM     10  O   UNL d   1      -1.246  -2.827   0.358  0.00  0.00    -0.265 OA
ATOM     11  O   UNL d   1      -2.593   1.543  -0.387  0.00  0.00    -0.265 OA
ATOM     12  C   UNL d   1       1.660   1.163  -0.118  0.00  0.00     0.105 A 
ATOM     13  C   UNL d   1       2.060  -0.160   0.107  0.00  0.00     0.105 A 
ENDROOT
BRANCH   1  14
ATOM     14  C   UNL d   1      -3.737  -1.222  -0.057  0.00  0.00     0.046 A 
ATOM     15  C   UNL d   1      -4.119  -2.462   0.485  0.00  0.00     0.032 A 
ATOM     16  C   UNL d   1      -5.433  -2.934   0.380  0.00  0.00     0.026 A 
ATOM     17  C   UNL d   1      -6.391  -2.172  -0.275  0.00  0.00     0.034 A 
ATOM     18  C   UNL d   1      -6.049  -0.929  -0.797  0.00  0.00     0.026 A 
ATOM     19 CL   UNL d   1      -7.994  -2.768  -0.445  0.00  0.00    -0.084 Cl
ATOM     20  C   UNL d   1      -4.736  -0.455  -0.678  0.00  0.00     0.032 A 
ENDBRANCH   1  14
TORSDOF 1
