REMARK  5 active torsions:
REMARK  status: ('A' for Active; 'I' for Inactive)
REMARK    1  A    between atoms: C_2  and  C_1 
REMARK    2  A    between atoms: C_4  and  C_2 
REMARK    3  A    between atoms: S_8  and  C_3 
REMARK    4  A    between atoms: C_9  and  S_8 
REMARK    5  A    between atoms: O_19  and  C_11 
ROOT
ATOM      1  C   UNL d   1       1.159   0.067  -0.048  0.00  0.00     0.062 C 
ATOM      2  C   UNL d   1       0.569  -0.780   0.803  0.00  0.00     0.054 C 
ENDROOT
BRANCH   1   3
ATOM      3  C   UNL d   1       0.360   0.844  -1.032  0.00  0.00     0.182 C 
ATOM      4  O   UNL d   1      -0.855   0.964  -0.935  0.00  0.00    -0.288 OA
BRANCH   3   5
ATOM      5  C   UNL d   1       1.116   1.520  -2.123  0.00  0.00     0.014 A 
ATOM      6  C   UNL d   1       2.303   0.978  -2.637  0.00  0.00     0.018 A 
ATOM      7  C   UNL d   1       3.026   1.664  -3.618  0.00  0.00     0.037 A 
ATOM      8  C   UNL d   1       2.566   2.889  -4.098  0.00  0.00     0.068 A 
ATOM      9  C   UNL d   1       1.348   3.395  -3.637  0.00  0.00     0.037 A 
ATOM     10  C   UNL d   1       0.624   2.717  -2.651  0.00  0.00     0.018 A 
BRANCH   8  11
ATOM     11  O   UNL d   1       3.204   3.642  -5.045  0.00  0.00    -0.356 OA
ATOM     12  C   UNL d   1       4.626   3.544  -5.037  0.00  0.00     0.210 C 
ENDBRANCH   8  11
ENDBRANCH   3   5
ENDBRANCH   1   3
BRANCH   2  13
ATOM     13  S   UNL d   1       1.525  -1.742   1.883  0.00  0.00    -0.102 SA
BRANCH  13  14
ATOM     14  C   UNL d   1       0.815  -1.272   3.449  0.00  0.00     0.004 A 
ATOM     15  C   UNL d   1       0.284  -2.262   4.284  0.00  0.00     0.020 A 
ATOM     16  C   UNL d   1      -0.204  -1.931   5.552  0.00  0.00     0.025 A 
ATOM     17  C   UNL d   1      -0.154  -0.610   5.990  0.00  0.00     0.034 A 
ATOM     18  C   UNL d   1       0.375   0.384   5.169  0.00  0.00     0.025 A 
ATOM     19 CL   UNL d   1      -0.732  -0.205   7.559  0.00  0.00    -0.084 Cl
ATOM     20  C   UNL d   1       0.862   0.052   3.901  0.00  0.00     0.020 A 
ENDBRANCH  13  14
ENDBRANCH   2  13
TORSDOF 5
