REMARK  4 active torsions:
REMARK  status: ('A' for Active; 'I' for Inactive)
REMARK    1  A    between atoms: C_7  and  C_1 
REMARK    2  A    between atoms: C_13  and  N_4 
REMARK       I    between atoms: N_9  and  C_7 
REMARK    3  A    between atoms: C_14  and  C_10 
REMARK    4  A    between atoms: O_20  and  C_10 
ROOT
ATOM      1  C   UNL d   1      -0.502  -2.658   0.009  0.00  0.00     0.273 C 
ATOM      2  N   UNL d   1      -1.800  -3.184  -0.005  0.00  0.00    -0.346 N 
ATOM      3  C   UNL d   1      -3.483  -5.436  -0.824  0.00  0.00     0.088 C 
ATOM      4  C   UNL d   1      -3.011  -4.330  -1.792  0.00  0.00     0.063 C 
ATOM      5  C   UNL d   1      -2.496  -5.515   0.370  0.00  0.00     0.063 C 
ATOM      6  C   UNL d   1      -2.215  -4.150   0.999  0.00  0.00     0.129 C 
ATOM      7  C   UNL d   1      -2.762  -3.002  -1.085  0.00  0.00     0.129 C 
ATOM      8  O   UNL d   1       0.388  -3.134   0.713  0.00  0.00    -0.266 OA
ENDROOT
BRANCH   1   9
ATOM      9  C   UNL d   1      -0.225  -1.516  -0.872  0.00  0.00     0.141 C 
ATOM     10  N   UNL d   1      -1.113  -0.529  -1.095  0.00  0.00    -0.272 N 
ATOM     11  N   UNL d   1      -0.505   0.220  -2.041  0.00  0.00    -0.196 N 
ATOM     12  HN  UNL d   1      -2.023  -0.383  -0.657  1.00  0.00     0.189 HD
ATOM     13  N   UNL d   1       0.760  -0.149  -2.368  0.00  0.00    -0.281 N 
ATOM     14  C   UNL d   1       0.958  -1.222  -1.590  0.00  0.00     0.057 C 
ATOM     15  HN  UNL d   1       1.398   0.282  -3.038  1.00  0.00     0.189 HD
ATOM     16  C   UNL d   1       2.250  -1.944  -1.599  0.00  0.00     0.072 C 
BRANCH  11  17
ATOM     17  C   UNL d   1      -1.182   1.291  -2.677  0.00  0.00     0.074 A 
ATOM     18  C   UNL d   1      -2.442   1.697  -2.208  0.00  0.00     0.033 A 
ATOM     19  C   UNL d   1      -3.106   2.758  -2.824  0.00  0.00     0.002 A 
ATOM     20  C   UNL d   1      -2.526   3.403  -3.916  0.00  0.00     0.000 A 
ATOM     21  C   UNL d   1      -1.282   2.989  -4.396  0.00  0.00     0.002 A 
ATOM     22  C   UNL d   1      -0.604   1.938  -3.776  0.00  0.00     0.033 A 
ENDBRANCH  11  17
ENDBRANCH   1   9
BRANCH   3  23
ATOM     23  C   UNL d   1      -3.701  -6.782  -1.540  0.00  0.00    -0.024 A 
ATOM     24  C   UNL d   1      -3.571  -8.006  -0.860  0.00  0.00     0.012 A 
ATOM     25  C   UNL d   1      -3.815  -9.229  -1.496  0.00  0.00     0.024 A 
ATOM     26  C   UNL d   1      -4.211  -9.250  -2.829  0.00  0.00     0.034 A 
ATOM     27  C   UNL d   1      -4.365  -8.060  -3.526  0.00  0.00     0.024 A 
ATOM     28 CL   UNL d   1      -4.526 -10.750  -3.610  0.00  0.00    -0.084 Cl
ATOM     29  C   UNL d   1      -4.121  -6.840  -2.885  0.00  0.00     0.012 A 
ENDBRANCH   3  23
BRANCH   3  30
ATOM     30  O   UNL d   1      -4.759  -5.032  -0.306  0.00  0.00    -0.385 OA
ATOM     31  H   UNL d   1      -5.450  -5.423  -0.869  0.00  0.00     0.211 HD
ENDBRANCH   3  30
TORSDOF 4
