REMARK  6 active torsions:
REMARK  status: ('A' for Active; 'I' for Inactive)
REMARK    1  A    between atoms: C_10  and  C_2 
REMARK    2  A    between atoms: S_8  and  C_5 
REMARK    3  A    between atoms: C_14  and  S_8 
REMARK    4  A    between atoms: C_9  and  C_14 
REMARK    5  A    between atoms: O_16  and  C_9 
REMARK    6  A    between atoms: C_21  and  O_16 
ROOT
ATOM      1  N   UNL d   1       0.893  -0.021   0.022  0.00  0.00    -0.315 N 
ATOM      2  C   UNL d   1       0.042   1.061  -0.091  0.00  0.00     0.134 A 
ATOM      3  N   UNL d   1      -1.201   0.597  -0.111  0.00  0.00    -0.283 N 
ATOM      4  HN  UNL d   1      -2.046   1.166  -0.149  1.00  0.00     0.188 HD
ATOM      5  C   UNL d   1       0.093  -1.132  -0.002  0.00  0.00     0.163 A 
ATOM      6  N   UNL d   1      -1.165  -0.776  -0.072  0.00  0.00    -0.278 N 
ATOM      7  HN  UNL d   1      -1.969  -1.403  -0.093  1.00  0.00     0.189 HD
ATOM      8  C   UNL d   1       2.323  -0.019   0.185  0.00  0.00     0.160 C 
ENDROOT
BRANCH   2   9
ATOM      9  C   UNL d   1       0.396   2.482  -0.121  0.00  0.00     0.012 A 
ATOM     10  C   UNL d   1       1.501   2.970  -0.823  0.00  0.00     0.032 A 
ATOM     11  C   UNL d   1       1.776   4.329  -0.768  0.00  0.00     0.088 A 
ATOM     12  N   UNL d   1       1.023   5.223  -0.095  0.00  0.00    -0.375 N 
ATOM     13  C   UNL d   1      -0.067   4.741   0.537  0.00  0.00     0.088 A 
ATOM     14  HN  UNL d   1       1.266   6.213  -0.066  1.00  0.00     0.164 HD
ATOM     15  C   UNL d   1      -0.418   3.401   0.550  0.00  0.00     0.032 A 
ENDBRANCH   2   9
BRANCH   5  16
ATOM     16  S   UNL d   1       0.700  -2.754   0.043  0.00  0.00    -0.083 SA
BRANCH  16  17
ATOM     17  C   UNL d   1      -0.653  -3.640  -0.786  0.00  0.00     0.193 C 
BRANCH  17  18
ATOM     18  C   UNL d   1      -0.893  -3.116  -2.186  0.00  0.00     0.268 C 
ATOM     19  O   UNL d   1      -0.062  -2.577  -2.907  0.00  0.00    -0.264 OA
BRANCH  18  20
ATOM     20  O   UNL d   1      -2.193  -3.351  -2.531  0.00  0.00    -0.321 OA
BRANCH  20  21
ATOM     21  C   UNL d   1      -2.671  -2.612  -3.663  0.00  0.00     0.174 C 
ATOM     22  C   UNL d   1      -3.153  -1.255  -3.184  0.00  0.00     0.034 C 
ENDBRANCH  20  21
ENDBRANCH  18  20
ENDBRANCH  17  18
ENDBRANCH  16  17
ENDBRANCH   5  16
TORSDOF 6
