REMARK  5 active torsions:
REMARK  status: ('A' for Active; 'I' for Inactive)
REMARK    1  A    between atoms: S_10  and  C_4 
REMARK    2  A    between atoms: S_12  and  C_4 
REMARK    3  A    between atoms: C_7  and  C_6 
REMARK    4  A    between atoms: C_9  and  C_7 
REMARK    5  A    between atoms: C_8  and  S_10 
ROOT
ATOM      1  N   UNL d   1       1.122  -0.019  -0.094  0.00  0.00    -0.282 N 
ATOM      2  HN  UNL d   1       0.666  -0.791   0.392  1.00  0.00     0.179 HD
ATOM      3  C   UNL d   1       0.431   0.749  -0.941  0.00  0.00     0.183 C 
ATOM      4  C   UNL d   1       2.374   0.227   0.103  0.00  0.00     0.120 C 
ATOM      5  N   UNL d   1      -0.182   1.405  -1.673  0.00  0.00    -0.172 NA
ENDROOT
BRANCH   4   6
ATOM      6  S   UNL d   1       3.324  -0.827   1.153  0.00  0.00    -0.076 SA
BRANCH   6   7
ATOM      7  C   UNL d   1       2.168  -1.545   2.226  0.00  0.00     0.056 C 
ATOM      8  C   UNL d   1       2.565  -2.462   3.120  0.00  0.00     0.063 C 
BRANCH   8   9
ATOM      9  C   UNL d   1       1.577  -3.074   4.045  0.00  0.00     0.182 C 
ATOM     10  O   UNL d   1       0.493  -2.549   4.272  0.00  0.00    -0.288 OA
BRANCH   9  11
ATOM     11  C   UNL d   1       1.964  -4.339   4.728  0.00  0.00     0.014 A 
ATOM     12  C   UNL d   1       1.418  -4.609   5.990  0.00  0.00     0.017 A 
ATOM     13  C   UNL d   1       1.733  -5.799   6.653  0.00  0.00     0.020 A 
ATOM     14  C   UNL d   1       2.583  -6.724   6.049  0.00  0.00     0.011 A 
ATOM     15  C   UNL d   1       3.124  -6.469   4.789  0.00  0.00     0.020 A 
ATOM     16 BR   UNL d   1       2.992  -8.343   6.933  0.00  0.00    -0.051 Br
ATOM     17  C   UNL d   1       2.813  -5.278   4.126  0.00  0.00     0.017 A 
ENDBRANCH   9  11
ENDBRANCH   8   9
ENDBRANCH   6   7
ENDBRANCH   4   6
BRANCH   4  18
ATOM     18  S   UNL d   1       3.315   1.502  -0.656  0.00  0.00    -0.109 SA
ATOM     19  C   UNL d   1       3.651   2.537   0.786  0.00  0.00     0.097 C 
ENDBRANCH   4  18
TORSDOF 5
