REMARK  7 active torsions:
REMARK  status: ('A' for Active; 'I' for Inactive)
REMARK    1  A    between atoms: C_8  and  N_1 
REMARK    2  A    between atoms: S_10  and  C_2 
REMARK    3  A    between atoms: C_16  and  C_7 
REMARK    4  A    between atoms: C_11  and  C_20 
REMARK    5  A    between atoms: S_14  and  C_16 
REMARK    6  A    between atoms: C_20  and  S_14 
REMARK    7  A    between atoms: O_21  and  C_17 
ROOT
ATOM      1  N   UNL d   1      -0.461   0.590  -0.144  0.00  0.00    -0.279 N 
ATOM      2  C   UNL d   1       0.765  -0.066  -0.229  0.00  0.00     0.164 A 
ATOM      3  N   UNL d   1       0.593  -1.365  -0.246  0.00  0.00    -0.278 N 
ATOM      4  HN  UNL d   1       1.328  -2.066  -0.330  1.00  0.00     0.189 HD
ATOM      5  N   UNL d   1      -0.738  -1.612  -0.132  0.00  0.00    -0.286 N 
ATOM      6  HN  UNL d   1      -1.167  -2.537  -0.099  1.00  0.00     0.188 HD
ATOM      7  C   UNL d   1      -1.388  -0.462  -0.070  0.00  0.00     0.114 A 
ENDROOT
BRANCH   7   8
ATOM      8  C   UNL d   1      -2.877  -0.332  -0.003  0.00  0.00     0.152 C 
BRANCH   8   9
ATOM      9  S   UNL d   1      -3.800  -1.799  -0.615  0.00  0.00    -0.157 SA
BRANCH   9  10
ATOM     10  C   UNL d   1      -3.557  -2.925   0.796  0.00  0.00     0.113 C 
BRANCH  10  11
ATOM     11  C   UNL d   1      -4.099  -4.329   0.576  0.00  0.00    -0.038 A 
ATOM     12  C   UNL d   1      -5.340  -4.782   1.115  0.00  0.00    -0.019 A 
ATOM     13  C   UNL d   1      -5.647  -6.170   1.048  0.00  0.00    -0.025 A 
ATOM     14  C   UNL d   1      -6.294  -3.939   1.731  0.00  0.00     0.013 A 
ATOM     15  C   UNL d   1      -6.816  -6.665   1.652  0.00  0.00     0.012 A 
ATOM     16  C   UNL d   1      -4.781  -7.051   0.387  0.00  0.00     0.012 A 
ATOM     17  C   UNL d   1      -7.715  -5.810   2.286  0.00  0.00     0.001 A 
ATOM     18  C   UNL d   1      -7.465  -4.445   2.306  0.00  0.00     0.001 A 
ATOM     19  C   UNL d   1      -3.612  -6.587  -0.209  0.00  0.00     0.001 A 
ATOM     20  C   UNL d   1      -3.270  -5.241  -0.106  0.00  0.00     0.009 A 
ENDBRANCH  10  11
ENDBRANCH   9  10
ENDBRANCH   8   9
ENDBRANCH   7   8
BRANCH   1  21
ATOM     21  C   UNL d   1      -0.697   2.002  -0.106  0.00  0.00     0.043 A 
ATOM     22  C   UNL d   1       0.101   2.875  -0.862  0.00  0.00     0.033 A 
ATOM     23  C   UNL d   1      -0.043   4.265  -0.751  0.00  0.00     0.039 A 
ATOM     24  C   UNL d   1      -1.007   4.803   0.095  0.00  0.00     0.068 A 
ATOM     25  C   UNL d   1      -1.835   3.935   0.811  0.00  0.00     0.039 A 
ATOM     26  C   UNL d   1      -1.687   2.544   0.719  0.00  0.00     0.033 A 
BRANCH  24  27
ATOM     27  O   UNL d   1      -1.240   6.133   0.308  0.00  0.00    -0.356 OA
ATOM     28  C   UNL d   1      -0.361   7.058  -0.324  0.00  0.00     0.210 C 
ENDBRANCH  24  27
ENDBRANCH   1  21
BRANCH   2  29
ATOM     29  S   UNL d   1       2.348   0.642  -0.102  0.00  0.00    -0.105 SA
ATOM     30  H   UNL d   1       2.032   1.767   0.554  0.00  0.00     0.110 HD
ENDBRANCH   2  29
TORSDOF 7
