REMARK  2 active torsions:
REMARK  status: ('A' for Active; 'I' for Inactive)
REMARK    1  A    between atoms: C_6  and  C_1 
REMARK    2  A    between atoms: C_10  and  C_6 
ROOT
ATOM      1  C   UNL d   1      -2.383   0.097  -0.005  0.00  0.00     0.128 A 
ATOM      2  O   UNL d   1      -1.573  -1.004  -0.013  0.00  0.00    -0.304 OA
ATOM      3  C   UNL d   1      -0.283  -0.569  -0.024  0.00  0.00     0.104 A 
ATOM      4  C   UNL d   1      -0.251   0.821  -0.026  0.00  0.00     0.003 A 
ATOM      5  C   UNL d   1      -1.609   1.241  -0.044  0.00  0.00     0.055 A 
ATOM      6  C   UNL d   1       0.860  -1.369  -0.022  0.00  0.00     0.047 A 
ATOM      7  C   UNL d   1       2.097  -0.720  -0.011  0.00  0.00     0.041 A 
ATOM      8  C   UNL d   1       0.999   1.466  -0.010  0.00  0.00     0.033 A 
ATOM      9  C   UNL d   1       2.158   0.675  -0.002  0.00  0.00     0.013 A 
ATOM     10 BR   UNL d   1       0.756  -3.251  -0.025  0.00  0.00    -0.048 Br
ATOM     11 BR   UNL d   1       3.850   1.525   0.025  0.00  0.00    -0.051 Br
ENDROOT
BRANCH   1  12
ATOM     12  C   UNL d   1      -3.820  -0.081   0.019  0.00  0.00     0.215 C 
ATOM     13  O   UNL d   1      -4.607   0.749  -0.432  0.00  0.00    -0.284 OA
BRANCH  12  14
ATOM     14  C   UNL d   1      -4.379  -1.309   0.659  0.00  0.00     0.017 A 
ATOM     15  C   UNL d   1      -5.574  -1.852   0.168  0.00  0.00     0.018 A 
ATOM     16  C   UNL d   1      -6.126  -2.985   0.775  0.00  0.00     0.043 A 
ATOM     17  C   UNL d   1      -5.489  -3.558   1.870  0.00  0.00     0.116 A 
ATOM     18  C   UNL d   1      -4.312  -3.021   2.378  0.00  0.00     0.043 A 
ATOM     19  F   UNL d   1      -6.023  -4.638   2.454  0.00  0.00    -0.206 F 
ATOM     20  C   UNL d   1      -3.757  -1.891   1.776  0.00  0.00     0.018 A 
ENDBRANCH  12  14
ENDBRANCH   1  12
TORSDOF 2
