REMARK  4 active torsions:
REMARK  status: ('A' for Active; 'I' for Inactive)
REMARK    1  A    between atoms: N_2  and  S_1 
REMARK    2  A    between atoms: C_3  and  S_1 
REMARK    3  A    between atoms: C_6  and  N_4 
REMARK    4  A    between atoms: O_20  and  C_16 
ROOT
ATOM      1  N   UNL d   1       0.347  -1.239   0.228  0.00  0.00    -0.304 N 
ATOM      2  N   UNL d   1       0.353  -3.452  -1.637  0.00  0.00    -0.376 N 
ATOM      3  C   UNL d   1       1.030  -2.535   0.581  0.00  0.00     0.155 C 
ATOM      4  C   UNL d   1      -0.736  -1.443  -0.774  0.00  0.00     0.155 C 
ATOM      5  C   UNL d   1       1.465  -3.351  -0.670  0.00  0.00     0.143 C 
ATOM      6  C   UNL d   1      -0.205  -2.147  -2.031  0.00  0.00     0.143 C 
ENDROOT
BRANCH   1   7
ATOM      7  S   UNL d   1       1.309   0.137   0.029  0.00  0.00     0.261 S 
ATOM      8  O   UNL d   1       0.640   1.071  -0.845  0.00  0.00    -0.200 OA
ATOM      9  O   UNL d   1       2.673  -0.289  -0.207  0.00  0.00    -0.200 OA
BRANCH   7  10
ATOM     10  C   UNL d   1       1.237   0.861   1.659  0.00  0.00     0.081 A 
ATOM     11  C   UNL d   1       2.409   1.086   2.383  0.00  0.00     0.050 A 
ATOM     12  C   UNL d   1       2.339   1.731   3.621  0.00  0.00     0.057 A 
ATOM     13 CL   UNL d   1       3.821   2.004   4.468  0.00  0.00    -0.083 Cl
ATOM     14  C   UNL d   1       1.100   2.145   4.133  0.00  0.00     0.055 A 
ATOM     15  C   UNL d   1      -0.069   1.908   3.402  0.00  0.00     0.027 A 
ATOM     16 CL   UNL d   1       0.947   2.963   5.648  0.00  0.00    -0.083 Cl
ATOM     17  C   UNL d   1      -0.003   1.270   2.163  0.00  0.00     0.027 A 
ENDBRANCH   7  10
ENDBRANCH   1   7
BRANCH   2  18
ATOM     18  C   UNL d   1       0.109  -4.585  -2.409  0.00  0.00     0.064 A 
ATOM     19  C   UNL d   1       0.043  -5.902  -1.882  0.00  0.00     0.094 A 
ATOM     20  C   UNL d   1      -0.390  -6.971  -2.693  0.00  0.00     0.039 A 
ATOM     21  C   UNL d   1      -0.725  -6.775  -4.031  0.00  0.00     0.003 A 
ATOM     22  C   UNL d   1      -0.604  -5.512  -4.582  0.00  0.00     0.002 A 
ATOM     23  C   UNL d   1      -0.186  -4.445  -3.784  0.00  0.00     0.032 A 
BRANCH  19  24
ATOM     24  O   UNL d   1       0.304  -6.082  -0.540  0.00  0.00    -0.354 OA
ATOM     25  C   UNL d   1       0.719  -7.393  -0.159  0.00  0.00     0.210 C 
ENDBRANCH  19  24
ENDBRANCH   2  18
TORSDOF 4
