REMARK  4 active torsions:
REMARK  status: ('A' for Active; 'I' for Inactive)
REMARK    1  A    between atoms: C_7  and  C_10 
REMARK    2  A    between atoms: C_8  and  C_11 
REMARK    3  A    between atoms: N_14  and  C_9 
REMARK    4  A    between atoms: C_17  and  N_14 
ROOT
ATOM      1  C   UNL d   1       7.028   0.078   1.722  0.00  0.00     0.050 A 
ATOM      2  C   UNL d   1       7.421  -1.602   0.002  0.00  0.00     0.050 A 
ATOM      3  C   UNL d   1       7.909  -0.683   0.941  0.00  0.00     0.032 A 
ATOM      4  C   UNL d   1       5.124  -1.014   0.626  0.00  0.00     0.033 A 
ATOM      5  C   UNL d   1       6.031  -1.773  -0.125  0.00  0.00     0.045 A 
ATOM      6  C   UNL d   1       5.643  -0.098   1.553  0.00  0.00     0.045 A 
ENDROOT
BRANCH   4   7
ATOM      7  N   UNL d   1       3.734  -1.189   0.549  0.00  0.00    -0.365 N 
ATOM      8  H   UNL d   1       3.168  -0.365   0.772  0.00  0.00     0.165 HD
BRANCH   7   9
ATOM      9  C   UNL d   1       3.042  -2.247   0.003  0.00  0.00     0.111 C 
ATOM     10  C   UNL d   1       1.741  -2.329  -0.325  0.00  0.00     0.115 A 
ATOM     11  C   UNL d   1       1.232  -3.606  -0.876  0.00  0.00     0.264 A 
ATOM     12  C   UNL d   1       0.829  -1.173  -0.172  0.00  0.00     0.264 A 
ATOM     13  N   UNL d   1      -0.086  -3.591  -1.251  0.00  0.00    -0.299 N 
ATOM     14  O   UNL d   1       1.917  -4.614  -1.003  0.00  0.00    -0.267 OA
ATOM     15  C   UNL d   1      -0.936  -2.531  -1.165  0.00  0.00     0.181 A 
ATOM     16  H   UNL d   1      -0.443  -4.458  -1.634  0.00  0.00     0.171 HD
ATOM     17  N   UNL d   1      -0.446  -1.378  -0.633  0.00  0.00    -0.299 N 
ATOM     18  S   UNL d   1      -2.510  -2.644  -1.685  0.00  0.00    -0.040 SA
ATOM     19  H   UNL d   1      -1.077  -0.590  -0.551  0.00  0.00     0.171 HD
ATOM     20  O   UNL d   1       1.170  -0.104   0.325  0.00  0.00    -0.267 OA
ENDBRANCH   7   9
ENDBRANCH   4   7
BRANCH   2  21
ATOM     21  C   UNL d   1       8.352  -2.387  -0.890  0.00  0.00     0.417 C 
ATOM     22  F   UNL d   1       9.666  -2.086  -0.702  0.00  0.00    -0.166 F 
ATOM     23  F   UNL d   1       8.245  -3.731  -0.707  0.00  0.00    -0.166 F 
ATOM     24  F   UNL d   1       8.106  -2.167  -2.212  0.00  0.00    -0.166 F 
ENDBRANCH   2  21
BRANCH   1  25
ATOM     25  C   UNL d   1       7.542   1.083   2.724  0.00  0.00     0.417 C 
ATOM     26  F   UNL d   1       8.902   1.145   2.779  0.00  0.00    -0.166 F 
ATOM     27  F   UNL d   1       7.123   2.349   2.449  0.00  0.00    -0.166 F 
ATOM     28  F   UNL d   1       7.128   0.817   3.993  0.00  0.00    -0.166 F 
ENDBRANCH   1  25
TORSDOF 4
