REMARK  8 active torsions:
REMARK  status: ('A' for Active; 'I' for Inactive)
REMARK    1  A    between atoms: C_4  and  C_1 
REMARK    2  A    between atoms: N_5  and  C_2 
REMARK    3  A    between atoms: C_9  and  C_4 
REMARK       I    between atoms: C_8  and  N_5 
REMARK    4  A    between atoms: C_21  and  C_7 
REMARK    5  A    between atoms: C_15  and  C_8 
REMARK    6  A    between atoms: O_14  and  C_15 
REMARK    7  A    between atoms: C_19  and  O_14 
REMARK    8  A    between atoms: O_20  and  C_16 
ROOT
ATOM      1  C   UNL d   1       1.600   0.718   0.154  0.00  0.00     0.050 C 
ATOM      2  C   UNL d   1       0.340   1.280   0.123  0.00  0.00     0.091 C 
ATOM      3  S   UNL d   1      -0.883   0.139  -0.190  0.00  0.00    -0.076 SA
ATOM      4  C   UNL d   1       1.491  -0.720   0.151  0.00  0.00     0.033 C 
ATOM      5  C   UNL d   1       0.197  -1.167  -0.011  0.00  0.00    -0.015 C 
ENDROOT
BRANCH   2   6
ATOM      6  N   UNL d   1      -0.016   2.612   0.145  0.00  0.00    -0.319 N 
ATOM      7  C   UNL d   1      -0.865   3.171   1.075  0.00  0.00     0.246 C 
ATOM      8  O   UNL d   1      -1.033   4.395   1.057  0.00  0.00    -0.271 OA
ATOM      9  H   UNL d   1       0.681   3.291  -0.149  0.00  0.00     0.169 HD
BRANCH   7  10
ATOM     10  C   UNL d   1      -1.480   2.314   2.183  0.00  0.00     0.278 C 
BRANCH  10  11
ATOM     11  O   UNL d   1      -2.733   1.783   1.789  0.00  0.00    -0.342 OA
BRANCH  11  12
ATOM     12  C   UNL d   1      -3.284   0.825   2.596  0.00  0.00     0.069 A 
ATOM     13  C   UNL d   1      -2.745   0.335   3.786  0.00  0.00     0.037 A 
ATOM     14  C   UNL d   1      -3.423  -0.650   4.511  0.00  0.00     0.003 A 
ATOM     15  C   UNL d   1      -4.643  -1.145   4.053  0.00  0.00     0.000 A 
ATOM     16  C   UNL d   1      -5.184  -0.661   2.865  0.00  0.00     0.003 A 
ATOM     17  C   UNL d   1      -4.503   0.318   2.139  0.00  0.00     0.037 A 
ENDBRANCH  11  12
ENDBRANCH  10  11
ENDBRANCH   7  10
ENDBRANCH   2   6
BRANCH   1  18
ATOM     18  C   UNL d   1       2.834   1.499   0.284  0.00  0.00     0.195 C 
ATOM     19  O   UNL d   1       2.856   2.639   0.732  0.00  0.00    -0.287 OA
BRANCH  18  20
ATOM     20  C   UNL d   1       4.102   0.863  -0.154  0.00  0.00     0.015 A 
ATOM     21  C   UNL d   1       5.237   0.952   0.658  0.00  0.00     0.018 A 
ATOM     22  C   UNL d   1       6.416   0.297   0.278  0.00  0.00     0.037 A 
ATOM     23  C   UNL d   1       6.460  -0.428  -0.915  0.00  0.00     0.068 A 
ATOM     24  C   UNL d   1       5.328  -0.495  -1.729  0.00  0.00     0.037 A 
ATOM     25  C   UNL d   1       4.157   0.164  -1.365  0.00  0.00     0.018 A 
BRANCH  23  26
ATOM     26  O   UNL d   1       7.529  -1.147  -1.370  0.00  0.00    -0.356 OA
ATOM     27  C   UNL d   1       8.809  -0.671  -0.972  0.00  0.00     0.210 C 
ENDBRANCH  23  26
ENDBRANCH  18  20
ENDBRANCH   1  18
BRANCH   5  28
ATOM     28  C   UNL d   1      -0.301  -2.579  -0.041  0.00  0.00     0.042 C 
ATOM     29  C   UNL d   1      -0.545  -3.105   1.366  0.00  0.00     0.010 C 
ENDBRANCH   5  28
TORSDOF 8
