REMARK  5 active torsions:
REMARK  status: ('A' for Active; 'I' for Inactive)
REMARK    1  A    between atoms: C_13  and  N_1 
REMARK    2  A    between atoms: N_2  and  C_14 
REMARK    3  A    between atoms: C_12  and  C_5 
REMARK    4  A    between atoms: O_23  and  C_12 
REMARK    5  A    between atoms: C_27  and  O_23 
ROOT
ATOM      1  C   UNL d   1       3.537  -0.045  -0.194  0.00  0.00     0.046 A 
ATOM      2  C   UNL d   1       6.384  -0.111  -0.273  0.00  0.00     0.056 A 
ATOM      3  C   UNL d   1       4.314   0.598   0.781  0.00  0.00     0.032 A 
ATOM      4  C   UNL d   1       4.222  -0.702  -1.227  0.00  0.00     0.032 A 
ATOM      5  C   UNL d   1       5.717   0.557   0.753  0.00  0.00     0.034 A 
ATOM      6  C   UNL d   1       5.626  -0.711  -1.285  0.00  0.00     0.034 A 
ENDROOT
BRANCH   2   7
ATOM      7  N   UNL d   1       7.808  -0.176  -0.332  0.00  0.00    -0.260 N 
ATOM      8  N   UNL d   1       8.412  -0.263  -1.542  0.00  0.00    -0.297 N 
ATOM      9  C   UNL d   1       9.720  -0.169  -1.295  0.00  0.00     0.041 A 
ATOM     10  HN  UNL d   1       7.961  -0.377  -2.450  1.00  0.00     0.187 HD
ATOM     11  C   UNL d   1      10.670  -0.113  -2.438  0.00  0.00     0.071 C 
ATOM     12  C   UNL d   1      10.002  -0.172   0.097  0.00  0.00     0.087 A 
ATOM     13  C   UNL d   1       8.743  -0.188   0.699  0.00  0.00     0.049 A 
ATOM     14  C   UNL d   1       8.384  -0.305   2.141  0.00  0.00     0.071 C 
BRANCH  12  15
ATOM     15  C   UNL d   1      11.296  -0.199   0.774  0.00  0.00     0.297 C 
ATOM     16  O   UNL d   1      11.426  -0.214   1.992  0.00  0.00    -0.259 OA
BRANCH  15  17
ATOM     17  O   UNL d   1      12.349  -0.229  -0.095  0.00  0.00    -0.318 OA
BRANCH  17  18
ATOM     18  C   UNL d   1      13.650  -0.362   0.498  0.00  0.00     0.174 C 
ATOM     19  C   UNL d   1      14.176   0.985   0.957  0.00  0.00     0.034 C 
ENDBRANCH  17  18
ENDBRANCH  15  17
ENDBRANCH  12  15
ENDBRANCH   2   7
BRANCH   1  20
ATOM     20  N   UNL d   1       2.113  -0.019  -0.140  0.00  0.00    -0.244 N 
ATOM     21  C   UNL d   1       1.369   0.898   0.576  0.00  0.00     0.266 A 
ATOM     22  C   UNL d   1      -0.038   0.578   0.354  0.00  0.00     0.048 A 
ATOM     23  O   UNL d   1       1.695   1.849   1.265  0.00  0.00    -0.267 OA
ATOM     24  C   UNL d   1      -1.180   1.205   0.817  0.00  0.00     0.018 A 
ATOM     25  C   UNL d   1      -0.092  -0.529  -0.463  0.00  0.00     0.048 A 
ATOM     26  C   UNL d   1      -2.410   0.659   0.437  0.00  0.00     0.001 A 
ATOM     27  C   UNL d   1      -2.467  -0.488  -0.379  0.00  0.00     0.001 A 
ATOM     28  C   UNL d   1      -1.295  -1.097  -0.841  0.00  0.00     0.018 A 
ATOM     29  C   UNL d   1       1.281  -0.910  -0.789  0.00  0.00     0.266 A 
ATOM     30  O   UNL d   1       1.518  -1.878  -1.486  0.00  0.00    -0.267 OA
ENDBRANCH   1  20
TORSDOF 5
