REMARK  4 active torsions:
REMARK  status: ('A' for Active; 'I' for Inactive)
REMARK    1  A    between atoms: C_13  and  C_3 
REMARK    2  A    between atoms: C_14  and  N_4 
REMARK    3  A    between atoms: C_15  and  C_10 
REMARK    4  A    between atoms: C_18  and  C_13 
ROOT
ATOM      1  C   UNL d   1      -1.458  -0.084   0.159  0.00  0.00     0.118 C 
ATOM      2  C   UNL d   1      -2.635   0.051  -0.488  0.00  0.00     0.106 A 
ATOM      3  C   UNL d   1       0.587   0.365   1.371  0.00  0.00     0.142 C 
ATOM      4  N   UNL d   1      -0.576  -1.180   0.342  0.00  0.00    -0.247 N 
ATOM      5  S   UNL d   1      -0.833   1.294   1.119  0.00  0.00    -0.046 SA
ATOM      6  N   UNL d   1       0.628  -0.869   1.000  0.00  0.00    -0.282 N 
ATOM      7  HN  UNL d   1       1.404  -1.512   1.157  1.00  0.00     0.188 HD
ATOM      8  N   UNL d   1      -4.566   0.817  -1.479  0.00  0.00    -0.256 N 
ATOM      9  HN  UNL d   1      -5.295   1.428  -1.849  1.00  0.00     0.195 HD
ATOM     10  C   UNL d   1      -3.469   1.204  -0.894  0.00  0.00     0.084 A 
ATOM     11  C   UNL d   1      -3.480  -1.106  -0.853  0.00  0.00     0.320 A 
ATOM     12  O   UNL d   1      -4.573  -0.603  -1.513  0.00  0.00    -0.194 OA
ATOM     13  O   UNL d   1      -3.347  -2.277  -0.545  0.00  0.00    -0.257 OA
ENDROOT
BRANCH   4  14
ATOM     14  C   UNL d   1      -0.477  -2.406  -0.376  0.00  0.00     0.057 A 
ATOM     15  C   UNL d   1      -0.729  -2.526  -1.750  0.00  0.00     0.033 A 
ATOM     16  C   UNL d   1      -0.628  -3.768  -2.393  0.00  0.00     0.026 A 
ATOM     17  C   UNL d   1      -0.240  -4.897  -1.677  0.00  0.00     0.034 A 
ATOM     18  C   UNL d   1       0.061  -4.798  -0.323  0.00  0.00     0.026 A 
ATOM     19 CL   UNL d   1      -0.117  -6.420  -2.469  0.00  0.00    -0.084 Cl
ATOM     20  C   UNL d   1      -0.053  -3.559   0.316  0.00  0.00     0.033 A 
ENDBRANCH   4  14
BRANCH  10  21
ATOM     21  C   UNL d   1      -3.197   2.647  -0.731  0.00  0.00    -0.006 C 
ATOM     22  C   UNL d   1      -4.268   3.471  -0.356  0.00  0.00     0.014 C 
ATOM     23  C   UNL d   1      -4.063   4.830  -0.110  0.00  0.00     0.001 C 
ATOM     24  C   UNL d   1      -2.784   5.371  -0.222  0.00  0.00     0.000 C 
ATOM     25  C   UNL d   1      -1.730   4.572  -0.659  0.00  0.00     0.001 C 
ATOM     26  C   UNL d   1      -1.949   3.226  -0.971  0.00  0.00     0.014 C 
ENDBRANCH  10  21
BRANCH   3  27
ATOM     27  C   UNL d   1       1.629   1.199   2.022  0.00  0.00     0.217 C 
ATOM     28  O   UNL d   1       2.060   2.186   1.439  0.00  0.00    -0.284 OA
BRANCH  27  29
ATOM     29  C   UNL d   1       2.171   0.765   3.329  0.00  0.00     0.017 A 
ATOM     30  C   UNL d   1       3.402   1.283   3.749  0.00  0.00     0.015 A 
ATOM     31  C   UNL d   1       3.957   0.865   4.956  0.00  0.00     0.001 A 
ATOM     32  C   UNL d   1       3.281  -0.060   5.752  0.00  0.00     0.000 A 
ATOM     33  C   UNL d   1       2.045  -0.563   5.344  0.00  0.00     0.001 A 
ATOM     34  C   UNL d   1       1.487  -0.154   4.135  0.00  0.00     0.015 A 
ENDBRANCH  27  29
ENDBRANCH   3  27
TORSDOF 4
