REMARK  7 active torsions:
REMARK  status: ('A' for Active; 'I' for Inactive)
REMARK    1  A    between atoms: C_6  and  C_1 
REMARK    2  A    between atoms: C_4  and  C_8 
REMARK    3  A    between atoms: C_19  and  C_7 
REMARK    4  A    between atoms: C_8  and  C_20 
REMARK    5  A    between atoms: O_18  and  C_8 
REMARK    6  A    between atoms: N_17  and  C_19 
REMARK    7  A    between atoms: C_20  and  N_17 
ROOT
ATOM      1  C   UNL d   1      -0.173  -0.752   0.821  0.00  0.00     0.091 A 
ATOM      2  N   UNL d   1       0.935  -0.070   1.055  0.00  0.00    -0.351 N 
ATOM      3  HN  UNL d   1       1.512  -0.169   1.890  1.00  0.00     0.166 HD
ATOM      4  S   UNL d   1      -0.925  -0.400  -0.691  0.00  0.00    -0.081 SA
ATOM      5  C   UNL d   1       1.203   0.803   0.002  0.00  0.00     0.044 A 
ATOM      6  C   UNL d   1       0.286   0.753  -1.032  0.00  0.00     0.078 A 
ENDROOT
BRANCH   5   7
ATOM      7  C   UNL d   1       2.440   1.650   0.028  0.00  0.00     0.327 C 
BRANCH   7   8
ATOM      8  N   UNL d   1       3.649   0.823   0.114  0.00  0.00     0.091 N 
ATOM      9  H   UNL d   1       3.578   0.259   0.964  0.00  0.00     0.316 HD
BRANCH   8  10
ATOM     10  C   UNL d   1       3.824  -0.057  -1.054  0.00  0.00     0.310 C 
BRANCH  10  11
ATOM     11  C   UNL d   1       5.103  -0.913  -0.970  0.00  0.00     0.253 C 
BRANCH  11  12
ATOM     12  C   UNL d   1       5.179  -1.868  -2.178  0.00  0.00     0.414 C 
ATOM     13  F   UNL d   1       6.285  -1.626  -2.922  0.00  0.00    -0.168 F 
ATOM     14  F   UNL d   1       5.229  -3.159  -1.782  0.00  0.00    -0.168 F 
ATOM     15  F   UNL d   1       4.118  -1.740  -3.008  0.00  0.00    -0.168 F 
ENDBRANCH  11  12
BRANCH  11  16
ATOM     16  O   UNL d   1       6.267  -0.063  -0.860  0.00  0.00    -0.385 OA
ATOM     17  H   UNL d   1       6.391   0.381  -1.718  0.00  0.00     0.210 HD
ENDBRANCH  11  16
ENDBRANCH  10  11
ENDBRANCH   8  10
ENDBRANCH   7   8
ENDBRANCH   5   7
BRANCH   1  18
ATOM     18  C   UNL d   1      -0.697  -1.710   1.772  0.00  0.00     0.038 A 
ATOM     19  S   UNL d   1      -2.109  -2.653   1.489  0.00  0.00    -0.099 SA
ATOM     20  C   UNL d   1      -2.005  -3.415   3.014  0.00  0.00     0.050 A 
ATOM     21  C   UNL d   1      -0.919  -2.980   3.732  0.00  0.00     0.008 A 
ATOM     22  C   UNL d   1      -0.163  -2.004   3.016  0.00  0.00     0.022 A 
ENDBRANCH   1  18
TORSDOF 7
