REMARK  3 active torsions:
REMARK  status: ('A' for Active; 'I' for Inactive)
REMARK    1  A    between atoms: N_2  and  S_1 
REMARK    2  A    between atoms: C_3  and  S_1 
REMARK    3  A    between atoms: C_17  and  C_12 
ROOT
ATOM      1  S   UNL d   1       1.253   0.105   0.024  0.00  0.00     0.261 S 
ATOM      2  O   UNL d   1       2.333   0.258   0.977  0.00  0.00    -0.200 OA
ATOM      3  O   UNL d   1       0.289   1.160  -0.172  0.00  0.00    -0.200 OA
ENDROOT
BRANCH   1   4
ATOM      4  N   UNL d   1       0.487  -1.399   0.382  0.00  0.00    -0.298 N 
ATOM      5  C   UNL d   1      -0.938  -1.617  -0.033  0.00  0.00     0.130 C 
ATOM      6  C   UNL d   1      -1.458  -2.950   0.559  0.00  0.00     0.031 C 
ATOM      7  C   UNL d   1      -0.560  -4.130   0.223  0.00  0.00     0.004 C 
ATOM      8  C   UNL d   1       0.837  -3.857   0.747  0.00  0.00     0.021 C 
ATOM      9  C   UNL d   1       1.385  -2.574   0.152  0.00  0.00     0.136 C 
BRANCH   5  10
ATOM     10  C   UNL d   1      -1.930  -0.562   0.426  0.00  0.00    -0.019 A 
ATOM     11  C   UNL d   1      -3.042  -0.256  -0.358  0.00  0.00     0.096 A 
ATOM     12  N   UNL d   1      -3.974   0.670  -0.039  0.00  0.00    -0.375 N 
ATOM     13  C   UNL d   1      -3.788   1.341   1.118  0.00  0.00     0.087 A 
ATOM     14  HN  UNL d   1      -4.777   0.853  -0.642  1.00  0.00     0.164 HD
ATOM     15  C   UNL d   1      -2.740   1.096   1.989  0.00  0.00     0.018 A 
ATOM     16  C   UNL d   1      -1.815   0.113   1.648  0.00  0.00     0.012 A 
ENDBRANCH   5  10
ENDBRANCH   1   4
BRANCH   1  17
ATOM     17  C   UNL d   1       2.024  -0.166  -1.573  0.00  0.00     0.082 A 
ATOM     18  C   UNL d   1       3.393  -0.503  -1.573  0.00  0.00     0.057 A 
ATOM     19  C   UNL d   1       3.964  -0.721  -2.846  0.00  0.00     0.068 A 
ATOM     20  N   UNL d   1       5.231  -1.090  -3.083  0.00  0.00    -0.310 N 
ATOM     21  C   UNL d   1       3.149  -0.558  -4.103  0.00  0.00     0.067 A 
ATOM     22  S   UNL d   1       5.387  -1.209  -4.732  0.00  0.00     0.068 SA
ATOM     23  HN  UNL d   1       5.957  -1.264  -2.387  1.00  0.00     0.176 HD
ATOM     24  N   UNL d   1       3.846  -0.811  -5.219  0.00  0.00    -0.310 N 
ATOM     25  HN  UNL d   1       3.500  -0.769  -6.178  1.00  0.00     0.176 HD
ATOM     26  C   UNL d   1       1.785  -0.178  -4.038  0.00  0.00     0.034 A 
ATOM     27  C   UNL d   1       1.252   0.015  -2.749  0.00  0.00     0.028 A 
ENDBRANCH   1  17
TORSDOF 3
