REMARK  8 active torsions:
REMARK  status: ('A' for Active; 'I' for Inactive)
REMARK    1  A    between atoms: C_4  and  C_1 
REMARK    2  A    between atoms: S_9  and  C_1 
REMARK    3  A    between atoms: C_2  and  C_5 
REMARK    4  A    between atoms: C_3  and  C_6 
REMARK    5  A    between atoms: N_17  and  N_7 
REMARK    6  A    between atoms: C_15  and  S_9 
REMARK    7  A    between atoms: O_26  and  C_14 
REMARK    8  A    between atoms: O_27  and  C_16 
ROOT
ATOM      1  C   UNL d   1       0.824  -0.083  -0.118  0.00  0.00     0.095 C 
ATOM      2  N   UNL d   1       0.165  -0.187   1.004  0.00  0.00    -0.313 N 
ATOM      3  HN  UNL d   1       0.665  -0.161   1.893  1.00  0.00     0.181 HD
ENDROOT
BRANCH   1   4
ATOM      4  C   UNL d   1       0.305  -0.017  -1.540  0.00  0.00     0.000 A 
ATOM      5  C   UNL d   1      -1.003   0.414  -1.819  0.00  0.00     0.030 A 
ATOM      6  C   UNL d   1      -1.513   0.471  -3.130  0.00  0.00     0.049 A 
ATOM      7  C   UNL d   1      -0.660   0.177  -4.198  0.00  0.00     0.032 A 
ATOM      8  C   UNL d   1       0.675  -0.180  -3.965  0.00  0.00     0.049 A 
ATOM      9  C   UNL d   1       1.125  -0.333  -2.638  0.00  0.00     0.030 A 
BRANCH   6  10
ATOM     10  C   UNL d   1      -2.951   0.876  -3.360  0.00  0.00     0.417 C 
ATOM     11  F   UNL d   1      -3.289   0.946  -4.677  0.00  0.00    -0.166 F 
ATOM     12  F   UNL d   1      -3.832   0.003  -2.796  0.00  0.00    -0.166 F 
ATOM     13  F   UNL d   1      -3.238   2.096  -2.833  0.00  0.00    -0.166 F 
ENDBRANCH   6  10
BRANCH   8  14
ATOM     14  C   UNL d   1       1.647  -0.334  -5.112  0.00  0.00     0.417 C 
ATOM     15  F   UNL d   1       1.147   0.098  -6.302  0.00  0.00    -0.166 F 
ATOM     16  F   UNL d   1       2.789   0.381  -4.910  0.00  0.00    -0.166 F 
ATOM     17  F   UNL d   1       2.037  -1.622  -5.307  0.00  0.00    -0.166 F 
ENDBRANCH   8  14
ENDBRANCH   1   4
BRANCH   1  18
ATOM     18  S   UNL d   1       2.585   0.084   0.103  0.00  0.00    -0.071 SA
BRANCH  18  19
ATOM     19  C   UNL d   1       3.149  -1.616   0.174  0.00  0.00     0.009 A 
ATOM     20  C   UNL d   1       2.379  -2.654   0.707  0.00  0.00     0.058 A 
ATOM     21  C   UNL d   1       2.838  -3.971   0.692  0.00  0.00     0.102 A 
ATOM     22  C   UNL d   1       4.130  -4.256   0.203  0.00  0.00     0.101 A 
ATOM     23  C   UNL d   1       4.920  -3.219  -0.296  0.00  0.00     0.041 A 
ATOM     24  C   UNL d   1       4.430  -1.909  -0.315  0.00  0.00     0.022 A 
BRANCH  21  25
ATOM     25  O   UNL d   1       2.116  -5.057   1.125  0.00  0.00    -0.353 OA
ATOM     26  C   UNL d   1       0.785  -4.835   1.569  0.00  0.00     0.210 C 
ENDBRANCH  21  25
BRANCH  22  27
ATOM     27  O   UNL d   1       4.517  -5.572   0.211  0.00  0.00    -0.353 OA
ATOM     28  C   UNL d   1       5.911  -5.819   0.352  0.00  0.00     0.210 C 
ENDBRANCH  22  27
ENDBRANCH  18  19
ENDBRANCH   1  18
BRANCH   2  29
ATOM     29  N   UNL d   1      -1.181  -0.330   0.991  0.00  0.00    -0.239 NA
ATOM     30  C   UNL d   1      -1.862   0.264   2.151  0.00  0.00     0.135 C 
ATOM     31  C   UNL d   1      -1.694  -1.690   0.786  0.00  0.00     0.135 C 
ENDBRANCH   2  29
TORSDOF 8
