REMARK  2 active torsions:
REMARK  status: ('A' for Active; 'I' for Inactive)
REMARK    1  A    between atoms: C_7  and  C_3 
REMARK    2  A    between atoms: C_10  and  C_7 
ROOT
ATOM      1  C   UNL d   1       1.925   0.115  -0.236  0.00  0.00     0.231 A 
ATOM      2  N   UNL d   1       1.000   1.144  -0.168  0.00  0.00    -0.326 N 
ATOM      3  C   UNL d   1       1.159  -1.224  -0.102  0.00  0.00     0.119 A 
ATOM      4  C   UNL d   1      -0.290   0.661  -0.074  0.00  0.00     0.042 A 
ATOM      5  C   UNL d   1      -0.274  -0.733  -0.054  0.00  0.00    -0.018 A 
ATOM      6  O   UNL d   1       3.126   0.283  -0.374  0.00  0.00    -0.272 OA
ATOM      7  C   UNL d   1      -1.462  -1.441   0.006  0.00  0.00     0.010 A 
ATOM      8  C   UNL d   1      -1.452   1.399  -0.017  0.00  0.00     0.030 A 
ATOM      9  C   UNL d   1      -2.658  -0.715   0.059  0.00  0.00     0.001 A 
ATOM     10  C   UNL d   1      -2.653   0.693   0.052  0.00  0.00     0.002 A 
ATOM     11  H   UNL d   1       1.264   2.116  -0.235  0.00  0.00     0.169 HD
ENDROOT
BRANCH   3  12
ATOM     12  C   UNL d   1       1.526  -1.976   1.178  0.00  0.00     0.075 C 
BRANCH  12  13
ATOM     13  C   UNL d   1       2.963  -2.429   1.220  0.00  0.00     0.010 A 
ATOM     14  N   UNL d   1       3.260  -3.609   0.623  0.00  0.00    -0.369 N 
ATOM     15  C   UNL d   1       4.555  -3.997   0.641  0.00  0.00     0.088 A 
ATOM     16  HN  UNL d   1       2.539  -4.179   0.181  1.00  0.00     0.165 HD
ATOM     17  C   UNL d   1       5.579  -3.265   1.220  0.00  0.00     0.017 A 
ATOM     18  C   UNL d   1       5.255  -2.061   1.831  0.00  0.00     0.003 A 
ATOM     19  C   UNL d   1       3.930  -1.640   1.840  0.00  0.00     0.025 A 
ENDBRANCH  12  13
ENDBRANCH   3  12
TORSDOF 2
