REMARK  3 active torsions:
REMARK  status: ('A' for Active; 'I' for Inactive)
REMARK    1  A    between atoms: O_3  and  C_1 
REMARK    2  A    between atoms: C_4  and  O_3 
REMARK    3  A    between atoms: N_17  and  C_14 
ROOT
ATOM      1  C   UNL d   1       1.321  -1.315  -0.025  0.00  0.00     0.163 A 
ATOM      2  C   UNL d   1       0.051  -0.733   0.021  0.00  0.00     0.043 A 
ATOM      3  N   UNL d   1       2.468  -0.619  -0.116  0.00  0.00    -0.332 N 
ATOM      4  HN  UNL d   1       3.375  -1.072  -0.225  1.00  0.00     0.168 HD
ATOM      5  C   UNL d   1       0.052   0.666   0.009  0.00  0.00     0.047 A 
ATOM      6  N   UNL d   1       1.181   1.386  -0.004  0.00  0.00    -0.352 N 
ATOM      7  HN  UNL d   1       1.164   2.406   0.022  1.00  0.00     0.166 HD
ATOM      8  C   UNL d   1       2.334   0.706  -0.051  0.00  0.00     0.182 A 
ATOM      9  C   UNL d   1      -1.174  -1.448   0.047  0.00  0.00     0.025 A 
ATOM     10  C   UNL d   1      -1.171   1.319  -0.014  0.00  0.00     0.031 A 
ATOM     11  C   UNL d   1      -2.397  -0.772   0.024  0.00  0.00    -0.061 A 
ATOM     12  C   UNL d   1      -2.385   0.622  -0.026  0.00  0.00     0.009 A 
ATOM     13  C   UNL d   1      -3.696  -1.519   0.023  0.00  0.00     0.048 C 
ENDROOT
BRANCH   1  14
ATOM     14  O   UNL d   1       1.364  -2.695  -0.180  0.00  0.00    -0.274 OA
BRANCH  14  15
ATOM     15  C   UNL d   1       2.401  -3.395   0.423  0.00  0.00     0.171 A 
ATOM     16  N   UNL d   1       3.030  -2.873   1.504  0.00  0.00    -0.345 N 
ATOM     17  C   UNL d   1       3.935  -3.660   2.114  0.00  0.00     0.090 A 
ATOM     18  HN  UNL d   1       2.828  -1.930   1.838  1.00  0.00     0.167 HD
ATOM     19  C   UNL d   1       4.187  -4.973   1.748  0.00  0.00     0.019 A 
ATOM     20  C   UNL d   1       3.505  -5.495   0.649  0.00  0.00     0.029 A 
ATOM     21  C   UNL d   1       2.637  -4.687  -0.083  0.00  0.00     0.058 A 
BRANCH  21  22
ATOM     22  N   UNL d   1       1.866  -5.257  -1.118  0.00  0.00    -0.299 NA
ATOM     23  H   UNL d   1       1.508  -4.548  -1.757  0.00  0.00     0.124 HD
ATOM     24  H   UNL d   1       2.340  -6.008  -1.608  0.00  0.00     0.124 HD
ENDBRANCH  21  22
ENDBRANCH  14  15
ENDBRANCH   1  14
TORSDOF 3
