REMARK  0 active torsions:
REMARK  status: ('A' for Active; 'I' for Inactive)
ROOT
ATOM      1  C   UNL d   1      -2.491   0.699  -0.323  0.00  0.00     0.258 C 
ATOM      2  C   UNL d   1      -2.429  -0.790   0.009  0.00  0.00     0.269 C 
ATOM      3  C   UNL d   1      -1.224   1.480  -0.033  0.00  0.00     0.210 C 
ATOM      4  C   UNL d   1       0.046   0.725  -0.014  0.00  0.00     0.042 A 
ATOM      5  N   UNL d   1      -1.188  -1.365   0.107  0.00  0.00    -0.323 N 
ATOM      6  C   UNL d   1       0.018  -0.668   0.042  0.00  0.00     0.049 A 
ATOM      7  C   UNL d   1       1.269   1.407  -0.038  0.00  0.00     0.041 A 
ATOM      8  O   UNL d   1      -3.415  -1.521   0.125  0.00  0.00    -0.269 OA
ATOM      9  O   UNL d   1      -1.171   2.701   0.111  0.00  0.00    -0.288 OA
ATOM     10 CL   UNL d   1      -2.785   0.827  -2.089  0.00  0.00    -0.082 Cl
ATOM     11 CL   UNL d   1      -3.850   1.435   0.571  0.00  0.00    -0.082 Cl
ATOM     12  C   UNL d   1       1.214  -1.388   0.060  0.00  0.00     0.032 A 
ATOM     13  C   UNL d   1       2.458   0.683  -0.026  0.00  0.00     0.035 A 
ATOM     14  C   UNL d   1       2.435  -0.712   0.018  0.00  0.00     0.026 A 
ATOM     15 CL   UNL d   1       3.966   1.509  -0.067  0.00  0.00    -0.084 Cl
ATOM     16  H   UNL d   1      -1.193  -2.372   0.240  0.00  0.00     0.169 HD
ENDROOT
TORSDOF 0
