REMARK  5 active torsions:
REMARK  status: ('A' for Active; 'I' for Inactive)
REMARK    1  A    between atoms: C_6  and  C_1 
REMARK    2  A    between atoms: C_7  and  C_2 
REMARK    3  A    between atoms: C_8  and  C_5 
REMARK    4  A    between atoms: O_12  and  C_6 
REMARK    5  A    between atoms: O_13  and  C_7 
ROOT
ATOM      1  C   UNL d   1       0.908  -0.003  -0.048  0.00  0.00     0.080 A 
ATOM      2  C   UNL d   1       0.059  -1.106   0.011  0.00  0.00     0.126 A 
ATOM      3  C   UNL d   1       0.069   1.177  -0.033  0.00  0.00    -0.016 A 
ATOM      4  N   UNL d   1      -1.223  -0.616   0.107  0.00  0.00    -0.349 N 
ATOM      5  C   UNL d   1      -1.256   0.757   0.051  0.00  0.00     0.050 A 
ATOM      6  C   UNL d   1       0.544   2.594  -0.085  0.00  0.00     0.052 C 
ATOM      7  H   UNL d   1      -2.039  -1.210   0.191  0.00  0.00     0.166 HD
ENDROOT
BRANCH   5   8
ATOM      8  C   UNL d   1      -2.528   1.492   0.115  0.00  0.00    -0.009 A 
ATOM      9  C   UNL d   1      -3.667   1.024  -0.559  0.00  0.00     0.014 A 
ATOM     10  C   UNL d   1      -4.884   1.709  -0.475  0.00  0.00     0.001 A 
ATOM     11  C   UNL d   1      -4.977   2.878   0.275  0.00  0.00     0.000 A 
ATOM     12  C   UNL d   1      -3.857   3.358   0.946  0.00  0.00     0.001 A 
ATOM     13  C   UNL d   1      -2.646   2.664   0.873  0.00  0.00     0.014 A 
ENDBRANCH   5   8
BRANCH   1  14
ATOM     14  C   UNL d   1       2.373  -0.022  -0.112  0.00  0.00     0.296 C 
ATOM     15  O   UNL d   1       3.025   0.791  -0.754  0.00  0.00    -0.259 OA
BRANCH  14  16
ATOM     16  O   UNL d   1       2.930  -0.985   0.680  0.00  0.00    -0.322 OA
ATOM     17  C   UNL d   1       4.358  -0.991   0.652  0.00  0.00     0.213 C 
ENDBRANCH  14  16
ENDBRANCH   1  14
BRANCH   2  18
ATOM     18  C   UNL d   1       0.277  -2.533  -0.017  0.00  0.00     0.310 C 
ATOM     19  O   UNL d   1      -0.551  -3.353   0.363  0.00  0.00    -0.258 OA
BRANCH  18  20
ATOM     20  O   UNL d   1       1.469  -2.845  -0.589  0.00  0.00    -0.321 OA
ATOM     21  C   UNL d   1       1.736  -4.247  -0.637  0.00  0.00     0.213 C 
ENDBRANCH  18  20
ENDBRANCH   2  18
TORSDOF 5
