REMARK  5 active torsions:
REMARK  status: ('A' for Active; 'I' for Inactive)
REMARK    1  A    between atoms: C_12  and  C_3 
REMARK    2  A    between atoms: N_11  and  C_5 
REMARK    3  A    between atoms: C_13  and  N_8 
REMARK       I    between atoms: C_14  and  N_11 
REMARK    4  A    between atoms: O_20  and  C_12 
REMARK    5  A    between atoms: O_25  and  C_22 
ROOT
ATOM      1  C   UNL d   1      -0.113  -0.728  -0.139  0.00  0.00     0.081 C 
ATOM      2  C   UNL d   1      -0.401   0.666   0.009  0.00  0.00     0.030 C 
ATOM      3  C   UNL d   1       0.752   1.575   0.102  0.00  0.00     0.136 C 
ATOM      4  C   UNL d   1       1.219  -1.209  -0.410  0.00  0.00     0.281 C 
ATOM      5  C   UNL d   1      -1.228  -1.527  -0.084  0.00  0.00     0.093 C 
ATOM      6  N   UNL d   1       1.969   1.093   0.077  0.00  0.00    -0.284 N 
ATOM      7  HN  UNL d   1       2.753   1.730   0.219  1.00  0.00     0.188 HD
ATOM      8  N   UNL d   1       2.235  -0.278  -0.141  0.00  0.00    -0.219 N 
ATOM      9  C   UNL d   1      -1.780   0.871  -0.014  0.00  0.00    -0.005 C 
ATOM     10  S   UNL d   1      -2.647  -0.632  -0.130  0.00  0.00    -0.075 SA
ATOM     11  O   UNL d   1       1.359  -2.317  -0.927  0.00  0.00    -0.265 OA
ATOM     12  C   UNL d   1      -2.663   2.075   0.013  0.00  0.00     0.057 C 
ENDROOT
BRANCH   8  13
ATOM     13  C   UNL d   1       3.635  -0.614  -0.251  0.00  0.00     0.060 A 
ATOM     14  C   UNL d   1       4.065  -1.902  -0.614  0.00  0.00     0.034 A 
ATOM     15  C   UNL d   1       5.410  -2.212  -0.842  0.00  0.00     0.039 A 
ATOM     16  C   UNL d   1       6.385  -1.245  -0.662  0.00  0.00     0.068 A 
ATOM     17  C   UNL d   1       5.996   0.019  -0.217  0.00  0.00     0.039 A 
ATOM     18  C   UNL d   1       4.640   0.334  -0.013  0.00  0.00     0.034 A 
BRANCH  16  19
ATOM     19  O   UNL d   1       7.724  -1.420  -0.872  0.00  0.00    -0.356 OA
ATOM     20  C   UNL d   1       8.123  -2.670  -1.427  0.00  0.00     0.210 C 
ENDBRANCH  16  19
ENDBRANCH   8  13
BRANCH   3  21
ATOM     21  C   UNL d   1       0.644   3.106   0.261  0.00  0.00     0.312 C 
ATOM     22  O   UNL d   1      -0.188   3.641   0.961  0.00  0.00    -0.258 OA
BRANCH  21  23
ATOM     23  O   UNL d   1       1.593   3.723  -0.479  0.00  0.00    -0.321 OA
ATOM     24  C   UNL d   1       1.569   5.155  -0.416  0.00  0.00     0.213 C 
ENDBRANCH  21  23
ENDBRANCH   3  21
BRANCH   5  25
ATOM     25  N   UNL d   1      -1.390  -2.893  -0.039  0.00  0.00    -0.321 N 
ATOM     26  C   UNL d   1      -0.674  -3.640   0.887  0.00  0.00     0.218 C 
ATOM     27  O   UNL d   1       0.088  -3.186   1.738  0.00  0.00    -0.274 OA
ATOM     28  C   UNL d   1      -0.956  -5.117   0.792  0.00  0.00     0.117 C 
ATOM     29  H   UNL d   1      -2.274  -3.261  -0.361  0.00  0.00     0.169 HD
ENDBRANCH   5  25
TORSDOF 5
