REMARK  4 active torsions:
REMARK  status: ('A' for Active; 'I' for Inactive)
REMARK    1  A    between atoms: C_7  and  C_1 
REMARK    2  A    between atoms: C_12  and  C_5 
REMARK       I    between atoms: N_9  and  C_7 
REMARK       I    between atoms: C_8  and  N_10 
REMARK    3  A    between atoms: C_11  and  C_8 
REMARK    4  A    between atoms: N_10  and  N_9 
ROOT
ATOM      1  C   UNL d   1      -1.839  -3.203   0.022  0.00  0.00     0.098 A 
ATOM      2  S   UNL d   1      -2.246  -4.868   0.132  0.00  0.00    -0.064 SA
ATOM      3  N   UNL d   1      -4.175  -3.182   0.090  0.00  0.00    -0.352 N 
ATOM      4  HN  UNL d   1      -5.111  -2.776   0.088  1.00  0.00     0.166 HD
ATOM      5  C   UNL d   1      -3.923  -4.474   0.141  0.00  0.00     0.085 A 
ATOM      6  C   UNL d   1      -3.002  -2.448   0.039  0.00  0.00     0.029 A 
ATOM      7  C   UNL d   1      -3.115  -0.965   0.000  0.00  0.00     0.070 C 
ENDROOT
BRANCH   1   8
ATOM      8  C   UNL d   1      -0.474  -2.723  -0.106  0.00  0.00     0.279 C 
ATOM      9  N   UNL d   1       0.539  -3.649   0.071  0.00  0.00    -0.262 N 
ATOM     10  H   UNL d   1       0.385  -4.595   0.414  0.00  0.00     0.190 HD
ATOM     11  O   UNL d   1      -0.192  -1.552  -0.372  0.00  0.00    -0.265 OA
BRANCH   9  12
ATOM     12  N   UNL d   1       1.873  -3.216  -0.039  0.00  0.00    -0.263 N 
ATOM     13  C   UNL d   1       2.862  -3.974   0.542  0.00  0.00     0.265 C 
ATOM     14  O   UNL d   1       2.592  -5.024   1.127  0.00  0.00    -0.266 OA
ATOM     15  H   UNL d   1       1.999  -2.302  -0.461  0.00  0.00     0.190 HD
BRANCH  13  16
ATOM     16  C   UNL d   1       4.276  -3.467   0.411  0.00  0.00     0.003 C 
ATOM     17  C   UNL d   1       5.230  -4.233   0.990  0.00  0.00    -0.019 C 
ATOM     18  C   UNL d   1       6.708  -3.998   0.976  0.00  0.00     0.036 C 
ATOM     19  C   UNL d   1       4.618  -2.208  -0.328  0.00  0.00     0.054 C 
ENDBRANCH  13  16
ENDBRANCH   9  12
ENDBRANCH   1   8
BRANCH   5  20
ATOM     20  C   UNL d   1      -4.978  -5.504   0.156  0.00  0.00    -0.002 A 
ATOM     21  C   UNL d   1      -4.823  -6.755   0.771  0.00  0.00     0.014 A 
ATOM     22  C   UNL d   1      -5.873  -7.681   0.786  0.00  0.00     0.001 A 
ATOM     23  C   UNL d   1      -7.092  -7.371   0.183  0.00  0.00     0.000 A 
ATOM     24  C   UNL d   1      -7.264  -6.136  -0.433  0.00  0.00     0.001 A 
ATOM     25  C   UNL d   1      -6.217  -5.211  -0.442  0.00  0.00     0.014 A 
ENDBRANCH   5  20
TORSDOF 4
