REMARK  4 active torsions:
REMARK  status: ('A' for Active; 'I' for Inactive)
REMARK    1  A    between atoms: C_4  and  C_1 
REMARK    2  A    between atoms: C_10  and  N_2 
REMARK    3  A    between atoms: O_15  and  C_7 
REMARK    4  A    between atoms: C_11  and  C_10 
ROOT
ATOM      1  N   UNL d   1       0.469   3.617   0.053  0.00  0.00    -0.388 N 
ATOM      2  HN  UNL d   1       1.087   4.429   0.069  1.00  0.00     0.159 HD
ATOM      3  C   UNL d   1       0.950   2.410   0.038  0.00  0.00     0.014 C 
ATOM      4  C   UNL d   1       0.100   1.149   0.011  0.00  0.00     0.068 C 
ENDROOT
BRANCH   1   5
ATOM      5  C   UNL d   1      -0.992   3.779   0.046  0.00  0.00     0.158 C 
BRANCH   5   6
ATOM      6  C   UNL d   1      -1.452   5.221   0.055  0.00  0.00    -0.039 A 
ATOM      7  C   UNL d   1      -2.679   5.553  -0.546  0.00  0.00     0.034 A 
ATOM      8  C   UNL d   1      -3.164   6.866  -0.515  0.00  0.00     0.056 A 
ATOM      9 CL   UNL d   1      -4.681   7.179  -1.282  0.00  0.00    -0.083 Cl
ATOM     10  C   UNL d   1      -2.427   7.862   0.130  0.00  0.00     0.055 A 
ATOM     11  C   UNL d   1      -1.218   7.537   0.750  0.00  0.00     0.026 A 
ATOM     12 CL   UNL d   1      -2.958   9.505   0.205  0.00  0.00    -0.083 Cl
ATOM     13  C   UNL d   1      -0.739   6.224   0.721  0.00  0.00     0.010 A 
ENDBRANCH   5   6
ENDBRANCH   1   5
BRANCH   3  14
ATOM     14  C   UNL d   1       2.450   2.223   0.055  0.00  0.00     0.019 A 
ATOM     15  C   UNL d   1       3.322   3.323   0.085  0.00  0.00     0.077 A 
ATOM     16  C   UNL d   1       4.707   3.143   0.115  0.00  0.00     0.037 A 
ATOM     17  C   UNL d   1       5.244   1.857   0.109  0.00  0.00     0.003 A 
ATOM     18  C   UNL d   1       4.397   0.754   0.074  0.00  0.00     0.001 A 
ATOM     19  C   UNL d   1       3.010   0.935   0.048  0.00  0.00     0.016 A 
BRANCH  15  20
ATOM     20  O   UNL d   1       2.886   4.622   0.086  0.00  0.00    -0.360 OA
ATOM     21  H   UNL d   1       1.903   4.586   0.033  0.00  0.00     0.217 HD
ENDBRANCH  15  20
ENDBRANCH   3  14
TORSDOF 4
