REMARK  7 active torsions:
REMARK  status: ('A' for Active; 'I' for Inactive)
REMARK    1  A    between atoms: C_2  and  S_1 
REMARK    2  A    between atoms: C_5  and  S_1 
REMARK    3  A    between atoms: C_6  and  C_2 
REMARK    4  A    between atoms: C_10  and  C_6 
REMARK    5  A    between atoms: O_16  and  C_6 
REMARK    6  A    between atoms: O_7  and  C_10 
REMARK    7  A    between atoms: C_8  and  O_7 
ROOT
ATOM      1  C   UNL d   1       1.041   0.027  -2.701  0.00  0.00     0.156 C 
ENDROOT
BRANCH   1   2
ATOM      2  C   UNL d   1       0.628  -0.781  -1.480  0.00  0.00     0.179 C 
BRANCH   2   3
ATOM      3  S   UNL d   1       1.324  -0.176   0.028  0.00  0.00     0.178 S 
ATOM      4  O   UNL d   1       0.939   1.212   0.192  0.00  0.00    -0.223 OA
ATOM      5  O   UNL d   1       2.725  -0.564   0.061  0.00  0.00    -0.223 OA
BRANCH   3   6
ATOM      6  C   UNL d   1       0.488  -1.123   1.278  0.00  0.00     0.059 A 
ATOM      7  C   UNL d   1       1.028  -2.346   1.688  0.00  0.00     0.023 A 
ATOM      8  C   UNL d   1       0.385  -3.077   2.687  0.00  0.00     0.002 A 
ATOM      9  C   UNL d   1      -0.780  -2.586   3.274  0.00  0.00     0.000 A 
ATOM     10  C   UNL d   1      -1.308  -1.357   2.868  0.00  0.00     0.002 A 
ATOM     11  C   UNL d   1      -0.673  -0.619   1.870  0.00  0.00     0.023 A 
ENDBRANCH   3   6
ENDBRANCH   2   3
ENDBRANCH   1   2
BRANCH   1  12
ATOM     12  C   UNL d   1       2.557   0.035  -2.986  0.00  0.00     0.208 C 
BRANCH  12  13
ATOM     13  O   UNL d   1       2.781   0.785  -4.186  0.00  0.00    -0.349 OA
BRANCH  13  14
ATOM     14  C   UNL d   1       4.054   0.792  -4.692  0.00  0.00     0.069 A 
ATOM     15  C   UNL d   1       5.189   0.280  -4.066  0.00  0.00     0.038 A 
ATOM     16  C   UNL d   1       6.431   0.325  -4.712  0.00  0.00     0.022 A 
ATOM     17  C   UNL d   1       6.534   0.887  -5.983  0.00  0.00     0.011 A 
ATOM     18  C   UNL d   1       5.411   1.424  -6.606  0.00  0.00     0.022 A 
ATOM     19 BR   UNL d   1       8.205   0.919  -6.865  0.00  0.00    -0.051 Br
ATOM     20  C   UNL d   1       4.175   1.379  -5.956  0.00  0.00     0.038 A 
ENDBRANCH  13  14
ENDBRANCH  12  13
ENDBRANCH   1  12
BRANCH   1  21
ATOM     21  O   UNL d   1       0.319  -0.546  -3.812  0.00  0.00    -0.392 OA
ATOM     22  H   UNL d   1       0.924  -1.123  -4.311  0.00  0.00     0.210 HD
ENDBRANCH   1  21
TORSDOF 7
