REMARK  4 active torsions:
REMARK  status: ('A' for Active; 'I' for Inactive)
REMARK    1  A    between atoms: C_8  and  N_1 
REMARK    2  A    between atoms: C_7  and  C_16 
REMARK    3  A    between atoms: C_9  and  C_8 
REMARK       I    between atoms: N_14  and  C_9 
REMARK    4  A    between atoms: C_16  and  N_14 
ROOT
ATOM      1  C   UNL d   1       3.041   0.069   0.007  0.00  0.00     0.238 C 
ENDROOT
BRANCH   1   2
ATOM      2  N   UNL d   1       2.994  -0.572  -1.293  0.00  0.00    -0.271 N 
ATOM      3  C   UNL d   1       2.513   0.051  -2.404  0.00  0.00     0.262 C 
ATOM      4  C   UNL d   1       2.634  -0.902  -3.497  0.00  0.00     0.048 A 
ATOM      5  O   UNL d   1       1.999   1.150  -2.516  0.00  0.00    -0.267 OA
ATOM      6  C   UNL d   1       2.530  -0.705  -4.860  0.00  0.00     0.018 A 
ATOM      7  C   UNL d   1       2.918  -2.134  -2.938  0.00  0.00     0.048 A 
ATOM      8  C   UNL d   1       2.692  -1.828  -5.670  0.00  0.00     0.001 A 
ATOM      9  C   UNL d   1       2.901  -3.104  -5.104  0.00  0.00     0.001 A 
ATOM     10  C   UNL d   1       3.018  -3.269  -3.716  0.00  0.00     0.018 A 
ATOM     11  C   UNL d   1       3.106  -1.922  -1.495  0.00  0.00     0.262 C 
ATOM     12  O   UNL d   1       3.283  -2.811  -0.683  0.00  0.00    -0.267 OA
ENDBRANCH   1   2
BRANCH   1  13
ATOM     13  C   UNL d   1       3.699   1.448  -0.133  0.00  0.00     0.236 C 
ATOM     14  N   UNL d   1       2.821   2.507   0.006  0.00  0.00    -0.354 N 
ATOM     15  H   UNL d   1       1.834   2.305  -0.095  0.00  0.00     0.162 HD
ATOM     16  O   UNL d   1       4.884   1.583  -0.423  0.00  0.00    -0.272 OA
BRANCH  14  17
ATOM     17  C   UNL d   1       3.196   3.850  -0.374  0.00  0.00     0.179 C 
BRANCH  17  18
ATOM     18  C   UNL d   1       2.651   4.799   0.639  0.00  0.00     0.028 A 
ATOM     19  N   UNL d   1       3.053   4.818   1.958  0.00  0.00    -0.363 N 
ATOM     20  C   UNL d   1       2.361   5.786   2.641  0.00  0.00     0.090 A 
ATOM     21  C   UNL d   1       4.066   3.974   2.555  0.00  0.00     0.155 C 
ATOM     22  C   UNL d   1       1.559   6.451   1.743  0.00  0.00     0.019 A 
ATOM     23  C   UNL d   1       1.741   5.834   0.483  0.00  0.00     0.028 A 
ENDBRANCH  17  18
ENDBRANCH  14  17
ENDBRANCH   1  13
TORSDOF 4
