REMARK  7 active torsions:
REMARK  status: ('A' for Active; 'I' for Inactive)
REMARK    1  A    between atoms: C_4  and  C_1 
REMARK    2  A    between atoms: C_3  and  C_2 
REMARK       I    between atoms: N_8  and  C_4 
REMARK    3  A    between atoms: C_13  and  N_8 
REMARK    4  A    between atoms: O_19  and  C_9 
REMARK    5  A    between atoms: C_10  and  C_13 
REMARK    6  A    between atoms: O_20  and  C_11 
REMARK    7  A    between atoms: O_21  and  C_15 
ROOT
ATOM      1  C   UNL d   1       1.214   2.749  -0.229  0.00  0.00     0.254 C 
ATOM      2  N   UNL d   1       0.263   3.641  -0.630  0.00  0.00    -0.352 N 
ATOM      3  O   UNL d   1       1.131   2.112   0.821  0.00  0.00    -0.268 OA
ATOM      4  H   UNL d   1       0.313   4.102  -1.527  0.00  0.00     0.163 HD
ENDROOT
BRANCH   1   5
ATOM      5  C   UNL d   1       2.415   2.556  -1.074  0.00  0.00     0.062 A 
ATOM      6  C   UNL d   1       2.487   2.464  -2.472  0.00  0.00     0.069 A 
ATOM      7  C   UNL d   1       3.738   2.139  -3.044  0.00  0.00     0.073 A 
ATOM      8  C   UNL d   1       4.840   1.929  -2.233  0.00  0.00     0.142 A 
ATOM      9  N   UNL d   1       4.797   2.046  -0.897  0.00  0.00    -0.346 N 
ATOM     10  C   UNL d   1       3.594   2.345  -0.353  0.00  0.00     0.108 A 
ATOM     11  HN  UNL d   1       5.629   1.916  -0.320  1.00  0.00     0.167 HD
BRANCH   6  12
ATOM     12  C   UNL d   1       1.357   2.635  -3.444  0.00  0.00     0.418 C 
ATOM     13  F   UNL d   1       0.136   2.894  -2.917  0.00  0.00    -0.166 F 
ATOM     14  F   UNL d   1       1.595   3.669  -4.302  0.00  0.00    -0.166 F 
ATOM     15  F   UNL d   1       1.186   1.539  -4.233  0.00  0.00    -0.166 F 
ENDBRANCH   6  12
BRANCH   8  16
ATOM     16  O   UNL d   1       6.012   1.569  -2.860  0.00  0.00    -0.341 OA
ATOM     17  C   UNL d   1       7.072   1.308  -1.943  0.00  0.00     0.211 C 
ENDBRANCH   8  16
ENDBRANCH   1   5
BRANCH   2  18
ATOM     18  C   UNL d   1      -1.006   3.740   0.060  0.00  0.00     0.164 C 
BRANCH  18  19
ATOM     19  C   UNL d   1      -1.466   5.171   0.107  0.00  0.00    -0.004 A 
ATOM     20  C   UNL d   1      -1.006   6.107   1.060  0.00  0.00     0.109 A 
ATOM     21  C   UNL d   1      -1.352   7.465   0.914  0.00  0.00     0.102 A 
ATOM     22  C   UNL d   1      -2.199   7.864  -0.129  0.00  0.00     0.039 A 
ATOM     23  C   UNL d   1      -2.672   6.943  -1.055  0.00  0.00     0.003 A 
ATOM     24  C   UNL d   1      -2.305   5.608  -0.939  0.00  0.00     0.012 A 
BRANCH  20  25
ATOM     25  O   UNL d   1      -0.116   5.762   2.044  0.00  0.00    -0.352 OA
ATOM     26  C   UNL d   1      -0.571   4.794   2.987  0.00  0.00     0.210 C 
ENDBRANCH  20  25
BRANCH  21  27
ATOM     27  O   UNL d   1      -0.971   8.513   1.714  0.00  0.00    -0.353 OA
ATOM     28  C   UNL d   1       0.310   8.424   2.323  0.00  0.00     0.210 C 
ENDBRANCH  21  27
ENDBRANCH  18  19
ENDBRANCH   2  18
TORSDOF 7
