REMARK  5 active torsions:
REMARK  status: ('A' for Active; 'I' for Inactive)
REMARK    1  A    between atoms: C_7  and  N_1 
REMARK    2  A    between atoms: N_9  and  C_2 
REMARK    3  A    between atoms: C_8  and  C_3 
REMARK    4  A    between atoms: O_12  and  C_8 
REMARK    5  A    between atoms: C_16  and  O_12 
ROOT
ATOM      1  N   UNL d   1      -0.010  -1.364  -0.141  0.00  0.00    -0.220 N 
ATOM      2  C   UNL d   1       1.280  -0.822  -0.027  0.00  0.00     0.154 A 
ATOM      3  C   UNL d   1       1.073   0.548  -0.078  0.00  0.00     0.167 A 
ATOM      4  N   UNL d   1      -0.891  -0.356  -0.356  0.00  0.00    -0.013 NA
ATOM      5  N   UNL d   1      -0.255   0.800  -0.288  0.00  0.00    -0.275 N 
ATOM      6  HN  UNL d   1      -0.682   1.722  -0.378  1.00  0.00     0.184 HD
ENDROOT
BRANCH   1   7
ATOM      7  C   UNL d   1      -0.448  -2.705   0.046  0.00  0.00     0.078 A 
ATOM      8  C   UNL d   1      -1.629  -3.199  -0.536  0.00  0.00     0.062 A 
ATOM      9 CL   UNL d   1      -2.612  -2.337  -1.670  0.00  0.00    -0.082 Cl
ATOM     10  C   UNL d   1      -2.031  -4.519  -0.280  0.00  0.00     0.026 A 
ATOM     11  C   UNL d   1      -1.277  -5.350   0.546  0.00  0.00     0.002 A 
ATOM     12  C   UNL d   1      -0.112  -4.867   1.130  0.00  0.00     0.002 A 
ATOM     13  C   UNL d   1       0.298  -3.554   0.887  0.00  0.00     0.033 A 
ENDBRANCH   1   7
BRANCH   2  14
ATOM     14  N   UNL d   1       2.436  -1.538   0.080  0.00  0.00    -0.382 N 
ATOM     15  H   UNL d   1       2.507  -2.473  -0.319  0.00  0.00     0.157 HD
ATOM     16  H   UNL d   1       3.324  -1.028   0.013  0.00  0.00     0.157 HD
ENDBRANCH   2  14
BRANCH   3  17
ATOM     17  C   UNL d   1       2.062   1.596   0.080  0.00  0.00     0.315 C 
ATOM     18  O   UNL d   1       3.259   1.380   0.250  0.00  0.00    -0.257 OA
BRANCH  17  19
ATOM     19  O   UNL d   1       1.493   2.837   0.097  0.00  0.00    -0.317 OA
BRANCH  19  20
ATOM     20  C   UNL d   1       2.294   3.886   0.650  0.00  0.00     0.175 C 
ATOM     21  C   UNL d   1       2.097   3.891   2.156  0.00  0.00     0.034 C 
ENDBRANCH  19  20
ENDBRANCH  17  19
ENDBRANCH   3  17
TORSDOF 5
