REMARK  2 active torsions:
REMARK  status: ('A' for Active; 'I' for Inactive)
REMARK    1  A    between atoms: C_6  and  C_1 
REMARK       I    between atoms: N_8  and  C_6 
REMARK    2  A    between atoms: N_11  and  N_8 
REMARK       I    between atoms: C_12  and  N_11 
ROOT
ATOM      1  C   UNL d   1      -3.313  -1.822  -0.007  0.00  0.00     0.277 C 
ATOM      2  N   UNL d   1      -4.490  -1.093  -0.018  0.00  0.00    -0.263 N 
ATOM      3  O   UNL d   1      -3.352  -3.055  -0.004  0.00  0.00    -0.265 OA
ATOM      4  H   UNL d   1      -4.521  -0.075  -0.017  0.00  0.00     0.190 HD
ENDROOT
BRANCH   1   5
ATOM      5  C   UNL d   1      -2.059  -1.073  -0.001  0.00  0.00     0.076 A 
ATOM      6  S   UNL d   1      -2.015   0.645  -0.009  0.00  0.00    -0.083 SA
ATOM      7  C   UNL d   1      -0.269   0.629  -0.002  0.00  0.00     0.023 A 
ATOM      8  C   UNL d   1       0.757   1.624  -0.003  0.00  0.00     0.027 A 
ATOM      9  C   UNL d   1       0.226  -0.644   0.008  0.00  0.00     0.023 A 
ATOM     10  C   UNL d   1       2.005   1.041   0.004  0.00  0.00     0.052 A 
ATOM     11  S   UNL d   1       1.971  -0.672   0.014  0.00  0.00    -0.101 SA
ATOM     12  C   UNL d   1      -0.796  -1.638   0.009  0.00  0.00     0.044 A 
ENDBRANCH   1   5
BRANCH   2  13
ATOM     13  N   UNL d   1      -5.710  -1.783  -0.021  0.00  0.00    -0.268 N 
ATOM     14  C   UNL d   1      -6.885  -1.065  -0.028  0.00  0.00     0.232 C 
ATOM     15  O   UNL d   1      -6.920   0.164  -0.029  0.00  0.00    -0.272 OA
ATOM     16  C   UNL d   1      -8.131  -1.911  -0.033  0.00  0.00     0.119 C 
ATOM     17  H   UNL d   1      -5.660  -2.800  -0.030  0.00  0.00     0.190 HD
ENDBRANCH   2  13
TORSDOF 2
