REMARK  2 active torsions:
REMARK  status: ('A' for Active; 'I' for Inactive)
REMARK    1  A    between atoms: C_3  and  C_1 
REMARK       I    between atoms: N_6  and  C_3 
REMARK    2  A    between atoms: C_11  and  N_6 
ROOT
ATOM      1  C   UNL d   1      -1.556  -2.819   0.145  0.00  0.00     0.259 C 
ATOM      2  N   UNL d   1      -0.375  -3.517  -0.011  0.00  0.00    -0.323 N 
ATOM      3  O   UNL d   1      -2.672  -3.332   0.224  0.00  0.00    -0.267 OA
ATOM      4  H   UNL d   1       0.481  -2.980   0.096  0.00  0.00     0.169 HD
ENDROOT
BRANCH   1   5
ATOM      5  C   UNL d   1      -1.466  -1.331   0.224  0.00  0.00     0.066 A 
ATOM      6  C   UNL d   1      -0.288  -0.597   0.140  0.00  0.00     0.092 A 
ATOM      7  O   UNL d   1       0.977  -1.121   0.029  0.00  0.00    -0.339 OA
ATOM      8  C   UNL d   1      -0.302   0.791   0.158  0.00  0.00    -0.021 A 
ATOM      9  C   UNL d   1       1.882   0.022  -0.059  0.00  0.00     0.064 A 
ATOM     10  C   UNL d   1       2.606  -0.063  -1.405  0.00  0.00     0.046 C 
ATOM     11  C   UNL d   1       2.890  -0.101   1.087  0.00  0.00     0.046 C 
ATOM     12  C   UNL d   1       1.072   1.331   0.056  0.00  0.00     0.079 A 
ATOM     13  C   UNL d   1      -1.485   1.505   0.262  0.00  0.00     0.010 A 
ATOM     14  C   UNL d   1      -2.679   0.794   0.358  0.00  0.00     0.002 A 
ATOM     15  C   UNL d   1      -2.670  -0.607   0.342  0.00  0.00     0.020 A 
ENDBRANCH   1   5
BRANCH   2  16
ATOM     16  C   UNL d   1      -0.243  -4.886  -0.331  0.00  0.00     0.036 A 
ATOM     17  C   UNL d   1      -1.318  -5.691  -0.730  0.00  0.00     0.056 A 
ATOM     18  C   UNL d   1      -1.106  -7.023  -1.097  0.00  0.00     0.074 A 
ATOM     19 CL   UNL d   1      -2.439  -7.979  -1.624  0.00  0.00    -0.081 Cl
ATOM     20  C   UNL d   1       0.176  -7.559  -1.057  0.00  0.00     0.138 A 
ATOM     21  C   UNL d   1       1.252  -6.777  -0.651  0.00  0.00     0.046 A 
ATOM     22  F   UNL d   1       0.401  -8.831  -1.415  0.00  0.00    -0.204 F 
ATOM     23  C   UNL d   1       1.044  -5.440  -0.296  0.00  0.00     0.032 A 
ENDBRANCH   2  16
TORSDOF 2
