REMARK  4 active torsions:
REMARK  status: ('A' for Active; 'I' for Inactive)
REMARK    1  A    between atoms: C_15  and  C_3 
REMARK    2  A    between atoms: C_14  and  C_6 
REMARK    3  A    between atoms: N_18  and  C_8 
REMARK    4  A    between atoms: O_22  and  C_19 
ROOT
ATOM      1  C   UNL d   1      -0.022   0.791  -0.042  0.00  0.00     0.057 A 
ATOM      2  C   UNL d   1       0.053  -0.614  -0.058  0.00  0.00     0.121 A 
ATOM      3  C   UNL d   1       1.215   1.520   0.089  0.00  0.00    -0.006 A 
ATOM      4  N   UNL d   1       1.213  -1.273  -0.032  0.00  0.00    -0.341 N 
ATOM      5  HN  UNL d   1       1.215  -2.293  -0.069  1.00  0.00     0.167 HD
ATOM      6  C   UNL d   1       2.379  -0.608   0.043  0.00  0.00     0.044 A 
ATOM      7  C   UNL d   1       2.403   0.769   0.139  0.00  0.00     0.043 A 
ATOM      8  C   UNL d   1      -1.356   1.263  -0.173  0.00  0.00     0.093 A 
ATOM      9  N   UNL d   1      -1.005  -1.402  -0.096  0.00  0.00    -0.338 N 
ATOM     10  HN  UNL d   1      -0.904  -2.417  -0.094  1.00  0.00     0.168 HD
ATOM     11  N   UNL d   1      -2.437   0.470  -0.194  0.00  0.00    -0.343 N 
ATOM     12  HN  UNL d   1      -3.383   0.849  -0.250  1.00  0.00     0.167 HD
ATOM     13  C   UNL d   1      -2.206  -0.832  -0.137  0.00  0.00     0.183 A 
ENDROOT
BRANCH   6  14
ATOM     14  C   UNL d   1       3.618  -1.418   0.085  0.00  0.00    -0.009 A 
ATOM     15  C   UNL d   1       3.622  -2.720   0.614  0.00  0.00     0.016 A 
ATOM     16  C   UNL d   1       4.811  -3.451   0.759  0.00  0.00     0.037 A 
ATOM     17  C   UNL d   1       6.027  -2.901   0.362  0.00  0.00     0.068 A 
ATOM     18  C   UNL d   1       6.038  -1.633  -0.214  0.00  0.00     0.037 A 
ATOM     19  C   UNL d   1       4.851  -0.908  -0.361  0.00  0.00     0.016 A 
BRANCH  17  20
ATOM     20  O   UNL d   1       7.258  -3.483   0.474  0.00  0.00    -0.356 OA
ATOM     21  C   UNL d   1       7.313  -4.746   1.123  0.00  0.00     0.210 C 
ENDBRANCH  17  20
ENDBRANCH   6  14
BRANCH   3  22
ATOM     22  C   UNL d   1       1.368   2.997   0.209  0.00  0.00    -0.025 A 
ATOM     23  C   UNL d   1       0.547   3.775   1.040  0.00  0.00     0.012 A 
ATOM     24  C   UNL d   1       0.680   5.166   1.113  0.00  0.00     0.001 A 
ATOM     25  C   UNL d   1       1.711   5.806   0.437  0.00  0.00     0.000 A 
ATOM     26  C   UNL d   1       2.600   5.057  -0.324  0.00  0.00     0.001 A 
ATOM     27  C   UNL d   1       2.413   3.677  -0.455  0.00  0.00     0.012 A 
ENDBRANCH   3  22
BRANCH   8  28
ATOM     28  N   UNL d   1      -1.700   2.604  -0.258  0.00  0.00    -0.288 NA
ATOM     29  H   UNL d   1      -1.178   3.105  -0.968  0.00  0.00     0.125 HD
ATOM     30  H   UNL d   1      -2.706   2.668  -0.396  0.00  0.00     0.125 HD
ENDBRANCH   8  28
TORSDOF 4
