REMARK  3 active torsions:
REMARK  status: ('A' for Active; 'I' for Inactive)
REMARK    1  A    between atoms: C_16  and  N_3 
REMARK    2  A    between atoms: C_12  and  C_8 
REMARK    3  A    between atoms: O_22  and  C_19 
ROOT
ATOM      1  C   UNL d   1       1.477  -0.614  -0.159  0.00  0.00     0.137 A 
ATOM      2  C   UNL d   1       1.506   0.763  -0.092  0.00  0.00     0.025 A 
ATOM      3  N   UNL d   1       2.779  -1.054   0.007  0.00  0.00    -0.239 N 
ATOM      4  N   UNL d   1       3.622  -0.003   0.225  0.00  0.00    -0.296 N 
ATOM      5  HN  UNL d   1       4.615  -0.043   0.454  1.00  0.00     0.187 HD
ATOM      6  C   UNL d   1      -0.980   0.686  -0.263  0.00  0.00     0.023 A 
ATOM      7  N   UNL d   1       0.320  -1.330  -0.251  0.00  0.00    -0.343 N 
ATOM      8  C   UNL d   1       0.247   1.581  -0.116  0.00  0.00     0.096 A 
ATOM      9  C   UNL d   1      -0.913  -0.667  -0.299  0.00  0.00     0.022 A 
ATOM     10  C   UNL d   1       2.867   1.093   0.072  0.00  0.00     0.033 A 
ATOM     11  C   UNL d   1      -2.292   1.372  -0.333  0.00  0.00     0.159 C 
ATOM     12  C   UNL d   1      -2.173  -1.504  -0.325  0.00  0.00     0.067 C 
ATOM     13  C   UNL d   1      -3.331  -0.847   0.465  0.00  0.00    -0.036 C 
ATOM     14  C   UNL d   1      -3.553   0.601  -0.015  0.00  0.00     0.092 C 
ATOM     15  O   UNL d   1      -2.349   2.553  -0.678  0.00  0.00    -0.293 OA
ATOM     16  C   UNL d   1       3.496   2.435   0.151  0.00  0.00     0.070 C 
ATOM     17  C   UNL d   1      -3.031  -0.877   1.979  0.00  0.00     0.015 C 
ATOM     18  C   UNL d   1      -4.631  -1.639   0.231  0.00  0.00     0.015 C 
ATOM     19  H   UNL d   1       0.290  -2.340  -0.130  0.00  0.00     0.167 HD
ENDROOT
BRANCH   8  20
ATOM     20  C   UNL d   1       0.241   2.303   1.229  0.00  0.00    -0.042 A 
ATOM     21  C   UNL d   1       0.222   1.584   2.444  0.00  0.00     0.044 A 
ATOM     22  C   UNL d   1       0.243   2.239   3.673  0.00  0.00     0.068 A 
ATOM     23  C   UNL d   1       0.278   3.633   3.693  0.00  0.00     0.037 A 
ATOM     24  C   UNL d   1       0.276   4.364   2.503  0.00  0.00     0.003 A 
ATOM     25  C   UNL d   1       0.246   3.703   1.276  0.00  0.00     0.008 A 
BRANCH  22  26
ATOM     26  O   UNL d   1       0.233   1.635   4.899  0.00  0.00    -0.356 OA
ATOM     27  C   UNL d   1       0.167   0.214   4.909  0.00  0.00     0.210 C 
ENDBRANCH  22  26
ENDBRANCH   8  20
BRANCH   3  28
ATOM     28  C   UNL d   1       3.300  -2.372  -0.035  0.00  0.00     0.058 A 
ATOM     29  C   UNL d   1       2.720  -3.347  -0.852  0.00  0.00     0.031 A 
ATOM     30  C   UNL d   1       3.286  -4.622  -0.914  0.00  0.00     0.002 A 
ATOM     31  C   UNL d   1       4.410  -4.931  -0.147  0.00  0.00     0.000 A 
ATOM     32  C   UNL d   1       4.987  -3.962   0.673  0.00  0.00     0.002 A 
ATOM     33  C   UNL d   1       4.446  -2.677   0.716  0.00  0.00     0.031 A 
ENDBRANCH   3  28
TORSDOF 3
