REMARK  3 active torsions:
REMARK  status: ('A' for Active; 'I' for Inactive)
REMARK       I    between atoms: N_2  and  C_1 
REMARK    1  A    between atoms: C_3  and  C_1 
REMARK    2  A    between atoms: C_4  and  C_10 
REMARK    3  A    between atoms: C_6  and  C_4 
ROOT
ATOM      1  C   UNL d   1       0.813   0.062  -0.166  0.00  0.00     0.260 C 
ATOM      2  N   UNL d   1      -0.116   0.997   0.348  0.00  0.00    -0.347 N 
ATOM      3  C   UNL d   1      -1.270   0.634   1.163  0.00  0.00     0.127 C 
ATOM      4  O   UNL d   1       1.796   0.458  -0.796  0.00  0.00    -0.267 OA
ATOM      5  C   UNL d   1       0.346   2.380   0.454  0.00  0.00     0.127 C 
ATOM      6  C   UNL d   1      -1.969   3.070   1.325  0.00  0.00     0.064 C 
ATOM      7  C   UNL d   1      -2.416   1.633   1.063  0.00  0.00     0.032 C 
ATOM      8  C   UNL d   1      -0.779   3.413   0.422  0.00  0.00     0.032 C 
ENDROOT
BRANCH   6   9
ATOM      9  C   UNL d   1      -1.666   3.304   2.808  0.00  0.00     0.163 C 
ATOM     10  O   UNL d   1      -0.517   3.263   3.245  0.00  0.00    -0.292 OA
BRANCH   9  11
ATOM     11  C   UNL d   1      -2.790   3.571   3.765  0.00  0.00     0.010 A 
ATOM     12  C   UNL d   1      -4.137   3.508   3.396  0.00  0.00     0.015 A 
ATOM     13  C   UNL d   1      -5.142   3.753   4.338  0.00  0.00     0.007 A 
ATOM     14  C   UNL d   1      -4.818   4.075   5.660  0.00  0.00    -0.062 A 
ATOM     15  C   UNL d   1      -3.472   4.141   6.032  0.00  0.00     0.007 A 
ATOM     16  C   UNL d   1      -5.910   4.331   6.657  0.00  0.00     0.048 C 
ATOM     17  C   UNL d   1      -2.466   3.890   5.093  0.00  0.00     0.015 A 
ENDBRANCH   9  11
ENDBRANCH   6   9
BRANCH   1  18
ATOM     18  C   UNL d   1       0.586  -1.365   0.053  0.00  0.00     0.072 A 
ATOM     19  S   UNL d   1       0.874  -2.447  -1.253  0.00  0.00    -0.097 SA
ATOM     20  C   UNL d   1       0.438  -3.809  -0.317  0.00  0.00     0.050 A 
ATOM     21  C   UNL d   1       0.104  -3.464   0.972  0.00  0.00     0.009 A 
ATOM     22  C   UNL d   1       0.230  -2.062   1.196  0.00  0.00     0.025 A 
ENDBRANCH   1  18
TORSDOF 3
