REMARK  3 active torsions:
REMARK  status: ('A' for Active; 'I' for Inactive)
REMARK    1  A    between atoms: C_2  and  N_1 
REMARK       I    between atoms: C_3  and  N_6 
REMARK       I    between atoms: N_5  and  C_3 
REMARK    2  A    between atoms: N_7  and  C_4 
REMARK    3  A    between atoms: C_8  and  N_5 
ROOT
ATOM      1  C   UNL d   1      -2.887   4.626   1.696  0.00  0.00     0.323 C 
ATOM      2  N   UNL d   1      -2.258   5.835   1.918  0.00  0.00    -0.307 N 
ATOM      3  N   UNL d   1      -2.677   4.071   0.442  0.00  0.00    -0.332 N 
ATOM      4  N   UNL d   1      -1.318   1.595  -0.380  0.00  0.00    -0.364 N 
ATOM      5  O   UNL d   1      -3.623   4.076   2.514  0.00  0.00    -0.247 OA
ATOM      6  C   UNL d   1      -3.406   2.828   0.137  0.00  0.00     0.147 C 
ATOM      7  C   UNL d   1      -2.580   1.555   0.388  0.00  0.00     0.144 C 
ATOM      8  C   UNL d   1      -0.270   3.827  -0.297  0.00  0.00     0.040 C 
ATOM      9  C   UNL d   1      -1.647   4.454  -0.530  0.00  0.00     0.129 C 
ATOM     10  C   UNL d   1      -0.268   2.403   0.256  0.00  0.00     0.126 C 
ATOM     11  H   UNL d   1      -2.225   6.399   1.079  0.00  0.00     0.170 HD
ENDROOT
BRANCH   2  12
ATOM     12  C   UNL d   1      -2.560   6.603   3.081  0.00  0.00     0.064 A 
ATOM     13  C   UNL d   1      -2.979   7.936   2.896  0.00  0.00     0.061 A 
ATOM     14 CL   UNL d   1      -2.984   8.659   1.321  0.00  0.00    -0.082 Cl
ATOM     15  C   UNL d   1      -3.449   8.698   3.967  0.00  0.00     0.026 A 
ATOM     16  C   UNL d   1      -3.483   8.147   5.243  0.00  0.00     0.002 A 
ATOM     17  C   UNL d   1      -2.995   6.858   5.453  0.00  0.00     0.009 A 
ATOM     18  C   UNL d   1      -2.499   6.082   4.388  0.00  0.00    -0.034 A 
ATOM     19  C   UNL d   1      -1.904   4.743   4.734  0.00  0.00     0.050 C 
ENDBRANCH   2  12
BRANCH   4  20
ATOM     20  C   UNL d   1      -0.961   0.586  -1.258  0.00  0.00     0.137 A 
ATOM     21  C   UNL d   1      -1.807  -0.030  -2.186  0.00  0.00     0.146 A 
ATOM     22  C   UNL d   1      -1.373  -1.069  -3.025  0.00  0.00     0.041 A 
ATOM     23  C   UNL d   1      -0.054  -1.478  -2.945  0.00  0.00     0.020 A 
ATOM     24  C   UNL d   1       0.758  -0.820  -2.044  0.00  0.00     0.090 A 
ATOM     25  N   UNL d   1       0.334   0.175  -1.226  0.00  0.00    -0.350 N 
ATOM     26  HN  UNL d   1       0.990   0.618  -0.583  1.00  0.00     0.166 HD
BRANCH  21  27
ATOM     27  N   UNL d   1      -3.141   0.453  -2.426  0.00  0.00    -0.112 N 
ATOM     28  O   UNL d   1      -3.258   1.540  -3.008  0.00  0.00    -0.532 OA
ATOM     29  O   UNL d   1      -4.075  -0.287  -2.094  0.00  0.00    -0.532 OA
ENDBRANCH  21  27
ENDBRANCH   4  20
TORSDOF 3
