REMARK  3 active torsions:
REMARK  status: ('A' for Active; 'I' for Inactive)
REMARK    1  A    between atoms: C_7  and  C_3 
REMARK    2  A    between atoms: C_11  and  C_4 
REMARK    3  A    between atoms: O_17  and  C_11 
ROOT
ATOM      1  C   UNL d   1       0.232   0.744   0.001  0.00  0.00     0.048 A 
ATOM      2  C   UNL d   1       0.343  -0.633  -0.003  0.00  0.00     0.070 A 
ATOM      3  C   UNL d   1      -1.008   1.462   0.001  0.00  0.00     0.072 A 
ATOM      4  C   UNL d   1       1.698  -1.115  -0.003  0.00  0.00     0.080 A 
ATOM      5  S   UNL d   1       1.768   1.467   0.005  0.00  0.00    -0.091 SA
ATOM      6  C   UNL d   1       2.580  -0.038   0.001  0.00  0.00    -0.002 A 
ATOM      7  N   UNL d   1      -0.817  -1.392  -0.007  0.00  0.00    -0.321 N 
ATOM      8  C   UNL d   1      -2.111   0.677  -0.005  0.00  0.00     0.092 A 
ATOM      9  C   UNL d   1      -2.060  -0.814  -0.009  0.00  0.00     0.246 A 
ATOM     10  O   UNL d   1      -3.099  -1.465  -0.014  0.00  0.00    -0.268 OA
ATOM     11  C   UNL d   1       4.077  -0.020   0.002  0.00  0.00     0.057 C 
ATOM     12  H   UNL d   1      -0.756  -2.407  -0.011  0.00  0.00     0.169 HD
ENDROOT
BRANCH   3  13
ATOM     13  C   UNL d   1      -1.208   2.956   0.004  0.00  0.00     0.419 C 
ATOM     14  F   UNL d   1      -0.064   3.682   0.011  0.00  0.00    -0.166 F 
ATOM     15  F   UNL d   1      -1.912   3.362  -1.086  0.00  0.00    -0.166 F 
ATOM     16  F   UNL d   1      -1.920   3.355   1.092  0.00  0.00    -0.166 F 
ENDBRANCH   3  13
BRANCH   4  17
ATOM     17  C   UNL d   1       2.074  -2.534  -0.008  0.00  0.00     0.296 C 
ATOM     18  O   UNL d   1       1.246  -3.439  -0.013  0.00  0.00    -0.259 OA
BRANCH  17  19
ATOM     19  O   UNL d   1       3.423  -2.732  -0.008  0.00  0.00    -0.322 OA
ATOM     20  C   UNL d   1       3.846  -4.095  -0.011  0.00  0.00     0.213 C 
ENDBRANCH  17  19
ENDBRANCH   4  17
TORSDOF 3
