REMARK  5 active torsions:
REMARK  status: ('A' for Active; 'I' for Inactive)
REMARK    1  A    between atoms: C_13  and  C_3 
REMARK    2  A    between atoms: C_18  and  C_6 
REMARK    3  A    between atoms: C_7  and  C_14 
REMARK       I    between atoms: C_9  and  N_12 
REMARK    4  A    between atoms: C_10  and  C_9 
REMARK    5  A    between atoms: N_12  and  C_18 
ROOT
ATOM      1  N   UNL d   1       1.298   0.167  -0.020  0.00  0.00    -0.321 N 
ATOM      2  HN  UNL d   1       2.304   0.310  -0.104  1.00  0.00     0.169 HD
ATOM      3  C   UNL d   1       0.292   1.109   0.048  0.00  0.00     0.137 A 
ATOM      4  N   UNL d   1      -0.939   0.584   0.156  0.00  0.00    -0.242 N 
ATOM      5  HN  UNL d   1      -1.830   1.078   0.220  1.00  0.00     0.196 HD
ATOM      6  C   UNL d   1       0.627  -0.962   0.052  0.00  0.00     0.166 A 
ATOM      7  O   UNL d   1      -0.718  -0.788   0.160  0.00  0.00    -0.221 OA
ENDROOT
BRANCH   3   8
ATOM      8  C   UNL d   1       0.557   2.542   0.004  0.00  0.00     0.010 A 
ATOM      9  C   UNL d   1       1.865   3.022  -0.144  0.00  0.00     0.016 A 
ATOM     10  C   UNL d   1       2.119   4.397  -0.177  0.00  0.00     0.017 A 
ATOM     11  C   UNL d   1       1.069   5.319  -0.060  0.00  0.00     0.048 A 
ATOM     12  C   UNL d   1      -0.242   4.839   0.079  0.00  0.00     0.017 A 
ATOM     13  C   UNL d   1      -0.494   3.465   0.111  0.00  0.00     0.016 A 
BRANCH  11  14
ATOM     14  C   UNL d   1       1.324   6.806  -0.078  0.00  0.00     0.417 C 
ATOM     15  F   UNL d   1       2.641   7.131  -0.200  0.00  0.00    -0.166 F 
ATOM     16  F   UNL d   1       0.688   7.431  -1.107  0.00  0.00    -0.166 F 
ATOM     17  F   UNL d   1       0.892   7.420   1.058  0.00  0.00    -0.166 F 
ENDBRANCH  11  14
ENDBRANCH   3   8
BRANCH   6  18
ATOM     18  C   UNL d   1       1.118  -2.358   0.035  0.00  0.00     0.209 C 
BRANCH  18  19
ATOM     19  N   UNL d   1       1.469  -2.776   1.374  0.00  0.00    -0.349 N 
ATOM     20  C   UNL d   1       0.596  -3.456   2.198  0.00  0.00     0.258 C 
ATOM     21  O   UNL d   1      -0.547  -3.717   1.843  0.00  0.00    -0.267 OA
ATOM     22  H   UNL d   1       2.323  -2.421   1.783  0.00  0.00     0.163 HD
BRANCH  20  23
ATOM     23  C   UNL d   1       1.141  -3.832   3.501  0.00  0.00     0.072 A 
ATOM     24  S   UNL d   1       2.777  -3.518   3.922  0.00  0.00    -0.097 SA
ATOM     25  C   UNL d   1       2.590  -4.206   5.472  0.00  0.00     0.050 A 
ATOM     26  C   UNL d   1       1.317  -4.686   5.674  0.00  0.00     0.009 A 
ATOM     27  C   UNL d   1       0.487  -4.491   4.529  0.00  0.00     0.025 A 
ENDBRANCH  20  23
ENDBRANCH  18  19
ENDBRANCH   6  18
TORSDOF 5
