REMARK  10 active torsions:
REMARK  status: ('A' for Active; 'I' for Inactive)
REMARK    1  A    between atoms: C_11  and  N_1 
REMARK    2  A    between atoms: S_9  and  C_2 
REMARK    3  A    between atoms: C_27  and  C_7 
REMARK    4  A    between atoms: C_8  and  C_10 
REMARK    5  A    between atoms: C_15  and  S_9 
REMARK    6  A    between atoms: C_12  and  C_15 
REMARK    7  A    between atoms: C_14  and  C_12 
REMARK    8  A    between atoms: C_19  and  C_28 
REMARK    9  A    between atoms: S_25  and  C_27 
REMARK   10  A    between atoms: C_28  and  S_25 
ROOT
ATOM      1  N   UNL d   1      -0.471  -1.307   0.043  0.00  0.00    -0.278 N 
ATOM      2  C   UNL d   1       0.762  -0.655  -0.037  0.00  0.00     0.168 A 
ATOM      3  N   UNL d   1       0.616   0.629   0.181  0.00  0.00    -0.278 N 
ATOM      4  HN  UNL d   1       1.364   1.322   0.220  1.00  0.00     0.189 HD
ATOM      5  N   UNL d   1      -0.716   0.873   0.347  0.00  0.00    -0.286 N 
ATOM      6  HN  UNL d   1      -1.129   1.785   0.542  1.00  0.00     0.188 HD
ATOM      7  C   UNL d   1      -1.389  -0.261   0.214  0.00  0.00     0.114 A 
ENDROOT
BRANCH   2   8
ATOM      8  S   UNL d   1       2.251  -1.388  -0.576  0.00  0.00    -0.084 SA
BRANCH   8   9
ATOM      9  C   UNL d   1       3.455  -0.046  -0.342  0.00  0.00     0.166 C 
BRANCH   9  10
ATOM     10  C   UNL d   1       4.881  -0.489  -0.659  0.00  0.00     0.169 C 
ATOM     11  O   UNL d   1       5.183  -1.621  -1.041  0.00  0.00    -0.291 OA
BRANCH  10  12
ATOM     12  C   UNL d   1       5.995   0.510  -0.486  0.00  0.00     0.011 A 
ATOM     13  C   UNL d   1       5.751   1.829  -0.077  0.00  0.00     0.016 A 
ATOM     14  C   UNL d   1       6.819   2.719   0.097  0.00  0.00     0.017 A 
ATOM     15  C   UNL d   1       8.144   2.317  -0.133  0.00  0.00     0.048 A 
ATOM     16  C   UNL d   1       8.380   1.000  -0.553  0.00  0.00     0.017 A 
ATOM     17  C   UNL d   1       7.311   0.111  -0.729  0.00  0.00     0.016 A 
BRANCH  15  18
ATOM     18  C   UNL d   1       9.298   3.271   0.086  0.00  0.00     0.417 C 
ATOM     19  F   UNL d   1       8.907   4.511   0.492  0.00  0.00    -0.166 F 
ATOM     20  F   UNL d   1      10.167   2.825   1.036  0.00  0.00    -0.166 F 
ATOM     21  F   UNL d   1      10.039   3.463  -1.039  0.00  0.00    -0.166 F 
ENDBRANCH  15  18
ENDBRANCH  10  12
ENDBRANCH   9  10
ENDBRANCH   8   9
ENDBRANCH   2   8
BRANCH   1  22
ATOM     22  C   UNL d   1      -0.702  -2.713  -0.006  0.00  0.00     0.043 A 
ATOM     23  C   UNL d   1       0.196  -3.583   0.635  0.00  0.00     0.030 A 
ATOM     24  C   UNL d   1      -0.006  -4.963   0.606  0.00  0.00     0.002 A 
ATOM     25  C   UNL d   1      -1.118  -5.489  -0.043  0.00  0.00     0.000 A 
ATOM     26  C   UNL d   1      -2.018  -4.634  -0.675  0.00  0.00     0.002 A 
ATOM     27  C   UNL d   1      -1.808  -3.251  -0.669  0.00  0.00     0.030 A 
ENDBRANCH   1  22
BRANCH   7  28
ATOM     28  C   UNL d   1      -2.887  -0.278   0.170  0.00  0.00     0.152 C 
BRANCH  28  29
ATOM     29  S   UNL d   1      -3.814  -1.420   1.227  0.00  0.00    -0.157 SA
BRANCH  29  30
ATOM     30  C   UNL d   1      -3.631  -0.679   2.889  0.00  0.00     0.113 C 
BRANCH  30  31
ATOM     31  C   UNL d   1      -4.197  -1.596   3.974  0.00  0.00    -0.038 C 
ATOM     32  C   UNL d   1      -5.128  -1.166   4.976  0.00  0.00    -0.019 C 
ATOM     33  C   UNL d   1      -5.364  -2.021   6.087  0.00  0.00    -0.025 C 
ATOM     34  C   UNL d   1      -5.841   0.058   4.963  0.00  0.00     0.013 C 
ATOM     35  C   UNL d   1      -6.096  -1.567   7.196  0.00  0.00     0.012 C 
ATOM     36  C   UNL d   1      -4.854  -3.324   6.098  0.00  0.00     0.012 C 
ATOM     37  C   UNL d   1      -6.682  -0.306   7.199  0.00  0.00     0.001 C 
ATOM     38  C   UNL d   1      -6.609   0.479   6.057  0.00  0.00     0.001 C 
ATOM     39  C   UNL d   1      -4.029  -3.772   5.078  0.00  0.00     0.001 C 
ATOM     40  C   UNL d   1      -3.662  -2.900   4.060  0.00  0.00     0.009 C 
ENDBRANCH  30  31
ENDBRANCH  29  30
ENDBRANCH  28  29
ENDBRANCH   7  28
TORSDOF 10
