REMARK  4 active torsions:
REMARK  status: ('A' for Active; 'I' for Inactive)
REMARK    1  A    between atoms: N_6  and  C_1 
REMARK    2  A    between atoms: C_7  and  N_6 
REMARK    3  A    between atoms: N_13  and  C_7 
REMARK    4  A    between atoms: C_16  and  N_13 
ROOT
ATOM      1  C   UNL d   1       2.100  -0.979   0.357  0.00  0.00     0.098 A 
ATOM      2  C   UNL d   1       0.905  -1.658   0.234  0.00  0.00     0.086 A 
ATOM      3  C   UNL d   1      -0.199  -0.733   0.186  0.00  0.00    -0.018 A 
ATOM      4  C   UNL d   1       0.217   0.580   0.305  0.00  0.00     0.021 A 
ATOM      5  S   UNL d   1       1.897   0.715   0.432  0.00  0.00    -0.073 SA
ATOM      6  C   UNL d   1       0.748  -3.067   0.043  0.00  0.00     0.103 C 
ATOM      7  N   UNL d   1       0.543  -4.193  -0.163  0.00  0.00    -0.191 NA
ATOM      8  N   UNL d   1      -2.088   1.427   0.547  0.00  0.00     0.089 N 
ATOM      9  C   UNL d   1      -0.680   1.781   0.267  0.00  0.00     0.318 C 
ATOM     10  C   UNL d   1      -1.661  -1.048   0.025  0.00  0.00     0.071 C 
ATOM     11  C   UNL d   1      -2.491   0.235  -0.233  0.00  0.00     0.277 C 
ATOM     12  C   UNL d   1      -2.316   1.248   1.981  0.00  0.00     0.310 C 
ENDROOT
BRANCH   1  13
ATOM     13  N   UNL d   1       3.437  -1.283   0.334  0.00  0.00    -0.326 N 
ATOM     14  H   UNL d   1       4.042  -0.491   0.143  0.00  0.00     0.169 HD
BRANCH  13  15
ATOM     15  C   UNL d   1       4.073  -2.496   0.390  0.00  0.00     0.177 C 
ATOM     16  S   UNL d   1       3.813  -3.680   1.533  0.00  0.00    -0.040 SA
BRANCH  15  17
ATOM     17  N   UNL d   1       5.159  -2.580  -0.459  0.00  0.00    -0.333 N 
ATOM     18  H   UNL d   1       5.911  -3.199  -0.174  0.00  0.00     0.168 HD
BRANCH  17  19
ATOM     19  C   UNL d   1       5.262  -1.954  -1.720  0.00  0.00     0.034 A 
ATOM     20  C   UNL d   1       6.520  -1.599  -2.204  0.00  0.00     0.029 A 
ATOM     21  C   UNL d   1       6.629  -0.937  -3.432  0.00  0.00     0.002 A 
ATOM     22  C   UNL d   1       5.492  -0.673  -4.197  0.00  0.00     0.000 A 
ATOM     23  C   UNL d   1       4.241  -1.074  -3.740  0.00  0.00     0.002 A 
ATOM     24  C   UNL d   1       4.128  -1.710  -2.505  0.00  0.00     0.029 A 
ENDBRANCH  17  19
ENDBRANCH  15  17
ENDBRANCH  13  15
ENDBRANCH   1  13
TORSDOF 4
