REMARK  3 active torsions:
REMARK  status: ('A' for Active; 'I' for Inactive)
REMARK    1  A    between atoms: N_2  and  C_1 
REMARK    2  A    between atoms: N_4  and  C_3 
REMARK    3  A    between atoms: O_13  and  C_9 
ROOT
ATOM      1  C   UNL d   1       1.357  -0.218  -0.048  0.00  0.00     0.132 A 
ATOM      2  C   UNL d   1       0.556  -1.378  -0.009  0.00  0.00     0.063 A 
ATOM      3  C   UNL d   1       0.825   1.085  -0.087  0.00  0.00     0.075 A 
ATOM      4  C   UNL d   1      -0.828  -1.139  -0.112  0.00  0.00     0.034 A 
ATOM      5  C   UNL d   1      -0.552   1.271  -0.105  0.00  0.00     0.070 A 
ATOM      6  C   UNL d   1      -1.376   0.153  -0.157  0.00  0.00     0.039 A 
ENDROOT
BRANCH   2   7
ATOM      7  N   UNL d   1       1.042  -2.668   0.231  0.00  0.00    -0.379 N 
ATOM      8  C   UNL d   1       0.136  -3.639   0.873  0.00  0.00     0.123 C 
ATOM      9  C   UNL d   1       0.951  -4.714   1.590  0.00  0.00     0.020 C 
ATOM     10  C   UNL d   1       1.971  -5.367   0.661  0.00  0.00     0.003 C 
ATOM     11  C   UNL d   1       2.814  -4.314  -0.059  0.00  0.00     0.020 C 
ATOM     12  C   UNL d   1       1.925  -3.289  -0.771  0.00  0.00     0.123 C 
ENDBRANCH   2   7
BRANCH   1  13
ATOM     13  N   UNL d   1       2.800  -0.286   0.031  0.00  0.00    -0.113 N 
ATOM     14  O   UNL d   1       3.421  -0.323  -1.039  0.00  0.00    -0.532 OA
ATOM     15  O   UNL d   1       3.311  -0.202   1.160  0.00  0.00    -0.532 OA
ENDBRANCH   1  13
BRANCH   5  16
ATOM     16  O   UNL d   1      -0.964   2.572  -0.061  0.00  0.00    -0.356 OA
ATOM     17  C   UNL d   1      -2.361   2.798   0.092  0.00  0.00     0.210 C 
ENDBRANCH   5  16
TORSDOF 3
