REMARK  1 active torsions:
REMARK  status: ('A' for Active; 'I' for Inactive)
REMARK    1  A    between atoms: C_2  and  N_1 
ROOT
ATOM      1  C   UNL d   1      -0.022   2.336   0.055  0.00  0.00     0.069 A 
ATOM      2  C   UNL d   1       0.723   3.019  -0.923  0.00  0.00     0.056 A 
ATOM      3  C   UNL d   1      -0.771   3.096   0.976  0.00  0.00     0.061 A 
ATOM      4  C   UNL d   1      -0.802   4.494   0.886  0.00  0.00     0.028 A 
ATOM      5  C   UNL d   1       0.674   4.412  -1.012  0.00  0.00     0.036 A 
ATOM      6 CL   UNL d   1      -1.535   2.398   2.365  0.00  0.00    -0.082 Cl
ATOM      7  C   UNL d   1      -0.089   5.152  -0.115  0.00  0.00     0.026 A 
ATOM      8 CL   UNL d   1       1.554   5.220  -2.249  0.00  0.00    -0.084 Cl
ENDROOT
BRANCH   1   9
ATOM      9  N   UNL d   1       0.006   0.920   0.082  0.00  0.00    -0.244 N 
ATOM     10  C   UNL d   1      -1.104   0.126   0.151  0.00  0.00     0.255 C 
ATOM     11  C   UNL d   1      -0.643  -1.267   0.095  0.00  0.00     0.080 C 
ATOM     12  O   UNL d   1      -2.288   0.416   0.128  0.00  0.00    -0.268 OA
ATOM     13  C   UNL d   1       0.673  -1.252  -0.113  0.00  0.00     0.080 C 
ATOM     14  C   UNL d   1       1.101   0.150  -0.178  0.00  0.00     0.255 C 
ATOM     15  O   UNL d   1       2.254   0.470  -0.412  0.00  0.00    -0.268 OA
ENDBRANCH   1   9
TORSDOF 1
