REMARK  3 active torsions:
REMARK  status: ('A' for Active; 'I' for Inactive)
REMARK    1  A    between atoms: C_2  and  N_1 
REMARK    2  A    between atoms: O_15  and  C_6 
REMARK    3  A    between atoms: O_16  and  C_9 
ROOT
ATOM      1  C   UNL d   1       1.327   2.142  -1.099  0.00  0.00     0.048 A 
ATOM      2  C   UNL d   1       1.927   1.769  -2.320  0.00  0.00     0.069 A 
ATOM      3  C   UNL d   1       2.482   2.700  -3.213  0.00  0.00     0.103 A 
ATOM      4  C   UNL d   1       1.329   3.502  -0.777  0.00  0.00     0.033 A 
ATOM      5  C   UNL d   1       2.490   4.052  -2.853  0.00  0.00     0.101 A 
ATOM      6  C   UNL d   1       1.912   4.439  -1.639  0.00  0.00     0.042 A 
ENDROOT
BRANCH   1   7
ATOM      7  N   UNL d   1       0.590   1.149  -0.354  0.00  0.00    -0.251 N 
ATOM      8  C   UNL d   1       0.946  -0.199  -0.498  0.00  0.00     0.240 C 
ATOM      9  O   UNL d   1       2.103  -0.602  -0.653  0.00  0.00    -0.272 OA
ATOM     10  C   UNL d   1      -0.209  -1.171  -0.551  0.00  0.00     0.178 C 
ATOM     11  S   UNL d   1      -1.272  -1.033   0.893  0.00  0.00    -0.150 SA
ATOM     12  C   UNL d   1      -1.530   0.747   0.797  0.00  0.00     0.178 C 
ATOM     13  C   UNL d   1      -0.214   1.499   0.731  0.00  0.00     0.240 C 
ATOM     14  O   UNL d   1       0.042   2.368   1.564  0.00  0.00    -0.272 OA
ENDBRANCH   1   7
BRANCH   3  15
ATOM     15  O   UNL d   1       2.962   2.347  -4.447  0.00  0.00    -0.353 OA
ATOM     16  C   UNL d   1       2.840   0.988  -4.852  0.00  0.00     0.210 C 
ENDBRANCH   3  15
BRANCH   5  17
ATOM     17  O   UNL d   1       2.949   5.108  -3.594  0.00  0.00    -0.353 OA
ATOM     18  C   UNL d   1       4.030   4.847  -4.480  0.00  0.00     0.210 C 
ENDBRANCH   5  17
TORSDOF 3
