REMARK  3 active torsions:
REMARK  status: ('A' for Active; 'I' for Inactive)
REMARK    1  A    between atoms: C_10  and  C_4 
REMARK    2  A    between atoms: O_19  and  C_12 
REMARK    3  A    between atoms: O_20  and  C_13 
ROOT
ATOM      1  C   UNL d   1      -1.101  -0.817   0.035  0.00  0.00     0.189 C 
ATOM      2  C   UNL d   1      -2.081   0.316   0.070  0.00  0.00    -0.006 C 
ATOM      3  C   UNL d   1       0.343  -0.434   0.024  0.00  0.00     0.023 A 
ATOM      4  C   UNL d   1      -3.289   0.116  -0.486  0.00  0.00     0.022 C 
ATOM      5  C   UNL d   1       0.732   0.918  -0.026  0.00  0.00    -0.043 A 
ATOM      6  C   UNL d   1       1.311  -1.449   0.031  0.00  0.00     0.052 A 
ATOM      7  C   UNL d   1      -1.561   1.584   0.683  0.00  0.00     0.047 C 
ATOM      8  O   UNL d   1      -1.453  -1.989  -0.007  0.00  0.00    -0.287 OA
ATOM      9  C   UNL d   1      -0.296   2.019  -0.045  0.00  0.00     0.044 C 
ATOM     10  C   UNL d   1       2.092   1.234  -0.102  0.00  0.00     0.011 A 
ATOM     11  C   UNL d   1       2.666  -1.123  -0.023  0.00  0.00     0.069 A 
ATOM     12  C   UNL d   1       3.049   0.218  -0.094  0.00  0.00     0.037 A 
ENDROOT
BRANCH   4  13
ATOM     13  C   UNL d   1      -4.282   1.176  -0.653  0.00  0.00    -0.035 A 
ATOM     14  C   UNL d   1      -4.264   1.957  -1.814  0.00  0.00     0.014 A 
ATOM     15  C   UNL d   1      -5.158   3.022  -1.969  0.00  0.00     0.037 A 
ATOM     16  C   UNL d   1      -6.081   3.313  -0.965  0.00  0.00     0.068 A 
ATOM     17  C   UNL d   1      -6.113   2.516   0.184  0.00  0.00     0.037 A 
ATOM     18  C   UNL d   1      -5.217   1.454   0.344  0.00  0.00     0.014 A 
BRANCH  16  19
ATOM     19  O   UNL d   1      -6.986   4.338  -0.983  0.00  0.00    -0.356 OA
ATOM     20  C   UNL d   1      -6.967   5.188  -2.124  0.00  0.00     0.210 C 
ENDBRANCH  16  19
ENDBRANCH   4  13
BRANCH  11  21
ATOM     21  O   UNL d   1       3.707  -2.012  -0.020  0.00  0.00    -0.356 OA
ATOM     22  C   UNL d   1       3.368  -3.392   0.050  0.00  0.00     0.210 C 
ENDBRANCH  11  21
TORSDOF 3
