REMARK  6 active torsions:
REMARK  status: ('A' for Active; 'I' for Inactive)
REMARK    1  A    between atoms: N_2  and  S_1 
REMARK    2  A    between atoms: C_6  and  S_1 
REMARK    3  A    between atoms: C_3  and  N_2 
REMARK    4  A    between atoms: C_4  and  C_10 
REMARK    5  A    between atoms: O_9  and  C_5 
REMARK    6  A    between atoms: C_20  and  O_9 
ROOT
ATOM      1  C   UNL d   1       0.967   1.735   2.086  0.00  0.00     0.094 A 
ATOM      2  C   UNL d   1      -0.019   2.311   2.896  0.00  0.00     0.175 A 
ATOM      3  N   UNL d   1       0.205   2.688   4.182  0.00  0.00    -0.345 N 
ATOM      4  HN  UNL d   1      -0.521   3.144   4.734  1.00  0.00     0.167 HD
ATOM      5  C   UNL d   1       2.205   1.464   2.670  0.00  0.00     0.036 A 
ATOM      6  C   UNL d   1       1.422   2.437   4.700  0.00  0.00     0.090 A 
ATOM      7  C   UNL d   1       2.439   1.818   3.995  0.00  0.00     0.019 A 
ENDROOT
BRANCH   1   8
ATOM      8  N   UNL d   1       0.799   1.496   0.687  0.00  0.00    -0.276 N 
ATOM      9  H   UNL d   1       1.099   0.596   0.317  0.00  0.00     0.179 HD
BRANCH   8  10
ATOM     10  S   UNL d   1       1.153   2.770  -0.377  0.00  0.00     0.263 S 
ATOM     11  O   UNL d   1       0.394   3.941   0.004  0.00  0.00    -0.200 OA
ATOM     12  O   UNL d   1       1.073   2.213  -1.709  0.00  0.00    -0.200 OA
BRANCH  10  13
ATOM     13  C   UNL d   1       2.880   3.118  -0.063  0.00  0.00     0.079 A 
ATOM     14  C   UNL d   1       3.869   2.428  -0.773  0.00  0.00     0.026 A 
ATOM     15  C   UNL d   1       5.219   2.702  -0.524  0.00  0.00     0.018 A 
ATOM     16  C   UNL d   1       5.590   3.669   0.425  0.00  0.00     0.048 A 
ATOM     17  C   UNL d   1       4.583   4.369   1.111  0.00  0.00     0.018 A 
ATOM     18  C   UNL d   1       3.233   4.106   0.860  0.00  0.00     0.026 A 
BRANCH  16  19
ATOM     19  C   UNL d   1       7.045   3.970   0.713  0.00  0.00     0.417 C 
ATOM     20  F   UNL d   1       7.912   3.230  -0.034  0.00  0.00    -0.166 F 
ATOM     21  F   UNL d   1       7.366   5.272   0.481  0.00  0.00    -0.166 F 
ATOM     22  F   UNL d   1       7.373   3.727   2.012  0.00  0.00    -0.166 F 
ENDBRANCH  16  19
ENDBRANCH  10  13
ENDBRANCH   8  10
ENDBRANCH   1   8
BRANCH   2  23
ATOM     23  O   UNL d   1      -1.313   2.433   2.393  0.00  0.00    -0.292 OA
BRANCH  23  24
ATOM     24  C   UNL d   1      -2.344   2.285   3.302  0.00  0.00     0.078 A 
ATOM     25  C   UNL d   1      -3.418   3.173   3.209  0.00  0.00     0.039 A 
ATOM     26  C   UNL d   1      -4.475   3.091   4.124  0.00  0.00     0.026 A 
ATOM     27  C   UNL d   1      -4.460   2.114   5.119  0.00  0.00     0.034 A 
ATOM     28  C   UNL d   1      -3.415   1.196   5.189  0.00  0.00     0.026 A 
ATOM     29 CL   UNL d   1      -5.736   2.039   6.271  0.00  0.00    -0.084 Cl
ATOM     30  C   UNL d   1      -2.368   1.269   4.267  0.00  0.00     0.039 A 
ENDBRANCH  23  24
ENDBRANCH   2  23
TORSDOF 6
