REMARK  6 active torsions:
REMARK  status: ('A' for Active; 'I' for Inactive)
REMARK    1  A    between atoms: C_13  and  N_1 
REMARK    2  A    between atoms: S_19  and  C_2 
REMARK    3  A    between atoms: C_16  and  C_7 
REMARK    4  A    between atoms: C_18  and  C_10 
REMARK    5  A    between atoms: C_14  and  C_22 
REMARK    6  A    between atoms: C_22  and  C_18 
ROOT
ATOM      1  N   UNL d   1      -0.460   0.733  -0.206  0.00  0.00    -0.276 N 
ATOM      2  C   UNL d   1       0.777   0.098  -0.294  0.00  0.00     0.165 A 
ATOM      3  N   UNL d   1       0.630  -1.210  -0.241  0.00  0.00    -0.278 N 
ATOM      4  HN  UNL d   1       1.379  -1.900  -0.304  1.00  0.00     0.189 HD
ATOM      5  N   UNL d   1      -0.689  -1.478  -0.087  0.00  0.00    -0.286 N 
ATOM      6  HN  UNL d   1      -1.098  -2.409  -0.005  1.00  0.00     0.188 HD
ATOM      7  C   UNL d   1      -1.363  -0.340  -0.060  0.00  0.00     0.105 A 
ENDROOT
BRANCH   7   8
ATOM      8  C   UNL d   1      -2.863  -0.296  -0.015  0.00  0.00     0.086 C 
BRANCH   8   9
ATOM      9  C   UNL d   1      -3.508  -1.691  -0.029  0.00  0.00     0.094 C 
BRANCH   9  10
ATOM     10  C   UNL d   1      -4.991  -1.599   0.035  0.00  0.00     0.148 A 
ATOM     11  N   UNL d   1      -5.841  -1.079  -0.822  0.00  0.00    -0.323 N 
ATOM     12  C   UNL d   1      -7.062  -1.290  -0.208  0.00  0.00     0.137 A 
ATOM     13  HN  UNL d   1      -5.647  -0.632  -1.717  1.00  0.00     0.169 HD
ATOM     14  N   UNL d   1      -6.968  -1.909   0.979  0.00  0.00    -0.242 N 
ATOM     15  O   UNL d   1      -5.600  -2.118   1.141  0.00  0.00    -0.223 OA
ATOM     16  HN  UNL d   1      -7.723  -2.168   1.614  1.00  0.00     0.196 HD
BRANCH  12  17
ATOM     17  C   UNL d   1      -8.323  -0.844  -0.804  0.00  0.00     0.010 A 
ATOM     18  C   UNL d   1      -8.324  -0.222  -2.064  0.00  0.00     0.017 A 
ATOM     19  C   UNL d   1      -9.518   0.235  -2.636  0.00  0.00     0.025 A 
ATOM     20  C   UNL d   1     -10.720   0.077  -1.954  0.00  0.00     0.034 A 
ATOM     21  C   UNL d   1     -10.742  -0.547  -0.707  0.00  0.00     0.025 A 
ATOM     22 CL   UNL d   1     -12.181   0.658  -2.648  0.00  0.00    -0.084 Cl
ATOM     23  C   UNL d   1      -9.550  -1.005  -0.136  0.00  0.00     0.017 A 
ENDBRANCH  12  17
ENDBRANCH   9  10
ENDBRANCH   8   9
ENDBRANCH   7   8
BRANCH   1  24
ATOM     24  C   UNL d   1      -0.739   2.136  -0.267  0.00  0.00     0.081 A 
ATOM     25  C   UNL d   1      -1.760   2.714   0.493  0.00  0.00     0.143 A 
ATOM     26  F   UNL d   1      -2.466   2.004   1.376  0.00  0.00    -0.204 F 
ATOM     27  C   UNL d   1      -2.009   4.087   0.460  0.00  0.00     0.044 A 
ATOM     28  C   UNL d   1      -1.200   4.925  -0.296  0.00  0.00     0.003 A 
ATOM     29  C   UNL d   1      -0.170   4.378  -1.053  0.00  0.00     0.002 A 
ATOM     30  C   UNL d   1       0.038   2.993  -1.069  0.00  0.00     0.033 A 
ENDBRANCH   1  24
BRANCH   2  31
ATOM     31  S   UNL d   1       2.368   0.802  -0.303  0.00  0.00    -0.105 SA
ATOM     32  H   UNL d   1       2.101   2.091  -0.069  0.00  0.00     0.110 HD
ENDBRANCH   2  31
TORSDOF 6
