REMARK  7 active torsions:
REMARK  status: ('A' for Active; 'I' for Inactive)
REMARK    1  A    between atoms: C_23  and  N_1 
REMARK    2  A    between atoms: C_3  and  N_13 
REMARK    3  A    between atoms: C_21  and  N_4 
REMARK    4  A    between atoms: S_18  and  C_7 
REMARK       I    between atoms: N_13  and  C_19 
REMARK    5  A    between atoms: C_27  and  S_18 
REMARK    6  A    between atoms: C_19  and  C_27 
REMARK    7  A    between atoms: C_28  and  C_23 
ROOT
ATOM      1  C   UNL d   1      -7.173  -2.698  -0.560  0.00  0.00     0.152 A 
ATOM      2  N   UNL d   1      -7.971  -3.794  -0.215  0.00  0.00    -0.239 N 
ATOM      3  N   UNL d   1      -9.286  -3.553  -0.471  0.00  0.00    -0.302 N 
ATOM      4  HN  UNL d   1     -10.065  -4.207  -0.398  1.00  0.00     0.186 HD
ATOM      5  C   UNL d   1      -8.052  -1.704  -0.950  0.00  0.00     0.107 A 
ATOM      6  C   UNL d   1      -9.328  -2.273  -0.839  0.00  0.00     0.134 A 
ATOM      7  C   UNL d   1      -7.762  -0.426  -1.513  0.00  0.00     0.105 C 
ATOM      8  N   UNL d   1      -7.566   0.586  -2.045  0.00  0.00    -0.191 NA
ENDROOT
BRANCH   1   9
ATOM      9  N   UNL d   1      -5.774  -2.719  -0.560  0.00  0.00    -0.310 N 
ATOM     10  C   UNL d   1      -5.080  -1.678   0.060  0.00  0.00     0.233 C 
ATOM     11  O   UNL d   1      -5.638  -0.710   0.571  0.00  0.00    -0.272 OA
ATOM     12  H   UNL d   1      -5.310  -3.622  -0.614  0.00  0.00     0.170 HD
BRANCH  10  13
ATOM     13  C   UNL d   1      -3.572  -1.915   0.082  0.00  0.00     0.185 C 
BRANCH  13  14
ATOM     14  S   UNL d   1      -2.728  -0.704   1.141  0.00  0.00    -0.083 SA
BRANCH  14  15
ATOM     15  C   UNL d   1      -1.081  -0.984   0.707  0.00  0.00     0.163 A 
ATOM     16  N   UNL d   1      -0.076  -0.068   0.878  0.00  0.00    -0.306 N 
ATOM     17  C   UNL d   1       1.034  -0.638   0.296  0.00  0.00     0.159 A 
ATOM     18  N   UNL d   1       0.729  -1.862  -0.095  0.00  0.00    -0.281 N 
ATOM     19  C   UNL d   1       2.312  -0.027   0.090  0.00  0.00     0.120 A 
ATOM     20  N   UNL d   1      -0.606  -2.075   0.155  0.00  0.00    -0.278 N 
ATOM     21  HN  UNL d   1       1.373  -2.535  -0.511  1.00  0.00     0.188 HD
ATOM     22  HN  UNL d   1      -1.131  -2.925  -0.050  1.00  0.00     0.189 HD
ATOM     23  O   UNL d   1       2.571   1.303   0.314  0.00  0.00    -0.319 OA
ATOM     24  C   UNL d   1       3.471  -0.617  -0.392  0.00  0.00     0.043 A 
ATOM     25  C   UNL d   1       3.861   1.543  -0.027  0.00  0.00     0.142 A 
ATOM     26  C   UNL d   1       4.463   0.391  -0.466  0.00  0.00     0.027 A 
BRANCH  16  27
ATOM     27  C   UNL d   1      -0.143   1.190   1.601  0.00  0.00     0.159 C 
BRANCH  27  28
ATOM     28  C   UNL d   1      -0.547   2.342   0.727  0.00  0.00    -0.017 C 
ATOM     29  C   UNL d   1      -1.632   3.101   0.934  0.00  0.00     0.008 C 
ENDBRANCH  27  28
ENDBRANCH  16  27
ENDBRANCH  14  15
ENDBRANCH  13  14
ENDBRANCH  10  13
ENDBRANCH   1   9
BRANCH   2  30
ATOM     30  C   UNL d   1      -7.586  -5.028   0.377  0.00  0.00     0.058 A 
ATOM     31  C   UNL d   1      -6.430  -5.138   1.163  0.00  0.00     0.031 A 
ATOM     32  C   UNL d   1      -6.066  -6.370   1.708  0.00  0.00     0.002 A 
ATOM     33  C   UNL d   1      -6.857  -7.494   1.488  0.00  0.00     0.000 A 
ATOM     34  C   UNL d   1      -8.029  -7.384   0.738  0.00  0.00     0.002 A 
ATOM     35  C   UNL d   1      -8.401  -6.155   0.196  0.00  0.00     0.031 A 
ENDBRANCH   2  30
TORSDOF 7
