REMARK  7 active torsions:
REMARK  status: ('A' for Active; 'I' for Inactive)
REMARK    1  A    between atoms: C_8  and  N_1 
REMARK    2  A    between atoms: S_11  and  C_2 
REMARK    3  A    between atoms: O_19  and  C_3 
REMARK    4  A    between atoms: C_16  and  S_11 
REMARK    5  A    between atoms: C_12  and  C_16 
REMARK    6  A    between atoms: C_15  and  C_12 
REMARK    7  A    between atoms: O_27  and  C_22 
ROOT
ATOM      1  N   UNL d   1      -0.178  -1.261  -0.027  0.00  0.00    -0.254 N 
ATOM      2  C   UNL d   1       1.028  -0.649  -0.380  0.00  0.00     0.169 A 
ATOM      3  C   UNL d   1      -0.978  -0.172   0.321  0.00  0.00     0.245 A 
ATOM      4  N   UNL d   1       0.951   0.652  -0.220  0.00  0.00    -0.276 N 
ATOM      5  HN  UNL d   1       1.703   1.321  -0.385  1.00  0.00     0.189 HD
ATOM      6  N   UNL d   1      -0.311   0.954   0.206  0.00  0.00    -0.263 N 
ATOM      7  HN  UNL d   1      -0.671   1.888   0.401  1.00  0.00     0.190 HD
ENDROOT
BRANCH   2   8
ATOM      8  S   UNL d   1       2.417  -1.462  -1.036  0.00  0.00    -0.084 SA
BRANCH   8   9
ATOM      9  C   UNL d   1       3.401  -0.087  -1.682  0.00  0.00     0.166 C 
BRANCH   9  10
ATOM     10  C   UNL d   1       2.812   0.419  -2.977  0.00  0.00     0.169 C 
ATOM     11  O   UNL d   1       1.820  -0.088  -3.511  0.00  0.00    -0.291 OA
BRANCH  10  12
ATOM     12  C   UNL d   1       3.475   1.553  -3.675  0.00  0.00     0.011 A 
ATOM     13  C   UNL d   1       4.721   2.066  -3.292  0.00  0.00     0.018 A 
ATOM     14  C   UNL d   1       5.289   3.122  -4.017  0.00  0.00     0.037 A 
ATOM     15  C   UNL d   1       4.609   3.670  -5.112  0.00  0.00     0.068 A 
ATOM     16  C   UNL d   1       3.387   3.140  -5.505  0.00  0.00     0.037 A 
ATOM     17  C   UNL d   1       2.818   2.090  -4.787  0.00  0.00     0.018 A 
BRANCH  15  18
ATOM     18  O   UNL d   1       5.075   4.691  -5.891  0.00  0.00    -0.356 OA
ATOM     19  C   UNL d   1       5.843   5.668  -5.202  0.00  0.00     0.210 C 
ENDBRANCH  15  18
ENDBRANCH  10  12
ENDBRANCH   9  10
ENDBRANCH   8   9
ENDBRANCH   2   8
BRANCH   1  20
ATOM     20  C   UNL d   1      -0.526  -2.655  -0.011  0.00  0.00     0.057 A 
ATOM     21  C   UNL d   1       0.372  -3.616   0.537  0.00  0.00    -0.034 A 
ATOM     22  C   UNL d   1       0.088  -4.990   0.399  0.00  0.00     0.015 A 
ATOM     23  C   UNL d   1       1.630  -3.334   1.325  0.00  0.00     0.050 C 
ATOM     24  C   UNL d   1      -1.097  -5.442  -0.170  0.00  0.00    -0.061 A 
ATOM     25  C   UNL d   1      -2.022  -4.499  -0.606  0.00  0.00     0.015 A 
ATOM     26  C   UNL d   1      -1.334  -6.910  -0.353  0.00  0.00     0.048 C 
ATOM     27  C   UNL d   1      -1.752  -3.112  -0.574  0.00  0.00    -0.034 A 
ATOM     28  C   UNL d   1      -2.825  -2.278  -1.232  0.00  0.00     0.050 C 
ENDBRANCH   1  20
BRANCH   3  29
ATOM     29  O   UNL d   1      -2.219  -0.199   0.795  0.00  0.00    -0.331 OA
ATOM     30  H   UNL d   1      -2.463  -1.122   0.973  0.00  0.00     0.221 HD
ENDBRANCH   3  29
TORSDOF 7
