REMARK  4 active torsions:
REMARK  status: ('A' for Active; 'I' for Inactive)
REMARK    1  A    between atoms: C_2  and  S_1 
REMARK    2  A    between atoms: N_3  and  S_1 
REMARK    3  A    between atoms: C_9  and  N_4 
REMARK    4  A    between atoms: O_19  and  C_17 
ROOT
ATOM      1  N   UNL d   1       0.441  -0.825  -1.359  0.00  0.00    -0.203 NA
ATOM      2  N   UNL d   1      -1.153  -3.116  -0.430  0.00  0.00    -0.376 N 
ATOM      3  C   UNL d   1      -1.057  -0.835  -1.377  0.00  0.00     0.127 C 
ATOM      4  C   UNL d   1       0.944  -2.245  -1.446  0.00  0.00     0.127 C 
ATOM      5  C   UNL d   1       0.323  -3.189  -0.383  0.00  0.00     0.138 C 
ATOM      6  C   UNL d   1      -1.656  -1.728  -0.276  0.00  0.00     0.138 C 
ENDROOT
BRANCH   1   7
ATOM      7  S   UNL d   1       1.204   0.114  -0.158  0.00  0.00     0.244 S 
ATOM      8  O   UNL d   1       0.691  -0.309   1.129  0.00  0.00    -0.206 OA
ATOM      9  O   UNL d   1       2.632   0.105  -0.402  0.00  0.00    -0.206 OA
BRANCH   7  10
ATOM     10  C   UNL d   1       0.603   1.779  -0.461  0.00  0.00     0.081 A 
ATOM     11  C   UNL d   1      -0.201   2.360   0.537  0.00  0.00     0.033 A 
ATOM     12  C   UNL d   1      -0.706   3.665   0.406  0.00  0.00    -0.039 A 
ATOM     13  C   UNL d   1      -1.572   4.242   1.489  0.00  0.00     0.050 C 
ATOM     14  C   UNL d   1      -0.387   4.383  -0.752  0.00  0.00     0.040 A 
ATOM     15  C   UNL d   1       0.421   3.813  -1.741  0.00  0.00     0.032 A 
ATOM     16 CL   UNL d   1      -0.971   5.989  -1.008  0.00  0.00    -0.084 Cl
ATOM     17  C   UNL d   1       0.935   2.506  -1.616  0.00  0.00    -0.037 A 
ATOM     18  C   UNL d   1       1.794   2.009  -2.744  0.00  0.00     0.050 C 
ENDBRANCH   7  10
ENDBRANCH   1   7
BRANCH   2  19
ATOM     19  C   UNL d   1      -1.976  -4.164   0.010  0.00  0.00     0.064 A 
ATOM     20  C   UNL d   1      -1.563  -5.335   0.701  0.00  0.00     0.094 A 
ATOM     21  C   UNL d   1      -2.509  -6.320   1.065  0.00  0.00     0.039 A 
ATOM     22  C   UNL d   1      -3.856  -6.197   0.733  0.00  0.00     0.003 A 
ATOM     23  C   UNL d   1      -4.276  -5.088   0.025  0.00  0.00     0.002 A 
ATOM     24  C   UNL d   1      -3.348  -4.107  -0.334  0.00  0.00     0.032 A 
BRANCH  20  25
ATOM     25  O   UNL d   1      -0.240  -5.472   1.061  0.00  0.00    -0.354 OA
ATOM     26  C   UNL d   1       0.226  -6.806   1.264  0.00  0.00     0.210 C 
ENDBRANCH  20  25
ENDBRANCH   2  19
TORSDOF 4
