REMARK  7 active torsions:
REMARK  status: ('A' for Active; 'I' for Inactive)
REMARK    1  A    between atoms: N_2  and  C_1 
REMARK    2  A    between atoms: N_10  and  C_1 
REMARK    3  A    between atoms: C_3  and  N_2 
REMARK    4  A    between atoms: N_6  and  N_10 
REMARK    5  A    between atoms: C_15  and  C_14 
REMARK    6  A    between atoms: O_21  and  C_16 
REMARK    7  A    between atoms: C_22  and  O_21 
ROOT
ATOM      1  N   UNL d   1       2.626   0.018   0.126  0.00  0.00    -0.277 N 
ATOM      2  H   UNL d   1       3.095  -0.759   0.582  0.00  0.00     0.189 HD
ENDROOT
BRANCH   1   3
ATOM      3  N   UNL d   1       3.344   1.002  -0.477  0.00  0.00    -0.309 N 
ATOM      4  C   UNL d   1       4.630   0.943  -0.293  0.00  0.00     0.118 C 
ATOM      5  HN  UNL d   1       2.905   1.734  -1.035  1.00  0.00     0.186 HD
BRANCH   4   6
ATOM      6  C   UNL d   1       5.527   1.896  -0.974  0.00  0.00    -0.019 A 
ATOM      7  C   UNL d   1       4.979   2.871  -1.807  0.00  0.00     0.015 A 
ATOM      8  C   UNL d   1       5.809   3.718  -2.537  0.00  0.00     0.037 A 
ATOM      9  C   UNL d   1       7.195   3.594  -2.445  0.00  0.00     0.068 A 
ATOM     10  C   UNL d   1       7.742   2.646  -1.575  0.00  0.00     0.037 A 
ATOM     11  C   UNL d   1       6.913   1.790  -0.834  0.00  0.00     0.015 A 
BRANCH   9  12
ATOM     12  O   UNL d   1       8.099   4.337  -3.159  0.00  0.00    -0.352 OA
BRANCH  12  13
ATOM     13  C   UNL d   1       7.547   5.195  -4.162  0.00  0.00     0.171 C 
ATOM     14  C   UNL d   1       8.677   5.841  -4.938  0.00  0.00     0.034 C 
ENDBRANCH  12  13
ENDBRANCH   9  12
ENDBRANCH   4   6
ENDBRANCH   1   3
BRANCH   1  15
ATOM     15  C   UNL d   1       1.251  -0.027   0.058  0.00  0.00     0.186 C 
ATOM     16  S   UNL d   1       0.459  -1.331   0.737  0.00  0.00    -0.040 SA
BRANCH  15  17
ATOM     17  N   UNL d   1       0.677   1.046  -0.576  0.00  0.00    -0.361 N 
ATOM     18  H   UNL d   1       1.358   1.712  -0.926  0.00  0.00     0.162 HD
BRANCH  17  19
ATOM     19  C   UNL d   1      -0.746   1.324  -0.687  0.00  0.00     0.092 C 
ATOM     20  C   UNL d   1      -1.432   1.805   0.624  0.00  0.00     0.031 C 
ATOM     21  C   UNL d   1      -0.906   3.162   1.046  0.00  0.00    -0.024 C 
ATOM     22  C   UNL d   1      -2.782   2.252   0.045  0.00  0.00     0.019 C 
ATOM     23  C   UNL d   1      -1.360   4.064   0.160  0.00  0.00    -0.026 C 
ATOM     24  C   UNL d   1      -2.147   3.300  -0.876  0.00  0.00     0.010 C 
ATOM     25  C   UNL d   1      -1.131   2.457  -1.689  0.00  0.00     0.034 C 
ENDBRANCH  17  19
ENDBRANCH  15  17
ENDBRANCH   1  15
TORSDOF 7
