REMARK  6 active torsions:
REMARK  status: ('A' for Active; 'I' for Inactive)
REMARK    1  A    between atoms: C_4  and  C_1 
REMARK    2  A    between atoms: O_5  and  C_2 
REMARK    3  A    between atoms: C_3  and  O_5 
REMARK    4  A    between atoms: O_16  and  C_4 
REMARK    5  A    between atoms: C_6  and  C_7 
REMARK    6  A    between atoms: O_17  and  C_6 
ROOT
ATOM      1  C   UNL d   1       1.533  -0.127   0.120  0.00  0.00     0.071 A 
ATOM      2  C   UNL d   1       0.727  -1.277   0.120  0.00  0.00     0.096 A 
ATOM      3  C   UNL d   1      -1.256   0.106  -0.006  0.00  0.00     0.040 A 
ATOM      4  C   UNL d   1      -0.668  -1.164   0.082  0.00  0.00     0.056 A 
ATOM      5  C   UNL d   1       0.937   1.135   0.002  0.00  0.00     0.022 A 
ATOM      6  C   UNL d   1      -0.454   1.252  -0.049  0.00  0.00     0.019 A 
ENDROOT
BRANCH   2   7
ATOM      7  O   UNL d   1       1.275  -2.522   0.289  0.00  0.00    -0.254 OA
BRANCH   7   8
ATOM      8  C   UNL d   1       1.637  -3.121  -0.962  0.00  0.00     0.530 C 
ATOM      9  F   UNL d   1       2.222  -2.234  -1.790  0.00  0.00    -0.144 F 
ATOM     10  F   UNL d   1       2.502  -4.125  -0.718  0.00  0.00    -0.144 F 
ATOM     11  F   UNL d   1       0.537  -3.627  -1.556  0.00  0.00    -0.144 F 
ENDBRANCH   7   8
ENDBRANCH   2   7
BRANCH   1  12
ATOM     12  C   UNL d   1       3.011  -0.172   0.246  0.00  0.00     0.178 C 
ATOM     13  O   UNL d   1       3.740   0.625  -0.314  0.00  0.00    -0.646 OA
BRANCH  12  14
ATOM     14  O   UNL d   1       3.460  -1.138   1.073  0.00  0.00    -0.773 OA
ATOM     15  H   UNL d   1       2.766  -1.646   1.538  0.00  0.00     0.167 HD
ENDBRANCH  12  14
ENDBRANCH   1  12
BRANCH   3  16
ATOM     16  C   UNL d   1      -2.727   0.288   0.032  0.00  0.00     0.176 C 
ATOM     17  O   UNL d   1      -3.260   1.184   0.661  0.00  0.00    -0.646 OA
BRANCH  16  18
ATOM     18  O   UNL d   1      -3.397  -0.612  -0.714  0.00  0.00    -0.773 OA
ATOM     19  H   UNL d   1      -2.852  -1.151  -1.314  0.00  0.00     0.167 HD
ENDBRANCH  16  18
ENDBRANCH   3  16
TORSDOF 6
