REMARK  4 active torsions:
REMARK  status: ('A' for Active; 'I' for Inactive)
REMARK    1  A    between atoms: C_3  and  C_1 
REMARK    2  A    between atoms: C_8  and  N_5 
REMARK    3  A    between atoms: C_13  and  C_8 
REMARK    4  A    between atoms: C_11  and  C_13 
ROOT
ATOM      1  C   UNL d   1      -0.101   2.365   0.848  0.00  0.00    -0.008 C 
ATOM      2  N   UNL d   1       0.710   2.645   1.812  0.00  0.00    -0.396 N 
ATOM      3  HN  UNL d   1       0.463   3.351   2.505  1.00  0.00     0.159 HD
ATOM      4  C   UNL d   1       0.177   1.295  -0.189  0.00  0.00     0.064 C 
ENDROOT
BRANCH   2   5
ATOM      5  C   UNL d   1       1.988   1.937   1.899  0.00  0.00     0.124 C 
BRANCH   5   6
ATOM      6  C   UNL d   1       2.759   2.475   3.108  0.00  0.00     0.058 C 
BRANCH   6   7
ATOM      7  C   UNL d   1       4.102   1.810   3.288  0.00  0.00    -0.057 A 
ATOM      8  C   UNL d   1       5.241   2.329   2.657  0.00  0.00     0.007 A 
ATOM      9  C   UNL d   1       6.487   1.726   2.835  0.00  0.00     0.001 A 
ATOM     10  C   UNL d   1       6.607   0.594   3.639  0.00  0.00     0.000 A 
ATOM     11  C   UNL d   1       5.479   0.062   4.262  0.00  0.00     0.001 A 
ATOM     12  C   UNL d   1       4.232   0.666   4.086  0.00  0.00     0.007 A 
ENDBRANCH   6   7
ENDBRANCH   5   6
ENDBRANCH   2   5
BRANCH   1  13
ATOM     13  C   UNL d   1      -1.420   3.124   0.743  0.00  0.00     0.132 C 
ATOM     14  C   UNL d   1      -1.568   3.880  -0.546  0.00  0.00     0.268 C 
ATOM     15  O   UNL d   1      -2.127   5.104  -0.331  0.00  0.00    -0.321 OA
ATOM     16  O   UNL d   1      -1.286   3.462  -1.659  0.00  0.00    -0.264 OA
ATOM     17  C   UNL d   1      -2.406   5.272   1.054  0.00  0.00     0.180 C 
ATOM     18  C   UNL d   1      -1.610   4.218   1.777  0.00  0.00     0.047 C 
ENDBRANCH   1  13
TORSDOF 4
