REMARK  4 active torsions:
REMARK  status: ('A' for Active; 'I' for Inactive)
REMARK       I    between atoms: N_2  and  C_1 
REMARK    1  A    between atoms: C_4  and  N_2 
REMARK    2  A    between atoms: C_11  and  C_5 
REMARK    3  A    between atoms: C_12  and  C_11 
REMARK    4  A    between atoms: C_13  and  C_12 
ROOT
ATOM      1  C   UNL d   1       0.946   1.915  -1.473  0.00  0.00     0.034 A 
ATOM      2  C   UNL d   1       2.357   3.784  -3.045  0.00  0.00    -0.058 A 
ATOM      3  C   UNL d   1       1.966   1.498  -2.326  0.00  0.00     0.030 A 
ATOM      4  C   UNL d   1       0.574   3.263  -1.476  0.00  0.00     0.030 A 
ATOM      5  C   UNL d   1       1.277   4.191  -2.252  0.00  0.00     0.009 A 
ATOM      6  C   UNL d   1       2.666   2.421  -3.106  0.00  0.00     0.009 A 
ENDROOT
BRANCH   1   7
ATOM      7  N   UNL d   1       0.273   1.043  -0.590  0.00  0.00    -0.328 N 
ATOM      8  C   UNL d   1       0.690  -0.224  -0.223  0.00  0.00     0.218 C 
ATOM      9  O   UNL d   1       1.728  -0.784  -0.566  0.00  0.00    -0.274 OA
ATOM     10  C   UNL d   1      -0.248  -0.909   0.736  0.00  0.00     0.117 C 
ATOM     11  H   UNL d   1      -0.504   1.440  -0.078  0.00  0.00     0.169 HD
ENDBRANCH   1   7
BRANCH   2  12
ATOM     12  C   UNL d   1       3.208   4.783  -3.789  0.00  0.00     0.038 C 
BRANCH  12  13
ATOM     13  C   UNL d   1       3.908   5.799  -2.874  0.00  0.00     0.004 C 
BRANCH  13  14
ATOM     14  C   UNL d   1       4.856   5.153  -1.859  0.00  0.00    -0.004 C 
ATOM     15  C   UNL d   1       5.520   6.200  -0.976  0.00  0.00     0.005 C 
ENDBRANCH  13  14
ENDBRANCH  12  13
ENDBRANCH   2  12
TORSDOF 4
