REMARK  7 active torsions:
REMARK  status: ('A' for Active; 'I' for Inactive)
REMARK    1  A    between atoms: N_2  and  C_1 
REMARK    2  A    between atoms: N_7  and  C_4 
REMARK    3  A    between atoms: S_9  and  C_5 
REMARK    4  A    between atoms: C_18  and  S_9 
REMARK    5  A    between atoms: C_12  and  C_18 
REMARK    6  A    between atoms: O_20  and  C_12 
REMARK    7  A    between atoms: C_21  and  O_20 
ROOT
ATOM      1  C   UNL d   1       1.600   1.356   0.057  0.00  0.00     0.121 A 
ATOM      2  C   UNL d   1       0.189   1.256   0.009  0.00  0.00     0.063 A 
ATOM      3  C   UNL d   1       0.296  -1.156   0.014  0.00  0.00     0.061 A 
ATOM      4  C   UNL d   1       2.384   0.192   0.127  0.00  0.00     0.036 A 
ATOM      5  C   UNL d   1       1.702  -1.050   0.110  0.00  0.00     0.053 A 
ATOM      6  C   UNL d   1      -0.461   0.017  -0.013  0.00  0.00     0.063 A 
ATOM      7 CL   UNL d   1      -2.188   0.081   0.057  0.00  0.00    -0.082 Cl
ENDROOT
BRANCH   4   8
ATOM      8  S   UNL d   1       4.170  -0.020   0.025  0.00  0.00    -0.117 SA
BRANCH   8   9
ATOM      9  C   UNL d   1       4.850   0.759   1.527  0.00  0.00     0.190 C 
BRANCH   9  10
ATOM     10  C   UNL d   1       4.233   0.322   2.831  0.00  0.00     0.268 C 
ATOM     11  O   UNL d   1       3.273  -0.422   2.985  0.00  0.00    -0.264 OA
BRANCH  10  12
ATOM     12  O   UNL d   1       4.869   0.998   3.837  0.00  0.00    -0.321 OA
BRANCH  12  13
ATOM     13  C   UNL d   1       4.161   1.089   5.081  0.00  0.00     0.174 C 
ATOM     14  C   UNL d   1       3.199   2.260   4.988  0.00  0.00     0.034 C 
ENDBRANCH  12  13
ENDBRANCH  10  12
ENDBRANCH   9  10
ENDBRANCH   8   9
ENDBRANCH   4   8
BRANCH   1  15
ATOM     15  N   UNL d   1       2.146   2.722  -0.017  0.00  0.00    -0.114 N 
ATOM     16  O   UNL d   1       1.342   3.663   0.033  0.00  0.00    -0.532 OA
ATOM     17  O   UNL d   1       3.365   2.879  -0.127  0.00  0.00    -0.532 OA
ENDBRANCH   1  15
BRANCH   3  18
ATOM     18  N   UNL d   1      -0.272  -2.460  -0.099  0.00  0.00    -0.331 N 
ATOM     19  C   UNL d   1       0.245  -3.618   0.457  0.00  0.00     0.096 A 
ATOM     20  C   UNL d   1      -0.559  -4.684   0.117  0.00  0.00     0.019 A 
ATOM     21  C   UNL d   1      -1.584  -4.185  -0.709  0.00  0.00     0.019 A 
ATOM     22  C   UNL d   1      -1.375  -2.830  -0.843  0.00  0.00     0.096 A 
ENDBRANCH   3  18
TORSDOF 7
