REMARK  6 active torsions:
REMARK  status: ('A' for Active; 'I' for Inactive)
REMARK    1  A    between atoms: N_5  and  C_1 
REMARK    2  A    between atoms: C_13  and  C_2 
REMARK       I    between atoms: C_6  and  N_5 
REMARK       I    between atoms: N_9  and  C_6 
REMARK    3  A    between atoms: C_14  and  N_9 
REMARK    4  A    between atoms: C_17  and  N_9 
REMARK    5  A    between atoms: C_16  and  C_14 
REMARK    6  A    between atoms: C_15  and  C_17 
ROOT
ATOM      1  N   UNL d   1       3.297   2.704   0.412  0.00  0.00    -0.197 NA
ATOM      2  C   UNL d   1       3.188   1.566   0.600  0.00  0.00     0.060 C 
ATOM      3  C   UNL d   1       3.049   0.123   0.825  0.00  0.00     0.144 C 
ENDROOT
BRANCH   3   4
ATOM      4  C   UNL d   1       2.941  -0.619  -0.510  0.00  0.00     0.142 C 
BRANCH   4   5
ATOM      5  N   UNL d   1       2.830  -2.079  -0.329  0.00  0.00    -0.329 N 
ATOM      6  C   UNL d   1       1.686  -2.693   0.208  0.00  0.00     0.323 C 
ATOM      7  N   UNL d   1       0.519  -2.009  -0.060  0.00  0.00    -0.304 N 
ATOM      8  O   UNL d   1       1.728  -3.769   0.796  0.00  0.00    -0.247 OA
ATOM      9  H   UNL d   1       0.535  -1.541  -0.956  0.00  0.00     0.171 HD
BRANCH   7  10
ATOM     10  C   UNL d   1      -0.755  -2.451   0.306  0.00  0.00     0.097 C 
ATOM     11  C   UNL d   1      -1.901  -2.498  -0.561  0.00  0.00     0.094 C 
ATOM     12  N   UNL d   1      -3.007  -2.785   0.139  0.00  0.00    -0.258 N 
ATOM     13  O   UNL d   1      -2.587  -3.077   1.411  0.00  0.00    -0.240 OA
ATOM     14  HN  UNL d   1      -3.967  -2.785  -0.205  1.00  0.00     0.195 HD
ATOM     15  C   UNL d   1      -1.235  -2.938   1.506  0.00  0.00     0.101 C 
ATOM     16  C   UNL d   1      -0.707  -3.293   2.835  0.00  0.00     0.081 C 
BRANCH  11  17
ATOM     17  C   UNL d   1      -1.958  -2.438  -2.024  0.00  0.00    -0.005 A 
ATOM     18  C   UNL d   1      -0.911  -2.970  -2.795  0.00  0.00     0.014 A 
ATOM     19  C   UNL d   1      -1.041  -3.102  -4.178  0.00  0.00     0.001 A 
ATOM     20  C   UNL d   1      -2.222  -2.715  -4.805  0.00  0.00     0.000 A 
ATOM     21  C   UNL d   1      -3.261  -2.167  -4.056  0.00  0.00     0.001 A 
ATOM     22  C   UNL d   1      -3.128  -2.021  -2.673  0.00  0.00     0.014 A 
ENDBRANCH  11  17
ENDBRANCH   7  10
BRANCH   5  23
ATOM     23  C   UNL d   1       4.091  -2.835  -0.299  0.00  0.00     0.166 C 
BRANCH  23  24
ATOM     24  C   UNL d   1       4.768  -3.007  -1.647  0.00  0.00    -0.040 A 
ATOM     25  C   UNL d   1       6.172  -3.092  -1.705  0.00  0.00     0.009 A 
ATOM     26  C   UNL d   1       6.833  -3.389  -2.906  0.00  0.00     0.001 A 
ATOM     27  C   UNL d   1       6.098  -3.604  -4.066  0.00  0.00     0.000 A 
ATOM     28  C   UNL d   1       4.703  -3.520  -4.028  0.00  0.00     0.001 A 
ATOM     29  C   UNL d   1       4.044  -3.229  -2.830  0.00  0.00     0.009 A 
ENDBRANCH  23  24
ENDBRANCH   5  23
ENDBRANCH   4   5
ENDBRANCH   3   4
TORSDOF 6
