REMARK  3 active torsions:
REMARK  status: ('A' for Active; 'I' for Inactive)
REMARK    1  A    between atoms: C_7  and  C_1 
REMARK    2  A    between atoms: C_11  and  N_2 
REMARK       I    between atoms: C_10  and  N_8 
REMARK       I    between atoms: N_13  and  C_10 
REMARK    3  A    between atoms: N_15  and  N_13 
ROOT
ATOM      1  C   UNL d   1      -2.049   2.903   0.003  0.00  0.00     0.027 C 
ATOM      2  N   UNL d   1      -3.928   4.124   0.013  0.00  0.00    -0.261 N 
ATOM      3  C   UNL d   1      -2.536   4.213   0.003  0.00  0.00     0.044 C 
ATOM      4  N   UNL d   1      -4.329   2.838   0.186  0.00  0.00    -0.304 N 
ATOM      5  HN  UNL d   1      -5.278   2.499   0.343  1.00  0.00     0.186 HD
ATOM      6  C   UNL d   1      -3.216   2.119   0.106  0.00  0.00     0.123 C 
ATOM      7  C   UNL d   1      -1.768   5.487   0.086  0.00  0.00     0.071 C 
ENDROOT
BRANCH   1   8
ATOM      8  C   UNL d   1      -0.652   2.450  -0.022  0.00  0.00     0.023 C 
ATOM      9  N   UNL d   1       0.251   3.381  -0.071  0.00  0.00    -0.311 N 
ATOM     10  C   UNL d   1       1.575   3.064   0.014  0.00  0.00     0.334 C 
ATOM     11  HN  UNL d   1      -0.031   4.356  -0.175  1.00  0.00     0.170 HD
ATOM     12  O   UNL d   1       2.062   2.148   0.664  0.00  0.00    -0.246 OA
ATOM     13  N   UNL d   1       2.358   3.966  -0.680  0.00  0.00    -0.275 N 
ATOM     14  H   UNL d   1       1.884   4.685  -1.217  0.00  0.00     0.185 HD
ATOM     15  C   UNL d   1      -0.352   0.963   0.011  0.00  0.00     0.069 C 
BRANCH  13  16
ATOM     16  N   UNL d   1       3.768   3.845  -0.709  0.00  0.00    -0.246 NA
ATOM     17  H   UNL d   1       3.994   2.932  -0.288  0.00  0.00     0.143 HD
ATOM     18  H   UNL d   1       4.152   4.522  -0.045  0.00  0.00     0.143 HD
ENDBRANCH  13  16
ENDBRANCH   1   8
BRANCH   2  19
ATOM     19  C   UNL d   1      -4.925   5.135  -0.124  0.00  0.00     0.056 A 
ATOM     20  C   UNL d   1      -4.682   6.324  -0.821  0.00  0.00     0.031 A 
ATOM     21  C   UNL d   1      -5.685   7.294  -0.927  0.00  0.00     0.002 A 
ATOM     22  C   UNL d   1      -6.936   7.077  -0.354  0.00  0.00     0.000 A 
ATOM     23  C   UNL d   1      -7.197   5.884   0.315  0.00  0.00     0.002 A 
ATOM     24  C   UNL d   1      -6.201   4.911   0.422  0.00  0.00     0.031 A 
ENDBRANCH   2  19
TORSDOF 3
