REMARK  4 active torsions:
REMARK  status: ('A' for Active; 'I' for Inactive)
REMARK    1  A    between atoms: C_6  and  C_1 
REMARK    2  A    between atoms: N_10  and  C_2 
REMARK    3  A    between atoms: C_3  and  N_9 
REMARK    4  A    between atoms: N_9  and  N_10 
ROOT
ATOM      1  N   UNL d   1      -3.798   0.039  -0.211  0.00  0.00    -0.299 N 
ATOM      2  C   UNL d   1      -4.619  -1.135   0.112  0.00  0.00     0.173 C 
ENDROOT
BRANCH   1   3
ATOM      3  N   UNL d   1      -4.306   1.355  -0.170  0.00  0.00    -0.203 NA
ATOM      4  H   UNL d   1      -4.741   1.519   0.742  0.00  0.00     0.150 HD
BRANCH   3   5
ATOM      5  C   UNL d   1      -5.314   1.659  -1.194  0.00  0.00     0.257 C 
ATOM      6  O   UNL d   1      -6.428   0.743  -1.238  0.00  0.00    -0.290 OA
ATOM      7  C   UNL d   1      -6.759   0.421  -2.525  0.00  0.00     0.295 C 
ATOM      8  O   UNL d   1      -7.687  -0.274  -2.880  0.00  0.00    -0.259 OA
ATOM      9  C   UNL d   1      -5.796   1.095  -3.393  0.00  0.00     0.049 A 
ATOM     10  C   UNL d   1      -4.875   1.756  -2.606  0.00  0.00     0.003 A 
ATOM     11  C   UNL d   1      -5.796   1.171  -4.777  0.00  0.00     0.018 A 
ATOM     12  C   UNL d   1      -3.870   2.510  -3.194  0.00  0.00     0.012 A 
ATOM     13  C   UNL d   1      -3.846   2.609  -4.591  0.00  0.00     0.001 A 
ATOM     14  C   UNL d   1      -4.811   1.955  -5.379  0.00  0.00     0.001 A 
ENDBRANCH   3   5
ENDBRANCH   1   3
BRANCH   1  15
ATOM     15  C   UNL d   1      -2.417  -0.223  -0.243  0.00  0.00     0.132 A 
ATOM     16  C   UNL d   1      -1.425   0.588   0.313  0.00  0.00     0.094 A 
ATOM     17  C   UNL d   1      -0.067   0.254   0.069  0.00  0.00     0.045 A 
ATOM     18  C   UNL d   1       0.267  -0.873  -0.662  0.00  0.00     0.050 A 
ATOM     19  C   UNL d   1      -0.766  -1.657  -1.113  0.00  0.00     0.113 A 
ATOM     20 CL   UNL d   1       1.902  -1.278  -0.966  0.00  0.00    -0.083 Cl
ATOM     21  N   UNL d   1      -2.070  -1.363  -0.909  0.00  0.00    -0.349 N 
ATOM     22  HN  UNL d   1      -2.794  -1.993  -1.252  1.00  0.00     0.167 HD
BRANCH  16  23
ATOM     23  C   UNL d   1      -1.641   1.758   1.230  0.00  0.00     0.421 C 
ATOM     24  F   UNL d   1      -2.880   1.956   1.754  0.00  0.00    -0.166 F 
ATOM     25  F   UNL d   1      -0.836   1.654   2.339  0.00  0.00    -0.166 F 
ATOM     26  F   UNL d   1      -1.273   2.940   0.653  0.00  0.00    -0.166 F 
ENDBRANCH  16  23
ENDBRANCH   1  15
TORSDOF 4
