REMARK  5 active torsions:
REMARK  status: ('A' for Active; 'I' for Inactive)
REMARK    1  A    between atoms: O_2  and  S_1 
REMARK    2  A    between atoms: C_3  and  S_1 
REMARK    3  A    between atoms: C_11  and  O_2 
REMARK       I    between atoms: C_6  and  N_7 
REMARK    4  A    between atoms: N_7  and  C_12 
REMARK    5  A    between atoms: O_20  and  C_13 
ROOT
ATOM      1  S   UNL d   1       1.186   0.077  -0.185  0.00  0.00     0.303 S 
ATOM      2  O   UNL d   1       0.542   0.148  -1.483  0.00  0.00    -0.193 OA
ATOM      3  O   UNL d   1       2.633   0.123  -0.069  0.00  0.00    -0.193 OA
ENDROOT
BRANCH   1   4
ATOM      4  O   UNL d   1       0.633  -1.232   0.621  0.00  0.00    -0.229 OA
BRANCH   4   5
ATOM      5  C   UNL d   1       0.843  -2.502   0.140  0.00  0.00     0.089 A 
ATOM      6  C   UNL d   1       1.932  -2.877  -0.649  0.00  0.00     0.041 A 
ATOM      7  C   UNL d   1       2.069  -4.199  -1.087  0.00  0.00     0.039 A 
ATOM      8  C   UNL d   1       1.120  -5.158  -0.737  0.00  0.00     0.068 A 
ATOM      9  C   UNL d   1       0.053  -4.793   0.085  0.00  0.00     0.039 A 
ATOM     10  C   UNL d   1      -0.088  -3.470   0.521  0.00  0.00     0.041 A 
BRANCH   8  11
ATOM     11  O   UNL d   1       1.157  -6.474  -1.107  0.00  0.00    -0.356 OA
ATOM     12  C   UNL d   1       1.868  -6.756  -2.308  0.00  0.00     0.210 C 
ENDBRANCH   8  11
ENDBRANCH   4   5
ENDBRANCH   1   4
BRANCH   1  13
ATOM     13  C   UNL d   1       0.562   1.457   0.754  0.00  0.00     0.086 A 
ATOM     14  C   UNL d   1       1.450   2.376   1.318  0.00  0.00     0.028 A 
ATOM     15  C   UNL d   1       0.950   3.495   1.991  0.00  0.00     0.031 A 
ATOM     16  C   UNL d   1      -0.431   3.706   2.104  0.00  0.00     0.034 A 
ATOM     17  C   UNL d   1      -1.306   2.768   1.544  0.00  0.00     0.031 A 
ATOM     18  C   UNL d   1      -0.815   1.645   0.866  0.00  0.00     0.028 A 
BRANCH  16  19
ATOM     19  N   UNL d   1      -0.849   4.877   2.771  0.00  0.00    -0.328 N 
ATOM     20  C   UNL d   1      -2.146   5.299   2.993  0.00  0.00     0.218 C 
ATOM     21  O   UNL d   1      -3.174   4.712   2.670  0.00  0.00    -0.274 OA
ATOM     22  C   UNL d   1      -2.228   6.625   3.710  0.00  0.00     0.117 C 
ATOM     23  H   UNL d   1      -0.109   5.477   3.111  0.00  0.00     0.169 HD
ENDBRANCH  16  19
ENDBRANCH   1  13
TORSDOF 5
