REMARK  6 active torsions:
REMARK  status: ('A' for Active; 'I' for Inactive)
REMARK    1  A    between atoms: N_3  and  S_1 
REMARK    2  A    between atoms: C_8  and  S_1 
REMARK    3  A    between atoms: N_2  and  C_9 
REMARK    4  A    between atoms: C_18  and  C_8 
REMARK    5  A    between atoms: C_9  and  C_15 
REMARK    6  A    between atoms: C_15  and  N_10 
ROOT
ATOM      1  N   UNL d   1       0.715   1.137   0.682  0.00  0.00    -0.207 NA
ATOM      2  N   UNL d   1       0.748   3.697  -0.907  0.00  0.00     0.092 N 
ATOM      3  C   UNL d   1      -0.498   1.617  -0.076  0.00  0.00     0.137 C 
ATOM      4  C   UNL d   1       1.469   2.330   1.153  0.00  0.00     0.137 C 
ATOM      5  C   UNL d   1      -0.105   2.537  -1.256  0.00  0.00     0.288 C 
ATOM      6  C   UNL d   1       1.832   3.308   0.022  0.00  0.00     0.288 C 
ENDROOT
BRANCH   1   7
ATOM      7  S   UNL d   1       1.514  -0.142  -0.105  0.00  0.00     0.215 S 
ATOM      8  O   UNL d   1       1.968   0.357  -1.386  0.00  0.00    -0.211 OA
ATOM      9  O   UNL d   1       0.617  -1.280  -0.075  0.00  0.00    -0.211 OA
BRANCH   7  10
ATOM     10  C   UNL d   1       3.008  -0.512   0.796  0.00  0.00     0.196 C 
BRANCH  10  11
ATOM     11  C   UNL d   1       2.880  -1.126   2.165  0.00  0.00    -0.043 A 
ATOM     12  C   UNL d   1       2.271  -2.375   2.365  0.00  0.00     0.010 A 
ATOM     13  C   UNL d   1       2.443  -3.066   3.570  0.00  0.00     0.024 A 
ATOM     14  C   UNL d   1       3.226  -2.518   4.581  0.00  0.00     0.034 A 
ATOM     15  C   UNL d   1       3.800  -1.261   4.420  0.00  0.00     0.024 A 
ATOM     16 CL   UNL d   1       3.535  -3.418   6.014  0.00  0.00    -0.084 Cl
ATOM     17  C   UNL d   1       3.624  -0.568   3.219  0.00  0.00     0.010 A 
ENDBRANCH  10  11
ENDBRANCH   7  10
ENDBRANCH   1   7
BRANCH   2  18
ATOM     18  C   UNL d   1      -0.064   4.851  -0.495  0.00  0.00     0.292 C 
BRANCH  18  19
ATOM     19  C   UNL d   1       0.707   6.180  -0.459  0.00  0.00     0.159 C 
BRANCH  19  20
ATOM     20  N   UNL d   1      -0.203   7.317  -0.329  0.00  0.00    -0.353 N 
ATOM     21  C   UNL d   1      -0.739   8.039  -1.381  0.00  0.00     0.008 A 
ATOM     22  C   UNL d   1      -1.516   9.044  -0.837  0.00  0.00     0.026 A 
ATOM     23  C   UNL d   1      -0.506   7.757  -2.826  0.00  0.00     0.068 C 
ATOM     24  C   UNL d   1      -1.480   8.907   0.565  0.00  0.00     0.026 A 
ATOM     25  C   UNL d   1      -0.682   7.821   0.866  0.00  0.00     0.008 A 
ATOM     26  C   UNL d   1      -0.374   7.265   2.213  0.00  0.00     0.068 C 
ENDBRANCH  19  20
ENDBRANCH  18  19
ENDBRANCH   2  18
TORSDOF 6
