REMARK  2 active torsions:
REMARK  status: ('A' for Active; 'I' for Inactive)
REMARK    1  A    between atoms: N_6  and  N_2 
REMARK    2  A    between atoms: C_9  and  N_6 
ROOT
ATOM      1  C   UNL d   1      -1.014   0.881   0.015  0.00  0.00     0.109 A 
ATOM      2  N   UNL d   1      -1.296   2.154   0.067  0.00  0.00    -0.296 N 
ATOM      3  HN  UNL d   1      -0.550   2.848   0.039  1.00  0.00     0.187 HD
ATOM      4  C   UNL d   1       0.415   0.470  -0.033  0.00  0.00     0.006 A 
ATOM      5  C   UNL d   1      -2.068  -0.224   0.027  0.00  0.00     0.200 A 
ATOM      6  C   UNL d   1      -1.595  -1.623   0.020  0.00  0.00     0.058 A 
ATOM      7  C   UNL d   1      -0.296  -1.922   0.020  0.00  0.00     0.016 A 
ATOM      8  C   UNL d   1       0.742  -0.892   0.005  0.00  0.00    -0.023 A 
ATOM      9  O   UNL d   1      -3.260   0.021   0.063  0.00  0.00    -0.286 OA
ATOM     10  C   UNL d   1       1.430   1.439  -0.075  0.00  0.00     0.015 A 
ATOM     11  C   UNL d   1       2.093  -1.267   0.025  0.00  0.00     0.012 A 
ATOM     12  C   UNL d   1       2.770   1.052  -0.060  0.00  0.00     0.001 A 
ATOM     13  C   UNL d   1       3.100  -0.299  -0.002  0.00  0.00     0.001 A 
ENDROOT
BRANCH   2  14
ATOM     14  N   UNL d   1      -2.589   2.542   0.157  0.00  0.00    -0.297 N 
ATOM     15  H   UNL d   1      -3.351   1.880   0.343  0.00  0.00     0.187 HD
BRANCH  14  16
ATOM     16  C   UNL d   1      -2.882   3.916   0.200  0.00  0.00     0.086 A 
ATOM     17  C   UNL d   1      -4.195   4.389   0.331  0.00  0.00     0.144 A 
ATOM     18  F   UNL d   1      -5.215   3.528   0.469  0.00  0.00    -0.204 F 
ATOM     19  C   UNL d   1      -4.482   5.757   0.325  0.00  0.00     0.045 A 
ATOM     20  C   UNL d   1      -3.451   6.683   0.180  0.00  0.00     0.003 A 
ATOM     21  C   UNL d   1      -2.139   6.237   0.041  0.00  0.00     0.002 A 
ATOM     22  C   UNL d   1      -1.863   4.869   0.052  0.00  0.00     0.034 A 
ENDBRANCH  14  16
ENDBRANCH   2  14
TORSDOF 2
