REMARK  6 active torsions:
REMARK  status: ('A' for Active; 'I' for Inactive)
REMARK       I    between atoms: N_2  and  C_1 
REMARK       I    between atoms: N_6  and  C_1 
REMARK    1  A    between atoms: C_9  and  N_2 
REMARK    2  A    between atoms: C_3  and  C_8 
REMARK    3  A    between atoms: C_8  and  N_6 
REMARK    4  A    between atoms: O_10  and  C_11 
REMARK    5  A    between atoms: C_12  and  O_10 
REMARK    6  A    between atoms: C_17  and  C_12 
ROOT
ATOM      1  C   UNL d   1       1.020   2.241  -0.849  0.00  0.00     0.036 A 
ATOM      2  C   UNL d   1       2.267   4.547  -1.866  0.00  0.00     0.069 A 
ATOM      3  C   UNL d   1       2.113   2.137  -1.713  0.00  0.00     0.032 A 
ATOM      4  C   UNL d   1       0.508   3.509  -0.563  0.00  0.00     0.032 A 
ATOM      5  C   UNL d   1       1.126   4.656  -1.072  0.00  0.00     0.039 A 
ATOM      6  C   UNL d   1       2.730   3.284  -2.223  0.00  0.00     0.039 A 
ENDROOT
BRANCH   1   7
ATOM      7  N   UNL d   1       0.397   1.131  -0.241  0.00  0.00    -0.309 N 
ATOM      8  C   UNL d   1       0.915  -0.144  -0.157  0.00  0.00     0.320 C 
ATOM      9  N   UNL d   1       0.054  -1.013   0.471  0.00  0.00    -0.342 N 
ATOM     10  O   UNL d   1       2.013  -0.506  -0.572  0.00  0.00    -0.247 OA
ATOM     11  H   UNL d   1      -0.757  -0.653   0.944  0.00  0.00     0.164 HD
ATOM     12  H   UNL d   1      -0.422   1.318   0.315  0.00  0.00     0.170 HD
BRANCH   9  13
ATOM     13  C   UNL d   1       0.452  -2.368   0.769  0.00  0.00     0.129 C 
BRANCH  13  14
ATOM     14  C   UNL d   1      -0.453  -3.349   0.094  0.00  0.00     0.003 A 
ATOM     15  C   UNL d   1      -1.943  -3.414   0.332  0.00  0.00     0.007 A 
ATOM     16  C   UNL d   1      -1.046  -4.468   0.914  0.00  0.00     0.007 A 
ENDBRANCH  13  14
ENDBRANCH   9  13
ENDBRANCH   1   7
BRANCH   2  17
ATOM     17  O   UNL d   1       2.997   5.605  -2.338  0.00  0.00    -0.347 OA
BRANCH  17  18
ATOM     18  C   UNL d   1       2.893   6.795  -1.551  0.00  0.00     0.214 C 
BRANCH  18  19
ATOM     19  C   UNL d   1       4.101   7.670  -1.772  0.00  0.00    -0.034 A 
ATOM     20  C   UNL d   1       3.953   9.009  -2.154  0.00  0.00     0.009 A 
ATOM     21  C   UNL d   1       5.074   9.830  -2.293  0.00  0.00     0.001 A 
ATOM     22  C   UNL d   1       6.348   9.322  -2.045  0.00  0.00     0.000 A 
ATOM     23  C   UNL d   1       6.505   7.992  -1.660  0.00  0.00     0.001 A 
ATOM     24  C   UNL d   1       5.387   7.170  -1.523  0.00  0.00     0.009 A 
ENDBRANCH  18  19
ENDBRANCH  17  18
ENDBRANCH   2  17
TORSDOF 6
