REMARK  3 active torsions:
REMARK  status: ('A' for Active; 'I' for Inactive)
REMARK    1  A    between atoms: N_6  and  C_2 
REMARK    2  A    between atoms: C_11  and  C_10 
REMARK    3  A    between atoms: O_15  and  C_12 
ROOT
ATOM      1  C   UNL d   1       1.286  -1.206   0.069  0.00  0.00     0.085 A 
ATOM      2  C   UNL d   1       2.253  -0.200   0.089  0.00  0.00     0.095 A 
ATOM      3  S   UNL d   1       1.478   1.373   0.070  0.00  0.00    -0.075 SA
ATOM      4  C   UNL d   1      -0.025  -0.684   0.101  0.00  0.00    -0.021 A 
ATOM      5  C   UNL d   1      -0.038   0.679   0.097  0.00  0.00    -0.007 A 
ATOM      6  C   UNL d   1       1.575  -2.603   0.035  0.00  0.00     0.103 C 
ATOM      7  N   UNL d   1       1.804  -3.742   0.047  0.00  0.00    -0.191 NA
ATOM      8  C   UNL d   1      -1.404  -1.235   0.133  0.00  0.00     0.042 C 
ATOM      9  C   UNL d   1      -1.397   1.270   0.121  0.00  0.00     0.047 C 
ATOM     10  C   UNL d   1      -2.269   0.018  -0.206  0.00  0.00     0.010 C 
ENDROOT
BRANCH   2  11
ATOM     11  N   UNL d   1       3.619  -0.195   0.061  0.00  0.00    -0.358 N 
ATOM     12  C   UNL d   1       4.254  -1.086   0.755  0.00  0.00     0.103 C 
ATOM     13  HN  UNL d   1       4.127   0.494  -0.495  1.00  0.00     0.166 HD
BRANCH  12  14
ATOM     14  C   UNL d   1       5.733  -1.118   0.787  0.00  0.00     0.012 A 
ATOM     15  C   UNL d   1       6.517  -0.149   0.150  0.00  0.00     0.077 A 
ATOM     16  C   UNL d   1       7.907  -0.213   0.221  0.00  0.00     0.037 A 
ATOM     17  C   UNL d   1       8.521  -1.256   0.915  0.00  0.00     0.003 A 
ATOM     18  C   UNL d   1       7.745  -2.230   1.546  0.00  0.00     0.001 A 
ATOM     19  C   UNL d   1       6.351  -2.159   1.489  0.00  0.00     0.015 A 
BRANCH  15  20
ATOM     20  O   UNL d   1       5.989   0.890  -0.566  0.00  0.00    -0.360 OA
ATOM     21  H   UNL d   1       5.013   0.779  -0.571  0.00  0.00     0.217 HD
ENDBRANCH  15  20
ENDBRANCH  12  14
ENDBRANCH   2  11
TORSDOF 3
