REMARK  4 active torsions:
REMARK  status: ('A' for Active; 'I' for Inactive)
REMARK    1  A    between atoms: C_9  and  N_1 
REMARK    2  A    between atoms: C_7  and  C_2 
REMARK    3  A    between atoms: N_12  and  C_8 
REMARK    4  A    between atoms: C_10  and  N_12 
ROOT
ATOM      1  N   UNL d   1       3.780   0.688   0.051  0.00  0.00    -0.225 N 
ATOM      2  C   UNL d   1       3.646  -0.702   0.005  0.00  0.00     0.139 C 
ATOM      3  N   UNL d   1       5.728  -0.172  -0.155  0.00  0.00    -0.007 NA
ATOM      4  N   UNL d   1       5.082   0.983  -0.185  0.00  0.00     0.001 NA
ATOM      5  N   UNL d   1       4.858  -1.223  -0.028  0.00  0.00    -0.270 N 
ATOM      6  HN  UNL d   1       5.099  -2.212   0.029  1.00  0.00     0.185 HD
ENDROOT
BRANCH   2   7
ATOM      7  C   UNL d   1       2.377  -1.312  -0.143  0.00  0.00     0.068 C 
ATOM      8  C   UNL d   1       2.098  -2.572   0.207  0.00  0.00     0.092 C 
BRANCH   8   9
ATOM      9  N   UNL d   1       2.886  -3.559   0.737  0.00  0.00    -0.364 N 
ATOM     10  H   UNL d   1       3.894  -3.400   0.726  0.00  0.00     0.165 HD
BRANCH   9  11
ATOM     11  C   UNL d   1       2.466  -4.819   1.221  0.00  0.00     0.053 A 
ATOM     12  C   UNL d   1       3.361  -5.904   1.304  0.00  0.00     0.060 A 
ATOM     13 CL   UNL d   1       5.026  -5.715   0.873  0.00  0.00    -0.082 Cl
ATOM     14  C   UNL d   1       2.932  -7.170   1.724  0.00  0.00     0.026 A 
ATOM     15  C   UNL d   1       1.598  -7.378   2.071  0.00  0.00     0.002 A 
ATOM     16  C   UNL d   1       0.697  -6.322   2.003  0.00  0.00     0.002 A 
ATOM     17  C   UNL d   1       1.127  -5.061   1.580  0.00  0.00     0.031 A 
ENDBRANCH   9  11
ENDBRANCH   8   9
ENDBRANCH   2   7
BRANCH   1  18
ATOM     18  C   UNL d   1       2.830   1.710   0.311  0.00  0.00     0.056 A 
ATOM     19  C   UNL d   1       1.699   1.461   1.103  0.00  0.00     0.031 A 
ATOM     20  C   UNL d   1       0.768   2.476   1.335  0.00  0.00     0.002 A 
ATOM     21  C   UNL d   1       0.959   3.740   0.782  0.00  0.00     0.000 A 
ATOM     22  C   UNL d   1       2.094   4.001   0.016  0.00  0.00     0.002 A 
ATOM     23  C   UNL d   1       3.040   2.997  -0.207  0.00  0.00     0.031 A 
ENDBRANCH   1  18
TORSDOF 4
