REMARK  6 active torsions:
REMARK  status: ('A' for Active; 'I' for Inactive)
REMARK    1  A    between atoms: C_2  and  S_1 
REMARK    2  A    between atoms: N_6  and  S_1 
REMARK    3  A    between atoms: C_8  and  C_3 
REMARK    4  A    between atoms: O_20  and  C_8 
REMARK    5  A    between atoms: C_14  and  N_9 
REMARK    6  A    between atoms: O_25  and  C_21 
ROOT
ATOM      1  N   UNL d   1       0.418   1.024   1.026  0.00  0.00    -0.202 NA
ATOM      2  N   UNL d   1       1.352   3.716   0.569  0.00  0.00    -0.379 N 
ATOM      3  C   UNL d   1      -0.489   2.063   0.436  0.00  0.00     0.127 C 
ATOM      4  C   UNL d   1       1.448   1.661   1.903  0.00  0.00     0.127 C 
ATOM      5  C   UNL d   1       0.303   3.162  -0.310  0.00  0.00     0.138 C 
ATOM      6  C   UNL d   1       2.271   2.715   1.140  0.00  0.00     0.138 C 
ENDROOT
BRANCH   1   7
ATOM      7  S   UNL d   1       1.007  -0.143  -0.060  0.00  0.00     0.266 S 
ATOM      8  O   UNL d   1       1.078   0.407  -1.393  0.00  0.00    -0.204 OA
ATOM      9  O   UNL d   1       2.144  -0.804   0.549  0.00  0.00    -0.204 OA
BRANCH   7  10
ATOM     10  C   UNL d   1      -0.239  -1.426  -0.151  0.00  0.00     0.186 A 
ATOM     11  C   UNL d   1      -0.130  -2.788   0.077  0.00  0.00     0.071 A 
ATOM     12  C   UNL d   1      -1.411  -3.377  -0.100  0.00  0.00     0.072 A 
ATOM     13  C   UNL d   1      -2.247  -2.329  -0.438  0.00  0.00     0.067 A 
ATOM     14  O   UNL d   1      -1.554  -1.156  -0.466  0.00  0.00    -0.301 OA
ATOM     15  C   UNL d   1      -3.689  -2.240  -0.759  0.00  0.00     0.078 C 
BRANCH  12  16
ATOM     16  C   UNL d   1      -1.787  -4.770   0.041  0.00  0.00     0.295 C 
ATOM     17  O   UNL d   1      -2.924  -5.191  -0.135  0.00  0.00    -0.259 OA
BRANCH  16  18
ATOM     18  O   UNL d   1      -0.722  -5.544   0.401  0.00  0.00    -0.322 OA
ATOM     19  C   UNL d   1      -1.027  -6.926   0.574  0.00  0.00     0.213 C 
ENDBRANCH  16  18
ENDBRANCH  12  16
ENDBRANCH   7  10
ENDBRANCH   1   7
BRANCH   2  20
ATOM     20  C   UNL d   1       1.586   5.073   0.657  0.00  0.00     0.030 A 
ATOM     21  C   UNL d   1       2.865   5.605   0.884  0.00  0.00     0.032 A 
ATOM     22  C   UNL d   1       3.084   6.982   1.038  0.00  0.00     0.039 A 
ATOM     23  C   UNL d   1       2.016   7.870   0.963  0.00  0.00     0.068 A 
ATOM     24  C   UNL d   1       0.745   7.374   0.705  0.00  0.00     0.039 A 
ATOM     25  C   UNL d   1       0.536   5.999   0.569  0.00  0.00     0.032 A 
BRANCH  23  26
ATOM     26  O   UNL d   1       2.101   9.227   1.087  0.00  0.00    -0.356 OA
ATOM     27  C   UNL d   1       3.144   9.695   1.934  0.00  0.00     0.210 C 
ENDBRANCH  23  26
ENDBRANCH   2  20
TORSDOF 6
