REMARK  4 active torsions:
REMARK  status: ('A' for Active; 'I' for Inactive)
REMARK    1  A    between atoms: C_5  and  C_1 
REMARK    2  A    between atoms: C_2  and  C_4 
REMARK       I    between atoms: C_4  and  N_9 
REMARK    3  A    between atoms: C_17  and  C_7 
REMARK    4  A    between atoms: N_9  and  C_17 
ROOT
ATOM      1  C   UNL d   1       1.022  -4.491  -1.025  0.00  0.00     0.255 C 
ATOM      2  N   UNL d   1       1.038  -3.430  -0.146  0.00  0.00    -0.352 N 
ATOM      3  O   UNL d   1       0.028  -4.803  -1.667  0.00  0.00    -0.268 OA
ATOM      4  H   UNL d   1       1.820  -3.322   0.488  0.00  0.00     0.163 HD
ENDROOT
BRANCH   2   5
ATOM      5  C   UNL d   1      -0.139  -2.648   0.138  0.00  0.00     0.169 C 
BRANCH   5   6
ATOM      6  C   UNL d   1       0.265  -1.205   0.174  0.00  0.00     0.001 A 
ATOM      7  S   UNL d   1       0.804  -0.482   1.625  0.00  0.00    -0.092 SA
ATOM      8  C   UNL d   1       1.001   1.059   0.883  0.00  0.00     0.022 A 
ATOM      9  C   UNL d   1       0.689   0.992  -0.463  0.00  0.00     0.021 A 
ATOM     10  C   UNL d   1       0.273  -0.307  -0.871  0.00  0.00     0.018 A 
BRANCH   8  11
ATOM     11  C   UNL d   1       1.421   2.217   1.640  0.00  0.00     0.021 A 
ATOM     12  S   UNL d   1       0.960   3.809   1.170  0.00  0.00    -0.101 SA
ATOM     13  C   UNL d   1       1.768   4.518   2.495  0.00  0.00     0.050 A 
ATOM     14  C   UNL d   1       2.395   3.579   3.280  0.00  0.00     0.008 A 
ATOM     15  C   UNL d   1       2.199   2.255   2.784  0.00  0.00     0.021 A 
ENDBRANCH   8  11
ENDBRANCH   5   6
ENDBRANCH   2   5
BRANCH   1  16
ATOM     16  C   UNL d   1       2.290  -5.270  -1.157  0.00  0.00     0.075 A 
ATOM     17  C   UNL d   1       3.071  -5.614  -0.038  0.00  0.00     0.051 A 
ATOM     18 CL   UNL d   1       2.622  -5.246   1.596  0.00  0.00    -0.083 Cl
ATOM     19  C   UNL d   1       4.271  -6.323  -0.190  0.00  0.00     0.025 A 
ATOM     20  C   UNL d   1       4.697  -6.725  -1.451  0.00  0.00     0.003 A 
ATOM     21  C   UNL d   1       3.921  -6.421  -2.564  0.00  0.00     0.025 A 
ATOM     22  C   UNL d   1       2.729  -5.694  -2.426  0.00  0.00     0.051 A 
ATOM     23 CL   UNL d   1       1.905  -5.323  -3.904  0.00  0.00    -0.083 Cl
ENDBRANCH   1  16
TORSDOF 4
