REMARK  8 active torsions:
REMARK  status: ('A' for Active; 'I' for Inactive)
REMARK    1  A    between atoms: C_3  and  C_1 
REMARK    2  A    between atoms: N_2  and  C_4 
REMARK    3  A    between atoms: C_7  and  C_16 
REMARK       I    between atoms: N_8  and  C_7 
REMARK    4  A    between atoms: C_9  and  N_8 
REMARK    5  A    between atoms: C_16  and  N_10 
REMARK    6  A    between atoms: C_29  and  C_26 
REMARK    7  A    between atoms: C_30  and  C_29 
REMARK    8  A    between atoms: C_31  and  C_30 
ROOT
ATOM      1  N   UNL d   1       1.881   4.441  -9.666  0.00  0.00    -0.364 N 
ATOM      2  N   UNL d   1      -0.437   2.864  -8.692  0.00  0.00     0.100 N 
ATOM      3  C   UNL d   1       1.500   4.498  -8.247  0.00  0.00     0.154 C 
ATOM      4  C   UNL d   1       0.726   4.252 -10.557  0.00  0.00     0.154 C 
ATOM      5  C   UNL d   1      -0.092   3.005 -10.124  0.00  0.00     0.292 C 
ATOM      6  C   UNL d   1       0.757   3.190  -7.869  0.00  0.00     0.292 C 
ENDROOT
BRANCH   2   7
ATOM      7  C   UNL d   1      -1.598   3.658  -8.251  0.00  0.00     0.368 C 
BRANCH   7   8
ATOM      8  C   UNL d   1      -2.922   3.397  -8.984  0.00  0.00     0.230 C 
ATOM      9  N   UNL d   1      -3.551   2.172  -9.025  0.00  0.00    -0.227 NA
ATOM     10  H   UNL d   1      -4.310   2.287  -9.688  0.00  0.00     0.136 HD
ATOM     11  O   UNL d   1      -3.529   4.347  -9.497  0.00  0.00    -0.278 OA
BRANCH   9  12
ATOM     12  C   UNL d   1      -2.852   0.959  -9.185  0.00  0.00     0.021 C 
ATOM     13  C   UNL d   1      -2.409   0.203  -8.091  0.00  0.00    -0.040 C 
ATOM     14  C   UNL d   1      -1.598  -0.918  -8.336  0.00  0.00     0.015 C 
ATOM     15  C   UNL d   1      -2.830   0.530  -6.686  0.00  0.00     0.050 C 
ATOM     16  C   UNL d   1      -1.286  -1.323  -9.644  0.00  0.00    -0.058 C 
ATOM     17  C   UNL d   1      -1.874  -0.641 -10.716  0.00  0.00     0.009 C 
ATOM     18  C   UNL d   1      -2.659   0.488 -10.486  0.00  0.00     0.025 C 
BRANCH  16  19
ATOM     19  C   UNL d   1      -0.245  -2.384  -9.916  0.00  0.00     0.038 C 
BRANCH  19  20
ATOM     20  C   UNL d   1      -0.459  -3.751  -9.265  0.00  0.00     0.004 C 
BRANCH  20  21
ATOM     21  C   UNL d   1      -1.616  -4.534  -9.887  0.00  0.00    -0.004 C 
ATOM     22  C   UNL d   1      -1.688  -5.943  -9.317  0.00  0.00     0.005 C 
ENDBRANCH  20  21
ENDBRANCH  19  20
ENDBRANCH  16  19
ENDBRANCH   9  12
ENDBRANCH   7   8
ENDBRANCH   2   7
BRANCH   1  23
ATOM     23  C   UNL d   1       2.977   5.197 -10.053  0.00  0.00     0.103 A 
ATOM     24  C   UNL d   1       3.484   5.154 -11.354  0.00  0.00     0.049 A 
ATOM     25  C   UNL d   1       4.671   5.816 -11.681  0.00  0.00     0.021 A 
ATOM     26  C   UNL d   1       5.363   6.522 -10.703  0.00  0.00     0.063 A 
ATOM     27  C   UNL d   1       4.798   6.540  -9.440  0.00  0.00     0.106 A 
ATOM     28  N   UNL d   1       3.647   5.906  -9.112  0.00  0.00    -0.352 N 
ATOM     29  HN  UNL d   1       3.285   5.962  -8.160  1.00  0.00     0.166 HD
BRANCH  26  30
ATOM     30  C   UNL d   1       6.664   7.202 -10.980  0.00  0.00     0.418 C 
ATOM     31  F   UNL d   1       7.174   7.871  -9.910  0.00  0.00    -0.166 F 
ATOM     32  F   UNL d   1       6.573   8.120 -11.983  0.00  0.00    -0.166 F 
ATOM     33  F   UNL d   1       7.636   6.328 -11.367  0.00  0.00    -0.166 F 
ENDBRANCH  26  30
ENDBRANCH   1  23
TORSDOF 8
