REMARK  7 active torsions:
REMARK  status: ('A' for Active; 'I' for Inactive)
REMARK    1  A    between atoms: C_8  and  S_1 
REMARK    2  A    between atoms: N_17  and  S_1 
REMARK    3  A    between atoms: S_2  and  C_10 
REMARK    4  A    between atoms: N_18  and  S_2 
REMARK    5  A    between atoms: C_12  and  C_3 
REMARK    6  A    between atoms: C_25  and  N_17 
REMARK    7  A    between atoms: C_26  and  N_18 
ROOT
ATOM      1  C   UNL d   1      -0.050   4.293  -4.351  0.00  0.00     0.109 A 
ATOM      2  C   UNL d   1      -0.442   3.056  -4.830  0.00  0.00     0.081 A 
ATOM      3  O   UNL d   1       0.455   4.147  -3.084  0.00  0.00    -0.307 OA
ATOM      4  C   UNL d   1       0.348   2.833  -2.745  0.00  0.00     0.089 A 
ATOM      5  C   UNL d   1      -0.205   2.109  -3.794  0.00  0.00     0.022 A 
ATOM      6  C   UNL d   1       0.533   0.904  -1.384  0.00  0.00     0.082 A 
ATOM      7  C   UNL d   1       0.734   2.284  -1.524  0.00  0.00     0.063 A 
ATOM      8  C   UNL d   1      -0.401   0.723  -3.623  0.00  0.00     0.017 A 
ATOM      9  C   UNL d   1      -0.024   0.130  -2.410  0.00  0.00     0.026 A 
ATOM     10 CL   UNL d   1      -1.102   2.669  -6.351  0.00  0.00    -0.080 Cl
ENDROOT
BRANCH   1  11
ATOM     11  C   UNL d   1      -0.115   5.671  -4.830  0.00  0.00    -0.000 A 
ATOM     12  C   UNL d   1       0.869   6.605  -4.462  0.00  0.00     0.016 A 
ATOM     13  C   UNL d   1       0.739   7.955  -4.801  0.00  0.00     0.026 A 
ATOM     14  C   UNL d   1      -0.387   8.380  -5.509  0.00  0.00     0.079 A 
ATOM     15  C   UNL d   1      -1.343   7.461  -5.941  0.00  0.00     0.026 A 
ATOM     16  C   UNL d   1      -1.202   6.112  -5.601  0.00  0.00     0.016 A 
BRANCH  14  17
ATOM     17  S   UNL d   1      -0.615  10.110  -5.824  0.00  0.00     0.258 S 
ATOM     18  O   UNL d   1       0.612  10.611  -6.400  0.00  0.00    -0.201 OA
ATOM     19  O   UNL d   1      -1.898  10.309  -6.462  0.00  0.00    -0.201 OA
BRANCH  17  20
ATOM     20  N   UNL d   1      -0.705  10.756  -4.268  0.00  0.00    -0.316 N 
ATOM     21  H   UNL d   1      -0.122  11.589  -4.183  0.00  0.00     0.172 HD
BRANCH  20  22
ATOM     22  C   UNL d   1      -2.010  10.760  -3.599  0.00  0.00     0.128 C 
ATOM     23  C   UNL d   1      -1.854  11.297  -2.186  0.00  0.00     0.027 C 
ENDBRANCH  20  22
ENDBRANCH  17  20
ENDBRANCH  14  17
ENDBRANCH   1  11
BRANCH   6  24
ATOM     24  S   UNL d   1       1.063   0.089   0.102  0.00  0.00     0.258 S 
ATOM     25  O   UNL d   1       1.520   1.087   1.043  0.00  0.00    -0.201 OA
ATOM     26  O   UNL d   1       1.895  -1.021  -0.297  0.00  0.00    -0.201 OA
BRANCH  24  27
ATOM     27  N   UNL d   1      -0.363  -0.581   0.700  0.00  0.00    -0.316 N 
ATOM     28  H   UNL d   1      -0.216  -1.559   0.958  0.00  0.00     0.172 HD
BRANCH  27  29
ATOM     29  C   UNL d   1      -1.188   0.238   1.590  0.00  0.00     0.128 C 
ATOM     30  C   UNL d   1      -2.445  -0.531   1.957  0.00  0.00     0.027 C 
ENDBRANCH  27  29
ENDBRANCH  24  27
ENDBRANCH   6  24
TORSDOF 7
