REMARK  9 active torsions:
REMARK  status: ('A' for Active; 'I' for Inactive)
REMARK    1  A    between atoms: N_4  and  C_1 
REMARK       I    between atoms: C_5  and  N_4 
REMARK       I    between atoms: N_11  and  C_5 
REMARK    2  A    between atoms: C_8  and  C_6 
REMARK    3  A    between atoms: C_10  and  C_8 
REMARK    4  A    between atoms: O_18  and  C_10 
REMARK    5  A    between atoms: C_14  and  N_11 
REMARK    6  A    between atoms: O_15  and  C_16 
REMARK    7  A    between atoms: C_17  and  O_15 
REMARK    8  A    between atoms: C_23  and  C_17 
REMARK    9  A    between atoms: C_24  and  O_18 
ROOT
ATOM      1  N   UNL d   1       0.409  -4.780  -0.828  0.00  0.00    -0.288 N 
ATOM      2  C   UNL d   1       0.850  -3.626  -0.281  0.00  0.00     0.326 C 
ATOM      3  N   UNL d   1       2.190  -3.401  -0.172  0.00  0.00    -0.309 N 
ATOM      4  O   UNL d   1      -0.041  -2.849   0.065  0.00  0.00    -0.247 OA
ATOM      5  H   UNL d   1      -0.599  -4.815  -0.881  0.00  0.00     0.172 HD
ATOM      6  H   UNL d   1       2.795  -4.176  -0.428  0.00  0.00     0.170 HD
ENDROOT
BRANCH   1   7
ATOM      7  C   UNL d   1       1.056  -5.855  -1.346  0.00  0.00     0.152 A 
ATOM      8  N   UNL d   1       2.326  -6.149  -1.467  0.00  0.00    -0.339 N 
ATOM      9  C   UNL d   1       2.446  -7.418  -2.084  0.00  0.00     0.027 A 
ATOM     10  HN  UNL d   1       3.102  -5.560  -1.167  1.00  0.00     0.168 HD
ATOM     11  C   UNL d   1       1.230  -8.020  -2.365  0.00  0.00     0.078 A 
ATOM     12  S   UNL d   1      -0.065  -7.008  -1.924  0.00  0.00    -0.064 SA
BRANCH   9  13
ATOM     13  C   UNL d   1       3.823  -7.986  -2.319  0.00  0.00     0.168 C 
BRANCH  13  14
ATOM     14  C   UNL d   1       3.915  -9.153  -3.295  0.00  0.00     0.264 C 
ATOM     15  O   UNL d   1       2.998  -9.650  -3.935  0.00  0.00    -0.265 OA
BRANCH  14  16
ATOM     16  O   UNL d   1       5.212  -9.578  -3.374  0.00  0.00    -0.322 OA
BRANCH  16  17
ATOM     17  C   UNL d   1       5.494 -10.602  -4.344  0.00  0.00     0.174 C 
ATOM     18  C   UNL d   1       5.486 -11.975  -3.696  0.00  0.00     0.034 C 
ENDBRANCH  16  17
ENDBRANCH  14  16
ENDBRANCH  13  14
ENDBRANCH   9  13
ENDBRANCH   1   7
BRANCH   3  19
ATOM     19  C   UNL d   1       2.797  -2.169   0.190  0.00  0.00     0.036 A 
ATOM     20  C   UNL d   1       2.073  -1.002   0.458  0.00  0.00     0.032 A 
ATOM     21  C   UNL d   1       2.719   0.226   0.637  0.00  0.00     0.039 A 
ATOM     22  C   UNL d   1       4.106   0.314   0.585  0.00  0.00     0.069 A 
ATOM     23  C   UNL d   1       4.847  -0.852   0.408  0.00  0.00     0.039 A 
ATOM     24  C   UNL d   1       4.194  -2.086   0.210  0.00  0.00     0.032 A 
BRANCH  22  25
ATOM     25  O   UNL d   1       4.590   1.591   0.628  0.00  0.00    -0.347 OA
BRANCH  25  26
ATOM     26  C   UNL d   1       5.941   1.799   1.034  0.00  0.00     0.214 C 
BRANCH  26  27
ATOM     27  C   UNL d   1       6.968   1.793  -0.079  0.00  0.00    -0.034 A 
ATOM     28  C   UNL d   1       6.627   1.695  -1.435  0.00  0.00     0.009 A 
ATOM     29  C   UNL d   1       7.620   1.691  -2.418  0.00  0.00     0.001 A 
ATOM     30  C   UNL d   1       8.962   1.800  -2.061  0.00  0.00     0.000 A 
ATOM     31  C   UNL d   1       9.315   1.920  -0.719  0.00  0.00     0.001 A 
ATOM     32  C   UNL d   1       8.325   1.918   0.264  0.00  0.00     0.009 A 
ENDBRANCH  26  27
ENDBRANCH  25  26
ENDBRANCH  22  25
ENDBRANCH   3  19
TORSDOF 9
