REMARK  4 active torsions:
REMARK  status: ('A' for Active; 'I' for Inactive)
REMARK    1  A    between atoms: C_3  and  C_1 
REMARK    2  A    between atoms: C_2  and  C_4 
REMARK       I    between atoms: C_4  and  N_7 
REMARK    3  A    between atoms: N_7  and  N_9 
REMARK    4  A    between atoms: N_9  and  C_8 
ROOT
ATOM      1  N   UNL d   1       0.112   4.016   4.007  0.00  0.00    -0.188 NA
ATOM      2  H   UNL d   1       0.583   4.920   3.886  0.00  0.00     0.154 HD
ENDROOT
BRANCH   1   3
ATOM      3  N   UNL d   1      -0.988   4.051   4.875  0.00  0.00    -0.281 N 
ATOM      4  C   UNL d   1      -1.087   5.147   5.715  0.00  0.00     0.267 C 
ATOM      5  O   UNL d   1      -0.392   6.151   5.571  0.00  0.00    -0.266 OA
ATOM      6  H   UNL d   1      -1.301   3.147   5.213  0.00  0.00     0.184 HD
BRANCH   4   7
ATOM      7  C   UNL d   1      -2.124   5.097   6.793  0.00  0.00     0.054 A 
ATOM      8  C   UNL d   1      -2.726   3.939   7.312  0.00  0.00     0.049 A 
ATOM      9 CL   UNL d   1      -2.276   2.328   6.869  0.00  0.00    -0.083 Cl
ATOM     10  C   UNL d   1      -3.741   4.045   8.276  0.00  0.00     0.025 A 
ATOM     11  C   UNL d   1      -4.153   5.292   8.742  0.00  0.00     0.002 A 
ATOM     12  C   UNL d   1      -3.543   6.444   8.259  0.00  0.00     0.001 A 
ATOM     13  C   UNL d   1      -2.536   6.347   7.296  0.00  0.00     0.019 A 
ENDBRANCH   4   7
ENDBRANCH   1   3
BRANCH   1  14
ATOM     14  C   UNL d   1      -0.103   3.439   2.744  0.00  0.00     0.098 A 
ATOM     15  C   UNL d   1      -0.942   2.340   2.564  0.00  0.00     0.044 A 
ATOM     16  C   UNL d   1      -0.992   1.704   1.324  0.00  0.00     0.021 A 
ATOM     17  C   UNL d   1      -0.187   2.161   0.281  0.00  0.00     0.063 A 
ATOM     18  C   UNL d   1       0.591   3.279   0.531  0.00  0.00     0.105 A 
ATOM     19  N   UNL d   1       0.643   3.919   1.726  0.00  0.00    -0.355 N 
ATOM     20  HN  UNL d   1       1.232   4.742   1.853  1.00  0.00     0.166 HD
BRANCH  17  21
ATOM     21  C   UNL d   1      -0.133   1.453  -1.036  0.00  0.00     0.418 C 
ATOM     22  F   UNL d   1       0.753   1.995  -1.915  0.00  0.00    -0.166 F 
ATOM     23  F   UNL d   1      -1.336   1.441  -1.674  0.00  0.00    -0.166 F 
ATOM     24  F   UNL d   1       0.228   0.146  -0.904  0.00  0.00    -0.166 F 
ENDBRANCH  17  21
ENDBRANCH   1  14
TORSDOF 4
