REMARK  4 active torsions:
REMARK  status: ('A' for Active; 'I' for Inactive)
REMARK    1  A    between atoms: C_7  and  C_1 
REMARK    2  A    between atoms: N_11  and  C_4 
REMARK    3  A    between atoms: C_9  and  C_6 
REMARK    4  A    between atoms: C_10  and  C_7 
ROOT
ATOM      1  C   UNL d   1      -1.187   0.051  -0.270  0.00  0.00     0.164 A 
ATOM      2  N   UNL d   1       1.096  -0.643   0.230  0.00  0.00    -0.361 N 
ATOM      3  HN  UNL d   1       1.954  -1.168   0.398  1.00  0.00     0.162 HD
ATOM      4  C   UNL d   1       0.957   0.640   0.151  0.00  0.00     0.125 A 
ATOM      5  N   UNL d   1      -0.243   1.166  -0.177  0.00  0.00    -0.255 NA
ATOM      6  C   UNL d   1      -0.296  -1.193   0.019  0.00  0.00     0.142 A 
ATOM      7  H   UNL d   1      -0.539   1.927   0.423  0.00  0.00     0.131 HD
ENDROOT
BRANCH   1   8
ATOM      8  C   UNL d   1      -2.004   0.106  -1.561  0.00  0.00     0.179 C 
ATOM      9  O   UNL d   1      -3.237   0.170  -1.488  0.00  0.00    -0.290 OA
BRANCH   8  10
ATOM     10  C   UNL d   1      -1.381   0.077  -2.931  0.00  0.00     0.011 A 
ATOM     11  C   UNL d   1      -0.009   0.185  -3.173  0.00  0.00     0.015 A 
ATOM     12  C   UNL d   1       0.498   0.101  -4.473  0.00  0.00     0.001 A 
ATOM     13  C   UNL d   1      -0.363  -0.081  -5.550  0.00  0.00     0.000 A 
ATOM     14  C   UNL d   1      -1.734  -0.175  -5.329  0.00  0.00     0.001 A 
ATOM     15  C   UNL d   1      -2.239  -0.096  -4.029  0.00  0.00     0.015 A 
ENDBRANCH   8  10
ENDBRANCH   1   8
BRANCH   6  16
ATOM     16  C   UNL d   1      -0.364  -2.346  -0.964  0.00  0.00    -0.034 A 
ATOM     17  C   UNL d   1       0.778  -2.808  -1.635  0.00  0.00     0.009 A 
ATOM     18  C   UNL d   1       0.687  -3.816  -2.596  0.00  0.00     0.001 A 
ATOM     19  C   UNL d   1      -0.547  -4.389  -2.889  0.00  0.00     0.000 A 
ATOM     20  C   UNL d   1      -1.685  -3.978  -2.200  0.00  0.00     0.001 A 
ATOM     21  C   UNL d   1      -1.592  -2.975  -1.232  0.00  0.00     0.009 A 
ENDBRANCH   6  16
BRANCH   4  22
ATOM     22  N   UNL d   1       1.939   1.544   0.279  0.00  0.00    -0.279 NA
ATOM     23  H   UNL d   1       1.875   2.301  -0.390  0.00  0.00     0.126 HD
ATOM     24  H   UNL d   1       2.854   1.103   0.256  0.00  0.00     0.126 HD
ENDBRANCH   4  22
TORSDOF 4
