REMARK  2 active torsions:
REMARK  status: ('A' for Active; 'I' for Inactive)
REMARK    1  A    between atoms: N_5  and  C_1 
REMARK    2  A    between atoms: N_6  and  C_2 
REMARK       I    between atoms: C_9  and  N_5 
REMARK       I    between atoms: C_10  and  N_6 
ROOT
ATOM      1  C   UNL d   1      -2.717  -0.586  -0.015  0.00  0.00     0.063 A 
ATOM      2  C   UNL d   1      -2.610   0.821   0.002  0.00  0.00     0.063 A 
ATOM      3  C   UNL d   1      -1.551  -1.375  -0.051  0.00  0.00     0.057 A 
ATOM      4  C   UNL d   1      -1.323   1.391  -0.057  0.00  0.00     0.057 A 
ATOM      5  C   UNL d   1      -0.284  -0.791  -0.071  0.00  0.00     0.058 A 
ATOM      6  C   UNL d   1      -0.170   0.595  -0.082  0.00  0.00     0.058 A 
ATOM      7 CL   UNL d   1       1.358   1.402  -0.121  0.00  0.00    -0.082 Cl
ATOM      8 CL   UNL d   1       1.091  -1.836  -0.059  0.00  0.00    -0.082 Cl
ENDROOT
BRANCH   1   9
ATOM      9  N   UNL d   1      -3.966  -1.232   0.016  0.00  0.00    -0.325 N 
ATOM     10  C   UNL d   1      -4.289  -2.385  -0.663  0.00  0.00     0.218 C 
ATOM     11  O   UNL d   1      -3.558  -2.984  -1.447  0.00  0.00    -0.274 OA
ATOM     12  C   UNL d   1      -5.702  -2.849  -0.409  0.00  0.00     0.117 C 
ATOM     13  H   UNL d   1      -4.752  -0.675   0.351  0.00  0.00     0.169 HD
ENDBRANCH   1   9
BRANCH   2  14
ATOM     14  N   UNL d   1      -3.672   1.771  -0.027  0.00  0.00    -0.325 N 
ATOM     15  C   UNL d   1      -5.018   1.604   0.208  0.00  0.00     0.218 C 
ATOM     16  O   UNL d   1      -5.566   0.591   0.647  0.00  0.00    -0.274 OA
ATOM     17  C   UNL d   1      -5.847   2.822  -0.118  0.00  0.00     0.117 C 
ATOM     18  H   UNL d   1      -3.382   2.726  -0.199  0.00  0.00     0.169 HD
ENDBRANCH   2  14
TORSDOF 2
