REMARK  4 active torsions:
REMARK  status: ('A' for Active; 'I' for Inactive)
REMARK    1  A    between atoms: C_6  and  C_1 
REMARK    2  A    between atoms: C_3  and  C_11 
REMARK       I    between atoms: N_10  and  C_6 
REMARK       I    between atoms: C_9  and  N_12 
REMARK    3  A    between atoms: C_13  and  C_9 
REMARK    4  A    between atoms: N_12  and  N_10 
ROOT
ATOM      1  C   UNL d   1      -0.177  -2.656   1.146  0.00  0.00     0.249 C 
ATOM      2  N   UNL d   1       0.266  -2.235   2.385  0.00  0.00    -0.266 N 
ATOM      3  O   UNL d   1      -0.720  -3.759   1.003  0.00  0.00    -0.271 OA
ATOM      4  H   UNL d   1       0.912  -1.453   2.501  0.00  0.00     0.190 HD
ENDROOT
BRANCH   1   5
ATOM      5  C   UNL d   1      -0.054  -1.654  -0.015  0.00  0.00     0.151 A 
ATOM      6  C   UNL d   1       1.216  -0.831   0.021  0.00  0.00    -0.006 A 
ATOM      7  C   UNL d   1       1.150   0.563   0.073  0.00  0.00     0.083 A 
ATOM      8  C   UNL d   1       2.478  -1.449  -0.012  0.00  0.00     0.011 A 
ATOM      9  C   UNL d   1       2.318   1.330   0.090  0.00  0.00     0.038 A 
ATOM     10  O   UNL d   1      -0.025   1.270   0.119  0.00  0.00    -0.310 OA
ATOM     11  C   UNL d   1       3.565   0.708   0.065  0.00  0.00     0.003 A 
ATOM     12  C   UNL d   1       3.644  -0.682   0.018  0.00  0.00     0.001 A 
ATOM     13  C   UNL d   1      -1.209   0.592  -0.020  0.00  0.00     0.083 A 
ATOM     14  C   UNL d   1      -1.299  -0.798  -0.115  0.00  0.00    -0.006 A 
ATOM     15  C   UNL d   1      -2.360   1.384  -0.069  0.00  0.00     0.038 A 
ATOM     16  C   UNL d   1      -2.565  -1.381  -0.303  0.00  0.00     0.011 A 
ATOM     17  C   UNL d   1      -3.713  -0.589  -0.354  0.00  0.00     0.001 A 
ATOM     18  C   UNL d   1      -3.612   0.794  -0.229  0.00  0.00     0.003 A 
ENDBRANCH   1   5
BRANCH   2  19
ATOM     19  N   UNL d   1       0.189  -3.143   3.453  0.00  0.00    -0.263 N 
ATOM     20  C   UNL d   1       1.207  -3.152   4.385  0.00  0.00     0.270 C 
ATOM     21  O   UNL d   1       2.158  -2.376   4.355  0.00  0.00    -0.266 OA
ATOM     22  H   UNL d   1      -0.413  -3.952   3.302  0.00  0.00     0.190 HD
BRANCH  20  23
ATOM     23  C   UNL d   1       1.106  -4.186   5.452  0.00  0.00     0.034 A 
ATOM     24  C   UNL d   1       2.282  -4.723   5.992  0.00  0.00     0.033 A 
ATOM     25  C   UNL d   1       2.224  -5.683   7.016  0.00  0.00     0.048 A 
ATOM     26  C   UNL d   1       0.969  -6.077   7.507  0.00  0.00     0.016 A 
ATOM     27  C   UNL d   1      -0.204  -5.531   6.983  0.00  0.00     0.002 A 
ATOM     28  C   UNL d   1      -0.138  -4.588   5.956  0.00  0.00     0.017 A 
BRANCH  25  29
ATOM     29  C   UNL d   1       3.478  -6.297   7.592  0.00  0.00     0.417 C 
ATOM     30  F   UNL d   1       4.626  -5.828   7.030  0.00  0.00    -0.166 F 
ATOM     31  F   UNL d   1       3.599  -6.079   8.931  0.00  0.00    -0.166 F 
ATOM     32  F   UNL d   1       3.510  -7.649   7.430  0.00  0.00    -0.166 F 
ENDBRANCH  25  29
ENDBRANCH  20  23
ENDBRANCH   2  19
TORSDOF 4
