REMARK  3 active torsions:
REMARK  status: ('A' for Active; 'I' for Inactive)
REMARK    1  A    between atoms: N_4  and  C_1 
REMARK    2  A    between atoms: C_8  and  N_3 
REMARK    3  A    between atoms: C_6  and  N_4 
ROOT
ATOM      1  C   UNL d   1       0.675  -1.693   1.142  0.00  0.00    -0.086 C 
ATOM      2  C   UNL d   1       0.754  -1.351   2.288  0.00  0.00     0.015 C 
ATOM      3  C   UNL d   1       0.559  -2.108  -0.278  0.00  0.00     0.095 C 
ATOM      4  C   UNL d   1       1.959  -2.152  -0.935  0.00  0.00     0.044 C 
ATOM      5  C   UNL d   1      -0.038  -3.544  -0.308  0.00  0.00     0.044 C 
ATOM      6  C   UNL d   1      -0.049  -4.168  -1.707  0.00  0.00     0.004 C 
ATOM      7  C   UNL d   1       1.952  -2.768  -2.335  0.00  0.00     0.004 C 
ATOM      8  C   UNL d   1       1.336  -4.163  -2.341  0.00  0.00     0.000 C 
ENDROOT
BRANCH   3   9
ATOM      9  N   UNL d   1      -0.378  -1.190  -0.958  0.00  0.00    -0.347 N 
ATOM     10  H   UNL d   1      -1.163  -1.641  -1.412  0.00  0.00     0.163 HD
BRANCH   9  11
ATOM     11  C   UNL d   1      -0.343   0.134  -1.256  0.00  0.00     0.169 C 
ATOM     12  N   UNL d   1       0.665   0.875  -0.724  0.00  0.00    -0.363 N 
ATOM     13  H   UNL d   1       1.037   0.547   0.156  0.00  0.00     0.162 HD
ATOM     14  S   UNL d   1      -1.521   0.691  -2.301  0.00  0.00    -0.041 SA
BRANCH  12  15
ATOM     15  C   UNL d   1       1.165   2.172  -1.205  0.00  0.00     0.085 C 
ATOM     16  C   UNL d   1       2.662   2.272  -0.876  0.00  0.00     0.034 C 
ATOM     17  C   UNL d   1       3.318   3.572  -1.385  0.00  0.00    -0.045 C 
ATOM     18  C   UNL d   1       4.765   3.637  -0.863  0.00  0.00     0.015 C 
ATOM     19  C   UNL d   1       3.372   3.590  -2.925  0.00  0.00     0.015 C 
ATOM     20  C   UNL d   1       2.529   4.788  -0.850  0.00  0.00     0.013 C 
ATOM     21  C   UNL d   1       1.023   4.714  -1.152  0.00  0.00    -0.016 C 
ATOM     22  C   UNL d   1       0.414   3.392  -0.637  0.00  0.00     0.029 C 
ATOM     23  C   UNL d   1       0.309   5.932  -0.563  0.00  0.00     0.010 C 
ENDBRANCH  12  15
ENDBRANCH   9  11
ENDBRANCH   3   9
TORSDOF 3
