REMARK  7 active torsions:
REMARK  status: ('A' for Active; 'I' for Inactive)
REMARK    1  A    between atoms: C_25  and  N_1 
REMARK    2  A    between atoms: N_5  and  N_15 
REMARK    3  A    between atoms: S_17  and  C_6 
REMARK    4  A    between atoms: C_19  and  N_7 
REMARK       I    between atoms: N_15  and  C_16 
REMARK    5  A    between atoms: C_16  and  C_27 
REMARK    6  A    between atoms: C_27  and  S_17 
REMARK    7  A    between atoms: C_28  and  C_25 
ROOT
ATOM      1  N   UNL d   1      -5.743  -0.690  -0.261  0.00  0.00    -0.264 N 
ATOM      2  C   UNL d   1      -5.099  -1.776   0.310  0.00  0.00     0.245 C 
ATOM      3  O   UNL d   1      -5.699  -2.757   0.754  0.00  0.00    -0.271 OA
ATOM      4  H   UNL d   1      -5.249   0.204  -0.255  0.00  0.00     0.190 HD
ENDROOT
BRANCH   2   5
ATOM      5  C   UNL d   1      -3.580  -1.783   0.242  0.00  0.00     0.186 C 
BRANCH   5   6
ATOM      6  S   UNL d   1      -2.800  -0.148   0.065  0.00  0.00    -0.083 SA
BRANCH   6   7
ATOM      7  C   UNL d   1      -1.161  -0.653  -0.214  0.00  0.00     0.163 A 
ATOM      8  N   UNL d   1      -0.100   0.192  -0.422  0.00  0.00    -0.307 N 
ATOM      9  C   UNL d   1       0.954  -0.629  -0.769  0.00  0.00     0.141 A 
ATOM     10  N   UNL d   1       0.568  -1.885  -0.629  0.00  0.00    -0.282 N 
ATOM     11  C   UNL d   1       2.249  -0.257  -1.266  0.00  0.00     0.050 A 
ATOM     12  N   UNL d   1      -0.760  -1.898  -0.296  0.00  0.00    -0.278 N 
ATOM     13  HN  UNL d   1       1.160  -2.706  -0.750  1.00  0.00     0.188 HD
ATOM     14  HN  UNL d   1      -1.334  -2.727  -0.140  1.00  0.00     0.189 HD
ATOM     15  S   UNL d   1       3.636  -1.194  -0.876  0.00  0.00    -0.098 SA
ATOM     16  C   UNL d   1       2.576   0.761  -2.142  0.00  0.00     0.023 A 
ATOM     17  C   UNL d   1       4.643  -0.272  -1.904  0.00  0.00     0.050 A 
ATOM     18  C   UNL d   1       3.954   0.750  -2.515  0.00  0.00     0.009 A 
BRANCH   8  19
ATOM     19  C   UNL d   1      -0.049   1.615  -0.131  0.00  0.00     0.159 C 
BRANCH  19  20
ATOM     20  C   UNL d   1      -0.413   2.475  -1.306  0.00  0.00    -0.017 C 
ATOM     21  C   UNL d   1       0.101   3.696  -1.514  0.00  0.00     0.008 C 
ENDBRANCH  19  20
ENDBRANCH   8  19
ENDBRANCH   6   7
ENDBRANCH   5   6
ENDBRANCH   2   5
BRANCH   1  22
ATOM     22  N   UNL d   1      -7.163  -0.577  -0.260  0.00  0.00    -0.248 N 
ATOM     23  C   UNL d   1      -7.742   0.485   0.418  0.00  0.00     0.257 C 
ATOM     24  C   UNL d   1      -9.265   0.362   0.509  0.00  0.00     0.236 C 
ATOM     25  O   UNL d   1      -7.099   1.373   0.967  0.00  0.00    -0.270 OA
ATOM     26  N   UNL d   1      -9.831  -0.214  -0.724  0.00  0.00    -0.308 N 
ATOM     27  C   UNL d   1      -9.261  -1.418  -1.188  0.00  0.00     0.244 C 
ATOM     28  C   UNL d   1      -7.933  -1.784  -0.523  0.00  0.00     0.255 C 
ATOM     29  O   UNL d   1      -9.752  -2.190  -2.009  0.00  0.00    -0.271 OA
BRANCH  26  30
ATOM     30  C   UNL d   1     -11.066   0.317  -1.243  0.00  0.00     0.037 A 
ATOM     31  C   UNL d   1     -11.999  -0.485  -1.918  0.00  0.00     0.030 A 
ATOM     32  C   UNL d   1     -13.187   0.045  -2.437  0.00  0.00     0.002 A 
ATOM     33  C   UNL d   1     -13.469   1.397  -2.297  0.00  0.00     0.000 A 
ATOM     34  C   UNL d   1     -12.561   2.217  -1.639  0.00  0.00     0.002 A 
ATOM     35  C   UNL d   1     -11.373   1.683  -1.119  0.00  0.00     0.030 A 
ENDBRANCH  26  30
ENDBRANCH   1  22
TORSDOF 7
