REMARK  3 active torsions:
REMARK  status: ('A' for Active; 'I' for Inactive)
REMARK    1  A    between atoms: C_6  and  C_1 
REMARK    2  A    between atoms: C_9  and  N_2 
REMARK    3  A    between atoms: C_8  and  C_10 
ROOT
ATOM      1  C   UNL d   1      -0.172  -1.329   0.069  0.00  0.00     0.153 A 
ATOM      2  N   UNL d   1       1.030  -0.730   0.205  0.00  0.00    -0.239 N 
ATOM      3  N   UNL d   1      -1.161  -0.491   0.019  0.00  0.00    -0.238 N 
ATOM      4  HN  UNL d   1      -2.153  -0.711  -0.066  1.00  0.00     0.196 HD
ATOM      5  C   UNL d   1       0.793   0.608   0.179  0.00  0.00     0.395 A 
ATOM      6  O   UNL d   1      -0.566   0.805   0.107  0.00  0.00    -0.179 OA
ATOM      7  O   UNL d   1       1.611   1.522   0.175  0.00  0.00    -0.235 OA
ENDROOT
BRANCH   2   8
ATOM      8  C   UNL d   1       2.312  -1.267   0.051  0.00  0.00     0.046 A 
ATOM      9  C   UNL d   1       3.114  -1.440   1.183  0.00  0.00     0.031 A 
ATOM     10  C   UNL d   1       4.378  -2.022   1.067  0.00  0.00     0.018 A 
ATOM     11  C   UNL d   1       4.880  -2.381  -0.194  0.00  0.00     0.048 A 
ATOM     12  C   UNL d   1       4.088  -2.155  -1.331  0.00  0.00     0.018 A 
ATOM     13  C   UNL d   1       2.802  -1.612  -1.210  0.00  0.00     0.031 A 
BRANCH  11  14
ATOM     14  C   UNL d   1       6.250  -3.009  -0.296  0.00  0.00     0.417 C 
ATOM     15  F   UNL d   1       6.667  -3.195  -1.581  0.00  0.00    -0.166 F 
ATOM     16  F   UNL d   1       7.215  -2.265   0.310  0.00  0.00    -0.166 F 
ATOM     17  F   UNL d   1       6.299  -4.234   0.295  0.00  0.00    -0.166 F 
ENDBRANCH  11  14
ENDBRANCH   2   8
BRANCH   1  18
ATOM     18  C   UNL d   1      -0.376  -2.790   0.018  0.00  0.00     0.087 A 
ATOM     19  C   UNL d   1       0.309  -3.668   0.856  0.00  0.00     0.133 A 
ATOM     20  F   UNL d   1       1.136  -3.217   1.807  0.00  0.00    -0.205 F 
ATOM     21  C   UNL d   1       0.102  -5.046   0.792  0.00  0.00     0.043 A 
ATOM     22  C   UNL d   1      -0.850  -5.566  -0.080  0.00  0.00     0.006 A 
ATOM     23  C   UNL d   1      -1.589  -4.697  -0.881  0.00  0.00     0.043 A 
ATOM     24  C   UNL d   1      -1.346  -3.322  -0.833  0.00  0.00     0.133 A 
ATOM     25  F   UNL d   1      -2.066  -2.530  -1.642  0.00  0.00    -0.205 F 
ENDBRANCH   1  18
TORSDOF 3
