REMARK  2 active torsions:
REMARK  status: ('A' for Active; 'I' for Inactive)
REMARK       I    between atoms: C_6  and  N_2 
REMARK    1  A    between atoms: C_7  and  C_3 
REMARK    2  A    between atoms: C_12  and  C_6 
ROOT
ATOM      1  C   UNL d   1       1.016  -0.831   0.176  0.00  0.00     0.049 A 
ATOM      2  N   UNL d   1       3.340  -0.283  -0.270  0.00  0.00    -0.329 N 
ATOM      3  C   UNL d   1       2.427  -1.375   0.213  0.00  0.00     0.245 C 
ATOM      4  C   UNL d   1       0.630   0.482  -0.005  0.00  0.00    -0.019 A 
ATOM      5  N   UNL d   1      -0.122  -1.589   0.272  0.00  0.00    -0.356 N 
ATOM      6  C   UNL d   1       4.647  -0.480  -0.729  0.00  0.00     0.254 C 
ATOM      7  C   UNL d   1      -0.789   0.531   0.006  0.00  0.00    -0.001 A 
ATOM      8  C   UNL d   1      -1.237  -0.783   0.166  0.00  0.00     0.043 A 
ATOM      9  C   UNL d   1       3.022   1.087   0.203  0.00  0.00     0.132 C 
ATOM     10  C   UNL d   1       1.624   1.566  -0.216  0.00  0.00     0.061 C 
ATOM     11  O   UNL d   1       5.424   0.452  -0.942  0.00  0.00    -0.267 OA
ATOM     12  C   UNL d   1      -1.741   1.560  -0.121  0.00  0.00     0.014 A 
ATOM     13  C   UNL d   1      -2.596  -1.116   0.193  0.00  0.00     0.030 A 
ATOM     14  C   UNL d   1      -3.104   1.243  -0.088  0.00  0.00     0.001 A 
ATOM     15  C   UNL d   1      -3.522  -0.077   0.063  0.00  0.00     0.002 A 
ATOM     16  H   UNL d   1      -0.168  -2.594   0.402  0.00  0.00     0.166 HD
ENDROOT
BRANCH   3  17
ATOM     17  C   UNL d   1       2.835  -2.009   1.575  0.00  0.00     0.413 C 
ATOM     18  F   UNL d   1       1.781  -2.188   2.406  0.00  0.00    -0.168 F 
ATOM     19  F   UNL d   1       3.373  -3.239   1.372  0.00  0.00    -0.168 F 
ATOM     20  F   UNL d   1       3.755  -1.276   2.241  0.00  0.00    -0.168 F 
ENDBRANCH   3  17
BRANCH   6  21
ATOM     21  C   UNL d   1       5.200  -1.842  -0.924  0.00  0.00     0.032 A 
ATOM     22  C   UNL d   1       4.574  -2.814  -1.710  0.00  0.00     0.018 A 
ATOM     23  C   UNL d   1       5.150  -4.082  -1.836  0.00  0.00     0.025 A 
ATOM     24  C   UNL d   1       6.376  -4.357  -1.226  0.00  0.00     0.034 A 
ATOM     25  C   UNL d   1       7.039  -3.370  -0.499  0.00  0.00     0.025 A 
ATOM     26 CL   UNL d   1       7.083  -5.916  -1.390  0.00  0.00    -0.084 Cl
ATOM     27  C   UNL d   1       6.450  -2.114  -0.348  0.00  0.00     0.018 A 
ENDBRANCH   6  21
TORSDOF 2
