REMARK  4 active torsions:
REMARK  status: ('A' for Active; 'I' for Inactive)
REMARK    1  A    between atoms: N_2  and  S_1 
REMARK    2  A    between atoms: C_3  and  S_1 
REMARK    3  A    between atoms: C_4  and  C_9 
REMARK    4  A    between atoms: C_11  and  C_4 
ROOT
ATOM      1  N   UNL d   1       0.645   0.825  -1.256  0.00  0.00    -0.206 NA
ATOM      2  C   UNL d   1       0.934   2.269  -1.043  0.00  0.00     0.108 C 
ATOM      3  C   UNL d   1       1.251   0.300  -2.519  0.00  0.00     0.108 C 
ATOM      4  C   UNL d   1       1.137   2.638  -3.540  0.00  0.00     0.063 C 
ATOM      5  C   UNL d   1       0.466   3.088  -2.240  0.00  0.00     0.028 C 
ATOM      6  C   UNL d   1       0.828   1.141  -3.727  0.00  0.00     0.028 C 
ENDROOT
BRANCH   1   7
ATOM      7  S   UNL d   1       1.085  -0.158   0.097  0.00  0.00     0.243 S 
ATOM      8  O   UNL d   1       2.399   0.262   0.531  0.00  0.00    -0.206 OA
ATOM      9  O   UNL d   1       0.804  -1.539  -0.232  0.00  0.00    -0.206 OA
BRANCH   7  10
ATOM     10  C   UNL d   1      -0.089   0.314   1.343  0.00  0.00     0.074 A 
ATOM     11  C   UNL d   1      -1.445   0.046   1.128  0.00  0.00     0.026 A 
ATOM     12  C   UNL d   1      -2.371   0.338   2.131  0.00  0.00     0.025 A 
ATOM     13  C   UNL d   1      -1.936   0.889   3.337  0.00  0.00     0.034 A 
ATOM     14  C   UNL d   1      -0.583   1.161   3.548  0.00  0.00     0.025 A 
ATOM     15 CL   UNL d   1      -3.076   1.224   4.581  0.00  0.00    -0.084 Cl
ATOM     16  C   UNL d   1       0.349   0.872   2.549  0.00  0.00     0.026 A 
ENDBRANCH   7  10
ENDBRANCH   1   7
BRANCH   4  17
ATOM     17  C   UNL d   1       2.654   2.883  -3.603  0.00  0.00     0.163 C 
ATOM     18  O   UNL d   1       3.442   1.952  -3.772  0.00  0.00    -0.292 OA
BRANCH  17  19
ATOM     19  C   UNL d   1       3.226   4.262  -3.506  0.00  0.00     0.010 A 
ATOM     20  C   UNL d   1       2.451   5.423  -3.564  0.00  0.00     0.015 A 
ATOM     21  C   UNL d   1       3.058   6.679  -3.450  0.00  0.00     0.001 A 
ATOM     22  C   UNL d   1       4.441   6.784  -3.311  0.00  0.00     0.000 A 
ATOM     23  C   UNL d   1       5.225   5.634  -3.283  0.00  0.00     0.001 A 
ATOM     24  C   UNL d   1       4.620   4.380  -3.376  0.00  0.00     0.015 A 
ENDBRANCH  17  19
ENDBRANCH   4  17
TORSDOF 4
