REMARK  5 active torsions:
REMARK  status: ('A' for Active; 'I' for Inactive)
REMARK    1  A    between atoms: C_13  and  N_1 
REMARK    2  A    between atoms: C_10  and  C_3 
REMARK    3  A    between atoms: N_4  and  C_9 
REMARK    4  A    between atoms: C_20  and  N_7 
REMARK    5  A    between atoms: C_21  and  C_20 
ROOT
ATOM      1  N   UNL d   1      -0.361   1.058  -0.057  0.00  0.00    -0.291 N 
ATOM      2  C   UNL d   1       0.987   0.647  -0.064  0.00  0.00     0.152 A 
ATOM      3  C   UNL d   1      -1.259  -0.032  -0.074  0.00  0.00     0.058 A 
ATOM      4  S   UNL d   1       1.047  -1.149  -0.054  0.00  0.00    -0.063 SA
ATOM      5  C   UNL d   1      -0.686  -1.249  -0.070  0.00  0.00     0.084 A 
ATOM      6  N   UNL d   1       2.038   1.384  -0.095  0.00  0.00    -0.366 N 
ATOM      7  HN  UNL d   1       1.927   2.397  -0.141  1.00  0.00     0.162 HD
ENDROOT
BRANCH   1   8
ATOM      8  C   UNL d   1      -0.718   2.442   0.055  0.00  0.00     0.042 A 
ATOM      9  C   UNL d   1      -1.834   2.995  -0.595  0.00  0.00     0.030 A 
ATOM     10  C   UNL d   1      -2.186   4.343  -0.450  0.00  0.00     0.002 A 
ATOM     11  C   UNL d   1      -1.400   5.191   0.320  0.00  0.00     0.000 A 
ATOM     12  C   UNL d   1      -0.268   4.688   0.947  0.00  0.00     0.002 A 
ATOM     13  C   UNL d   1       0.059   3.333   0.824  0.00  0.00     0.030 A 
ENDBRANCH   1   8
BRANCH   6  14
ATOM     14  C   UNL d   1       3.383   0.826  -0.067  0.00  0.00     0.161 C 
BRANCH  14  15
ATOM     15  C   UNL d   1       4.425   1.917  -0.022  0.00  0.00    -0.025 A 
ATOM     16  C   UNL d   1       5.644   1.709   0.617  0.00  0.00     0.096 A 
ATOM     17  N   UNL d   1       6.639   2.624   0.681  0.00  0.00    -0.375 N 
ATOM     18  C   UNL d   1       6.413   3.808   0.072  0.00  0.00     0.087 A 
ATOM     19  HN  UNL d   1       7.516   2.430   1.166  1.00  0.00     0.164 HD
ATOM     20  C   UNL d   1       5.245   4.115  -0.603  0.00  0.00     0.018 A 
ATOM     21  C   UNL d   1       4.242   3.151  -0.655  0.00  0.00     0.011 A 
ENDBRANCH  14  15
ENDBRANCH   6  14
BRANCH   3  22
ATOM     22  C   UNL d   1      -2.720   0.072  -0.040  0.00  0.00    -0.008 A 
ATOM     23  C   UNL d   1      -3.401   0.198   1.178  0.00  0.00     0.016 A 
ATOM     24  C   UNL d   1      -4.795   0.318   1.199  0.00  0.00     0.037 A 
ATOM     25  C   UNL d   1      -5.507   0.321  -0.009  0.00  0.00     0.102 A 
ATOM     26  C   UNL d   1      -4.839   0.173  -1.230  0.00  0.00     0.037 A 
ATOM     27  C   UNL d   1      -3.450   0.028  -1.240  0.00  0.00     0.016 A 
BRANCH  25  28
ATOM     28  N   UNL d   1      -6.967   0.485   0.003  0.00  0.00    -0.116 N 
ATOM     29  O   UNL d   1      -7.527   0.567   1.105  0.00  0.00    -0.532 OA
ATOM     30  O   UNL d   1      -7.549   0.536  -1.088  0.00  0.00    -0.532 OA
ENDBRANCH  25  28
ENDBRANCH   3  22
TORSDOF 5
