REMARK  6 active torsions:
REMARK  status: ('A' for Active; 'I' for Inactive)
REMARK    1  A    between atoms: C_4  and  C_1 
REMARK    2  A    between atoms: O_17  and  C_4 
REMARK    3  A    between atoms: C_7  and  C_18 
REMARK    4  A    between atoms: N_10  and  O_17 
REMARK    5  A    between atoms: C_19  and  C_12 
REMARK    6  A    between atoms: N_25  and  C_12 
ROOT
ATOM      1  N   UNL d   1       5.204   1.945   0.379  0.00  0.00    -0.246 N 
ATOM      2  HN  UNL d   1       6.102   2.373   0.604  1.00  0.00     0.196 HD
ATOM      3  C   UNL d   1       5.058   0.691   0.070  0.00  0.00     0.109 C 
ENDROOT
BRANCH   3   4
ATOM      4  C   UNL d   1       6.293  -0.160   0.030  0.00  0.00     0.004 A 
ATOM      5  C   UNL d   1       7.394   0.168   0.828  0.00  0.00     0.015 A 
ATOM      6  C   UNL d   1       8.545  -0.629   0.808  0.00  0.00     0.014 A 
ATOM      7  C   UNL d   1       8.619  -1.759  -0.018  0.00  0.00    -0.008 A 
ATOM      8  C   UNL d   1       7.520  -2.067  -0.835  0.00  0.00     0.014 A 
ATOM      9  C   UNL d   1       6.362  -1.278  -0.808  0.00  0.00     0.015 A 
BRANCH   7  10
ATOM     10  C   UNL d   1       9.810  -2.601  -0.060  0.00  0.00     0.063 A 
ATOM     11  N   UNL d   1      10.155  -3.309  -1.208  0.00  0.00    -0.292 N 
ATOM     12  N   UNL d   1      11.266  -4.008  -1.046  0.00  0.00    -0.061 NA
ATOM     13  HN  UNL d   1       9.614  -3.290  -2.073  1.00  0.00     0.183 HD
ATOM     14  S   UNL d   1      11.913  -3.853   0.487  0.00  0.00    -0.010 SA
ATOM     15  C   UNL d   1      10.669  -2.791   1.009  0.00  0.00     0.096 A 
ENDBRANCH   7  10
ENDBRANCH   3   4
BRANCH   3  16
ATOM     16  N   UNL d   1       3.845   0.103  -0.203  0.00  0.00    -0.286 NA
ATOM     17  H   UNL d   1       3.055   0.669   0.091  0.00  0.00     0.125 HD
ATOM     18  H   UNL d   1       3.752  -0.866   0.082  0.00  0.00     0.125 HD
ENDBRANCH   3  16
BRANCH   1  19
ATOM     19  O   UNL d   1       3.975   2.648   0.366  0.00  0.00    -0.192 OA
BRANCH  19  20
ATOM     20  C   UNL d   1       4.205   3.977   0.654  0.00  0.00     0.333 C 
ATOM     21  O   UNL d   1       5.302   4.476   0.905  0.00  0.00    -0.256 OA
BRANCH  20  22
ATOM     22  C   UNL d   1       2.988   4.775   0.650  0.00  0.00     0.130 A 
ATOM     23  N   UNL d   1       1.733   4.232   0.377  0.00  0.00    -0.287 N 
ATOM     24  N   UNL d   1       0.774   5.144   0.435  0.00  0.00    -0.061 NA
ATOM     25  HN  UNL d   1       1.572   3.249   0.159  1.00  0.00     0.183 HD
ATOM     26  S   UNL d   1       1.345   6.669   0.816  0.00  0.00    -0.010 SA
ATOM     27  C   UNL d   1       2.969   6.138   0.922  0.00  0.00     0.102 A 
ENDBRANCH  20  22
ENDBRANCH  19  20
ENDBRANCH   1  19
TORSDOF 6
