REMARK  4 active torsions:
REMARK  status: ('A' for Active; 'I' for Inactive)
REMARK    1  A    between atoms: N_8  and  C_2 
REMARK    2  A    between atoms: C_16  and  N_3 
REMARK    3  A    between atoms: C_7  and  C_6 
REMARK    4  A    between atoms: C_14  and  C_10 
ROOT
ATOM      1  C   UNL d   1      -2.905  -2.733   0.120  0.00  0.00     0.120 C 
ATOM      2  C   UNL d   1      -3.896  -3.687  -0.004  0.00  0.00     0.157 C 
ATOM      3  N   UNL d   1      -5.090  -2.994  -0.075  0.00  0.00    -0.237 N 
ATOM      4  N   UNL d   1      -4.875  -1.661  -0.259  0.00  0.00    -0.289 N 
ATOM      5  HN  UNL d   1      -5.561  -0.957  -0.529  1.00  0.00     0.188 HD
ATOM      6  C   UNL d   1      -3.564  -1.470  -0.006  0.00  0.00     0.094 C 
ATOM      7  C   UNL d   1      -1.501  -2.982   0.184  0.00  0.00     0.106 C 
ATOM      8  N   UNL d   1      -0.362  -3.204   0.211  0.00  0.00    -0.191 NA
ENDROOT
BRANCH   2   9
ATOM      9  N   UNL d   1      -3.764  -5.076  -0.129  0.00  0.00    -0.316 N 
ATOM     10  C   UNL d   1      -4.591  -5.922  -0.848  0.00  0.00     0.098 A 
ATOM     11  C   UNL d   1      -4.175  -7.224  -0.690  0.00  0.00     0.019 A 
ATOM     12  C   UNL d   1      -3.012  -7.189   0.100  0.00  0.00     0.019 A 
ATOM     13  C   UNL d   1      -2.767  -5.867   0.407  0.00  0.00     0.098 A 
ENDBRANCH   2   9
BRANCH   6  14
ATOM     14  C   UNL d   1      -2.944  -0.150   0.049  0.00  0.00     0.076 C 
ATOM     15  C   UNL d   1      -3.432   0.910  -0.638  0.00  0.00     0.054 C 
ATOM     16  C   UNL d   1      -1.787  -0.017   0.886  0.00  0.00     0.102 C 
ATOM     17  N   UNL d   1      -0.857   0.058   1.575  0.00  0.00    -0.191 NA
BRANCH  15  18
ATOM     18  C   UNL d   1      -2.874   2.221  -0.612  0.00  0.00     0.033 A 
ATOM     19  N   UNL d   1      -2.952   2.981  -1.761  0.00  0.00    -0.366 N 
ATOM     20  C   UNL d   1      -2.334   4.191  -1.568  0.00  0.00     0.088 A 
ATOM     21  H   UNL d   1      -3.369   2.687  -2.633  0.00  0.00     0.165 HD
ATOM     22  C   UNL d   1      -1.882   4.235  -0.271  0.00  0.00     0.019 A 
ATOM     23  C   UNL d   1      -2.232   3.003   0.334  0.00  0.00     0.031 A 
ENDBRANCH  15  18
ENDBRANCH   6  14
BRANCH   3  24
ATOM     24  C   UNL d   1      -6.414  -3.493   0.079  0.00  0.00     0.058 A 
ATOM     25  C   UNL d   1      -6.673  -4.564   0.951  0.00  0.00     0.031 A 
ATOM     26  C   UNL d   1      -7.929  -5.168   0.965  0.00  0.00     0.002 A 
ATOM     27  C   UNL d   1      -8.935  -4.696   0.126  0.00  0.00     0.000 A 
ATOM     28  C   UNL d   1      -8.700  -3.588  -0.692  0.00  0.00     0.002 A 
ATOM     29  C   UNL d   1      -7.448  -2.967  -0.703  0.00  0.00     0.031 A 
ENDBRANCH   3  24
TORSDOF 4
