REMARK  10 active torsions:
REMARK  status: ('A' for Active; 'I' for Inactive)
REMARK    1  A    between atoms: C_3  and  S_1 
REMARK    2  A    between atoms: N_4  and  S_1 
REMARK    3  A    between atoms: C_2  and  C_8 
REMARK       I    between atoms: N_7  and  C_2 
REMARK    4  A    between atoms: C_18  and  N_4 
REMARK    5  A    between atoms: C_19  and  N_4 
REMARK    6  A    between atoms: C_16  and  N_7 
REMARK    7  A    between atoms: C_9  and  C_16 
REMARK    8  A    between atoms: O_17  and  C_9 
REMARK    9  A    between atoms: C_21  and  C_18 
REMARK   10  A    between atoms: C_20  and  C_19 
ROOT
ATOM      1  C   UNL d   1       0.456   1.728  -0.039  0.00  0.00     0.074 A 
ATOM      2  C   UNL d   1      -0.431   4.388  -0.133  0.00  0.00     0.032 A 
ATOM      3  C   UNL d   1      -0.743   2.073   0.582  0.00  0.00     0.026 A 
ATOM      4  C   UNL d   1       1.233   2.705  -0.672  0.00  0.00     0.026 A 
ATOM      5  C   UNL d   1       0.784   4.029  -0.728  0.00  0.00     0.018 A 
ATOM      6  C   UNL d   1      -1.183   3.402   0.533  0.00  0.00     0.018 A 
ENDROOT
BRANCH   1   7
ATOM      7  S   UNL d   1       1.067   0.062   0.074  0.00  0.00     0.243 S 
ATOM      8  O   UNL d   1       0.609  -0.463   1.342  0.00  0.00    -0.206 OA
ATOM      9  O   UNL d   1       2.483   0.096  -0.242  0.00  0.00    -0.206 OA
BRANCH   7  10
ATOM     10  N   UNL d   1       0.280  -0.796  -1.219  0.00  0.00    -0.206 NA
BRANCH  10  11
ATOM     11  C   UNL d   1       0.458  -0.126  -2.557  0.00  0.00     0.107 C 
BRANCH  11  12
ATOM     12  C   UNL d   1      -0.289  -0.792  -3.717  0.00  0.00     0.011 C 
ATOM     13  C   UNL d   1      -1.778  -0.975  -3.469  0.00  0.00     0.006 C 
ENDBRANCH  11  12
ENDBRANCH  10  11
BRANCH  10  14
ATOM     14  C   UNL d   1       0.692  -2.247  -1.260  0.00  0.00     0.107 C 
BRANCH  14  15
ATOM     15  C   UNL d   1       0.178  -3.078  -0.085  0.00  0.00     0.011 C 
ATOM     16  C   UNL d   1      -1.329  -2.998   0.095  0.00  0.00     0.006 C 
ENDBRANCH  14  15
ENDBRANCH  10  14
ENDBRANCH   7  10
ENDBRANCH   1   7
BRANCH   2  17
ATOM     17  C   UNL d   1      -0.978   5.781  -0.166  0.00  0.00     0.252 C 
ATOM     18  N   UNL d   1      -0.263   6.747  -0.836  0.00  0.00    -0.347 N 
ATOM     19  H   UNL d   1       0.615   6.564  -1.300  0.00  0.00     0.163 HD
ATOM     20  O   UNL d   1      -2.045   6.040   0.382  0.00  0.00    -0.268 OA
BRANCH  18  21
ATOM     21  C   UNL d   1      -0.766   8.106  -0.923  0.00  0.00     0.232 C 
BRANCH  21  22
ATOM     22  C   UNL d   1       0.197   8.984  -1.708  0.00  0.00     0.158 C 
ATOM     23  O   UNL d   1       1.243   8.582  -2.201  0.00  0.00    -0.649 OA
BRANCH  22  24
ATOM     24  O   UNL d   1      -0.215  10.268  -1.819  0.00  0.00    -0.775 OA
ATOM     25  H   UNL d   1      -1.068  10.454  -1.379  0.00  0.00     0.167 HD
ENDBRANCH  22  24
ENDBRANCH  21  22
ENDBRANCH  18  21
ENDBRANCH   2  17
TORSDOF 10
