REMARK  3 active torsions:
REMARK  status: ('A' for Active; 'I' for Inactive)
REMARK    1  A    between atoms: N_6  and  C_1 
REMARK    2  A    between atoms: N_4  and  N_6 
REMARK    3  A    between atoms: C_9  and  C_8 
ROOT
ATOM      1  N   UNL d   1      -2.702   2.497  -0.364  0.00  0.00    -0.290 N 
ATOM      2  HN  UNL d   1      -1.686   2.554  -0.290  1.00  0.00     0.187 HD
ATOM      3  C   UNL d   1      -3.396   3.586  -0.526  0.00  0.00     0.032 C 
ATOM      4  C   UNL d   1      -4.907   3.658  -0.632  0.00  0.00     0.070 C 
ENDROOT
BRANCH   1   5
ATOM      5  N   UNL d   1      -3.316   1.283  -0.291  0.00  0.00    -0.132 N 
ATOM      6  H   UNL d   1      -4.319   1.178  -0.205  0.00  0.00     0.205 HD
BRANCH   5   7
ATOM      7  C   UNL d   1      -2.661   0.077  -0.242  0.00  0.00     0.688 C 
ATOM      8  N   UNL d   1      -3.304  -1.036  -0.145  0.00  0.00    -0.225 N 
ATOM      9  C   UNL d   1      -2.503  -2.265  -0.051  0.00  0.00     0.139 C 
ATOM     10  HN  UNL d   1      -4.324  -1.062  -0.134  1.00  0.00     0.177 HD
ATOM     11  C   UNL d   1      -1.093  -2.130  -0.612  0.00  0.00     0.040 C 
ATOM     12  C   UNL d   1      -0.445  -0.892  -0.022  0.00  0.00     0.139 C 
ATOM     13  N   UNL d   1      -1.308   0.216  -0.314  0.00  0.00    -0.225 N 
ATOM     14  H   UNL d   1      -1.007   1.155  -0.073  0.00  0.00     0.177 HD
ENDBRANCH   5   7
ENDBRANCH   1   5
BRANCH   3  15
ATOM     15  C   UNL d   1      -2.634   4.885  -0.617  0.00  0.00    -0.013 A 
ATOM     16  C   UNL d   1      -1.230   4.858  -0.594  0.00  0.00     0.015 A 
ATOM     17  C   UNL d   1      -0.490   6.042  -0.671  0.00  0.00     0.024 A 
ATOM     18  C   UNL d   1      -1.151   7.263  -0.774  0.00  0.00     0.034 A 
ATOM     19  C   UNL d   1      -2.543   7.307  -0.804  0.00  0.00     0.024 A 
ATOM     20 CL   UNL d   1      -0.246   8.722  -0.864  0.00  0.00    -0.084 Cl
ATOM     21  C   UNL d   1      -3.284   6.122  -0.725  0.00  0.00     0.015 A 
ENDBRANCH   3  15
TORSDOF 3
