REMARK  3 active torsions:
REMARK  status: ('A' for Active; 'I' for Inactive)
REMARK       I    between atoms: N_2  and  C_1 
REMARK    1  A    between atoms: C_3  and  C_1 
REMARK       I    between atoms: C_5  and  N_2 
REMARK       I    between atoms: C_4  and  N_7 
REMARK    2  A    between atoms: C_6  and  C_4 
REMARK       I    between atoms: N_8  and  C_5 
REMARK    3  A    between atoms: N_7  and  N_8 
ROOT
ATOM      1  C   UNL d   1       1.075  -0.188  -0.051  0.00  0.00     0.261 C 
ATOM      2  N   UNL d   1       0.547  -0.733   1.106  0.00  0.00    -0.274 N 
ATOM      3  C   UNL d   1       1.196  -1.197   2.217  0.00  0.00     0.341 C 
ATOM      4  N   UNL d   1       2.560  -1.243   2.173  0.00  0.00    -0.248 N 
ATOM      5  O   UNL d   1       2.279  -0.099  -0.279  0.00  0.00    -0.267 OA
ATOM      6  O   UNL d   1       0.545  -1.554   3.201  0.00  0.00    -0.245 OA
ATOM      7  H   UNL d   1      -0.456  -0.734   1.228  0.00  0.00     0.173 HD
ATOM      8  H   UNL d   1       3.090  -0.895   1.370  0.00  0.00     0.192 HD
ENDROOT
BRANCH   4   9
ATOM      9  N   UNL d   1       3.252  -1.665   3.312  0.00  0.00    -0.260 N 
ATOM     10  C   UNL d   1       4.551  -2.125   3.209  0.00  0.00     0.293 C 
ATOM     11  O   UNL d   1       5.185  -2.086   2.156  0.00  0.00    -0.264 OA
ATOM     12  H   UNL d   1       2.704  -1.845   4.152  0.00  0.00     0.190 HD
BRANCH  10  13
ATOM     13  C   UNL d   1       5.085  -2.653   4.449  0.00  0.00     0.144 A 
ATOM     14  O   UNL d   1       4.332  -2.593   5.594  0.00  0.00    -0.317 OA
ATOM     15  C   UNL d   1       5.080  -3.123   6.596  0.00  0.00     0.143 A 
ATOM     16  C   UNL d   1       6.301  -3.537   6.119  0.00  0.00     0.027 A 
ATOM     17  C   UNL d   1       6.305  -3.238   4.736  0.00  0.00     0.045 A 
ENDBRANCH  10  13
ENDBRANCH   4   9
BRANCH   1  18
ATOM     18  C   UNL d   1       0.087   0.209  -1.092  0.00  0.00     0.054 A 
ATOM     19  C   UNL d   1      -1.156   0.802  -0.821  0.00  0.00     0.049 A 
ATOM     20 CL   UNL d   1      -1.650   1.285   0.763  0.00  0.00    -0.083 Cl
ATOM     21  C   UNL d   1      -2.055   1.055  -1.865  0.00  0.00     0.025 A 
ATOM     22  C   UNL d   1      -1.717   0.736  -3.180  0.00  0.00     0.002 A 
ATOM     23  C   UNL d   1      -0.470   0.185  -3.462  0.00  0.00     0.001 A 
ATOM     24  C   UNL d   1       0.431  -0.072  -2.425  0.00  0.00     0.019 A 
ENDBRANCH   1  18
TORSDOF 3
