REMARK  5 active torsions:
REMARK  status: ('A' for Active; 'I' for Inactive)
REMARK    1  A    between atoms: C_4  and  C_1 
REMARK    2  A    between atoms: C_3  and  C_2 
REMARK       I    between atoms: N_8  and  C_4 
REMARK    3  A    between atoms: C_12  and  N_8 
REMARK    4  A    between atoms: O_19  and  C_9 
REMARK    5  A    between atoms: C_11  and  C_12 
ROOT
ATOM      1  C   UNL d   1       0.623   1.239   0.006  0.00  0.00     0.062 A 
ATOM      2  C   UNL d   1      -0.616   0.809   0.492  0.00  0.00     0.069 A 
ATOM      3  C   UNL d   1       1.461   0.280  -0.563  0.00  0.00     0.108 A 
ATOM      4  N   UNL d   1       1.148  -1.032  -0.718  0.00  0.00    -0.346 N 
ATOM      5  HN  UNL d   1       1.794  -1.690  -1.155  1.00  0.00     0.167 HD
ATOM      6  C   UNL d   1      -0.055  -1.419  -0.267  0.00  0.00     0.142 A 
ATOM      7  C   UNL d   1      -0.954  -0.553   0.332  0.00  0.00     0.073 A 
ENDROOT
BRANCH   1   8
ATOM      8  C   UNL d   1       1.188   2.607   0.071  0.00  0.00     0.254 C 
ATOM      9  N   UNL d   1       0.371   3.668  -0.239  0.00  0.00    -0.353 N 
ATOM     10  H   UNL d   1      -0.629   3.546  -0.315  0.00  0.00     0.163 HD
ATOM     11  O   UNL d   1       2.377   2.738   0.347  0.00  0.00    -0.268 OA
BRANCH   9  12
ATOM     12  C   UNL d   1       0.829   5.024  -0.010  0.00  0.00     0.163 C 
BRANCH  12  13
ATOM     13  C   UNL d   1       0.004   6.017  -0.783  0.00  0.00    -0.019 A 
ATOM     14  C   UNL d   1      -1.110   6.677  -0.242  0.00  0.00     0.042 A 
ATOM     15 CL   UNL d   1      -1.642   6.402   1.378  0.00  0.00    -0.084 Cl
ATOM     16  C   UNL d   1      -1.844   7.584  -1.016  0.00  0.00     0.024 A 
ATOM     17  C   UNL d   1      -1.481   7.835  -2.338  0.00  0.00     0.002 A 
ATOM     18  C   UNL d   1      -0.387   7.177  -2.893  0.00  0.00     0.001 A 
ATOM     19  C   UNL d   1       0.346   6.273  -2.123  0.00  0.00     0.010 A 
ENDBRANCH  12  13
ENDBRANCH   9  12
ENDBRANCH   1   8
BRANCH   2  20
ATOM     20  C   UNL d   1      -1.626   1.665   1.197  0.00  0.00     0.418 C 
ATOM     21  F   UNL d   1      -1.203   2.903   1.550  0.00  0.00    -0.166 F 
ATOM     22  F   UNL d   1      -2.732   1.863   0.426  0.00  0.00    -0.166 F 
ATOM     23  F   UNL d   1      -2.076   1.094   2.349  0.00  0.00    -0.166 F 
ENDBRANCH   2  20
BRANCH   6  24
ATOM     24  O   UNL d   1      -0.453  -2.735  -0.374  0.00  0.00    -0.341 OA
ATOM     25  C   UNL d   1       0.520  -3.566  -0.998  0.00  0.00     0.211 C 
ENDBRANCH   6  24
TORSDOF 5
