REMARK  6 active torsions:
REMARK  status: ('A' for Active; 'I' for Inactive)
REMARK    1  A    between atoms: N_12  and  C_3 
REMARK    2  A    between atoms: C_10  and  C_4 
REMARK    3  A    between atoms: S_13  and  C_8 
REMARK    4  A    between atoms: N_11  and  C_16 
REMARK    5  A    between atoms: C_15  and  S_13 
REMARK    6  A    between atoms: C_16  and  C_15 
ROOT
ATOM      1  C   UNL d   1       1.187  -0.026   0.732  0.00  0.00     0.051 A 
ATOM      2  C   UNL d   1       0.154  -0.735   0.131  0.00  0.00     0.095 A 
ATOM      3  C   UNL d   1       1.518  -0.722   1.930  0.00  0.00     0.061 A 
ATOM      4  C   UNL d   1       0.748  -1.890   2.131  0.00  0.00     0.079 A 
ATOM      5  S   UNL d   1      -0.499  -2.165   0.902  0.00  0.00    -0.065 SA
ATOM      6  N   UNL d   1      -0.355  -0.371  -1.008  0.00  0.00    -0.319 N 
ATOM      7  HN  UNL d   1      -1.117  -0.812  -1.523  1.00  0.00     0.175 HD
ATOM      8  C   UNL d   1       1.522   1.077   0.011  0.00  0.00     0.073 A 
ATOM      9  S   UNL d   1       0.536   1.000  -1.441  0.00  0.00    -0.006 SA
ENDROOT
BRANCH   8  10
ATOM     10  S   UNL d   1       2.692   2.346   0.322  0.00  0.00    -0.118 SA
BRANCH  10  11
ATOM     11  C   UNL d   1       1.613   3.816   0.165  0.00  0.00     0.110 C 
BRANCH  11  12
ATOM     12  C   UNL d   1       2.399   5.130   0.037  0.00  0.00     0.283 C 
BRANCH  12  13
ATOM     13  N   UNL d   1       1.496   6.296   0.001  0.00  0.00     0.089 N 
ATOM     14  C   UNL d   1       0.628   6.354  -1.185  0.00  0.00     0.272 C 
ATOM     15  C   UNL d   1       0.922   7.674  -1.874  0.00  0.00     0.032 C 
ATOM     16  C   UNL d   1       1.427   8.547  -0.748  0.00  0.00     0.032 C 
ATOM     17  C   UNL d   1       2.227   7.568   0.095  0.00  0.00     0.272 C 
ENDBRANCH  12  13
ENDBRANCH  11  12
ENDBRANCH  10  11
ENDBRANCH   8  10
BRANCH   3  18
ATOM     18  N   UNL d   1       2.499  -0.331   2.772  0.00  0.00    -0.397 N 
ATOM     19  H   UNL d   1       3.034   0.524   2.656  0.00  0.00     0.156 HD
ATOM     20  H   UNL d   1       2.663  -0.821   3.657  0.00  0.00     0.156 HD
ENDBRANCH   3  18
BRANCH   4  21
ATOM     21  C   UNL d   1       0.887  -2.845   3.241  0.00  0.00     0.164 C 
ATOM     22  O   UNL d   1       1.574  -2.588   4.237  0.00  0.00    -0.292 OA
ATOM     23  C   UNL d   1       0.185  -4.185   3.199  0.00  0.00     0.097 C 
ENDBRANCH   4  21
TORSDOF 6
