REMARK  4 active torsions:
REMARK  status: ('A' for Active; 'I' for Inactive)
REMARK    1  A    between atoms: C_13  and  C_3 
REMARK    2  A    between atoms: C_9  and  C_5 
REMARK    3  A    between atoms: O_16  and  C_11 
REMARK    4  A    between atoms: O_17  and  C_12 
ROOT
ATOM      1  N   UNL d   1      -0.385   1.663  -0.642  0.00  0.00    -0.358 N 
ATOM      2  HN  UNL d   1      -0.164   2.270  -1.431  1.00  0.00     0.166 HD
ATOM      3  C   UNL d   1      -1.548   1.775  -0.077  0.00  0.00     0.021 C 
ATOM      4  S   UNL d   1      -1.149  -1.493  -0.355  0.00  0.00    -0.118 SA
ATOM      5  C   UNL d   1      -2.378  -0.537   0.637  0.00  0.00     0.091 C 
ATOM      6  C   UNL d   1      -1.997   0.887   1.068  0.00  0.00     0.078 C 
ATOM      7  C   UNL d   1       0.588   0.737  -0.210  0.00  0.00     0.049 A 
ATOM      8  C   UNL d   1       0.386  -0.644  -0.050  0.00  0.00     0.028 A 
ATOM      9  C   UNL d   1       1.877   1.257  -0.027  0.00  0.00     0.031 A 
ATOM     10  C   UNL d   1       1.476  -1.467   0.281  0.00  0.00     0.021 A 
ATOM     11  C   UNL d   1       2.950   0.435   0.316  0.00  0.00     0.002 A 
ATOM     12  C   UNL d   1       2.751  -0.930   0.470  0.00  0.00     0.002 A 
ENDROOT
BRANCH   5  13
ATOM     13  C   UNL d   1      -3.756  -0.602  -0.020  0.00  0.00    -0.041 A 
ATOM     14  C   UNL d   1      -3.923  -0.409  -1.408  0.00  0.00     0.048 A 
ATOM     15  C   UNL d   1      -5.188  -0.433  -2.011  0.00  0.00     0.102 A 
ATOM     16  C   UNL d   1      -6.320  -0.628  -1.208  0.00  0.00     0.101 A 
ATOM     17  C   UNL d   1      -6.163  -0.843   0.168  0.00  0.00     0.040 A 
ATOM     18  C   UNL d   1      -4.897  -0.828   0.759  0.00  0.00     0.011 A 
BRANCH  15  19
ATOM     19  O   UNL d   1      -5.363  -0.341  -3.366  0.00  0.00    -0.353 OA
ATOM     20  C   UNL d   1      -4.330   0.285  -4.117  0.00  0.00     0.210 C 
ENDBRANCH  15  19
BRANCH  16  21
ATOM     21  O   UNL d   1      -7.628  -0.656  -1.625  0.00  0.00    -0.353 OA
ATOM     22  C   UNL d   1      -7.945   0.166  -2.745  0.00  0.00     0.210 C 
ENDBRANCH  16  21
ENDBRANCH   5  13
BRANCH   3  23
ATOM     23  C   UNL d   1      -2.453   2.867  -0.579  0.00  0.00    -0.014 A 
ATOM     24  C   UNL d   1      -3.843   2.823  -0.441  0.00  0.00     0.013 A 
ATOM     25  C   UNL d   1      -4.647   3.796  -1.040  0.00  0.00     0.001 A 
ATOM     26  C   UNL d   1      -4.066   4.851  -1.739  0.00  0.00     0.000 A 
ATOM     27  C   UNL d   1      -2.680   4.943  -1.829  0.00  0.00     0.001 A 
ATOM     28  C   UNL d   1      -1.877   3.953  -1.257  0.00  0.00     0.013 A 
ENDBRANCH   3  23
TORSDOF 4
