REMARK  2 active torsions:
REMARK  status: ('A' for Active; 'I' for Inactive)
REMARK    1  A    between atoms: C_3  and  C_1 
REMARK       I    between atoms: N_10  and  C_3 
REMARK    2  A    between atoms: C_18  and  N_10 
ROOT
ATOM      1  C   UNL d   1      -1.356  -2.679  -0.165  0.00  0.00     0.258 C 
ATOM      2  N   UNL d   1      -0.272  -3.524  -0.022  0.00  0.00    -0.323 N 
ATOM      3  O   UNL d   1      -1.340  -1.461  -0.005  0.00  0.00    -0.267 OA
ATOM      4  H   UNL d   1      -0.401  -4.495  -0.294  0.00  0.00     0.169 HD
ENDROOT
BRANCH   1   5
ATOM      5  C   UNL d   1      -2.650  -3.283  -0.554  0.00  0.00     0.061 A 
ATOM      6  C   UNL d   1      -2.880  -4.674  -0.714  0.00  0.00     0.082 A 
ATOM      7  N   UNL d   1      -1.987  -5.676  -0.590  0.00  0.00    -0.310 N 
ATOM      8  C   UNL d   1      -4.266  -5.177  -1.064  0.00  0.00     0.068 A 
ATOM      9  S   UNL d   1      -2.813  -7.092  -0.863  0.00  0.00     0.068 SA
ATOM     10  HN  UNL d   1      -0.995  -5.583  -0.371  1.00  0.00     0.176 HD
ATOM     11  N   UNL d   1      -4.334  -6.512  -1.171  0.00  0.00    -0.310 N 
ATOM     12  HN  UNL d   1      -5.162  -7.064  -1.399  1.00  0.00     0.176 HD
ATOM     13  C   UNL d   1      -5.350  -4.285  -1.246  0.00  0.00     0.032 A 
ATOM     14  C   UNL d   1      -5.066  -2.922  -1.084  0.00  0.00     0.003 A 
ATOM     15  C   UNL d   1      -3.778  -2.445  -0.752  0.00  0.00     0.019 A 
ENDBRANCH   1   5
BRANCH   2  16
ATOM     16  C   UNL d   1       1.003  -3.177   0.484  0.00  0.00     0.035 A 
ATOM     17  C   UNL d   1       1.276  -1.944   1.089  0.00  0.00     0.042 A 
ATOM     18  C   UNL d   1       2.552  -1.658   1.635  0.00  0.00    -0.017 A 
ATOM     19  C   UNL d   1       3.025  -0.487   2.317  0.00  0.00     0.020 A 
ATOM     20  C   UNL d   1       3.546  -2.631   1.540  0.00  0.00     0.015 A 
ATOM     21  C   UNL d   1       4.336  -0.597   2.716  0.00  0.00     0.051 A 
ATOM     22  S   UNL d   1       5.016  -2.095   2.263  0.00  0.00    -0.101 SA
ATOM     23  C   UNL d   1       3.297  -3.870   0.920  0.00  0.00     0.022 A 
ATOM     24  C   UNL d   1       2.018  -4.130   0.410  0.00  0.00     0.031 A 
ENDBRANCH   2  16
TORSDOF 2
