REMARK  4 active torsions:
REMARK  status: ('A' for Active; 'I' for Inactive)
REMARK       I    between atoms: C_7  and  N_2 
REMARK    1  A    between atoms: S_11  and  C_6 
REMARK    2  A    between atoms: C_10  and  C_7 
REMARK    3  A    between atoms: C_20  and  S_11 
REMARK    4  A    between atoms: C_21  and  C_20 
ROOT
ATOM      1  C   UNL d   1       0.263   0.641   0.025  0.00  0.00     0.706 A 
ATOM      2  N   UNL d   1      -0.741   1.595  -0.087  0.00  0.00    -0.145 N 
ATOM      3  N   UNL d   1      -0.052  -0.700   0.061  0.00  0.00    -0.159 N 
ATOM      4  N   UNL d   1       1.565   0.758   0.154  0.00  0.00    -0.129 N 
ATOM      5  HN  UNL d   1       2.086   1.635   0.176  1.00  0.00     0.205 HD
ATOM      6  C   UNL d   1       1.125  -1.367   0.206  0.00  0.00     0.177 A 
ATOM      7  C   UNL d   1      -0.492   2.985  -0.129  0.00  0.00     0.279 C 
ATOM      8  N   UNL d   1       2.111  -0.503   0.252  0.00  0.00    -0.265 N 
ATOM      9  HN  UNL d   1       3.102  -0.726   0.345  1.00  0.00     0.189 HD
ATOM     10  O   UNL d   1      -1.434   3.743   0.141  0.00  0.00    -0.266 OA
ATOM     11  C   UNL d   1      -2.125   1.172   0.153  0.00  0.00     0.153 C 
ATOM     12  C   UNL d   1      -1.398  -1.224   0.025  0.00  0.00     0.151 C 
ATOM     13  C   UNL d   1      -2.404  -0.191  -0.469  0.00  0.00     0.042 C 
ENDROOT
BRANCH   6  14
ATOM     14  S   UNL d   1       1.245  -3.084   0.324  0.00  0.00    -0.087 SA
BRANCH  14  15
ATOM     15  C   UNL d   1       2.892  -3.235   1.079  0.00  0.00     0.121 C 
BRANCH  15  16
ATOM     16  C   UNL d   1       3.282  -4.676   1.295  0.00  0.00    -0.049 A 
ATOM     17  C   UNL d   1       4.084  -5.344   0.356  0.00  0.00     0.008 A 
ATOM     18  C   UNL d   1       4.464  -6.670   0.562  0.00  0.00     0.001 A 
ATOM     19  C   UNL d   1       4.040  -7.350   1.706  0.00  0.00     0.000 A 
ATOM     20  C   UNL d   1       3.233  -6.701   2.639  0.00  0.00     0.001 A 
ATOM     21  C   UNL d   1       2.855  -5.373   2.435  0.00  0.00     0.008 A 
ENDBRANCH  15  16
ENDBRANCH  14  15
ENDBRANCH   6  14
BRANCH   7  22
ATOM     22  C   UNL d   1       0.800   3.536  -0.542  0.00  0.00     0.073 A 
ATOM     23  S   UNL d   1       1.243   5.085   0.080  0.00  0.00    -0.097 SA
ATOM     24  C   UNL d   1       2.716   5.099  -0.779  0.00  0.00     0.050 A 
ATOM     25  C   UNL d   1       2.874   3.969  -1.546  0.00  0.00     0.009 A 
ATOM     26  C   UNL d   1       1.753   3.091  -1.442  0.00  0.00     0.025 A 
ENDBRANCH   7  22
TORSDOF 4
