REMARK  7 active torsions:
REMARK  status: ('A' for Active; 'I' for Inactive)
REMARK    1  A    between atoms: C_4  and  S_1 
REMARK    2  A    between atoms: N_5  and  S_1 
REMARK       I    between atoms: C_3  and  N_2 
REMARK    3  A    between atoms: O_19  and  C_3 
REMARK    4  A    between atoms: C_15  and  N_5 
REMARK    5  A    between atoms: O_20  and  C_9 
REMARK    6  A    between atoms: O_21  and  C_13 
REMARK    7  A    between atoms: C_22  and  O_19 
ROOT
ATOM      1  S   UNL d   1      -0.194   0.070  -2.511  0.00  0.00     0.259 S 
ATOM      2  O   UNL d   1      -0.047  -1.326  -2.170  0.00  0.00    -0.201 OA
ATOM      3  O   UNL d   1      -1.450   0.770  -2.392  0.00  0.00    -0.201 OA
ENDROOT
BRANCH   1   4
ATOM      4  C   UNL d   1       0.431   0.277  -4.150  0.00  0.00     0.082 A 
ATOM      5  C   UNL d   1      -0.384   0.831  -5.144  0.00  0.00     0.065 A 
ATOM      6  C   UNL d   1       0.183   1.195  -6.376  0.00  0.00     0.102 A 
ATOM      7  C   UNL d   1       1.570   1.047  -6.569  0.00  0.00     0.101 A 
ATOM      8  C   UNL d   1       2.349   0.436  -5.576  0.00  0.00     0.041 A 
ATOM      9  C   UNL d   1       1.780   0.029  -4.376  0.00  0.00     0.028 A 
BRANCH   6  10
ATOM     10  O   UNL d   1      -0.576   1.799  -7.345  0.00  0.00    -0.353 OA
ATOM     11  C   UNL d   1      -1.892   1.274  -7.499  0.00  0.00     0.210 C 
ENDBRANCH   6  10
BRANCH   7  12
ATOM     12  O   UNL d   1       2.336   1.465  -7.623  0.00  0.00    -0.353 OA
ATOM     13  C   UNL d   1       1.692   1.776  -8.845  0.00  0.00     0.210 C 
ENDBRANCH   7  12
ENDBRANCH   1   4
BRANCH   1  14
ATOM     14  N   UNL d   1       0.965   0.908  -1.626  0.00  0.00    -0.310 N 
ATOM     15  H   UNL d   1       1.436   0.326  -0.935  0.00  0.00     0.172 HD
BRANCH  14  16
ATOM     16  C   UNL d   1       0.829   2.352  -1.384  0.00  0.00     0.096 C 
ATOM     17  C   UNL d   1       1.684   2.711  -0.169  0.00  0.00     0.045 C 
ATOM     18  C   UNL d   1       1.469   4.174   0.162  0.00  0.00     0.130 C 
ATOM     19  N   UNL d   1       1.837   5.011  -0.968  0.00  0.00    -0.328 N 
ATOM     20  C   UNL d   1       1.210   4.692  -2.253  0.00  0.00     0.130 C 
ATOM     21  C   UNL d   1       2.351   6.265  -0.680  0.00  0.00     0.362 C 
ATOM     22  C   UNL d   1       1.285   3.197  -2.577  0.00  0.00     0.045 C 
ATOM     23  O   UNL d   1       2.658   6.625   0.453  0.00  0.00    -0.238 OA
BRANCH  21  24
ATOM     24  O   UNL d   1       2.438   7.068  -1.773  0.00  0.00    -0.304 OA
BRANCH  24  25
ATOM     25  C   UNL d   1       2.686   8.449  -1.480  0.00  0.00     0.176 C 
ATOM     26  C   UNL d   1       1.349   9.128  -1.238  0.00  0.00     0.034 C 
ENDBRANCH  24  25
ENDBRANCH  21  24
ENDBRANCH  14  16
ENDBRANCH   1  14
TORSDOF 7
