REMARK  7 active torsions:
REMARK  status: ('A' for Active; 'I' for Inactive)
REMARK    1  A    between atoms: O_19  and  C_1 
REMARK    2  A    between atoms: O_20  and  C_2 
REMARK    3  A    between atoms: N_3  and  N_5 
REMARK    4  A    between atoms: O_21  and  C_7 
REMARK    5  A    between atoms: O_22  and  C_8 
REMARK    6  A    between atoms: C_16  and  C_13 
REMARK    7  A    between atoms: C_14  and  C_15 
ROOT
ATOM      1  N   UNL d   1      -2.800   4.051   0.556  0.00  0.00    -0.311 N 
ATOM      2  HN  UNL d   1      -2.163   4.802   0.290  1.00  0.00     0.186 HD
ATOM      3  C   UNL d   1      -3.994   4.237   1.020  0.00  0.00     0.118 C 
ENDROOT
BRANCH   1   4
ATOM      4  N   UNL d   1      -2.496   2.703   0.467  0.00  0.00    -0.311 N 
ATOM      5  C   UNL d   1      -1.280   2.538   0.064  0.00  0.00     0.118 C 
ATOM      6  HN  UNL d   1      -3.142   1.945   0.689  1.00  0.00     0.186 HD
BRANCH   5   7
ATOM      7  C   UNL d   1      -0.688   1.200  -0.106  0.00  0.00    -0.017 A 
ATOM      8  C   UNL d   1       0.616   1.095  -0.602  0.00  0.00     0.052 A 
ATOM      9  C   UNL d   1       1.189  -0.166  -0.838  0.00  0.00     0.102 A 
ATOM     10  C   UNL d   1       0.461  -1.323  -0.509  0.00  0.00     0.101 A 
ATOM     11  C   UNL d   1      -0.840  -1.195   0.002  0.00  0.00     0.040 A 
ATOM     12  C   UNL d   1      -1.419   0.057   0.199  0.00  0.00     0.016 A 
BRANCH   9  13
ATOM     13  O   UNL d   1       2.437  -0.301  -1.389  0.00  0.00    -0.353 OA
ATOM     14  C   UNL d   1       2.887   0.764  -2.223  0.00  0.00     0.210 C 
ENDBRANCH   9  13
BRANCH  10  15
ATOM     15  O   UNL d   1       0.809  -2.632  -0.709  0.00  0.00    -0.353 OA
ATOM     16  C   UNL d   1       2.182  -2.989  -0.686  0.00  0.00     0.210 C 
ENDBRANCH  10  15
ENDBRANCH   5   7
ENDBRANCH   1   4
BRANCH   3  17
ATOM     17  C   UNL d   1      -4.519   5.595   1.250  0.00  0.00    -0.017 A 
ATOM     18  C   UNL d   1      -3.724   6.709   0.957  0.00  0.00     0.052 A 
ATOM     19  C   UNL d   1      -4.179   8.006   1.217  0.00  0.00     0.102 A 
ATOM     20  C   UNL d   1      -5.467   8.169   1.761  0.00  0.00     0.101 A 
ATOM     21  C   UNL d   1      -6.253   7.043   2.053  0.00  0.00     0.040 A 
ATOM     22  C   UNL d   1      -5.788   5.754   1.796  0.00  0.00     0.016 A 
BRANCH  19  23
ATOM     23  O   UNL d   1      -3.415   9.123   1.002  0.00  0.00    -0.353 OA
ATOM     24  C   UNL d   1      -2.099   8.939   0.490  0.00  0.00     0.210 C 
ENDBRANCH  19  23
BRANCH  20  25
ATOM     25  O   UNL d   1      -6.074   9.347   2.116  0.00  0.00    -0.353 OA
ATOM     26  C   UNL d   1      -5.730  10.502   1.362  0.00  0.00     0.210 C 
ENDBRANCH  20  25
ENDBRANCH   3  17
TORSDOF 7
