REMARK  6 active torsions:
REMARK  status: ('A' for Active; 'I' for Inactive)
REMARK    1  A    between atoms: C_8  and  C_3 
REMARK    2  A    between atoms: C_12  and  C_4 
REMARK    3  A    between atoms: C_7  and  O_10 
REMARK    4  A    between atoms: C_9  and  C_7 
REMARK    5  A    between atoms: O_10  and  C_12 
REMARK    6  A    between atoms: O_18  and  C_15 
ROOT
ATOM      1  N   UNL d   1       1.505  -0.534  -0.100  0.00  0.00    -0.351 N 
ATOM      2  HN  UNL d   1       2.401  -1.018  -0.161  1.00  0.00     0.166 HD
ATOM      3  C   UNL d   1       1.350   0.843  -0.013  0.00  0.00     0.049 A 
ATOM      4  C   UNL d   1       0.327  -1.126  -0.092  0.00  0.00     0.075 A 
ATOM      5  S   UNL d   1      -1.024  -0.065   0.045  0.00  0.00    -0.084 SA
ATOM      6  C   UNL d   1       0.040   1.275   0.066  0.00  0.00     0.082 A 
ENDROOT
BRANCH   3   7
ATOM      7  C   UNL d   1       2.501   1.736  -0.058  0.00  0.00    -0.009 A 
ATOM      8  C   UNL d   1       3.645   1.337  -0.760  0.00  0.00     0.016 A 
ATOM      9  C   UNL d   1       4.761   2.175  -0.855  0.00  0.00     0.037 A 
ATOM     10  C   UNL d   1       4.753   3.424  -0.236  0.00  0.00     0.068 A 
ATOM     11  C   UNL d   1       3.622   3.821   0.481  0.00  0.00     0.037 A 
ATOM     12  C   UNL d   1       2.502   2.986   0.572  0.00  0.00     0.016 A 
BRANCH  10  13
ATOM     13  O   UNL d   1       5.773   4.334  -0.252  0.00  0.00    -0.356 OA
ATOM     14  C   UNL d   1       6.931   3.982  -0.999  0.00  0.00     0.210 C 
ENDBRANCH  10  13
ENDBRANCH   3   7
BRANCH   4  15
ATOM     15  C   UNL d   1       0.085  -2.605  -0.146  0.00  0.00     0.243 C 
BRANCH  15  16
ATOM     16  O   UNL d   1       1.175  -3.271  -0.806  0.00  0.00    -0.314 OA
BRANCH  16  17
ATOM     17  C   UNL d   1       1.118  -3.284  -2.162  0.00  0.00     0.266 C 
ATOM     18  O   UNL d   1       0.267  -2.695  -2.821  0.00  0.00    -0.264 OA
BRANCH  17  19
ATOM     19  C   UNL d   1       2.183  -4.200  -2.782  0.00  0.00     0.037 C 
ATOM     20  C   UNL d   1       3.124  -4.818  -1.736  0.00  0.00     0.025 C 
ATOM     21  C   UNL d   1       1.443  -5.328  -3.519  0.00  0.00     0.025 C 
ATOM     22  C   UNL d   1       3.021  -3.397  -3.786  0.00  0.00     0.025 C 
ENDBRANCH  17  19
ENDBRANCH  16  17
ENDBRANCH  15  16
ENDBRANCH   4  15
TORSDOF 6
