REMARK  6 active torsions:
REMARK  status: ('A' for Active; 'I' for Inactive)
REMARK    1  A    between atoms: C_12  and  C_5 
REMARK    2  A    between atoms: S_13  and  C_9 
REMARK    3  A    between atoms: O_18  and  C_12 
REMARK    4  A    between atoms: C_15  and  S_13 
REMARK    5  A    between atoms: C_14  and  C_15 
REMARK    6  A    between atoms: C_24  and  O_18 
ROOT
ATOM      1  C   UNL d   1       1.587  -0.864  -0.046  0.00  0.00     0.161 A 
ATOM      2  N   UNL d   1       0.916   0.339  -0.062  0.00  0.00    -0.221 N 
ATOM      3  N   UNL d   1       0.942  -2.061  -0.006  0.00  0.00    -0.333 N 
ATOM      4  HN  UNL d   1       1.463  -2.938  -0.001  1.00  0.00     0.168 HD
ATOM      5  C   UNL d   1       2.917  -0.484  -0.037  0.00  0.00     0.167 A 
ATOM      6  N   UNL d   1       1.761   1.383  -0.092  0.00  0.00    -0.013 NA
ATOM      7  N   UNL d   1       2.995   0.894  -0.077  0.00  0.00    -0.275 N 
ATOM      8  HN  UNL d   1       3.854   1.443  -0.092  1.00  0.00     0.184 HD
ATOM      9  C   UNL d   1      -0.358  -2.053   0.026  0.00  0.00     0.084 A 
ATOM     10  C   UNL d   1      -1.178  -0.795   0.002  0.00  0.00     0.026 A 
ATOM     11  C   UNL d   1      -0.480   0.424  -0.028  0.00  0.00     0.069 A 
ATOM     12  C   UNL d   1      -2.576  -0.758   0.017  0.00  0.00     0.016 A 
ATOM     13  C   UNL d   1      -1.136   1.657  -0.025  0.00  0.00     0.032 A 
ATOM     14  C   UNL d   1      -3.244   0.474   0.012  0.00  0.00     0.001 A 
ATOM     15  C   UNL d   1      -2.528   1.674  -0.003  0.00  0.00     0.002 A 
ENDROOT
BRANCH   9  16
ATOM     16  S   UNL d   1      -1.177  -3.608   0.097  0.00  0.00    -0.107 SA
BRANCH  16  17
ATOM     17  C   UNL d   1       0.179  -4.644   0.758  0.00  0.00     0.121 C 
BRANCH  17  18
ATOM     18  C   UNL d   1      -0.158  -6.114   0.921  0.00  0.00    -0.027 A 
ATOM     19  C   UNL d   1       0.336  -6.868   2.003  0.00  0.00     0.041 A 
ATOM     20 CL   UNL d   1       1.326  -6.174   3.241  0.00  0.00    -0.084 Cl
ATOM     21  C   UNL d   1       0.065  -8.239   2.110  0.00  0.00     0.024 A 
ATOM     22  C   UNL d   1      -0.685  -8.886   1.132  0.00  0.00     0.002 A 
ATOM     23  C   UNL d   1      -1.149  -8.169   0.035  0.00  0.00     0.001 A 
ATOM     24  C   UNL d   1      -0.877  -6.803  -0.076  0.00  0.00     0.009 A 
ENDBRANCH  17  18
ENDBRANCH  16  17
ENDBRANCH   9  16
BRANCH   5  25
ATOM     25  C   UNL d   1       4.071  -1.354   0.079  0.00  0.00     0.315 C 
ATOM     26  O   UNL d   1       4.010  -2.572   0.189  0.00  0.00    -0.257 OA
BRANCH  25  27
ATOM     27  O   UNL d   1       5.236  -0.641   0.143  0.00  0.00    -0.317 OA
BRANCH  27  28
ATOM     28  C   UNL d   1       6.359  -1.352   0.674  0.00  0.00     0.175 C 
ATOM     29  C   UNL d   1       6.326  -1.228   2.188  0.00  0.00     0.034 C 
ENDBRANCH  27  28
ENDBRANCH  25  27
ENDBRANCH   5  25
TORSDOF 6
