REMARK  1 active torsions:
REMARK  status: ('A' for Active; 'I' for Inactive)
REMARK    1  A    between atoms: C_8  and  C_3 
ROOT
ATOM      1  C   UNL d   1       1.185   1.173  -0.067  0.00  0.00     0.176 A 
ATOM      2  C   UNL d   1       1.150  -1.208  -0.071  0.00  0.00     0.176 A 
ATOM      3  C   UNL d   1       2.113  -0.032  -0.111  0.00  0.00     0.168 A 
ATOM      4  C   UNL d   1      -0.198   0.697  -0.044  0.00  0.00     0.025 A 
ATOM      5  C   UNL d   1      -0.218  -0.691  -0.046  0.00  0.00     0.025 A 
ATOM      6  O   UNL d   1       1.488   2.353  -0.055  0.00  0.00    -0.291 OA
ATOM      7  O   UNL d   1       1.418  -2.397  -0.064  0.00  0.00    -0.291 OA
ATOM      8  C   UNL d   1      -1.405  -1.400  -0.016  0.00  0.00     0.016 A 
ATOM      9  C   UNL d   1      -1.363   1.440  -0.013  0.00  0.00     0.016 A 
ATOM     10  C   UNL d   1      -2.575   0.742   0.014  0.00  0.00     0.001 A 
ATOM     11  C   UNL d   1      -2.595  -0.666   0.013  0.00  0.00     0.001 A 
ENDROOT
BRANCH   3  12
ATOM     12  C   UNL d   1       3.128  -0.049   1.008  0.00  0.00    -0.036 A 
ATOM     13  C   UNL d   1       4.497  -0.094   0.724  0.00  0.00     0.025 A 
ATOM     14  C   UNL d   1       5.399  -0.107   1.779  0.00  0.00     0.088 A 
ATOM     15  N   UNL d   1       5.037  -0.080   3.079  0.00  0.00    -0.375 N 
ATOM     16  C   UNL d   1       3.714  -0.039   3.335  0.00  0.00     0.088 A 
ATOM     17  HN  UNL d   1       5.728  -0.091   3.829  1.00  0.00     0.164 HD
ATOM     18  C   UNL d   1       2.736  -0.023   2.352  0.00  0.00     0.025 A 
ENDBRANCH   3  12
TORSDOF 1
