REMARK  4 active torsions:
REMARK  status: ('A' for Active; 'I' for Inactive)
REMARK    1  A    between atoms: C_12  and  N_1 
REMARK    2  A    between atoms: C_16  and  N_6 
REMARK    3  A    between atoms: C_8  and  C_13 
REMARK    4  A    between atoms: C_9  and  C_14 
ROOT
ATOM      1  N   UNL d   1      -0.439  -0.956  -0.224  0.00  0.00    -0.261 N 
ATOM      2  C   UNL d   1      -1.658  -0.561   0.310  0.00  0.00     0.155 C 
ATOM      3  C   UNL d   1      -0.914   1.054  -1.405  0.00  0.00     0.097 A 
ATOM      4  C   UNL d   1      -0.026  -0.136  -1.271  0.00  0.00     0.249 C 
ATOM      5  S   UNL d   1      -1.833   1.178   0.049  0.00  0.00    -0.073 SA
ATOM      6  N   UNL d   1      -2.530  -1.339   0.869  0.00  0.00    -0.336 N 
ATOM      7  HN  UNL d   1      -2.275  -2.311   1.039  1.00  0.00     0.168 HD
ATOM      8  C   UNL d   1      -1.621   1.325  -2.717  0.00  0.00     0.033 A 
ATOM      9  C   UNL d   1      -0.541   2.253  -2.235  0.00  0.00     0.033 A 
ATOM     10  O   UNL d   1       0.859  -0.337  -2.097  0.00  0.00    -0.271 OA
ENDROOT
BRANCH   1  11
ATOM     11  C   UNL d   1       0.339  -2.092   0.195  0.00  0.00     0.044 A 
ATOM     12  C   UNL d   1       1.723  -2.131  -0.069  0.00  0.00     0.031 A 
ATOM     13  C   UNL d   1       2.542  -3.171   0.393  0.00  0.00     0.018 A 
ATOM     14  C   UNL d   1       2.006  -4.219   1.137  0.00  0.00     0.048 A 
ATOM     15  C   UNL d   1       0.631  -4.204   1.406  0.00  0.00     0.018 A 
ATOM     16  C   UNL d   1      -0.184  -3.151   0.949  0.00  0.00     0.031 A 
BRANCH  14  17
ATOM     17  C   UNL d   1       2.907  -5.321   1.642  0.00  0.00     0.417 C 
ATOM     18  F   UNL d   1       2.248  -6.301   2.315  0.00  0.00    -0.166 F 
ATOM     19  F   UNL d   1       3.585  -5.942   0.639  0.00  0.00    -0.166 F 
ATOM     20  F   UNL d   1       3.858  -4.853   2.500  0.00  0.00    -0.166 F 
ENDBRANCH  14  17
ENDBRANCH   1  11
BRANCH   6  21
ATOM     21  C   UNL d   1      -3.816  -0.907   1.254  0.00  0.00     0.034 A 
ATOM     22  C   UNL d   1      -4.657  -0.157   0.419  0.00  0.00     0.030 A 
ATOM     23  C   UNL d   1      -5.918   0.269   0.845  0.00  0.00     0.018 A 
ATOM     24  C   UNL d   1      -6.415  -0.129   2.090  0.00  0.00     0.048 A 
ATOM     25  C   UNL d   1      -5.620  -0.957   2.895  0.00  0.00     0.018 A 
ATOM     26  C   UNL d   1      -4.332  -1.334   2.480  0.00  0.00     0.030 A 
BRANCH  24  27
ATOM     27  C   UNL d   1      -7.783   0.337   2.525  0.00  0.00     0.417 C 
ATOM     28  F   UNL d   1      -8.228  -0.262   3.663  0.00  0.00    -0.166 F 
ATOM     29  F   UNL d   1      -7.821   1.677   2.768  0.00  0.00    -0.166 F 
ATOM     30  F   UNL d   1      -8.738   0.102   1.583  0.00  0.00    -0.166 F 
ENDBRANCH  24  27
ENDBRANCH   6  21
TORSDOF 4
