REMARK  8 active torsions:
REMARK  status: ('A' for Active; 'I' for Inactive)
REMARK    1  A    between atoms: C_6  and  N_1 
REMARK    2  A    between atoms: S_2  and  C_4 
REMARK    3  A    between atoms: C_7  and  S_2 
REMARK    4  A    between atoms: C_3  and  C_4 
REMARK    5  A    between atoms: C_5  and  C_3 
REMARK    6  A    between atoms: C_4  and  C_11 
REMARK    7  A    between atoms: C_10  and  C_5 
REMARK    8  A    between atoms: N_20  and  C_12 
ROOT
ATOM      1  C   UNL d   1      -1.783  -2.129   4.099  0.00  0.00     0.092 C 
ENDROOT
BRANCH   1   2
ATOM      2  S   UNL d   1      -1.530  -3.937   3.692  0.00  0.00    -0.118 SA
BRANCH   2   3
ATOM      3  C   UNL d   1      -2.509  -4.819   4.897  0.00  0.00     0.022 A 
ATOM      4  C   UNL d   1      -1.844  -5.652   5.823  0.00  0.00     0.022 A 
ATOM      5  C   UNL d   1      -2.596  -6.519   6.621  0.00  0.00     0.024 A 
ATOM      6  C   UNL d   1      -3.981  -6.602   6.467  0.00  0.00     0.002 A 
ATOM      7  C   UNL d   1      -4.633  -5.777   5.552  0.00  0.00     0.001 A 
ATOM      8  C   UNL d   1      -3.900  -4.885   4.767  0.00  0.00     0.020 A 
BRANCH   4   9
ATOM      9  N   UNL d   1      -0.472  -5.485   6.095  0.00  0.00    -0.302 NA
ATOM     10  H   UNL d   1       0.008  -4.982   5.343  0.00  0.00     0.124 HD
ATOM     11  H   UNL d   1       0.005  -6.345   6.341  0.00  0.00     0.124 HD
ENDBRANCH   4   9
ENDBRANCH   2   3
ENDBRANCH   1   2
BRANCH   1  12
ATOM     12  C   UNL d   1      -1.471  -1.819   5.582  0.00  0.00     0.104 C 
BRANCH  12  13
ATOM     13  C   UNL d   1      -0.033  -2.078   6.024  0.00  0.00     0.161 C 
ATOM     14  O   UNL d   1       0.818  -2.543   5.271  0.00  0.00    -0.292 OA
BRANCH  13  15
ATOM     15  C   UNL d   1       0.377  -1.718   7.416  0.00  0.00     0.010 A 
ATOM     16  C   UNL d   1      -0.509  -1.185   8.360  0.00  0.00     0.015 A 
ATOM     17  C   UNL d   1      -0.052  -0.842   9.639  0.00  0.00     0.007 A 
ATOM     18  C   UNL d   1       1.288  -1.034   9.998  0.00  0.00    -0.062 A 
ATOM     19  C   UNL d   1       2.173  -1.560   9.052  0.00  0.00     0.007 A 
ATOM     20  C   UNL d   1       1.774  -0.637  11.361  0.00  0.00     0.048 C 
ATOM     21  C   UNL d   1       1.720  -1.903   7.776  0.00  0.00     0.015 A 
ENDBRANCH  13  15
ENDBRANCH  12  13
ENDBRANCH   1  12
BRANCH   1  22
ATOM     22  C   UNL d   1      -1.035  -1.274   3.049  0.00  0.00    -0.043 C 
ATOM     23  C   UNL d   1      -1.070  -1.645   1.686  0.00  0.00     0.011 C 
ATOM     24  C   UNL d   1      -0.257  -1.029   0.732  0.00  0.00     0.037 C 
ATOM     25  C   UNL d   1       0.568   0.025   1.120  0.00  0.00     0.102 C 
ATOM     26  C   UNL d   1       0.532   0.503   2.433  0.00  0.00     0.037 C 
ATOM     27  C   UNL d   1      -0.273  -0.139   3.385  0.00  0.00     0.011 C 
BRANCH  25  28
ATOM     28  N   UNL d   1       1.497   0.613   0.147  0.00  0.00    -0.116 N 
ATOM     29  O   UNL d   1       2.111   1.636   0.485  0.00  0.00    -0.532 OA
ATOM     30  O   UNL d   1       1.617   0.052  -0.949  0.00  0.00    -0.532 OA
ENDBRANCH  25  28
ENDBRANCH   1  22
TORSDOF 8
