REMARK  4 active torsions:
REMARK  status: ('A' for Active; 'I' for Inactive)
REMARK    1  A    between atoms: C_8  and  C_2 
REMARK    2  A    between atoms: S_11  and  C_3 
REMARK    3  A    between atoms: C_9  and  N_6 
REMARK    4  A    between atoms: S_13  and  C_12 
ROOT
ATOM      1  C   UNL d   1       1.128  -0.330  -0.081  0.00  0.00     0.094 C 
ATOM      2  C   UNL d   1       0.162   0.816   0.033  0.00  0.00     0.033 C 
ATOM      3  C   UNL d   1      -1.147   0.484   0.050  0.00  0.00     0.061 C 
ATOM      4  S   UNL d   1       0.322  -1.826  -0.496  0.00  0.00    -0.033 SA
ATOM      5  S   UNL d   1      -1.562  -1.211  -0.047  0.00  0.00    -0.043 SA
ATOM      6  N   UNL d   1       2.402  -0.154   0.096  0.00  0.00    -0.349 N 
ATOM      7  HN  UNL d   1       2.730   0.788   0.309  1.00  0.00     0.166 HD
ENDROOT
BRANCH   2   8
ATOM      8  C   UNL d   1       0.703   2.182   0.110  0.00  0.00    -0.021 A 
ATOM      9  C   UNL d   1       0.758   2.875   1.323  0.00  0.00     0.012 A 
ATOM     10  C   UNL d   1       1.304   4.157   1.369  0.00  0.00     0.001 A 
ATOM     11  C   UNL d   1       1.796   4.754   0.210  0.00  0.00     0.000 A 
ATOM     12  C   UNL d   1       1.743   4.068  -1.006  0.00  0.00     0.001 A 
ATOM     13  C   UNL d   1       1.204   2.783  -1.054  0.00  0.00     0.012 A 
ENDBRANCH   2   8
BRANCH   6  14
ATOM     14  C   UNL d   1       3.354  -1.180   0.012  0.00  0.00     0.034 A 
ATOM     15  C   UNL d   1       4.432  -1.024  -0.874  0.00  0.00     0.048 A 
ATOM     16  C   UNL d   1       5.454  -1.979  -0.948  0.00  0.00     0.002 A 
ATOM     17  C   UNL d   1       5.376  -3.107  -0.121  0.00  0.00     0.018 A 
ATOM     18  C   UNL d   1       4.328  -3.257   0.787  0.00  0.00     0.004 A 
ATOM     19  C   UNL d   1       3.335  -2.284   0.868  0.00  0.00     0.029 A 
BRANCH  16  20
ATOM     20  S   UNL d   1       6.880  -1.888  -2.029  0.00  0.00    -0.134 SA
ATOM     21  C   UNL d   1       6.827  -0.192  -2.664  0.00  0.00     0.095 C 
ENDBRANCH  16  20
ENDBRANCH   6  14
BRANCH   3  22
ATOM     22  S   UNL d   1      -2.480   1.585   0.301  0.00  0.00    -0.126 SA
ATOM     23  C   UNL d   1      -2.268   2.821  -0.996  0.00  0.00     0.096 C 
ENDBRANCH   3  22
TORSDOF 4
