REMARK  6 active torsions:
REMARK  status: ('A' for Active; 'I' for Inactive)
REMARK    1  A    between atoms: C_7  and  C_1 
REMARK    2  A    between atoms: C_9  and  C_2 
REMARK    3  A    between atoms: O_12  and  C_5 
REMARK    4  A    between atoms: O_13  and  C_6 
REMARK    5  A    between atoms: C_8  and  C_7 
REMARK    6  A    between atoms: O_14  and  C_8 
ROOT
ATOM      1  C   UNL d   1       1.313  -0.387   0.212  0.00  0.00    -0.032 A 
ATOM      2  C   UNL d   1       0.427  -1.440  -0.072  0.00  0.00     0.019 A 
ATOM      3  C   UNL d   1      -0.950  -1.177  -0.216  0.00  0.00     0.055 A 
ATOM      4  C   UNL d   1       0.784   0.913   0.317  0.00  0.00     0.048 A 
ATOM      5  C   UNL d   1      -1.472   0.117  -0.080  0.00  0.00     0.102 A 
ATOM      6  C   UNL d   1      -0.589   1.172   0.186  0.00  0.00     0.102 A 
ENDROOT
BRANCH   1   7
ATOM      7  C   UNL d   1       2.808  -0.563   0.392  0.00  0.00     0.150 C 
BRANCH   7   8
ATOM      8  C   UNL d   1       3.214  -1.453   1.555  0.00  0.00     0.262 C 
ATOM      9  O   UNL d   1       2.453  -2.017   2.329  0.00  0.00    -0.265 OA
BRANCH   8  10
ATOM     10  O   UNL d   1       4.580  -1.485   1.621  0.00  0.00    -0.326 OA
ATOM     11  C   UNL d   1       5.158  -2.280   2.660  0.00  0.00     0.213 C 
ENDBRANCH   8  10
ENDBRANCH   7   8
ENDBRANCH   1   7
BRANCH   2  12
ATOM     12  C   UNL d   1       0.910  -2.839  -0.295  0.00  0.00     0.156 C 
ATOM     13  O   UNL d   1       2.018  -3.034  -0.785  0.00  0.00    -0.293 OA
ATOM     14  C   UNL d   1      -0.004  -3.992   0.035  0.00  0.00     0.097 C 
ENDBRANCH   2  12
BRANCH   6  15
ATOM     15  O   UNL d   1      -0.886   2.507   0.279  0.00  0.00    -0.353 OA
ATOM     16  C   UNL d   1      -2.165   2.854   0.793  0.00  0.00     0.210 C 
ENDBRANCH   6  15
BRANCH   5  17
ATOM     17  O   UNL d   1      -2.800   0.409  -0.239  0.00  0.00    -0.353 OA
ATOM     18  C   UNL d   1      -3.706  -0.666  -0.456  0.00  0.00     0.210 C 
ENDBRANCH   5  17
TORSDOF 6
