REMARK  4 active torsions:
REMARK  status: ('A' for Active; 'I' for Inactive)
REMARK    1  A    between atoms: C_6  and  N_1 
REMARK    2  A    between atoms: C_4  and  C_2 
REMARK    3  A    between atoms: C_3  and  N_5 
REMARK    4  A    between atoms: N_7  and  C_8 
ROOT
ATOM      1  N   UNL d   1      -2.857  -5.626   4.839  0.00  0.00    -0.363 N 
ATOM      2  N   UNL d   1      -1.596  -3.855   3.005  0.00  0.00    -0.364 N 
ATOM      3  C   UNL d   1      -2.200  -6.181   3.634  0.00  0.00     0.144 C 
ATOM      4  C   UNL d   1      -2.094  -4.473   5.362  0.00  0.00     0.144 C 
ATOM      5  C   UNL d   1      -2.206  -5.106   2.521  0.00  0.00     0.144 C 
ATOM      6  C   UNL d   1      -2.120  -3.352   4.294  0.00  0.00     0.144 C 
ENDROOT
BRANCH   1   7
ATOM      7  C   UNL d   1      -3.485  -6.522   5.681  0.00  0.00     0.118 A 
ATOM      8  C   UNL d   1      -4.481  -6.154   6.590  0.00  0.00     0.091 A 
ATOM      9  C   UNL d   1      -5.138  -7.169   7.315  0.00  0.00     0.021 A 
ATOM     10  C   UNL d   1      -4.840  -8.503   7.102  0.00  0.00     0.018 A 
ATOM     11  C   UNL d   1      -3.861  -8.785   6.180  0.00  0.00     0.089 A 
ATOM     12  N   UNL d   1      -3.194  -7.835   5.490  0.00  0.00    -0.352 N 
ATOM     13  HN  UNL d   1      -2.470  -8.104   4.824  1.00  0.00     0.166 HD
BRANCH   8  14
ATOM     14  C   UNL d   1      -4.934  -4.743   6.826  0.00  0.00     0.421 C 
ATOM     15  F   UNL d   1      -4.780  -3.875   5.790  0.00  0.00    -0.166 F 
ATOM     16  F   UNL d   1      -6.265  -4.669   7.137  0.00  0.00    -0.166 F 
ATOM     17  F   UNL d   1      -4.295  -4.171   7.889  0.00  0.00    -0.166 F 
ENDBRANCH   8  14
ENDBRANCH   1   7
BRANCH   2  18
ATOM     18  C   UNL d   1      -1.102  -2.900   2.143  0.00  0.00     0.103 A 
ATOM     19  C   UNL d   1      -1.312  -2.934   0.763  0.00  0.00     0.051 A 
ATOM     20  C   UNL d   1      -0.688  -1.997  -0.067  0.00  0.00     0.041 A 
ATOM     21  C   UNL d   1       0.149  -1.050   0.510  0.00  0.00     0.118 A 
ATOM     22  C   UNL d   1       0.298  -1.046   1.879  0.00  0.00     0.125 A 
ATOM     23  N   UNL d   1      -0.320  -1.938   2.691  0.00  0.00    -0.350 N 
ATOM     24  HN  UNL d   1      -0.198  -1.886   3.702  1.00  0.00     0.166 HD
BRANCH  21  25
ATOM     25  N   UNL d   1       0.871  -0.086  -0.301  0.00  0.00    -0.114 N 
ATOM     26  O   UNL d   1       1.642   0.695   0.280  0.00  0.00    -0.532 OA
ATOM     27  O   UNL d   1       0.675  -0.097  -1.523  0.00  0.00    -0.532 OA
ENDBRANCH  21  25
ENDBRANCH   2  18
TORSDOF 4
