REMARK  4 active torsions:
REMARK  status: ('A' for Active; 'I' for Inactive)
REMARK    1  A    between atoms: C_6  and  C_1 
REMARK    2  A    between atoms: C_7  and  C_5 
REMARK    3  A    between atoms: C_9  and  C_7 
REMARK    4  A    between atoms: O_16  and  C_9 
ROOT
ATOM      1  C   UNL d   1       0.160  -1.175   0.020  0.00  0.00     0.102 A 
ATOM      2  N   UNL d   1       1.369  -0.635   0.026  0.00  0.00    -0.351 N 
ATOM      3  HN  UNL d   1       2.239  -1.167   0.036  1.00  0.00     0.166 HD
ATOM      4  S   UNL d   1      -1.129  -0.030  -0.021  0.00  0.00    -0.080 SA
ATOM      5  C   UNL d   1       1.294   0.756   0.016  0.00  0.00     0.026 A 
ATOM      6  C   UNL d   1       0.004   1.250  -0.033  0.00  0.00     0.077 A 
ENDROOT
BRANCH   1   7
ATOM      7  C   UNL d   1      -0.114  -2.621   0.041  0.00  0.00     0.081 A 
ATOM      8  N   UNL d   1      -1.413  -3.029   0.032  0.00  0.00    -0.361 N 
ATOM      9  C   UNL d   1      -1.616  -4.366   0.060  0.00  0.00     0.105 A 
ATOM     10  HN  UNL d   1      -2.188  -2.366   0.007  1.00  0.00     0.165 HD
ATOM     11  C   UNL d   1      -0.574  -5.276   0.093  0.00  0.00     0.104 A 
ATOM     12  N   UNL d   1       0.721  -4.891   0.097  0.00  0.00    -0.372 N 
ATOM     13  C   UNL d   1       0.924  -3.547   0.071  0.00  0.00     0.120 A 
ATOM     14  HN  UNL d   1       1.491  -5.560   0.117  1.00  0.00     0.164 HD
ENDBRANCH   1   7
BRANCH   5  15
ATOM     15  C   UNL d   1       2.582   1.519  -0.013  0.00  0.00     0.167 C 
BRANCH  15  16
ATOM     16  C   UNL d   1       2.563   2.864   0.682  0.00  0.00     0.145 C 
ATOM     17  O   UNL d   1       1.613   3.379   1.249  0.00  0.00    -0.650 OA
BRANCH  16  18
ATOM     18  O   UNL d   1       3.763   3.498   0.606  0.00  0.00    -0.776 OA
ATOM     19  H   UNL d   1       4.459   2.999   0.138  0.00  0.00     0.167 HD
ENDBRANCH  16  18
ENDBRANCH  15  16
ENDBRANCH   5  15
TORSDOF 4
