REMARK  0 active torsions:
REMARK  status: ('A' for Active; 'I' for Inactive)
ROOT
ATOM      1  C   UNL d   1       1.227  -1.363   0.025  0.00  0.00     0.063 C 
ATOM      2  C   UNL d   1      -0.093  -0.670   0.010  0.00  0.00     0.005 A 
ATOM      3  C   UNL d   1       2.419  -0.726   0.003  0.00  0.00     0.054 C 
ATOM      4  S   UNL d   1       1.198   1.840   0.096  0.00  0.00    -0.124 SA
ATOM      5  C   UNL d   1       3.647  -1.475   0.007  0.00  0.00     0.097 C 
ATOM      6  C   UNL d   1      -0.188   0.732   0.024  0.00  0.00     0.013 A 
ATOM      7  N   UNL d   1       4.664  -2.036   0.006  0.00  0.00    -0.192 NA
ATOM      8  C   UNL d   1       2.626   0.756  -0.037  0.00  0.00     0.131 C 
ATOM      9  C   UNL d   1      -1.310  -1.392  -0.010  0.00  0.00     0.038 A 
ATOM     10 CL   UNL d   1       1.203  -3.119   0.059  0.00  0.00    -0.082 Cl
ATOM     11  C   UNL d   1      -1.449   1.367   0.011  0.00  0.00     0.021 A 
ATOM     12  C   UNL d   1      -2.554  -0.750  -0.017  0.00  0.00     0.035 A 
ATOM     13  C   UNL d   1      -2.630   0.631  -0.010  0.00  0.00     0.025 A 
ATOM     14 CL   UNL d   1      -4.002  -1.681  -0.029  0.00  0.00    -0.084 Cl
ENDROOT
TORSDOF 0
