REMARK  7 active torsions:
REMARK  status: ('A' for Active; 'I' for Inactive)
REMARK    1  A    between atoms: C_6  and  C_1 
REMARK    2  A    between atoms: C_9  and  C_3 
REMARK    3  A    between atoms: O_16  and  C_6 
REMARK    4  A    between atoms: C_8  and  N_10 
REMARK    5  A    between atoms: O_17  and  C_9 
REMARK    6  A    between atoms: C_19  and  O_16 
REMARK    7  A    between atoms: C_18  and  O_17 
ROOT
ATOM      1  C   UNL d   1       5.053  -1.758  -0.088  0.00  0.00     0.135 C 
ATOM      2  C   UNL d   1       3.934  -1.016   0.034  0.00  0.00     0.118 C 
ATOM      3  C   UNL d   1       6.321  -1.150  -0.261  0.00  0.00     0.107 C 
ATOM      4  N   UNL d   1       7.325  -0.578  -0.387  0.00  0.00    -0.191 NA
ENDROOT
BRANCH   1   5
ATOM      5  C   UNL d   1       4.943  -3.240  -0.029  0.00  0.00     0.305 C 
ATOM      6  O   UNL d   1       3.894  -3.850   0.114  0.00  0.00    -0.258 OA
BRANCH   5   7
ATOM      7  O   UNL d   1       6.172  -3.804  -0.143  0.00  0.00    -0.317 OA
BRANCH   7   8
ATOM      8  C   UNL d   1       6.255  -5.229   0.024  0.00  0.00     0.174 C 
ATOM      9  C   UNL d   1       6.145  -5.936  -1.313  0.00  0.00     0.034 C 
ENDBRANCH   7   8
ENDBRANCH   5   7
ENDBRANCH   1   5
BRANCH   2  10
ATOM     10  N   UNL d   1       3.791   0.360  -0.023  0.00  0.00    -0.349 N 
ATOM     11  C   UNL d   1       2.672   1.142  -0.001  0.00  0.00     0.137 A 
ATOM     12  C   UNL d   1       1.287   0.995   0.029  0.00  0.00     0.101 A 
ATOM     13  N   UNL d   1       2.873   2.508   0.012  0.00  0.00    -0.285 N 
ATOM     14  C   UNL d   1       0.795   2.327   0.094  0.00  0.00     0.128 A 
ATOM     15  N   UNL d   1       1.760   3.244   0.073  0.00  0.00    -0.309 N 
ATOM     16  HN  UNL d   1       1.670   4.260   0.098  1.00  0.00     0.186 HD
ATOM     17  H   UNL d   1       3.760   2.997  -0.001  0.00  0.00     0.188 HD
ATOM     18  H   UNL d   1       4.692   0.837  -0.114  0.00  0.00     0.167 HD
BRANCH  12  19
ATOM     19  C   UNL d   1       0.414  -0.165   0.026  0.00  0.00     0.298 C 
ATOM     20  O   UNL d   1      -0.736  -0.123   0.449  0.00  0.00    -0.259 OA
BRANCH  19  21
ATOM     21  O   UNL d   1       0.984  -1.270  -0.514  0.00  0.00    -0.318 OA
BRANCH  21  22
ATOM     22  C   UNL d   1       0.289  -2.516  -0.364  0.00  0.00     0.174 C 
ATOM     23  C   UNL d   1      -0.253  -2.951  -1.708  0.00  0.00     0.034 C 
ENDBRANCH  21  22
ENDBRANCH  19  21
ENDBRANCH  12  19
ENDBRANCH   2  10
TORSDOF 7
