REMARK  4 active torsions:
REMARK  status: ('A' for Active; 'I' for Inactive)
REMARK    1  A    between atoms: N_2  and  C_1 
REMARK    2  A    between atoms: C_11  and  N_7 
REMARK    3  A    between atoms: C_9  and  C_11 
REMARK    4  A    between atoms: C_12  and  C_9 
ROOT
ATOM      1  N   UNL d   1      -0.441   3.082  -0.229  0.00  0.00    -0.279 NA
ATOM      2  N   UNL d   1      -0.166   6.032   0.116  0.00  0.00     0.098 N 
ATOM      3  C   UNL d   1      -1.131   3.797   0.870  0.00  0.00     0.126 C 
ATOM      4  C   UNL d   1       0.824   3.745  -0.621  0.00  0.00     0.126 C 
ATOM      5  C   UNL d   1      -1.384   5.263   0.475  0.00  0.00     0.287 C 
ATOM      6  C   UNL d   1       0.568   5.256  -0.925  0.00  0.00     0.287 C 
ENDROOT
BRANCH   1   7
ATOM      7  C   UNL d   1      -0.371   1.672  -0.088  0.00  0.00     0.025 A 
ATOM      8  C   UNL d   1      -0.391   0.803  -1.220  0.00  0.00     0.012 A 
ATOM      9  C   UNL d   1      -0.457  -0.592  -0.979  0.00  0.00     0.044 A 
ATOM     10  C   UNL d   1      -0.394   1.237  -2.571  0.00  0.00     0.015 A 
ATOM     11  C   UNL d   1      -0.520  -1.472  -2.049  0.00  0.00     0.030 A 
ATOM     12  N   UNL d   1      -0.488  -1.129   0.248  0.00  0.00    -0.359 N 
ATOM     13  C   UNL d   1      -0.503  -1.031  -3.371  0.00  0.00     0.002 A 
ATOM     14  C   UNL d   1      -0.431   0.329  -3.633  0.00  0.00     0.001 A 
ATOM     15  C   UNL d   1      -0.450  -0.303   1.310  0.00  0.00     0.007 A 
ATOM     16  HN  UNL d   1      -0.539  -2.140   0.375  1.00  0.00     0.166 HD
ATOM     17  C   UNL d   1      -0.373   1.076   1.183  0.00  0.00     0.049 A 
ATOM     18  C   UNL d   1      -0.528  -0.925   2.672  0.00  0.00     0.068 C 
ENDBRANCH   1   7
BRANCH   2  19
ATOM     19  C   UNL d   1       0.720   6.319   1.264  0.00  0.00     0.356 C 
BRANCH  19  20
ATOM     20  C   UNL d   1      -0.004   6.924   2.465  0.00  0.00     0.187 C 
ATOM     21  O   UNL d   1      -0.084   6.292   3.522  0.00  0.00    -0.290 OA
BRANCH  20  22
ATOM     22  C   UNL d   1      -0.628   8.283   2.392  0.00  0.00     0.012 A 
ATOM     23  C   UNL d   1      -0.699   9.027   1.208  0.00  0.00     0.017 A 
ATOM     24  C   UNL d   1      -1.363  10.259   1.189  0.00  0.00     0.025 A 
ATOM     25  C   UNL d   1      -1.949  10.758   2.352  0.00  0.00     0.034 A 
ATOM     26  C   UNL d   1      -1.863  10.043   3.539  0.00  0.00     0.025 A 
ATOM     27 CL   UNL d   1      -2.792  12.255   2.311  0.00  0.00    -0.084 Cl
ATOM     28  C   UNL d   1      -1.206   8.808   3.562  0.00  0.00     0.017 A 
ENDBRANCH  20  22
ENDBRANCH  19  20
ENDBRANCH   2  19
TORSDOF 4
