REMARK  5 active torsions:
REMARK  status: ('A' for Active; 'I' for Inactive)
REMARK    1  A    between atoms: C_3  and  C_1 
REMARK    2  A    between atoms: N_4  and  C_1 
REMARK    3  A    between atoms: C_8  and  N_4 
REMARK    4  A    between atoms: O_5  and  C_9 
REMARK    5  A    between atoms: C_9  and  C_8 
ROOT
ATOM      1  C   UNL d   1       0.883   0.154  -0.086  0.00  0.00     0.106 C 
ATOM      2  S   UNL d   1       0.001   0.034  -1.514  0.00  0.00    -0.060 SA
ENDROOT
BRANCH   1   3
ATOM      3  C   UNL d   1       0.225   0.303   1.257  0.00  0.00     0.002 A 
ATOM      4  C   UNL d   1      -0.993  -0.326   1.554  0.00  0.00     0.014 A 
ATOM      5  C   UNL d   1      -1.610  -0.120   2.794  0.00  0.00     0.001 A 
ATOM      6  C   UNL d   1      -1.014   0.703   3.747  0.00  0.00     0.000 A 
ATOM      7  C   UNL d   1       0.199   1.326   3.464  0.00  0.00     0.001 A 
ATOM      8  C   UNL d   1       0.814   1.132   2.225  0.00  0.00     0.014 A 
ENDBRANCH   1   3
BRANCH   1   9
ATOM      9  N   UNL d   1       2.269   0.162  -0.042  0.00  0.00    -0.378 N 
ATOM     10  H   UNL d   1       2.721  -0.005   0.853  0.00  0.00     0.160 HD
BRANCH   9  11
ATOM     11  C   UNL d   1       3.191   0.134  -1.177  0.00  0.00     0.146 C 
BRANCH  11  12
ATOM     12  C   UNL d   1       4.525   0.777  -0.797  0.00  0.00     0.183 C 
BRANCH  12  13
ATOM     13  O   UNL d   1       5.130   0.044   0.267  0.00  0.00    -0.399 OA
ATOM     14  H   UNL d   1       6.014   0.428   0.405  0.00  0.00     0.209 HD
ENDBRANCH  12  13
ENDBRANCH  11  12
ENDBRANCH   9  11
ENDBRANCH   1   9
TORSDOF 5
