REMARK  3 active torsions:
REMARK  status: ('A' for Active; 'I' for Inactive)
REMARK    1  A    between atoms: C_6  and  N_1 
REMARK    2  A    between atoms: C_7  and  C_6 
REMARK       I    between atoms: N_10  and  C_7 
REMARK    3  A    between atoms: C_12  and  N_10 
ROOT
ATOM      1  C   UNL d   1       3.220   0.149  -0.197  0.00  0.00     0.238 C 
ENDROOT
BRANCH   1   2
ATOM      2  N   UNL d   1       1.978   0.088  -0.943  0.00  0.00    -0.271 N 
ATOM      3  C   UNL d   1       1.886  -0.358  -2.230  0.00  0.00     0.262 A 
ATOM      4  C   UNL d   1       0.474  -0.276  -2.597  0.00  0.00     0.048 A 
ATOM      5  O   UNL d   1       2.761  -0.764  -2.970  0.00  0.00    -0.267 OA
ATOM      6  C   UNL d   1      -0.162  -0.627  -3.772  0.00  0.00     0.018 A 
ATOM      7  C   UNL d   1      -0.213   0.240  -1.511  0.00  0.00     0.048 A 
ATOM      8  C   UNL d   1      -1.547  -0.441  -3.826  0.00  0.00     0.001 A 
ATOM      9  C   UNL d   1      -2.249   0.085  -2.720  0.00  0.00     0.001 A 
ATOM     10  C   UNL d   1      -1.580   0.433  -1.540  0.00  0.00     0.018 A 
ATOM     11  C   UNL d   1       0.769   0.498  -0.457  0.00  0.00     0.262 A 
ATOM     12  O   UNL d   1       0.539   1.021   0.619  0.00  0.00    -0.267 OA
ENDBRANCH   1   2
BRANCH   1  13
ATOM     13  C   UNL d   1       3.861   1.527  -0.341  0.00  0.00     0.240 C 
ATOM     14  N   UNL d   1       3.132   2.540   0.267  0.00  0.00    -0.326 N 
ATOM     15  H   UNL d   1       2.289   2.259   0.768  0.00  0.00     0.169 HD
ATOM     16  O   UNL d   1       4.941   1.657  -0.910  0.00  0.00    -0.271 OA
BRANCH  14  17
ATOM     17  C   UNL d   1       3.423   3.920   0.262  0.00  0.00     0.035 A 
ATOM     18  C   UNL d   1       4.484   4.491  -0.450  0.00  0.00     0.032 A 
ATOM     19  C   UNL d   1       4.684   5.875  -0.440  0.00  0.00     0.044 A 
ATOM     20  C   UNL d   1       3.827   6.688   0.288  0.00  0.00     0.116 A 
ATOM     21  C   UNL d   1       2.776   6.141   1.012  0.00  0.00     0.044 A 
ATOM     22  F   UNL d   1       4.012   8.014   0.288  0.00  0.00    -0.206 F 
ATOM     23  C   UNL d   1       2.573   4.758   0.998  0.00  0.00     0.032 A 
ENDBRANCH  14  17
ENDBRANCH   1  13
TORSDOF 3
