REMARK  2 active torsions:
REMARK  status: ('A' for Active; 'I' for Inactive)
REMARK    1  A    between atoms: C_6  and  N_1 
REMARK    2  A    between atoms: C_7  and  C_6 
REMARK       I    between atoms: N_8  and  C_7 
ROOT
ATOM      1  N   UNL d   1       1.836  -0.244  -0.161  0.00  0.00    -0.271 N 
ATOM      2  C   UNL d   1       1.097  -0.659   0.913  0.00  0.00     0.262 A 
ATOM      3  C   UNL d   1       1.060  -0.026  -1.263  0.00  0.00     0.262 A 
ATOM      4  C   UNL d   1      -0.325  -0.212  -0.836  0.00  0.00     0.048 A 
ATOM      5  C   UNL d   1      -0.303  -0.641   0.480  0.00  0.00     0.048 A 
ATOM      6  O   UNL d   1       1.401   0.222  -2.402  0.00  0.00    -0.267 OA
ATOM      7  O   UNL d   1       1.475  -1.011   2.013  0.00  0.00    -0.267 OA
ATOM      8  C   UNL d   1      -1.506  -0.029  -1.530  0.00  0.00     0.018 A 
ATOM      9  C   UNL d   1      -1.463  -0.960   1.159  0.00  0.00     0.018 A 
ATOM     10  C   UNL d   1      -2.673  -0.792   0.476  0.00  0.00     0.001 A 
ATOM     11  C   UNL d   1      -2.695  -0.314  -0.851  0.00  0.00     0.001 A 
ENDROOT
BRANCH   1  12
ATOM     12  C   UNL d   1       3.277  -0.092  -0.169  0.00  0.00     0.238 C 
BRANCH  12  13
ATOM     13  C   UNL d   1       3.674   1.393  -0.136  0.00  0.00     0.238 C 
ATOM     14  N   UNL d   1       5.032   1.681  -0.201  0.00  0.00    -0.347 N 
ATOM     15  C   UNL d   1       5.482   3.076  -0.254  0.00  0.00     0.152 C 
ATOM     16  C   UNL d   1       6.114   0.707  -0.380  0.00  0.00     0.152 C 
ATOM     17  C   UNL d   1       6.657   3.294   0.705  0.00  0.00     0.187 C 
ATOM     18  O   UNL d   1       7.726   2.376   0.422  0.00  0.00    -0.388 OA
ATOM     19  C   UNL d   1       7.282   1.018   0.566  0.00  0.00     0.187 C 
ATOM     20  O   UNL d   1       2.830   2.287  -0.034  0.00  0.00    -0.272 OA
ENDBRANCH  12  13
ENDBRANCH   1  12
TORSDOF 2
