REMARK  3 active torsions:
REMARK  status: ('A' for Active; 'I' for Inactive)
REMARK    1  A    between atoms: C_11  and  C_2 
REMARK    2  A    between atoms: S_13  and  C_3 
REMARK    3  A    between atoms: C_10  and  N_6 
ROOT
ATOM      1  C   UNL d   1       1.143  -0.289   0.099  0.00  0.00     0.094 C 
ATOM      2  C   UNL d   1       0.147   0.843   0.015  0.00  0.00     0.033 C 
ATOM      3  C   UNL d   1      -1.145   0.448   0.033  0.00  0.00     0.061 C 
ATOM      4  S   UNL d   1       0.379  -1.673   0.865  0.00  0.00    -0.033 SA
ATOM      5  S   UNL d   1      -1.434  -1.284   0.037  0.00  0.00    -0.043 SA
ATOM      6  N   UNL d   1       2.374  -0.191  -0.299  0.00  0.00    -0.349 N 
ATOM      7  HN  UNL d   1       2.674   0.693  -0.710  1.00  0.00     0.166 HD
ENDROOT
BRANCH   2   8
ATOM      8  C   UNL d   1       0.663   2.217   0.050  0.00  0.00    -0.021 A 
ATOM      9  C   UNL d   1       0.765   2.899   1.267  0.00  0.00     0.012 A 
ATOM     10  C   UNL d   1       1.326   4.177   1.312  0.00  0.00     0.001 A 
ATOM     11  C   UNL d   1       1.781   4.781   0.141  0.00  0.00     0.000 A 
ATOM     12  C   UNL d   1       1.673   4.113  -1.078  0.00  0.00     0.001 A 
ATOM     13  C   UNL d   1       1.121   2.832  -1.125  0.00  0.00     0.012 A 
ENDBRANCH   2   8
BRANCH   6  14
ATOM     14  C   UNL d   1       3.316  -1.225  -0.200  0.00  0.00     0.036 A 
ATOM     15  C   UNL d   1       3.081  -2.521  -0.671  0.00  0.00     0.075 A 
ATOM     16  C   UNL d   1       4.061  -3.502  -0.552  0.00  0.00     0.157 A 
ATOM     17  F   UNL d   1       3.789  -4.751  -0.956  0.00  0.00    -0.203 F 
ATOM     18  C   UNL d   1       5.308  -3.193  -0.025  0.00  0.00     0.154 A 
ATOM     19  C   UNL d   1       5.587  -1.898   0.389  0.00  0.00     0.048 A 
ATOM     20  F   UNL d   1       6.253  -4.136   0.073  0.00  0.00    -0.203 F 
ATOM     21  C   UNL d   1       4.587  -0.919   0.303  0.00  0.00     0.032 A 
ENDBRANCH   6  14
BRANCH   3  22
ATOM     22  S   UNL d   1      -2.572   1.439   0.154  0.00  0.00    -0.126 SA
ATOM     23  C   UNL d   1      -2.308   2.822  -0.962  0.00  0.00     0.096 C 
ENDBRANCH   3  22
TORSDOF 3
