REMARK  1 active torsions:
REMARK  status: ('A' for Active; 'I' for Inactive)
REMARK    1  A    between atoms: C_11  and  N_2 
ROOT
ATOM      1  C   UNL d   1       2.840   0.447  -0.619  0.00  0.00     0.036 C 
ATOM      2  N   UNL d   1       3.880  -0.409  -1.173  0.00  0.00    -0.248 NA
ATOM      3  C   UNL d   1       1.621   0.048  -0.066  0.00  0.00     0.013 A 
ATOM      4  C   UNL d   1       3.161   1.805  -0.727  0.00  0.00    -0.012 C 
ATOM      5  N   UNL d   1       1.212   2.380   0.493  0.00  0.00    -0.359 N 
ATOM      6  HN  UNL d   1       0.636   3.079   0.960  1.00  0.00     0.166 HD
ATOM      7  C   UNL d   1       0.828   1.083   0.473  0.00  0.00     0.044 A 
ATOM      8  C   UNL d   1       2.366   2.741  -0.112  0.00  0.00     0.013 C 
ATOM      9  C   UNL d   1       4.440   0.566  -2.172  0.00  0.00     0.106 C 
ATOM     10  C   UNL d   1       4.399   1.962  -1.528  0.00  0.00     0.057 C 
ATOM     11  C   UNL d   1       1.132  -1.277  -0.094  0.00  0.00     0.022 A 
ATOM     12  C   UNL d   1      -0.422   0.757   0.975  0.00  0.00     0.031 A 
ATOM     13  C   UNL d   1      -0.156  -1.574   0.374  0.00  0.00    -0.061 A 
ATOM     14  C   UNL d   1      -0.927  -0.545   0.915  0.00  0.00     0.009 A 
ATOM     15  C   UNL d   1       2.753   4.184  -0.072  0.00  0.00     0.068 C 
ATOM     16  C   UNL d   1      -0.742  -2.943   0.198  0.00  0.00     0.048 C 
ENDROOT
BRANCH   2  17
ATOM     17  C   UNL d   1       4.996  -0.848  -0.366  0.00  0.00     0.015 A 
ATOM     18  C   UNL d   1       5.211  -0.384   0.946  0.00  0.00     0.027 A 
ATOM     19  C   UNL d   1       6.410  -0.655   1.612  0.00  0.00     0.044 A 
ATOM     20  C   UNL d   1       7.386  -1.419   0.986  0.00  0.00     0.116 A 
ATOM     21  C   UNL d   1       7.170  -1.952  -0.278  0.00  0.00     0.044 A 
ATOM     22  F   UNL d   1       8.554  -1.633   1.604  0.00  0.00    -0.206 F 
ATOM     23  C   UNL d   1       5.973  -1.681  -0.945  0.00  0.00     0.027 A 
ENDBRANCH   2  17
TORSDOF 1
