REMARK  5 active torsions:
REMARK  status: ('A' for Active; 'I' for Inactive)
REMARK    1  A    between atoms: C_21  and  N_1 
REMARK    2  A    between atoms: C_2  and  N_13 
REMARK    3  A    between atoms: S_17  and  C_9 
REMARK       I    between atoms: N_13  and  C_18 
REMARK    4  A    between atoms: C_27  and  S_17 
REMARK    5  A    between atoms: C_18  and  C_27 
ROOT
ATOM      1  C   UNL d   1      -7.153  -1.049  -0.417  0.00  0.00     0.098 C 
ATOM      2  C   UNL d   1      -8.089  -1.646   0.400  0.00  0.00     0.085 C 
ATOM      3  C   UNL d   1      -9.304  -0.912   0.401  0.00  0.00    -0.021 C 
ATOM      4  C   UNL d   1      -9.431  -0.268  -0.811  0.00  0.00    -0.007 C 
ATOM      5  S   UNL d   1      -7.906   0.016  -1.528  0.00  0.00    -0.075 SA
ATOM      6  C   UNL d   1      -7.944  -2.932   1.007  0.00  0.00     0.103 C 
ATOM      7  N   UNL d   1      -7.919  -4.045   1.354  0.00  0.00    -0.191 NA
ATOM      8  C   UNL d   1     -10.505  -1.120   1.252  0.00  0.00     0.042 C 
ATOM      9  C   UNL d   1     -10.768   0.039  -1.423  0.00  0.00     0.051 C 
ATOM     10  C   UNL d   1     -11.539  -1.790   0.367  0.00  0.00     0.009 C 
ATOM     11  C   UNL d   1     -11.895  -0.927  -0.880  0.00  0.00    -0.014 C 
ATOM     12  C   UNL d   1     -12.440  -1.862  -1.970  0.00  0.00     0.010 C 
ENDROOT
BRANCH   1  13
ATOM     13  N   UNL d   1      -5.790  -1.240  -0.563  0.00  0.00    -0.319 N 
ATOM     14  C   UNL d   1      -5.053  -1.778   0.484  0.00  0.00     0.232 C 
ATOM     15  O   UNL d   1      -5.497  -1.943   1.621  0.00  0.00    -0.272 OA
ATOM     16  H   UNL d   1      -5.326  -0.762  -1.325  0.00  0.00     0.169 HD
BRANCH  14  17
ATOM     17  C   UNL d   1      -3.609  -2.131   0.159  0.00  0.00     0.185 C 
BRANCH  17  18
ATOM     18  S   UNL d   1      -2.581  -1.238   1.341  0.00  0.00    -0.083 SA
BRANCH  18  19
ATOM     19  C   UNL d   1      -0.982  -1.836   1.108  0.00  0.00     0.168 C 
ATOM     20  N   UNL d   1       0.133  -1.542   1.902  0.00  0.00    -0.274 N 
ATOM     21  C   UNL d   1       1.193  -1.906   1.058  0.00  0.00     0.146 C 
ATOM     22  N   UNL d   1       0.728  -2.651   0.070  0.00  0.00    -0.282 N 
ATOM     23  C   UNL d   1       2.552  -1.420   1.071  0.00  0.00     0.050 A 
ATOM     24  N   UNL d   1      -0.635  -2.590   0.090  0.00  0.00    -0.278 N 
ATOM     25  HN  UNL d   1       1.292  -3.181  -0.594  1.00  0.00     0.188 HD
ATOM     26  HN  UNL d   1      -1.269  -3.046  -0.565  1.00  0.00     0.189 HD
ATOM     27  S   UNL d   1       3.834  -2.360   0.415  0.00  0.00    -0.098 SA
ATOM     28  C   UNL d   1       3.019  -0.186   1.493  0.00  0.00     0.023 A 
ATOM     29  C   UNL d   1       4.989  -1.134   0.713  0.00  0.00     0.050 A 
ATOM     30  C   UNL d   1       4.425  -0.031   1.310  0.00  0.00     0.009 A 
BRANCH  20  31
ATOM     31  C   UNL d   1       0.216  -1.016   3.246  0.00  0.00     0.043 A 
ATOM     32  C   UNL d   1      -0.850  -0.349   3.867  0.00  0.00     0.030 A 
ATOM     33  C   UNL d   1      -0.749   0.155   5.168  0.00  0.00     0.002 A 
ATOM     34  C   UNL d   1       0.429   0.015   5.883  0.00  0.00     0.000 A 
ATOM     35  C   UNL d   1       1.495  -0.661   5.304  0.00  0.00     0.002 A 
ATOM     36  C   UNL d   1       1.382  -1.197   4.012  0.00  0.00     0.030 A 
ENDBRANCH  20  31
ENDBRANCH  18  19
ENDBRANCH  17  18
ENDBRANCH  14  17
ENDBRANCH   1  13
TORSDOF 5
