REMARK  3 active torsions:
REMARK  status: ('A' for Active; 'I' for Inactive)
REMARK    1  A    between atoms: N_9  and  N_2 
REMARK    2  A    between atoms: C_11  and  N_9 
REMARK    3  A    between atoms: O_18  and  C_12 
ROOT
ATOM      1  C   UNL d   1      -1.005   0.898   0.020  0.00  0.00     0.109 A 
ATOM      2  N   UNL d   1      -1.281   2.170   0.106  0.00  0.00    -0.296 N 
ATOM      3  HN  UNL d   1      -0.539   2.867   0.044  1.00  0.00     0.187 HD
ATOM      4  C   UNL d   1       0.419   0.476  -0.047  0.00  0.00     0.006 A 
ATOM      5  C   UNL d   1      -2.063  -0.205   0.026  0.00  0.00     0.200 A 
ATOM      6  C   UNL d   1      -1.600  -1.609   0.037  0.00  0.00     0.058 A 
ATOM      7  C   UNL d   1      -0.300  -1.915   0.029  0.00  0.00     0.016 A 
ATOM      8  C   UNL d   1       0.741  -0.887  -0.003  0.00  0.00    -0.023 A 
ATOM      9  O   UNL d   1      -3.259   0.047   0.028  0.00  0.00    -0.286 OA
ATOM     10  C   UNL d   1       1.437   1.440  -0.087  0.00  0.00     0.015 A 
ATOM     11  C   UNL d   1       2.089  -1.268   0.020  0.00  0.00     0.012 A 
ATOM     12  C   UNL d   1       2.775   1.048  -0.070  0.00  0.00     0.001 A 
ATOM     13  C   UNL d   1       3.101  -0.305  -0.010  0.00  0.00     0.001 A 
ENDROOT
BRANCH   2  14
ATOM     14  N   UNL d   1      -2.567   2.547   0.277  0.00  0.00    -0.300 N 
ATOM     15  H   UNL d   1      -3.339   1.874   0.236  0.00  0.00     0.187 HD
BRANCH  14  16
ATOM     16  C   UNL d   1      -2.890   3.908   0.370  0.00  0.00     0.048 A 
ATOM     17  C   UNL d   1      -1.923   4.910   0.227  0.00  0.00     0.034 A 
ATOM     18  C   UNL d   1      -2.251   6.263   0.355  0.00  0.00     0.039 A 
ATOM     19  C   UNL d   1      -3.555   6.640   0.664  0.00  0.00     0.068 A 
ATOM     20  C   UNL d   1      -4.525   5.650   0.830  0.00  0.00     0.039 A 
ATOM     21  C   UNL d   1      -4.196   4.297   0.685  0.00  0.00     0.034 A 
BRANCH  19  22
ATOM     22  O   UNL d   1      -3.998   7.922   0.841  0.00  0.00    -0.356 OA
ATOM     23  C   UNL d   1      -3.030   8.954   0.691  0.00  0.00     0.210 C 
ENDBRANCH  19  22
ENDBRANCH  14  16
ENDBRANCH   2  14
TORSDOF 3
