REMARK  4 active torsions:
REMARK  status: ('A' for Active; 'I' for Inactive)
REMARK    1  A    between atoms: C_15  and  N_1 
REMARK    2  A    between atoms: N_6  and  C_2 
REMARK    3  A    between atoms: C_3  and  C_11 
REMARK    4  A    between atoms: O_18  and  C_10 
ROOT
ATOM      1  N   UNL d   1      -0.780  -2.492   0.039  0.00  0.00    -0.350 N 
ATOM      2  HN  UNL d   1      -0.209  -3.160   0.556  1.00  0.00     0.166 HD
ATOM      3  C   UNL d   1      -1.837  -2.870  -0.602  0.00  0.00     0.104 C 
ENDROOT
BRANCH   1   4
ATOM      4  C   UNL d   1      -0.455  -1.169   0.001  0.00  0.00     0.128 A 
ATOM      5  N   UNL d   1       0.874  -0.727   0.091  0.00  0.00    -0.240 N 
ATOM      6  N   UNL d   1       0.946   0.626   0.260  0.00  0.00    -0.303 N 
ATOM      7  C   UNL d   1      -0.310   1.043   0.122  0.00  0.00     0.111 A 
ATOM      8  HN  UNL d   1       1.774   1.190   0.449  1.00  0.00     0.186 HD
ATOM      9  C   UNL d   1      -1.217  -0.014  -0.019  0.00  0.00     0.069 A 
BRANCH   5  10
ATOM     10  C   UNL d   1       2.071  -1.493  -0.006  0.00  0.00     0.058 A 
ATOM     11  C   UNL d   1       2.099  -2.701  -0.717  0.00  0.00     0.031 A 
ATOM     12  C   UNL d   1       3.290  -3.420  -0.831  0.00  0.00     0.002 A 
ATOM     13  C   UNL d   1       4.451  -2.950  -0.220  0.00  0.00     0.000 A 
ATOM     14  C   UNL d   1       4.429  -1.751   0.492  0.00  0.00     0.002 A 
ATOM     15  C   UNL d   1       3.248  -1.012   0.586  0.00  0.00     0.031 A 
ENDBRANCH   5  10
ENDBRANCH   1   4
BRANCH   3  16
ATOM     16  C   UNL d   1      -2.245  -4.292  -0.611  0.00  0.00     0.016 A 
ATOM     17  C   UNL d   1      -3.382  -4.685  -1.321  0.00  0.00     0.099 A 
ATOM     18  C   UNL d   1      -3.755  -6.033  -1.337  0.00  0.00     0.069 A 
ATOM     19 CL   UNL d   1      -5.156  -6.534  -2.212  0.00  0.00    -0.081 Cl
ATOM     20  C   UNL d   1      -3.004  -6.987  -0.654  0.00  0.00     0.050 A 
ATOM     21  C   UNL d   1      -1.871  -6.586   0.052  0.00  0.00     0.036 A 
ATOM     22  C   UNL d   1      -1.486  -5.246   0.079  0.00  0.00     0.039 A 
ATOM     23 CL   UNL d   1      -0.937  -7.761   0.893  0.00  0.00    -0.084 Cl
BRANCH  17  24
ATOM     24  O   UNL d   1      -4.121  -3.746  -1.996  0.00  0.00    -0.358 OA
ATOM     25  H   UNL d   1      -4.864  -4.207  -2.429  0.00  0.00     0.217 HD
ENDBRANCH  17  24
ENDBRANCH   3  16
TORSDOF 4
