REMARK  6 active torsions:
REMARK  status: ('A' for Active; 'I' for Inactive)
REMARK       I    between atoms: C_5  and  N_1 
REMARK       I    between atoms: C_7  and  N_1 
REMARK    1  A    between atoms: C_4  and  N_6 
REMARK    2  A    between atoms: C_13  and  C_5 
REMARK       I    between atoms: N_19  and  C_7 
REMARK    3  A    between atoms: N_12  and  C_23 
REMARK    4  A    between atoms: C_27  and  N_19 
REMARK    5  A    between atoms: C_23  and  C_24 
REMARK    6  A    between atoms: C_24  and  C_27 
ROOT
ATOM      1  N   UNL d   1       0.684  -2.390  -4.227  0.00  0.00    -0.366 N 
ATOM      2  C   UNL d   1       0.883  -0.075  -2.586  0.00  0.00     0.081 C 
ATOM      3  C   UNL d   1      -0.557  -1.688  -3.936  0.00  0.00     0.125 C 
ATOM      4  C   UNL d   1       1.631  -2.466  -3.127  0.00  0.00     0.125 C 
ATOM      5  C   UNL d   1      -0.202  -0.225  -3.670  0.00  0.00     0.034 C 
ATOM      6  C   UNL d   1       2.072  -1.029  -2.823  0.00  0.00     0.034 C 
ENDROOT
BRANCH   2   7
ATOM      7  C   UNL d   1       0.302  -0.216  -1.176  0.00  0.00     0.229 C 
ATOM      8  N   UNL d   1       1.218   0.082  -0.180  0.00  0.00    -0.279 N 
ATOM      9  C   UNL d   1       1.016   0.241   1.166  0.00  0.00     0.322 C 
ATOM     10  H   UNL d   1       2.138   0.392  -0.447  0.00  0.00     0.173 HD
ATOM     11  O   UNL d   1       1.934   0.670   1.864  0.00  0.00    -0.247 OA
ATOM     12  N   UNL d   1      -0.225  -0.059   1.640  0.00  0.00    -0.343 N 
ATOM     13  H   UNL d   1      -0.941  -0.269   0.948  0.00  0.00     0.164 HD
ATOM     14  O   UNL d   1      -0.864  -0.536  -0.960  0.00  0.00    -0.273 OA
BRANCH  12  15
ATOM     15  C   UNL d   1      -0.627   0.273   2.995  0.00  0.00     0.126 C 
BRANCH  15  16
ATOM     16  C   UNL d   1      -0.891   1.772   3.139  0.00  0.00     0.050 C 
BRANCH  16  17
ATOM     17  C   UNL d   1      -1.236   2.180   4.577  0.00  0.00     0.274 C 
BRANCH  17  18
ATOM     18  N   UNL d   1      -1.622   3.599   4.649  0.00  0.00     0.092 N 
ATOM     19  C   UNL d   1      -0.501   4.538   4.418  0.00  0.00     0.298 C 
ATOM     20  C   UNL d   1       0.454   4.687   5.614  0.00  0.00     0.198 C 
ATOM     21  O   UNL d   1      -0.256   5.093   6.790  0.00  0.00    -0.388 OA
ATOM     22  C   UNL d   1      -1.279   4.142   7.109  0.00  0.00     0.198 C 
ATOM     23  C   UNL d   1      -2.259   3.947   5.938  0.00  0.00     0.298 C 
ENDBRANCH  17  18
ENDBRANCH  16  17
ENDBRANCH  15  16
ENDBRANCH  12  15
ENDBRANCH   2   7
BRANCH   1  24
ATOM     24  C   UNL d   1       0.791  -3.257  -5.295  0.00  0.00     0.119 A 
ATOM     25  N   UNL d   1       1.479  -4.412  -5.158  0.00  0.00    -0.340 N 
ATOM     26  C   UNL d   1       1.611  -5.208  -6.242  0.00  0.00     0.060 A 
ATOM     27  HN  UNL d   1       1.888  -4.674  -4.261  1.00  0.00     0.167 HD
ATOM     28  C   UNL d   1       2.283  -6.422  -6.135  0.00  0.00     0.032 A 
ATOM     29  C   UNL d   1       1.078  -4.842  -7.501  0.00  0.00     0.059 A 
ATOM     30  C   UNL d   1       2.450  -7.266  -7.236  0.00  0.00     0.002 A 
ATOM     31  C   UNL d   1       1.942  -6.890  -8.471  0.00  0.00     0.002 A 
ATOM     32  C   UNL d   1       1.262  -5.680  -8.594  0.00  0.00     0.032 A 
ATOM     33  N   UNL d   1       0.401  -3.698  -7.662  0.00  0.00    -0.361 N 
ATOM     34  C   UNL d   1       0.270  -2.934  -6.551  0.00  0.00     0.137 A 
ATOM     35  HN  UNL d   1       0.010  -3.420  -8.562  1.00  0.00     0.165 HD
ENDBRANCH   1  24
TORSDOF 6
