REMARK  1 active torsions:
REMARK  status: ('A' for Active; 'I' for Inactive)
REMARK    1  A    between atoms: C_5  and  C_1 
ROOT
ATOM      1  C   UNL d   1       1.045   0.083  -0.029  0.00  0.00     0.078 C 
ATOM      2  C   UNL d   1       0.330   1.231  -0.083  0.00  0.00     0.058 C 
ATOM      3  C   UNL d   1       0.417  -1.181   0.222  0.00  0.00     0.102 C 
ATOM      4  N   UNL d   1      -0.061  -2.214   0.430  0.00  0.00    -0.191 NA
ATOM      5  S   UNL d   1      -1.391   1.291   0.243  0.00  0.00    -0.121 SA
ATOM      6  S   UNL d   1       1.044   2.803  -0.369  0.00  0.00    -0.121 SA
ATOM      7  C   UNL d   1      -0.135   3.677   0.698  0.00  0.00     0.090 C 
ATOM      8  C   UNL d   1      -1.517   3.095   0.454  0.00  0.00     0.090 C 
ENDROOT
BRANCH   1   9
ATOM      9  C   UNL d   1       2.522   0.051  -0.110  0.00  0.00    -0.013 A 
ATOM     10  C   UNL d   1       3.282   0.291   1.045  0.00  0.00     0.014 A 
ATOM     11  C   UNL d   1       4.674   0.186   1.010  0.00  0.00     0.024 A 
ATOM     12  C   UNL d   1       5.311  -0.157  -0.180  0.00  0.00     0.034 A 
ATOM     13  C   UNL d   1       4.566  -0.387  -1.338  0.00  0.00     0.024 A 
ATOM     14 CL   UNL d   1       7.023  -0.311  -0.217  0.00  0.00    -0.084 Cl
ATOM     15  C   UNL d   1       3.173  -0.282  -1.305  0.00  0.00     0.014 A 
ENDBRANCH   1   9
TORSDOF 1
