REMARK  8 active torsions:
REMARK  status: ('A' for Active; 'I' for Inactive)
REMARK       I    between atoms: N_3  and  C_1 
REMARK    1  A    between atoms: C_8  and  C_1 
REMARK    2  A    between atoms: C_2  and  O_7 
REMARK    3  A    between atoms: C_11  and  N_3 
REMARK    4  A    between atoms: C_4  and  C_10 
REMARK    5  A    between atoms: O_15  and  C_4 
REMARK    6  A    between atoms: C_5  and  C_8 
REMARK    7  A    between atoms: C_10  and  C_5 
REMARK    8  A    between atoms: O_7  and  C_12 
ROOT
ATOM      1  C   UNL d   1       0.895   0.467  -0.472  0.00  0.00     0.222 C 
ATOM      2  N   UNL d   1      -0.051  -0.434   0.006  0.00  0.00    -0.327 N 
ATOM      3  O   UNL d   1       0.646   1.561  -0.963  0.00  0.00    -0.273 OA
ATOM      4  H   UNL d   1       0.297  -1.225   0.538  0.00  0.00     0.169 HD
ENDROOT
BRANCH   2   5
ATOM      5  C   UNL d   1      -1.449  -0.243   0.001  0.00  0.00     0.034 A 
ATOM      6  C   UNL d   1      -2.085   0.745  -0.752  0.00  0.00     0.032 A 
ATOM      7  C   UNL d   1      -3.467   0.951  -0.659  0.00  0.00     0.039 A 
ATOM      8  C   UNL d   1      -4.235   0.168   0.196  0.00  0.00     0.075 A 
ATOM      9  C   UNL d   1      -3.614  -0.863   0.906  0.00  0.00     0.039 A 
ATOM     10  C   UNL d   1      -2.233  -1.079   0.802  0.00  0.00     0.032 A 
BRANCH   8  11
ATOM     11  O   UNL d   1      -5.574   0.304   0.430  0.00  0.00    -0.290 OA
BRANCH  11  12
ATOM     12  C   UNL d   1      -6.245   1.333  -0.276  0.00  0.00     0.505 C 
ATOM     13  F   UNL d   1      -6.403   0.947  -1.566  0.00  0.00    -0.184 F 
ATOM     14  F   UNL d   1      -7.491   1.443   0.253  0.00  0.00    -0.184 F 
ENDBRANCH  11  12
ENDBRANCH   8  11
ENDBRANCH   2   5
BRANCH   1  15
ATOM     15  C   UNL d   1       2.320  -0.038  -0.292  0.00  0.00     0.112 C 
BRANCH  15  16
ATOM     16  C   UNL d   1       3.451   0.919  -0.766  0.00  0.00    -0.030 C 
ATOM     17  C   UNL d   1       4.809   0.227  -0.502  0.00  0.00     0.016 C 
ATOM     18  C   UNL d   1       3.357   1.148  -2.293  0.00  0.00     0.016 C 
BRANCH  16  19
ATOM     19  C   UNL d   1       3.429   2.313  -0.079  0.00  0.00     0.119 C 
BRANCH  19  20
ATOM     20  C   UNL d   1       3.479   2.328   1.433  0.00  0.00     0.140 C 
ATOM     21  O   UNL d   1       3.661   1.359   2.156  0.00  0.00    -0.650 OA
BRANCH  20  22
ATOM     22  O   UNL d   1       3.319   3.576   1.935  0.00  0.00    -0.776 OA
ATOM     23  H   UNL d   1       3.165   4.254   1.250  0.00  0.00     0.167 HD
ENDBRANCH  20  22
ENDBRANCH  19  20
ENDBRANCH  16  19
ENDBRANCH  15  16
ENDBRANCH   1  15
TORSDOF 8
