REMARK  2 active torsions:
REMARK  status: ('A' for Active; 'I' for Inactive)
REMARK       I    between atoms: N_2  and  C_1 
REMARK       I    between atoms: N_6  and  C_1 
REMARK    1  A    between atoms: C_3  and  N_2 
REMARK    2  A    between atoms: S_8  and  C_7 
ROOT
ATOM      1  C   UNL d   1       1.073  -0.402   2.398  0.00  0.00     0.037 A 
ATOM      2  C   UNL d   1       2.125   0.449   2.753  0.00  0.00     0.048 A 
ATOM      3  C   UNL d   1       2.728   0.376   4.014  0.00  0.00     0.002 A 
ATOM      4  C   UNL d   1       1.191  -1.412   4.598  0.00  0.00     0.004 A 
ATOM      5  C   UNL d   1       0.607  -1.331   3.333  0.00  0.00     0.029 A 
ATOM      6  C   UNL d   1       2.248  -0.565   4.933  0.00  0.00     0.018 A 
ENDROOT
BRANCH   1   7
ATOM      7  N   UNL d   1       0.447  -0.373   1.134  0.00  0.00    -0.314 N 
ATOM      8  C   UNL d   1       0.768   0.417   0.062  0.00  0.00     0.296 C 
ATOM      9  O   UNL d   1       1.671   1.234  -0.043  0.00  0.00    -0.254 OA
ATOM     10  N   UNL d   1      -0.063   0.203  -0.999  0.00  0.00    -0.254 NA
ATOM     11  H   UNL d   1      -1.042   0.059  -0.800  0.00  0.00     0.128 HD
ATOM     12  H   UNL d   1       0.114   0.852  -1.757  0.00  0.00     0.128 HD
ATOM     13  H   UNL d   1      -0.259  -1.072   0.960  0.00  0.00     0.170 HD
ENDBRANCH   1   7
BRANCH   3  14
ATOM     14  S   UNL d   1       4.089   1.415   4.543  0.00  0.00    -0.134 SA
ATOM     15  C   UNL d   1       4.412   2.449   3.085  0.00  0.00     0.095 C 
ENDBRANCH   3  14
TORSDOF 2
