REMARK  3 active torsions:
REMARK  status: ('A' for Active; 'I' for Inactive)
REMARK    1  A    between atoms: C_2  and  C_1 
REMARK       I    between atoms: N_3  and  C_2 
REMARK       I    between atoms: C_4  and  N_3 
REMARK       I    between atoms: N_10  and  C_4 
REMARK    2  A    between atoms: S_13  and  C_7 
REMARK    3  A    between atoms: S_14  and  C_8 
ROOT
ATOM      1  C   UNL d   1      -3.283  -1.723  -0.487  0.00  0.00     0.264 C 
ATOM      2  N   UNL d   1      -3.123  -0.811   0.537  0.00  0.00    -0.275 N 
ATOM      3  C   UNL d   1      -3.387   0.519   0.362  0.00  0.00     0.325 C 
ATOM      4  N   UNL d   1      -3.685   1.247   1.501  0.00  0.00    -0.330 N 
ATOM      5  O   UNL d   1      -3.826  -1.486  -1.560  0.00  0.00    -0.267 OA
ATOM      6  O   UNL d   1      -3.362   1.065  -0.739  0.00  0.00    -0.247 OA
ATOM      7  O   UNL d   1      -5.586   2.214   3.389  0.00  0.00    -0.388 OA
ATOM      8  C   UNL d   1      -3.618   0.830   2.905  0.00  0.00     0.153 C 
ATOM      9  C   UNL d   1      -4.322   2.557   1.325  0.00  0.00     0.153 C 
ATOM     10  C   UNL d   1      -5.003   0.913   3.559  0.00  0.00     0.187 C 
ATOM     11  C   UNL d   1      -5.701   2.549   1.995  0.00  0.00     0.187 C 
ATOM     12  H   UNL d   1      -2.795  -1.142   1.422  0.00  0.00     0.173 HD
ENDROOT
BRANCH   1  13
ATOM     13  C   UNL d   1      -2.830  -3.074  -0.196  0.00  0.00     0.091 A 
ATOM     14  C   UNL d   1      -1.979  -3.786  -1.037  0.00  0.00     0.076 A 
ATOM     15  S   UNL d   1      -1.792  -5.370  -0.420  0.00  0.00    -0.006 SA
ATOM     16  N   UNL d   1      -2.730  -5.151   0.922  0.00  0.00    -0.319 N 
ATOM     17  C   UNL d   1      -3.205  -3.910   0.910  0.00  0.00     0.093 A 
ATOM     18  HN  UNL d   1      -2.913  -5.852   1.641  1.00  0.00     0.175 HD
BRANCH  14  19
ATOM     19  S   UNL d   1      -1.096  -3.227  -2.447  0.00  0.00    -0.125 SA
ATOM     20  C   UNL d   1      -2.356  -3.360  -3.737  0.00  0.00     0.096 C 
ENDBRANCH  14  19
BRANCH  17  21
ATOM     21  S   UNL d   1      -4.223  -3.361   2.247  0.00  0.00    -0.115 SA
ATOM     22  C   UNL d   1      -4.812  -4.929   2.933  0.00  0.00     0.097 C 
ENDBRANCH  17  21
ENDBRANCH   1  13
TORSDOF 3
