REMARK  6 active torsions:
REMARK  status: ('A' for Active; 'I' for Inactive)
REMARK    1  A    between atoms: C_2  and  C_1 
REMARK    2  A    between atoms: O_4  and  C_1 
REMARK    3  A    between atoms: O_5  and  C_2 
REMARK       I    between atoms: C_3  and  N_6 
REMARK       I    between atoms: N_7  and  C_3 
REMARK    4  A    between atoms: C_10  and  O_4 
REMARK    5  A    between atoms: N_6  and  O_5 
REMARK    6  A    between atoms: C_11  and  N_7 
ROOT
ATOM      1  C   UNL d   1       0.374   0.530   4.063  0.00  0.00     0.322 C 
ATOM      2  N   UNL d   1       0.370   0.803   2.700  0.00  0.00    -0.118 NA
ATOM      3  N   UNL d   1       0.913   1.584   4.783  0.00  0.00    -0.312 N 
ATOM      4  O   UNL d   1      -0.002  -0.540   4.530  0.00  0.00    -0.252 OA
ATOM      5  H   UNL d   1       0.149   1.749   2.409  0.00  0.00     0.165 HD
ATOM      6  H   UNL d   1       1.048   2.447   4.278  0.00  0.00     0.170 HD
ENDROOT
BRANCH   2   7
ATOM      7  O   UNL d   1      -0.339  -0.174   1.948  0.00  0.00    -0.276 OA
BRANCH   7   8
ATOM      8  C   UNL d   1       0.520  -0.825   0.995  0.00  0.00     0.163 C 
ATOM      9  C   UNL d   1      -0.375  -1.875   0.323  0.00  0.00     0.059 C 
ATOM     10  C   UNL d   1       1.690  -1.534   1.693  0.00  0.00     0.059 C 
BRANCH   8  11
ATOM     11  C   UNL d   1       1.049   0.158  -0.080  0.00  0.00     0.295 C 
ATOM     12  O   UNL d   1       0.866   1.368  -0.067  0.00  0.00    -0.262 OA
BRANCH  11  13
ATOM     13  O   UNL d   1       1.753  -0.508  -1.042  0.00  0.00    -0.309 OA
BRANCH  13  14
ATOM     14  C   UNL d   1       2.335   0.207  -2.165  0.00  0.00     0.060 C 
ATOM     15  C   UNL d   1       3.335   1.270  -1.691  0.00  0.00     0.045 C 
ATOM     16  C   UNL d   1       3.086  -0.864  -2.970  0.00  0.00     0.045 C 
ATOM     17  C   UNL d   1       1.238   0.803  -3.056  0.00  0.00     0.045 C 
ENDBRANCH  13  14
ENDBRANCH  11  13
ENDBRANCH   8  11
ENDBRANCH   7   8
ENDBRANCH   2   7
BRANCH   3  18
ATOM     18  C   UNL d   1       1.301   1.576   6.141  0.00  0.00     0.036 A 
ATOM     19  C   UNL d   1       1.296   0.429   6.938  0.00  0.00     0.031 A 
ATOM     20  C   UNL d   1       1.773   0.472   8.253  0.00  0.00     0.026 A 
ATOM     21  C   UNL d   1       2.247   1.669   8.779  0.00  0.00     0.034 A 
ATOM     22  C   UNL d   1       2.234   2.826   8.007  0.00  0.00     0.026 A 
ATOM     23 CL   UNL d   1       2.865   1.714  10.384  0.00  0.00    -0.084 Cl
ATOM     24  C   UNL d   1       1.762   2.780   6.689  0.00  0.00     0.031 A 
ENDBRANCH   3  18
TORSDOF 6
