REMARK  5 active torsions:
REMARK  status: ('A' for Active; 'I' for Inactive)
REMARK    1  A    between atoms: C_2  and  C_1 
REMARK       I    between atoms: C_3  and  N_7 
REMARK    2  A    between atoms: C_4  and  C_3 
REMARK    3  A    between atoms: C_5  and  C_6 
REMARK    4  A    between atoms: O_15  and  C_5 
REMARK    5  A    between atoms: N_7  and  C_9 
ROOT
ATOM      1  C   UNL d   1       0.372   0.814   1.387  0.00  0.00     0.050 A 
ATOM      2  C   UNL d   1       0.024  -0.311   2.148  0.00  0.00     0.045 A 
ATOM      3  C   UNL d   1      -0.059  -0.247   3.540  0.00  0.00     0.035 A 
ATOM      4  C   UNL d   1       0.546   2.044   2.034  0.00  0.00     0.016 A 
ATOM      5  C   UNL d   1       0.394   2.136   3.418  0.00  0.00     0.003 A 
ATOM      6  C   UNL d   1       0.103   0.993   4.168  0.00  0.00     0.029 A 
ENDROOT
BRANCH   3   7
ATOM      7  N   UNL d   1      -0.236  -1.387   4.357  0.00  0.00    -0.324 N 
ATOM      8  C   UNL d   1      -0.276  -2.696   3.923  0.00  0.00     0.245 C 
ATOM      9  O   UNL d   1      -0.236  -3.093   2.766  0.00  0.00    -0.268 OA
ATOM     10  H   UNL d   1      -0.252  -1.217   5.354  0.00  0.00     0.169 HD
BRANCH   8  11
ATOM     11  C   UNL d   1      -0.382  -3.668   5.037  0.00  0.00     0.081 C 
ATOM     12  C   UNL d   1      -0.481  -4.968   4.721  0.00  0.00     0.086 C 
BRANCH  12  13
ATOM     13  C   UNL d   1      -0.711  -5.952   5.773  0.00  0.00     0.165 C 
ATOM     14  O   UNL d   1      -0.671  -5.763   6.978  0.00  0.00    -0.647 OA
BRANCH  13  15
ATOM     15  O   UNL d   1      -1.054  -7.130   5.238  0.00  0.00    -0.773 OA
ATOM     16  H   UNL d   1      -1.260  -7.698   6.006  0.00  0.00     0.167 HD
ENDBRANCH  13  15
ENDBRANCH  12  13
ENDBRANCH   8  11
ENDBRANCH   3   7
BRANCH   1  17
ATOM     17  C   UNL d   1       0.635   0.676  -0.092  0.00  0.00     0.417 C 
ATOM     18  F   UNL d   1       0.435  -0.582  -0.576  0.00  0.00    -0.166 F 
ATOM     19  F   UNL d   1       1.923   0.992  -0.409  0.00  0.00    -0.166 F 
ATOM     20  F   UNL d   1      -0.146   1.495  -0.847  0.00  0.00    -0.166 F 
ENDBRANCH   1  17
TORSDOF 5
