REMARK  8 active torsions:
REMARK  status: ('A' for Active; 'I' for Inactive)
REMARK    1  A    between atoms: N_8  and  C_1 
REMARK    2  A    between atoms: S_11  and  C_3 
REMARK    3  A    between atoms: N_12  and  C_10 
REMARK    4  A    between atoms: C_13  and  S_11 
REMARK    5  A    between atoms: C_16  and  C_13 
REMARK    6  A    between atoms: C_19  and  C_16 
REMARK    7  A    between atoms: C_17  and  C_18 
REMARK    8  A    between atoms: C_18  and  C_19 
ROOT
ATOM      1  C   UNL d   1      -0.430   1.179   0.129  0.00  0.00     0.166 A 
ATOM      2  S   UNL d   1      -1.235  -0.269   0.649  0.00  0.00    -0.026 SA
ATOM      3  C   UNL d   1       0.075  -1.160   0.003  0.00  0.00     0.130 A 
ATOM      4  N   UNL d   1       0.712   0.923  -0.484  0.00  0.00    -0.278 N 
ATOM      5  HN  UNL d   1       1.316   1.650  -0.868  1.00  0.00     0.189 HD
ATOM      6  N   UNL d   1       1.009  -0.425  -0.556  0.00  0.00    -0.286 N 
ATOM      7  HN  UNL d   1       1.851  -0.803  -0.990  1.00  0.00     0.188 HD
ENDROOT
BRANCH   3   8
ATOM      8  S   UNL d   1       0.159  -2.913   0.055  0.00  0.00    -0.103 SA
BRANCH   8   9
ATOM      9  C   UNL d   1       1.962  -3.181  -0.023  0.00  0.00     0.081 C 
BRANCH   9  10
ATOM     10  C   UNL d   1       2.276  -4.680  -0.040  0.00  0.00     0.010 C 
BRANCH  10  11
ATOM     11  C   UNL d   1       3.788  -4.944  -0.054  0.00  0.00     0.001 C 
BRANCH  11  12
ATOM     12  C   UNL d   1       4.094  -6.446  -0.068  0.00  0.00    -0.000 C 
BRANCH  12  13
ATOM     13  C   UNL d   1       5.599  -6.720  -0.079  0.00  0.00    -0.005 C 
ATOM     14  C   UNL d   1       5.895  -8.212  -0.092  0.00  0.00     0.005 C 
ENDBRANCH  12  13
ENDBRANCH  11  12
ENDBRANCH  10  11
ENDBRANCH   9  10
ENDBRANCH   8   9
ENDBRANCH   3   8
BRANCH   1  15
ATOM     15  N   UNL d   1      -1.020   2.375   0.397  0.00  0.00    -0.332 N 
ATOM     16  C   UNL d   1      -0.389   3.425  -0.017  0.00  0.00     0.179 C 
ATOM     17  HN  UNL d   1      -1.908   2.439   0.895  1.00  0.00     0.168 HD
BRANCH  16  18
ATOM     18  N   UNL d   1      -0.792   4.732   0.151  0.00  0.00    -0.386 N 
ATOM     19  C   UNL d   1      -2.023   5.075   0.847  0.00  0.00     0.149 C 
ATOM     20  C   UNL d   1      -0.024   5.858  -0.355  0.00  0.00     0.149 C 
ENDBRANCH  16  18
ENDBRANCH   1  15
TORSDOF 8
