REMARK  7 active torsions:
REMARK  status: ('A' for Active; 'I' for Inactive)
REMARK    1  A    between atoms: N_4  and  C_1 
REMARK    2  A    between atoms: C_2  and  C_7 
REMARK    3  A    between atoms: C_3  and  N_4 
REMARK    4  A    between atoms: N_8  and  C_3 
REMARK    5  A    between atoms: C_16  and  C_5 
REMARK    6  A    between atoms: C_15  and  C_6 
REMARK    7  A    between atoms: C_11  and  N_8 
ROOT
ATOM      1  C   UNL d   1       4.272  -0.158   1.504  0.00  0.00     0.173 C 
ATOM      2  S   UNL d   1       4.594  -0.227   3.147  0.00  0.00    -0.041 SA
ENDROOT
BRANCH   1   3
ATOM      3  N   UNL d   1       2.949  -0.309   1.201  0.00  0.00    -0.355 N 
ATOM      4  H   UNL d   1       2.384  -0.454   2.035  0.00  0.00     0.163 HD
BRANCH   3   5
ATOM      5  C   UNL d   1       2.161  -0.007   0.061  0.00  0.00     0.143 C 
ATOM      6  C   UNL d   1       1.322  -1.084  -0.303  0.00  0.00    -0.050 C 
ATOM      7  C   UNL d   1      -0.073  -0.909  -0.291  0.00  0.00     0.006 C 
ATOM      8  C   UNL d   1      -0.628   0.340  -0.052  0.00  0.00     0.001 C 
ATOM      9  C   UNL d   1       0.207   1.446   0.050  0.00  0.00     0.006 C 
ATOM     10  C   UNL d   1       1.608   1.296   0.063  0.00  0.00    -0.050 C 
BRANCH   6  11
ATOM     11  C   UNL d   1       1.864  -2.428  -0.779  0.00  0.00     0.009 C 
ATOM     12  C   UNL d   1       3.226  -2.342  -1.477  0.00  0.00     0.014 C 
ATOM     13  C   UNL d   1       1.882  -3.483   0.322  0.00  0.00     0.014 C 
ENDBRANCH   6  11
BRANCH  10  14
ATOM     14  C   UNL d   1       2.505   2.518  -0.107  0.00  0.00     0.009 C 
ATOM     15  C   UNL d   1       2.492   2.928  -1.590  0.00  0.00     0.014 C 
ATOM     16  C   UNL d   1       2.118   3.713   0.765  0.00  0.00     0.014 C 
ENDBRANCH  10  14
ENDBRANCH   3   5
ENDBRANCH   1   3
BRANCH   1  17
ATOM     17  N   UNL d   1       5.131  -0.061   0.442  0.00  0.00    -0.333 N 
ATOM     18  H   UNL d   1       4.654   0.075  -0.440  0.00  0.00     0.168 HD
BRANCH  17  19
ATOM     19  C   UNL d   1       6.535  -0.257   0.337  0.00  0.00     0.035 A 
ATOM     20  C   UNL d   1       7.083  -0.199  -0.953  0.00  0.00     0.045 A 
ATOM     21  C   UNL d   1       8.449  -0.457  -1.192  0.00  0.00     0.050 A 
ATOM     22  C   UNL d   1       9.280  -0.778  -0.113  0.00  0.00     0.016 A 
ATOM     23  C   UNL d   1       8.757  -0.824   1.172  0.00  0.00     0.003 A 
ATOM     24  C   UNL d   1       7.397  -0.566   1.391  0.00  0.00     0.029 A 
BRANCH  21  25
ATOM     25  C   UNL d   1       9.013  -0.446  -2.591  0.00  0.00     0.417 C 
ATOM     26  F   UNL d   1       8.213   0.188  -3.493  0.00  0.00    -0.166 F 
ATOM     27  F   UNL d   1      10.224   0.173  -2.668  0.00  0.00    -0.166 F 
ATOM     28  F   UNL d   1       9.204  -1.702  -3.081  0.00  0.00    -0.166 F 
ENDBRANCH  21  25
ENDBRANCH  17  19
ENDBRANCH   1  17
TORSDOF 7
