REMARK  6 active torsions:
REMARK  status: ('A' for Active; 'I' for Inactive)
REMARK    1  A    between atoms: C_9  and  C_1 
REMARK    2  A    between atoms: N_2  and  C_8 
REMARK    3  A    between atoms: C_6  and  O_14 
REMARK    4  A    between atoms: C_13  and  C_9 
REMARK    5  A    between atoms: O_23  and  C_9 
REMARK    6  A    between atoms: O_14  and  C_22 
ROOT
ATOM      1  C   UNL d   1      -3.819  -0.084  -0.131  0.00  0.00     0.208 C 
ENDROOT
BRANCH   1   2
ATOM      2  C   UNL d   1      -2.330  -0.231  -0.125  0.00  0.00     0.087 A 
ATOM      3  O   UNL d   1      -1.588   0.785   0.416  0.00  0.00    -0.311 OA
ATOM      4  C   UNL d   1      -0.279   0.417   0.324  0.00  0.00     0.086 A 
ATOM      5  C   UNL d   1       0.809   1.174   0.757  0.00  0.00     0.040 A 
ATOM      6  C   UNL d   1      -0.170  -0.836  -0.265  0.00  0.00     0.003 A 
ATOM      7  C   UNL d   1       2.079   0.612   0.574  0.00  0.00     0.039 A 
ATOM      8  C   UNL d   1       2.222  -0.655  -0.017  0.00  0.00     0.103 A 
ATOM      9  C   UNL d   1       1.106  -1.398  -0.443  0.00  0.00     0.050 A 
ATOM     10  C   UNL d   1      -1.498  -1.246  -0.554  0.00  0.00     0.050 A 
BRANCH   8  11
ATOM     11  N   UNL d   1       3.566  -1.227  -0.191  0.00  0.00    -0.116 N 
ATOM     12  O   UNL d   1       3.651  -2.342  -0.725  0.00  0.00    -0.532 OA
ATOM     13  O   UNL d   1       4.529  -0.558   0.198  0.00  0.00    -0.532 OA
ENDBRANCH   8  11
ENDBRANCH   1   2
BRANCH   1  14
ATOM     14  C   UNL d   1      -4.477  -0.631   1.119  0.00  0.00    -0.023 A 
ATOM     15  C   UNL d   1      -4.194  -0.108   2.392  0.00  0.00     0.013 A 
ATOM     16  C   UNL d   1      -4.815  -0.619   3.537  0.00  0.00     0.037 A 
ATOM     17  C   UNL d   1      -5.696  -1.691   3.436  0.00  0.00     0.078 A 
ATOM     18  C   UNL d   1      -6.005  -2.200   2.171  0.00  0.00     0.037 A 
ATOM     19  C   UNL d   1      -5.402  -1.680   1.023  0.00  0.00     0.013 A 
BRANCH  17  20
ATOM     20  O   UNL d   1      -6.358  -2.288   4.463  0.00  0.00    -0.255 OA
BRANCH  20  21
ATOM     21  C   UNL d   1      -5.764  -2.335   5.753  0.00  0.00     0.530 C 
ATOM     22  F   UNL d   1      -4.478  -1.931   5.791  0.00  0.00    -0.144 F 
ATOM     23  F   UNL d   1      -6.485  -1.574   6.604  0.00  0.00    -0.144 F 
ATOM     24  F   UNL d   1      -5.806  -3.613   6.193  0.00  0.00    -0.144 F 
ENDBRANCH  20  21
ENDBRANCH  17  20
ENDBRANCH   1  14
BRANCH   1  25
ATOM     25  O   UNL d   1      -4.147   1.294  -0.289  0.00  0.00    -0.384 OA
ATOM     26  H   UNL d   1      -3.700   1.762   0.436  0.00  0.00     0.211 HD
ENDBRANCH   1  25
TORSDOF 6
