REMARK  1 active torsions:
REMARK  status: ('A' for Active; 'I' for Inactive)
REMARK    1  A    between atoms: C_6  and  C_1 
REMARK       I    between atoms: N_11  and  C_6 
ROOT
ATOM      1  C   UNL d   1      -2.020  -1.123   0.004  0.00  0.00     0.074 A 
ATOM      2  S   UNL d   1      -2.017   0.596   0.003  0.00  0.00    -0.084 SA
ATOM      3  C   UNL d   1      -0.748  -1.663   0.006  0.00  0.00     0.044 A 
ATOM      4  C   UNL d   1      -0.277   0.618   0.003  0.00  0.00     0.023 A 
ATOM      5  C   UNL d   1       0.250  -0.643   0.004  0.00  0.00     0.023 A 
ATOM      6  S   UNL d   1       1.995  -0.621   0.003  0.00  0.00    -0.101 SA
ATOM      7  C   UNL d   1       0.719   1.641   0.002  0.00  0.00     0.027 A 
ATOM      8  C   UNL d   1       1.980   1.093   0.002  0.00  0.00     0.052 A 
ENDROOT
BRANCH   1   9
ATOM      9  C   UNL d   1      -3.265  -1.879   0.003  0.00  0.00     0.256 C 
ATOM     10  O   UNL d   1      -3.323  -3.106   0.005  0.00  0.00    -0.267 OA
ATOM     11  N   UNL d   1      -4.426  -1.158  -0.002  0.00  0.00    -0.366 N 
ATOM     12  H   UNL d   1      -4.425  -0.148  -0.005  0.00  0.00     0.159 HD
ATOM     13  H   UNL d   1      -5.302  -1.662  -0.004  0.00  0.00     0.159 HD
ENDBRANCH   1   9
TORSDOF 1
