REMARK  3 active torsions:
REMARK  status: ('A' for Active; 'I' for Inactive)
REMARK    1  A    between atoms: C_6  and  C_1 
REMARK    2  A    between atoms: O_12  and  C_1 
REMARK    3  A    between atoms: C_14  and  C_6 
ROOT
ATOM      1  C   UNL d   1      -1.295  -1.507  -0.022  0.00  0.00     0.172 A 
ATOM      2  C   UNL d   1      -2.356  -0.344   0.094  0.00  0.00     0.262 A 
ATOM      3  C   UNL d   1      -0.004  -0.720   0.103  0.00  0.00     0.014 A 
ATOM      4  N   UNL d   1      -1.652   0.857   0.113  0.00  0.00    -0.324 N 
ATOM      5  C   UNL d   1      -0.285   0.646   0.135  0.00  0.00     0.044 A 
ATOM      6  C   UNL d   1       1.305  -1.170   0.146  0.00  0.00     0.032 A 
ATOM      7  O   UNL d   1      -3.568  -0.432   0.208  0.00  0.00    -0.269 OA
ATOM      8  C   UNL d   1       0.703   1.606   0.195  0.00  0.00     0.031 A 
ATOM      9  C   UNL d   1       2.321  -0.214   0.198  0.00  0.00     0.011 A 
ATOM     10  C   UNL d   1       2.028   1.162   0.219  0.00  0.00     0.021 A 
ATOM     11 BR   UNL d   1       4.126  -0.778   0.227  0.00  0.00    -0.051 Br
ATOM     12  H   UNL d   1      -2.114   1.751   0.192  0.00  0.00     0.169 HD
ENDROOT
BRANCH   1  13
ATOM     13  C   UNL d   1      -1.335  -2.179  -1.409  0.00  0.00     0.091 C 
BRANCH  13  14
ATOM     14  C   UNL d   1      -2.646  -2.844  -1.759  0.00  0.00    -0.052 A 
ATOM     15  C   UNL d   1      -3.626  -2.154  -2.478  0.00  0.00     0.024 A 
ATOM     16  C   UNL d   1      -4.827  -2.790  -2.745  0.00  0.00     0.088 A 
ATOM     17  N   UNL d   1      -5.107  -4.056  -2.369  0.00  0.00    -0.375 N 
ATOM     18  C   UNL d   1      -4.147  -4.705  -1.677  0.00  0.00     0.088 A 
ATOM     19  HN  UNL d   1      -5.997  -4.499  -2.597  1.00  0.00     0.164 HD
ATOM     20  C   UNL d   1      -2.918  -4.151  -1.351  0.00  0.00     0.024 A 
ENDBRANCH  13  14
ENDBRANCH   1  13
BRANCH   1  21
ATOM     21  O   UNL d   1      -1.333  -2.476   1.012  0.00  0.00    -0.375 OA
ATOM     22  H   UNL d   1      -1.453  -1.992   1.847  0.00  0.00     0.211 HD
ENDBRANCH   1  21
TORSDOF 3
