REMARK  8 active torsions:
REMARK  status: ('A' for Active; 'I' for Inactive)
REMARK    1  A    between atoms: C_12  and  N_1 
REMARK    2  A    between atoms: S_10  and  C_2 
REMARK    3  A    between atoms: C_15  and  C_3 
REMARK    4  A    between atoms: C_23  and  S_10 
REMARK    5  A    between atoms: C_11  and  C_23 
REMARK       I    between atoms: N_14  and  C_11 
REMARK    6  A    between atoms: C_13  and  O_16 
REMARK    7  A    between atoms: C_18  and  N_14 
REMARK    8  A    between atoms: O_16  and  C_15 
ROOT
ATOM      1  N   UNL d   1      -0.436  -1.426  -0.073  0.00  0.00    -0.277 N 
ATOM      2  C   UNL d   1       0.812  -0.831  -0.248  0.00  0.00     0.168 C 
ATOM      3  C   UNL d   1      -1.290  -0.325   0.042  0.00  0.00     0.129 C 
ATOM      4  N   UNL d   1       0.735   0.466  -0.081  0.00  0.00    -0.278 N 
ATOM      5  HN  UNL d   1       1.518   1.120  -0.077  1.00  0.00     0.189 HD
ATOM      6  N   UNL d   1      -0.572   0.784   0.085  0.00  0.00    -0.285 N 
ATOM      7  HN  UNL d   1      -0.941   1.725   0.221  1.00  0.00     0.188 HD
ENDROOT
BRANCH   2   8
ATOM      8  S   UNL d   1       2.195  -1.539  -1.034  0.00  0.00    -0.083 SA
BRANCH   8   9
ATOM      9  C   UNL d   1       1.726  -1.368  -2.783  0.00  0.00     0.185 C 
BRANCH   9  10
ATOM     10  C   UNL d   1       1.988   0.024  -3.340  0.00  0.00     0.231 C 
ATOM     11  N   UNL d   1       1.144   1.010  -2.853  0.00  0.00    -0.326 N 
ATOM     12  H   UNL d   1       0.660   0.810  -1.981  0.00  0.00     0.169 HD
ATOM     13  O   UNL d   1       2.861   0.190  -4.191  0.00  0.00    -0.272 OA
BRANCH  11  14
ATOM     14  C   UNL d   1       1.188   2.382  -3.179  0.00  0.00     0.036 A 
ATOM     15  C   UNL d   1       1.816   2.885  -4.317  0.00  0.00     0.053 A 
ATOM     16  C   UNL d   1       1.922   4.264  -4.496  0.00  0.00     0.036 A 
ATOM     17 CL   UNL d   1       2.741   4.883  -5.878  0.00  0.00    -0.084 Cl
ATOM     18  C   UNL d   1       1.388   5.148  -3.560  0.00  0.00     0.024 A 
ATOM     19  C   UNL d   1       0.705   4.650  -2.454  0.00  0.00     0.004 A 
ATOM     20  C   UNL d   1       0.594   3.272  -2.273  0.00  0.00     0.029 A 
ENDBRANCH  11  14
ENDBRANCH   9  10
ENDBRANCH   8   9
ENDBRANCH   2   8
BRANCH   1  21
ATOM     21  C   UNL d   1      -0.721  -2.822  -0.108  0.00  0.00     0.043 A 
ATOM     22  C   UNL d   1       0.251  -3.738   0.339  0.00  0.00     0.030 A 
ATOM     23  C   UNL d   1       0.059  -5.111   0.201  0.00  0.00     0.002 A 
ATOM     24  C   UNL d   1      -1.123  -5.593  -0.353  0.00  0.00     0.000 A 
ATOM     25  C   UNL d   1      -2.119  -4.701  -0.739  0.00  0.00     0.002 A 
ATOM     26  C   UNL d   1      -1.924  -3.321  -0.615  0.00  0.00     0.030 A 
ENDBRANCH   1  21
BRANCH   3  27
ATOM     27  C   UNL d   1      -2.778  -0.290   0.064  0.00  0.00     0.254 C 
BRANCH  27  28
ATOM     28  O   UNL d   1      -3.258  -1.091   1.136  0.00  0.00    -0.343 OA
BRANCH  28  29
ATOM     29  C   UNL d   1      -4.624  -1.180   1.248  0.00  0.00     0.076 A 
ATOM     30  C   UNL d   1      -5.109  -1.920   2.314  0.00  0.00    -0.018 A 
ATOM     31  C   UNL d   1      -6.482  -2.094   2.520  0.00  0.00    -0.043 A 
ATOM     32  C   UNL d   1      -4.303  -2.607   3.371  0.00  0.00     0.042 A 
ATOM     33  C   UNL d   1      -6.756  -2.916   3.739  0.00  0.00     0.040 A 
ATOM     34  C   UNL d   1      -7.419  -1.537   1.653  0.00  0.00    -0.055 A 
ATOM     35  C   UNL d   1      -5.361  -3.250   4.278  0.00  0.00     0.009 A 
ATOM     36  C   UNL d   1      -6.938  -0.787   0.578  0.00  0.00     0.010 A 
ATOM     37  C   UNL d   1      -8.891  -1.727   1.863  0.00  0.00     0.049 C 
ATOM     38  C   UNL d   1      -5.559  -0.608   0.376  0.00  0.00     0.038 A 
ENDBRANCH  28  29
ENDBRANCH  27  28
ENDBRANCH   3  27
TORSDOF 8
