REMARK  5 active torsions:
REMARK  status: ('A' for Active; 'I' for Inactive)
REMARK    1  A    between atoms: C_4  and  N_1 
REMARK    2  A    between atoms: C_5  and  C_2 
REMARK    3  A    between atoms: C_7  and  C_21 
REMARK    4  A    between atoms: N_17  and  C_13 
REMARK    5  A    between atoms: C_21  and  N_17 
ROOT
ATOM      1  N   UNL d   1      -2.185   2.731   3.775  0.00  0.00    -0.372 N 
ATOM      2  H   UNL d   1      -3.064   2.251   3.919  0.00  0.00     0.161 HD
ENDROOT
BRANCH   1   3
ATOM      3  C   UNL d   1      -1.348   2.114   2.887  0.00  0.00     0.101 A 
ATOM      4  C   UNL d   1      -0.160   2.681   2.427  0.00  0.00     0.051 A 
ATOM      5  C   UNL d   1       0.657   1.972   1.545  0.00  0.00     0.041 A 
ATOM      6  C   UNL d   1       0.268   0.696   1.155  0.00  0.00     0.118 A 
ATOM      7  C   UNL d   1      -0.919   0.186   1.652  0.00  0.00     0.125 A 
ATOM      8  N   UNL d   1      -1.726   0.878   2.499  0.00  0.00    -0.350 N 
ATOM      9  HN  UNL d   1      -2.600   0.472   2.834  1.00  0.00     0.166 HD
BRANCH   6  10
ATOM     10  N   UNL d   1       1.089  -0.093   0.250  0.00  0.00    -0.114 N 
ATOM     11  O   UNL d   1       0.686  -1.227  -0.049  0.00  0.00    -0.532 OA
ATOM     12  O   UNL d   1       2.135   0.416  -0.171  0.00  0.00    -0.532 OA
ENDBRANCH   6  10
ENDBRANCH   1   3
BRANCH   1  13
ATOM     13  C   UNL d   1      -2.047   4.103   4.210  0.00  0.00     0.167 C 
BRANCH  13  14
ATOM     14  C   UNL d   1      -3.125   4.576   5.143  0.00  0.00     0.001 A 
ATOM     15  S   UNL d   1      -4.005   6.000   4.791  0.00  0.00    -0.092 SA
ATOM     16  C   UNL d   1      -4.889   5.926   6.261  0.00  0.00     0.022 A 
ATOM     17  C   UNL d   1      -4.532   4.802   6.985  0.00  0.00     0.021 A 
ATOM     18  C   UNL d   1      -3.521   4.027   6.345  0.00  0.00     0.018 A 
BRANCH  16  19
ATOM     19  C   UNL d   1      -5.843   6.952   6.623  0.00  0.00     0.021 A 
ATOM     20  S   UNL d   1      -6.196   7.308   8.269  0.00  0.00    -0.101 SA
ATOM     21  C   UNL d   1      -7.290   8.550   7.847  0.00  0.00     0.050 A 
ATOM     22  C   UNL d   1      -7.404   8.695   6.484  0.00  0.00     0.008 A 
ATOM     23  C   UNL d   1      -6.570   7.776   5.780  0.00  0.00     0.021 A 
ENDBRANCH  16  19
ENDBRANCH  13  14
ENDBRANCH   1  13
TORSDOF 5
