REMARK  6 active torsions:
REMARK  status: ('A' for Active; 'I' for Inactive)
REMARK    1  A    between atoms: C_4  and  N_1 
REMARK    2  A    between atoms: N_5  and  C_2 
REMARK    3  A    between atoms: C_3  and  N_6 
REMARK    4  A    between atoms: N_9  and  C_3 
REMARK    5  A    between atoms: N_6  and  N_5 
REMARK    6  A    between atoms: C_15  and  N_9 
ROOT
ATOM      1  N   UNL d   1      -0.288  -2.366   2.359  0.00  0.00    -0.186 NA
ATOM      2  H   UNL d   1      -0.101  -3.088   3.066  0.00  0.00     0.154 HD
ENDROOT
BRANCH   1   3
ATOM      3  C   UNL d   1      -0.472  -3.018   1.112  0.00  0.00     0.126 A 
ATOM      4  C   UNL d   1      -1.418  -4.052   0.976  0.00  0.00     0.078 A 
ATOM      5  C   UNL d   1      -1.438  -4.783  -0.223  0.00  0.00     0.035 A 
ATOM      6  C   UNL d   1      -0.582  -4.435  -1.260  0.00  0.00     0.019 A 
ATOM      7  C   UNL d   1       0.263  -3.361  -1.071  0.00  0.00     0.089 A 
ATOM      8  N   UNL d   1       0.330  -2.652   0.075  0.00  0.00    -0.354 N 
ATOM      9  HN  UNL d   1       0.966  -1.860   0.163  1.00  0.00     0.166 HD
BRANCH   4  10
ATOM     10  N   UNL d   1      -2.396  -4.354   1.973  0.00  0.00    -0.330 N 
ATOM     11  C   UNL d   1      -2.927  -3.493   2.917  0.00  0.00     0.097 A 
ATOM     12  C   UNL d   1      -3.913  -4.139   3.630  0.00  0.00     0.019 A 
ATOM     13  C   UNL d   1      -3.997  -5.451   3.127  0.00  0.00     0.019 A 
ATOM     14  C   UNL d   1      -3.063  -5.561   2.121  0.00  0.00     0.097 A 
ENDBRANCH   4  10
ENDBRANCH   1   3
BRANCH   1  15
ATOM     15  N   UNL d   1       0.748  -1.398   2.362  0.00  0.00    -0.292 N 
ATOM     16  H   UNL d   1       0.499  -0.561   1.844  0.00  0.00     0.183 HD
BRANCH  15  17
ATOM     17  C   UNL d   1       1.542  -1.298   3.501  0.00  0.00     0.187 C 
ATOM     18  S   UNL d   1       1.805  -2.597   4.539  0.00  0.00    -0.040 SA
BRANCH  17  19
ATOM     19  N   UNL d   1       2.105  -0.035   3.611  0.00  0.00    -0.332 N 
ATOM     20  H   UNL d   1       2.418   0.367   2.738  0.00  0.00     0.168 HD
BRANCH  19  21
ATOM     21  C   UNL d   1       2.441   0.668   4.789  0.00  0.00     0.034 A 
ATOM     22  C   UNL d   1       3.364   1.714   4.699  0.00  0.00     0.031 A 
ATOM     23  C   UNL d   1       3.695   2.466   5.833  0.00  0.00     0.026 A 
ATOM     24  C   UNL d   1       3.083   2.190   7.054  0.00  0.00     0.034 A 
ATOM     25  C   UNL d   1       2.139   1.173   7.149  0.00  0.00     0.026 A 
ATOM     26 CL   UNL d   1       3.477   3.121   8.445  0.00  0.00    -0.084 Cl
ATOM     27  C   UNL d   1       1.816   0.419   6.015  0.00  0.00     0.031 A 
ENDBRANCH  19  21
ENDBRANCH  17  19
ENDBRANCH  15  17
ENDBRANCH   1  15
TORSDOF 6
