REMARK  3 active torsions:
REMARK  status: ('A' for Active; 'I' for Inactive)
REMARK       I    between atoms: C_3  and  N_5 
REMARK    1  A    between atoms: C_13  and  C_3 
REMARK    2  A    between atoms: N_5  and  C_7 
REMARK    3  A    between atoms: C_16  and  C_13 
ROOT
ATOM      1  N   UNL d   1      -1.156  -1.013  -0.070  0.00  0.00    -0.359 N 
ATOM      2  HN  UNL d   1      -1.391  -2.005  -0.108  1.00  0.00     0.166 HD
ATOM      3  C   UNL d   1       0.126  -0.613  -0.057  0.00  0.00     0.042 A 
ATOM      4  C   UNL d   1       0.504   0.744  -0.018  0.00  0.00    -0.007 A 
ATOM      5  C   UNL d   1       2.867   0.113   0.041  0.00  0.00     0.035 A 
ATOM      6  C   UNL d   1       1.872   1.098   0.019  0.00  0.00     0.043 A 
ATOM      7  C   UNL d   1       1.125  -1.569  -0.078  0.00  0.00     0.033 A 
ATOM      8  C   UNL d   1      -2.129  -0.075  -0.033  0.00  0.00     0.005 A 
ATOM      9  C   UNL d   1      -0.523   1.697  -0.004  0.00  0.00     0.015 A 
ATOM     10  C   UNL d   1       2.479  -1.223  -0.030  0.00  0.00     0.032 A 
ATOM     11  C   UNL d   1      -1.854   1.285  -0.007  0.00  0.00     0.025 A 
ATOM     12  C   UNL d   1      -3.544  -0.570  -0.007  0.00  0.00     0.068 C 
ENDROOT
BRANCH   5  13
ATOM     13  N   UNL d   1       4.216   0.525   0.125  0.00  0.00    -0.327 N 
ATOM     14  C   UNL d   1       5.316  -0.293   0.345  0.00  0.00     0.226 C 
ATOM     15  O   UNL d   1       5.286  -1.498   0.585  0.00  0.00    -0.273 OA
ATOM     16  H   UNL d   1       4.385   1.523   0.122  0.00  0.00     0.169 HD
BRANCH  14  17
ATOM     17  C   UNL d   1       6.644   0.443   0.273  0.00  0.00     0.141 C 
BRANCH  17  18
ATOM     18  C   UNL d   1       7.124   0.985   1.598  0.00  0.00    -0.050 A 
ATOM     19  C   UNL d   1       7.197   0.162   2.733  0.00  0.00     0.007 A 
ATOM     20  C   UNL d   1       7.701   0.654   3.938  0.00  0.00     0.001 A 
ATOM     21  C   UNL d   1       8.147   1.971   4.021  0.00  0.00     0.000 A 
ATOM     22  C   UNL d   1       8.091   2.796   2.900  0.00  0.00     0.001 A 
ATOM     23  C   UNL d   1       7.585   2.305   1.694  0.00  0.00     0.007 A 
ENDBRANCH  17  18
ENDBRANCH  14  17
ENDBRANCH   5  13
TORSDOF 3
