REMARK  6 active torsions:
REMARK  status: ('A' for Active; 'I' for Inactive)
REMARK    1  A    between atoms: C_11  and  N_1 
REMARK    2  A    between atoms: C_8  and  C_2 
REMARK    3  A    between atoms: C_9  and  C_7 
REMARK    4  A    between atoms: O_15  and  C_9 
REMARK    5  A    between atoms: N_14  and  C_10 
REMARK    6  A    between atoms: C_12  and  N_14 
ROOT
ATOM      1  C   UNL d   1       2.446  -1.265   0.214  0.00  0.00     0.063 C 
ATOM      2  C   UNL d   1       2.652  -2.588   0.183  0.00  0.00     0.066 C 
ENDROOT
BRANCH   1   3
ATOM      3  C   UNL d   1       1.148  -0.721   0.361  0.00  0.00     0.139 A 
ATOM      4  N   UNL d   1       0.776   0.531  -0.152  0.00  0.00    -0.225 N 
ATOM      5  N   UNL d   1      -0.463   0.808   0.337  0.00  0.00     0.001 NA
ATOM      6  N   UNL d   1      -0.857  -0.262   1.004  0.00  0.00    -0.007 NA
ATOM      7  N   UNL d   1       0.115  -1.217   1.016  0.00  0.00    -0.270 N 
ATOM      8  HN  UNL d   1       0.056  -2.139   1.448  1.00  0.00     0.185 HD
BRANCH   4   9
ATOM      9  C   UNL d   1       1.425   1.463  -1.019  0.00  0.00     0.056 A 
ATOM     10  C   UNL d   1       2.596   1.154  -1.726  0.00  0.00     0.031 A 
ATOM     11  C   UNL d   1       3.239   2.125  -2.500  0.00  0.00     0.002 A 
ATOM     12  C   UNL d   1       2.697   3.400  -2.620  0.00  0.00     0.000 A 
ATOM     13  C   UNL d   1       1.498   3.702  -1.981  0.00  0.00     0.002 A 
ATOM     14  C   UNL d   1       0.864   2.743  -1.186  0.00  0.00     0.031 A 
ENDBRANCH   4   9
ENDBRANCH   1   3
BRANCH   2  15
ATOM     15  N   UNL d   1       3.873  -3.208  -0.020  0.00  0.00    -0.269 NA
ATOM     16  H   UNL d   1       4.507  -2.616  -0.580  0.00  0.00     0.133 HD
BRANCH  15  17
ATOM     17  C   UNL d   1       4.638  -3.734   1.068  0.00  0.00     0.029 A 
ATOM     18  C   UNL d   1       6.044  -3.873   0.975  0.00  0.00     0.059 A 
ATOM     19  C   UNL d   1       6.788  -4.367   2.059  0.00  0.00     0.020 A 
ATOM     20  C   UNL d   1       6.139  -4.795   3.215  0.00  0.00     0.001 A 
ATOM     21  C   UNL d   1       4.751  -4.726   3.295  0.00  0.00     0.002 A 
ATOM     22  C   UNL d   1       4.008  -4.208   2.231  0.00  0.00     0.025 A 
BRANCH  18  23
ATOM     23  C   UNL d   1       6.756  -3.402  -0.244  0.00  0.00     0.177 C 
ATOM     24  O   UNL d   1       6.350  -2.463  -0.913  0.00  0.00    -0.646 OA
BRANCH  23  25
ATOM     25  O   UNL d   1       7.855  -4.114  -0.560  0.00  0.00    -0.773 OA
ATOM     26  H   UNL d   1       7.970  -4.945  -0.063  0.00  0.00     0.167 HD
ENDBRANCH  23  25
ENDBRANCH  18  23
ENDBRANCH  15  17
ENDBRANCH   2  15
TORSDOF 6
