REMARK  5 active torsions:
REMARK  status: ('A' for Active; 'I' for Inactive)
REMARK    1  A    between atoms: C_12  and  N_1 
REMARK    2  A    between atoms: S_3  and  C_14 
REMARK    3  A    between atoms: N_7  and  S_3 
REMARK    4  A    between atoms: C_8  and  N_7 
REMARK    5  A    between atoms: C_13  and  C_9 
ROOT
ATOM      1  C   UNL d   1       0.448  -2.634  -0.022  0.00  0.00     0.044 A 
ATOM      2  C   UNL d   1       1.118  -5.351   0.120  0.00  0.00     0.075 A 
ATOM      3  C   UNL d   1       1.630  -4.459   1.064  0.00  0.00     0.027 A 
ATOM      4  C   UNL d   1       0.304  -4.893  -0.919  0.00  0.00     0.027 A 
ATOM      5  C   UNL d   1       1.306  -3.104   0.983  0.00  0.00     0.031 A 
ATOM      6  C   UNL d   1      -0.038  -3.539  -0.980  0.00  0.00     0.031 A 
ENDROOT
BRANCH   1   7
ATOM      7  N   UNL d   1       0.106  -1.253  -0.087  0.00  0.00    -0.262 N 
ATOM      8  C   UNL d   1      -1.200  -0.785  -0.117  0.00  0.00     0.153 A 
ATOM      9  S   UNL d   1      -1.197   0.974  -0.198  0.00  0.00    -0.054 SA
ATOM     10  S   UNL d   1      -2.643  -1.624   0.004  0.00  0.00    -0.052 SA
ATOM     11  C   UNL d   1       0.526   1.073  -0.242  0.00  0.00     0.077 A 
ATOM     12  C   UNL d   1       1.116  -0.291  -0.071  0.00  0.00     0.271 A 
ATOM     13  C   UNL d   1       1.155   2.233  -0.464  0.00  0.00     0.043 C 
ATOM     14  O   UNL d   1       2.316  -0.495   0.053  0.00  0.00    -0.266 OA
BRANCH  13  15
ATOM     15  C   UNL d   1       2.557   2.347  -0.648  0.00  0.00     0.006 A 
ATOM     16  S   UNL d   1       3.205   2.342  -2.242  0.00  0.00    -0.102 SA
ATOM     17  C   UNL d   1       4.802   2.538  -1.669  0.00  0.00     0.050 A 
ATOM     18  C   UNL d   1       4.851   2.627  -0.297  0.00  0.00     0.008 A 
ATOM     19  C   UNL d   1       3.556   2.518   0.291  0.00  0.00     0.019 A 
ENDBRANCH  13  15
ENDBRANCH   1   7
BRANCH   2  20
ATOM     20  S   UNL d   1       1.622  -7.049   0.170  0.00  0.00     0.247 S 
ATOM     21  O   UNL d   1       1.522  -7.573  -1.176  0.00  0.00    -0.205 OA
ATOM     22  O   UNL d   1       2.873  -7.145   0.890  0.00  0.00    -0.205 OA
BRANCH  20  23
ATOM     23  N   UNL d   1       0.389  -7.811   1.031  0.00  0.00    -0.160 NA
ATOM     24  H   UNL d   1       0.234  -8.714   0.587  0.00  0.00     0.148 HD
BRANCH  23  25
ATOM     25  C   UNL d   1       0.670  -7.900   2.409  0.00  0.00     0.136 A 
ATOM     26  N   UNL d   1       0.418  -6.894   3.209  0.00  0.00    -0.350 N 
ATOM     27  C   UNL d   1       0.663  -7.284   4.513  0.00  0.00     0.097 A 
ATOM     28  HN  UNL d   1       0.094  -5.971   2.918  1.00  0.00     0.166 HD
ATOM     29  C   UNL d   1       1.143  -8.568   4.671  0.00  0.00     0.069 A 
ATOM     30  S   UNL d   1       1.189  -9.351   3.145  0.00  0.00    -0.070 SA
ENDBRANCH  23  25
ENDBRANCH  20  23
ENDBRANCH   2  20
TORSDOF 5
