REMARK  5 active torsions:
REMARK  status: ('A' for Active; 'I' for Inactive)
REMARK    1  A    between atoms: C_13  and  C_2 
REMARK    2  A    between atoms: S_10  and  C_5 
REMARK       I    between atoms: C_8  and  N_9 
REMARK       I    between atoms: N_12  and  C_8 
REMARK       I    between atoms: N_9  and  C_11 
REMARK    3  A    between atoms: C_18  and  S_10 
REMARK    4  A    between atoms: C_11  and  C_18 
REMARK    5  A    between atoms: C_20  and  N_12 
ROOT
ATOM      1  S   UNL d   1      -0.713  -3.249   0.727  0.00  0.00    -0.083 SA
ENDROOT
BRANCH   1   2
ATOM      2  C   UNL d   1      -2.054  -4.226   1.215  0.00  0.00     0.163 A 
ATOM      3  N   UNL d   1      -3.316  -3.755   1.471  0.00  0.00    -0.315 N 
ATOM      4  C   UNL d   1      -4.067  -4.866   1.808  0.00  0.00     0.134 A 
ATOM      5  C   UNL d   1      -3.781  -2.395   1.387  0.00  0.00     0.160 C 
ATOM      6  N   UNL d   1      -3.285  -5.928   1.726  0.00  0.00    -0.283 N 
ATOM      7  N   UNL d   1      -2.020  -5.524   1.374  0.00  0.00    -0.278 N 
ATOM      8  HN  UNL d   1      -3.574  -6.892   1.896  1.00  0.00     0.188 HD
ATOM      9  HN  UNL d   1      -1.204  -6.125   1.258  1.00  0.00     0.189 HD
BRANCH   4  10
ATOM     10  C   UNL d   1      -5.494  -4.909   2.144  0.00  0.00     0.012 A 
ATOM     11  C   UNL d   1      -6.303  -5.880   1.546  0.00  0.00     0.032 A 
ATOM     12  C   UNL d   1      -7.647  -5.927   1.880  0.00  0.00     0.088 A 
ATOM     13  N   UNL d   1      -8.227  -5.090   2.761  0.00  0.00    -0.375 N 
ATOM     14  C   UNL d   1      -7.427  -4.178   3.351  0.00  0.00     0.088 A 
ATOM     15  HN  UNL d   1      -9.224  -5.142   2.973  1.00  0.00     0.164 HD
ATOM     16  C   UNL d   1      -6.072  -4.051   3.080  0.00  0.00     0.032 A 
ENDBRANCH   4  10
ENDBRANCH   1   2
BRANCH   1  17
ATOM     17  C   UNL d   1       0.643  -4.007   1.672  0.00  0.00     0.185 C 
BRANCH  17  18
ATOM     18  C   UNL d   1       1.405  -5.109   0.941  0.00  0.00     0.235 C 
ATOM     19  N   UNL d   1       1.564  -4.918  -0.419  0.00  0.00    -0.278 N 
ATOM     20  C   UNL d   1       2.490  -5.462  -1.283  0.00  0.00     0.327 C 
ATOM     21  H   UNL d   1       1.070  -4.144  -0.841  0.00  0.00     0.173 HD
ATOM     22  N   UNL d   1       3.224  -6.517  -0.809  0.00  0.00    -0.309 N 
ATOM     23  O   UNL d   1       2.588  -4.943  -2.394  0.00  0.00    -0.247 OA
ATOM     24  H   UNL d   1       2.880  -6.942   0.048  0.00  0.00     0.170 HD
ATOM     25  O   UNL d   1       1.931  -6.042   1.548  0.00  0.00    -0.272 OA
BRANCH  22  26
ATOM     26  C   UNL d   1       4.273  -7.176  -1.495  0.00  0.00     0.036 A 
ATOM     27  C   UNL d   1       4.983  -6.588  -2.547  0.00  0.00     0.029 A 
ATOM     28  C   UNL d   1       5.994  -7.292  -3.210  0.00  0.00     0.002 A 
ATOM     29  C   UNL d   1       6.301  -8.596  -2.833  0.00  0.00     0.000 A 
ATOM     30  C   UNL d   1       5.616  -9.184  -1.773  0.00  0.00     0.002 A 
ATOM     31  C   UNL d   1       4.619  -8.472  -1.093  0.00  0.00     0.029 A 
ENDBRANCH  22  26
ENDBRANCH  17  18
ENDBRANCH   1  17
TORSDOF 5
