REMARK  3 active torsions:
REMARK  status: ('A' for Active; 'I' for Inactive)
REMARK    1  A    between atoms: C_15  and  C_5 
REMARK    2  A    between atoms: N_19  and  C_6 
REMARK    3  A    between atoms: N_8  and  C_14 
ROOT
ATOM      1  C   UNL d   1      -0.326   0.941  -0.147  0.00  0.00     0.066 A 
ATOM      2  C   UNL d   1       0.125  -0.318  -0.059  0.00  0.00     0.103 A 
ATOM      3  C   UNL d   1      -2.653  -0.031  -0.125  0.00  0.00     0.081 A 
ATOM      4  C   UNL d   1       0.621   2.072  -0.250  0.00  0.00     0.298 C 
ATOM      5  C   UNL d   1      -1.808   1.237  -0.187  0.00  0.00     0.108 A 
ATOM      6  C   UNL d   1      -2.091  -1.253  -0.008  0.00  0.00     0.138 A 
ATOM      7  O   UNL d   1      -0.712  -1.414   0.011  0.00  0.00    -0.296 OA
ATOM      8  C   UNL d   1       1.555  -0.607  -0.023  0.00  0.00     0.033 A 
ATOM      9  O   UNL d   1       1.970   1.788  -0.076  0.00  0.00    -0.274 OA
ATOM     10  C   UNL d   1       2.440   0.466  -0.003  0.00  0.00     0.092 A 
ATOM     11  C   UNL d   1      -4.074   0.108  -0.173  0.00  0.00     0.100 C 
ATOM     12  N   UNL d   1      -5.228   0.204  -0.221  0.00  0.00    -0.191 NA
ATOM     13  O   UNL d   1       0.242   3.214  -0.481  0.00  0.00    -0.259 OA
ATOM     14  C   UNL d   1       2.083  -1.903   0.004  0.00  0.00     0.017 A 
ATOM     15  C   UNL d   1       3.821   0.284   0.065  0.00  0.00     0.038 A 
ATOM     16  C   UNL d   1       3.466  -2.103   0.060  0.00  0.00     0.001 A 
ATOM     17  C   UNL d   1       4.334  -1.011   0.096  0.00  0.00     0.003 A 
ENDROOT
BRANCH   5  18
ATOM     18  C   UNL d   1      -2.236   2.224   0.905  0.00  0.00    -0.044 A 
ATOM     19  C   UNL d   1      -2.148   1.889   2.268  0.00  0.00     0.011 A 
ATOM     20  C   UNL d   1      -2.551   2.800   3.248  0.00  0.00     0.036 A 
ATOM     21  C   UNL d   1      -3.039   4.057   2.869  0.00  0.00     0.102 A 
ATOM     22  C   UNL d   1      -3.131   4.407   1.519  0.00  0.00     0.036 A 
ATOM     23  C   UNL d   1      -2.733   3.489   0.544  0.00  0.00     0.011 A 
BRANCH  21  24
ATOM     24  N   UNL d   1      -3.451   5.018   3.899  0.00  0.00    -0.116 N 
ATOM     25  O   UNL d   1      -3.352   4.670   5.085  0.00  0.00    -0.532 OA
ATOM     26  O   UNL d   1      -3.872   6.122   3.525  0.00  0.00    -0.532 OA
ENDBRANCH  21  24
ENDBRANCH   5  18
BRANCH   6  27
ATOM     27  N   UNL d   1      -2.764  -2.444   0.107  0.00  0.00    -0.282 NA
ATOM     28  H   UNL d   1      -3.731  -2.457  -0.209  0.00  0.00     0.126 HD
ATOM     29  H   UNL d   1      -2.220  -3.242  -0.210  0.00  0.00     0.126 HD
ENDBRANCH   6  27
TORSDOF 3
