REMARK  1 active torsions:
REMARK  status: ('A' for Active; 'I' for Inactive)
REMARK    1  A    between atoms: C_17  and  C_13 
ROOT
ATOM      1  N   UNL d   1       0.950  -0.539  -0.144  0.00  0.00    -0.196 N 
ATOM      2  C   UNL d   1      -1.462  -0.630  -0.016  0.00  0.00     0.075 A 
ATOM      3  C   UNL d   1      -1.399   0.743  -0.079  0.00  0.00     0.092 A 
ATOM      4  C   UNL d   1      -0.197  -1.359  -0.035  0.00  0.00     0.282 A 
ATOM      5  C   UNL d   1       0.824   0.841  -0.286  0.00  0.00     0.170 A 
ATOM      6  N   UNL d   1      -0.289   1.502  -0.229  0.00  0.00    -0.329 N 
ATOM      7  HN  UNL d   1      -0.326   2.519  -0.292  1.00  0.00     0.168 HD
ATOM      8  N   UNL d   1       2.153  -1.232  -0.132  0.00  0.00    -0.292 N 
ATOM      9  HN  UNL d   1       2.137  -2.246  -0.240  1.00  0.00     0.187 HD
ATOM     10  S   UNL d   1      -2.937   1.462  -0.001  0.00  0.00    -0.076 SA
ATOM     11  C   UNL d   1      -2.826  -1.117   0.025  0.00  0.00    -0.031 A 
ATOM     12  C   UNL d   1      -3.724  -0.056   0.029  0.00  0.00    -0.012 A 
ATOM     13  C   UNL d   1       3.296  -0.636   0.012  0.00  0.00     0.046 C 
ATOM     14  S   UNL d   1       2.240   1.784  -0.667  0.00  0.00    -0.086 SA
ATOM     15  O   UNL d   1      -0.157  -2.586   0.044  0.00  0.00    -0.265 OA
ATOM     16  C   UNL d   1       3.485   0.844   0.189  0.00  0.00     0.142 C 
ATOM     17  C   UNL d   1      -3.251  -2.554   0.031  0.00  0.00     0.050 C 
ATOM     18  C   UNL d   1      -5.220  -0.082   0.041  0.00  0.00     0.057 C 
ENDROOT
BRANCH  13  19
ATOM     19  C   UNL d   1       4.519  -1.494   0.097  0.00  0.00    -0.011 A 
ATOM     20  C   UNL d   1       4.532  -2.742  -0.547  0.00  0.00     0.016 A 
ATOM     21  C   UNL d   1       5.656  -3.567  -0.460  0.00  0.00     0.043 A 
ATOM     22  C   UNL d   1       6.758  -3.153   0.275  0.00  0.00     0.116 A 
ATOM     23  C   UNL d   1       6.761  -1.925   0.932  0.00  0.00     0.043 A 
ATOM     24  F   UNL d   1       7.832  -3.948   0.366  0.00  0.00    -0.206 F 
ATOM     25  C   UNL d   1       5.641  -1.095   0.844  0.00  0.00     0.016 A 
ENDBRANCH  13  19
TORSDOF 1
