REMARK  2 active torsions:
REMARK  status: ('A' for Active; 'I' for Inactive)
REMARK    1  A    between atoms: C_2  and  C_1 
REMARK    2  A    between atoms: C_17  and  C_15 
ROOT
ATOM      1  C   UNL d   1      -2.035   0.957  -0.003  0.00  0.00     0.055 A 
ATOM      2  C   UNL d   1      -2.159  -0.205   0.830  0.00  0.00     0.059 A 
ATOM      3  C   UNL d   1      -1.236  -1.120   0.327  0.00  0.00     0.132 A 
ATOM      4  C   UNL d   1      -1.049   0.665  -0.934  0.00  0.00     0.065 A 
ATOM      5  O   UNL d   1      -0.570  -0.593  -0.730  0.00  0.00    -0.310 OA
ATOM      6  C   UNL d   1      -2.925  -0.622   1.940  0.00  0.00     0.172 A 
ATOM      7  C   UNL d   1      -1.035  -2.399   0.848  0.00  0.00     0.192 A 
ATOM      8  C   UNL d   1      -2.740  -1.901   2.478  0.00  0.00     0.197 A 
ATOM      9  C   UNL d   1      -1.809  -2.775   1.938  0.00  0.00     0.199 A 
ATOM     10  F   UNL d   1      -3.839   0.177   2.504  0.00  0.00    -0.202 F 
ATOM     11  F   UNL d   1      -0.135  -3.239   0.321  0.00  0.00    -0.200 F 
ATOM     12  F   UNL d   1      -3.476  -2.286   3.531  0.00  0.00    -0.199 F 
ATOM     13  F   UNL d   1      -1.656  -3.996   2.471  0.00  0.00    -0.199 F 
ATOM     14  C   UNL d   1      -0.416   1.379  -2.066  0.00  0.00     0.077 C 
ENDROOT
BRANCH   1  15
ATOM     15  C   UNL d   1      -2.812   2.191   0.121  0.00  0.00     0.141 A 
ATOM     16  N   UNL d   1      -3.731   2.350   1.121  0.00  0.00    -0.322 N 
ATOM     17  C   UNL d   1      -4.213   3.551   0.890  0.00  0.00     0.156 A 
ATOM     18  HN  UNL d   1      -3.982   1.697   1.864  1.00  0.00     0.169 HD
ATOM     19  O   UNL d   1      -3.640   4.148  -0.199  0.00  0.00    -0.222 OA
ATOM     20  N   UNL d   1      -2.709   3.241  -0.705  0.00  0.00    -0.242 N 
ATOM     21  HN  UNL d   1      -2.096   3.351  -1.513  1.00  0.00     0.196 HD
BRANCH  17  22
ATOM     22  C   UNL d   1      -5.276   4.320   1.622  0.00  0.00     0.016 C 
ATOM     23  C   UNL d   1      -5.778   3.510   2.831  0.00  0.00     0.023 C 
ATOM     24  C   UNL d   1      -4.707   5.656   2.129  0.00  0.00     0.023 C 
ATOM     25  C   UNL d   1      -6.464   4.593   0.684  0.00  0.00     0.023 C 
ENDBRANCH  17  22
ENDBRANCH   1  15
TORSDOF 2
