REMARK  7 active torsions:
REMARK  status: ('A' for Active; 'I' for Inactive)
REMARK    1  A    between atoms: S_8  and  C_1 
REMARK    2  A    between atoms: C_11  and  C_2 
REMARK    3  A    between atoms: C_12  and  C_5 
REMARK    4  A    between atoms: C_7  and  C_9 
REMARK    5  A    between atoms: O_10  and  C_7 
REMARK    6  A    between atoms: C_9  and  S_8 
REMARK    7  A    between atoms: C_14  and  O_10 
ROOT
ATOM      1  C   UNL d   1       0.062   0.983  -0.105  0.00  0.00     0.189 A 
ATOM      2  C   UNL d   1      -0.611  -1.030  -0.120  0.00  0.00     0.080 A 
ATOM      3  N   UNL d   1      -1.042   0.271  -0.189  0.00  0.00    -0.328 N 
ATOM      4  HN  UNL d   1      -2.000   0.610  -0.282  1.00  0.00     0.168 HD
ATOM      5  C   UNL d   1       0.773  -1.064  -0.096  0.00  0.00     0.116 A 
ATOM      6  O   UNL d   1       1.205   0.238  -0.057  0.00  0.00    -0.285 OA
ENDROOT
BRANCH   1   7
ATOM      7  S   UNL d   1       0.083   2.716  -0.119  0.00  0.00    -0.066 SA
BRANCH   7   8
ATOM      8  C   UNL d   1      -1.014   3.143   1.302  0.00  0.00     0.097 C 
ATOM      9  C   UNL d   1      -1.151   4.677   1.259  0.00  0.00     0.038 C 
ATOM     10  C   UNL d   1      -2.434   2.570   1.180  0.00  0.00     0.038 C 
BRANCH   8  11
ATOM     11  C   UNL d   1      -0.316   2.708   2.608  0.00  0.00     0.278 C 
ATOM     12  O   UNL d   1       0.430   3.428   3.266  0.00  0.00    -0.263 OA
BRANCH  11  13
ATOM     13  O   UNL d   1      -0.612   1.419   2.919  0.00  0.00    -0.310 OA
BRANCH  13  14
ATOM     14  C   UNL d   1      -0.085   0.755   4.098  0.00  0.00     0.060 C 
ATOM     15  C   UNL d   1      -0.471   1.486   5.390  0.00  0.00     0.045 C 
ATOM     16  C   UNL d   1      -0.756  -0.631   4.089  0.00  0.00     0.045 C 
ATOM     17  C   UNL d   1       1.432   0.569   3.996  0.00  0.00     0.045 C 
ENDBRANCH  13  14
ENDBRANCH  11  13
ENDBRANCH   8  11
ENDBRANCH   7   8
ENDBRANCH   1   7
BRANCH   2  18
ATOM     18  C   UNL d   1      -1.519  -2.161  -0.108  0.00  0.00    -0.006 A 
ATOM     19  C   UNL d   1      -2.685  -2.128  -0.881  0.00  0.00     0.014 A 
ATOM     20  C   UNL d   1      -3.521  -3.247  -0.945  0.00  0.00     0.001 A 
ATOM     21  C   UNL d   1      -3.198  -4.402  -0.233  0.00  0.00     0.000 A 
ATOM     22  C   UNL d   1      -2.067  -4.426   0.579  0.00  0.00     0.001 A 
ATOM     23  C   UNL d   1      -1.246  -3.302   0.658  0.00  0.00     0.014 A 
ENDBRANCH   2  18
BRANCH   5  24
ATOM     24  C   UNL d   1       1.807  -2.085  -0.125  0.00  0.00     0.000 A 
ATOM     25  C   UNL d   1       2.992  -1.927   0.605  0.00  0.00     0.014 A 
ATOM     26  C   UNL d   1       3.951  -2.942   0.628  0.00  0.00     0.001 A 
ATOM     27  C   UNL d   1       3.737  -4.124  -0.080  0.00  0.00     0.000 A 
ATOM     28  C   UNL d   1       2.574  -4.286  -0.826  0.00  0.00     0.001 A 
ATOM     29  C   UNL d   1       1.623  -3.265  -0.860  0.00  0.00     0.014 A 
ENDBRANCH   5  24
TORSDOF 7
