REMARK  3 active torsions:
REMARK  status: ('A' for Active; 'I' for Inactive)
REMARK    1  A    between atoms: C_2  and  C_1 
REMARK    2  A    between atoms: O_3  and  C_1 
REMARK    3  A    between atoms: C_4  and  O_3 
ROOT
ATOM      1  C   UNL d   1      -1.073   0.665   1.042  0.00  0.00     0.107 A 
ATOM      2  C   UNL d   1      -1.749   1.877   1.238  0.00  0.00     0.076 A 
ATOM      3  N   UNL d   1      -1.080   3.029   1.484  0.00  0.00    -0.363 N 
ATOM      4  HN  UNL d   1      -0.063   3.034   1.558  1.00  0.00     0.165 HD
ATOM      5  C   UNL d   1      -3.157   1.837   1.198  0.00  0.00    -0.007 A 
ATOM      6  C   UNL d   1      -1.733  -0.552   0.856  0.00  0.00     0.040 A 
ATOM      7  C   UNL d   1      -3.122  -0.573   0.832  0.00  0.00     0.004 A 
ATOM      8  C   UNL d   1      -1.786   4.168   1.630  0.00  0.00     0.088 A 
ATOM      9  C   UNL d   1      -3.832   0.617   0.998  0.00  0.00     0.014 A 
ATOM     10  C   UNL d   1      -3.857   3.038   1.381  0.00  0.00     0.015 A 
ATOM     11  C   UNL d   1      -3.163   4.224   1.590  0.00  0.00     0.018 A 
ENDROOT
BRANCH   1  12
ATOM     12  O   UNL d   1       0.326   0.603   1.200  0.00  0.00    -0.272 OA
BRANCH  12  13
ATOM     13  C   UNL d   1       1.037   1.485   0.410  0.00  0.00     0.304 C 
ATOM     14  O   UNL d   1       0.828   1.737  -0.764  0.00  0.00    -0.259 OA
BRANCH  13  15
ATOM     15  C   UNL d   1       2.072   2.116   1.250  0.00  0.00     0.116 A 
ATOM     16  C   UNL d   1       2.389   3.462   1.057  0.00  0.00     0.135 A 
ATOM     17  F   UNL d   1       1.809   4.183   0.089  0.00  0.00    -0.205 F 
ATOM     18  C   UNL d   1       3.301   4.108   1.896  0.00  0.00     0.043 A 
ATOM     19  C   UNL d   1       3.909   3.411   2.939  0.00  0.00     0.006 A 
ATOM     20  C   UNL d   1       3.611   2.064   3.129  0.00  0.00     0.043 A 
ATOM     21  C   UNL d   1       2.701   1.426   2.284  0.00  0.00     0.135 A 
ATOM     22  F   UNL d   1       2.462   0.122   2.497  0.00  0.00    -0.205 F 
ENDBRANCH  13  15
ENDBRANCH  12  13
ENDBRANCH   1  12
TORSDOF 3
