REMARK  4 active torsions:
REMARK  status: ('A' for Active; 'I' for Inactive)
REMARK       I    between atoms: C_6  and  N_2 
REMARK       I    between atoms: N_10  and  C_6 
REMARK    1  A    between atoms: S_13  and  C_7 
REMARK    2  A    between atoms: C_12  and  N_10 
REMARK    3  A    between atoms: C_22  and  S_13 
REMARK    4  A    between atoms: C_17  and  C_22 
ROOT
ATOM      1  C   UNL d   1       0.221   0.668   0.305  0.00  0.00     0.707 A 
ATOM      2  N   UNL d   1      -0.788   1.613   0.180  0.00  0.00    -0.131 N 
ATOM      3  N   UNL d   1      -0.076  -0.673   0.279  0.00  0.00    -0.159 N 
ATOM      4  N   UNL d   1       1.521   0.809   0.459  0.00  0.00    -0.129 N 
ATOM      5  HN  UNL d   1       2.031   1.691   0.479  1.00  0.00     0.205 HD
ATOM      6  C   UNL d   1      -0.547   2.983   0.049  0.00  0.00     0.341 C 
ATOM      7  C   UNL d   1       1.099  -1.331   0.471  0.00  0.00     0.177 A 
ATOM      8  N   UNL d   1       2.072  -0.457   0.590  0.00  0.00    -0.265 N 
ATOM      9  HN  UNL d   1       3.057  -0.670   0.751  1.00  0.00     0.189 HD
ATOM     10  N   UNL d   1       0.748   3.355  -0.233  0.00  0.00    -0.308 N 
ATOM     11  O   UNL d   1      -1.489   3.778   0.114  0.00  0.00    -0.246 OA
ATOM     12  C   UNL d   1      -1.406  -1.207   0.085  0.00  0.00     0.151 C 
ATOM     13  C   UNL d   1      -2.181   1.168   0.265  0.00  0.00     0.154 C 
ATOM     14  C   UNL d   1      -2.369  -0.159  -0.463  0.00  0.00     0.042 C 
ATOM     15  H   UNL d   1       1.460   2.655  -0.051  0.00  0.00     0.170 HD
ENDROOT
BRANCH  10  16
ATOM     16  C   UNL d   1       1.192   4.615  -0.703  0.00  0.00     0.037 A 
ATOM     17  C   UNL d   1       0.335   5.656  -1.073  0.00  0.00     0.053 A 
ATOM     18  C   UNL d   1       0.849   6.852  -1.579  0.00  0.00     0.036 A 
ATOM     19 CL   UNL d   1      -0.225   8.116  -2.044  0.00  0.00    -0.084 Cl
ATOM     20  C   UNL d   1       2.222   7.029  -1.727  0.00  0.00     0.024 A 
ATOM     21  C   UNL d   1       3.086   5.998  -1.363  0.00  0.00     0.004 A 
ATOM     22  C   UNL d   1       2.572   4.798  -0.857  0.00  0.00     0.029 A 
ENDBRANCH  10  16
BRANCH   7  23
ATOM     23  S   UNL d   1       1.212  -3.054   0.475  0.00  0.00    -0.088 SA
BRANCH  23  24
ATOM     24  C   UNL d   1       2.574  -3.334   1.638  0.00  0.00     0.108 C 
BRANCH  24  25
ATOM     25  C   UNL d   1       2.898  -4.801   1.658  0.00  0.00    -0.026 C 
ATOM     26  C   UNL d   1       4.109  -5.313   1.396  0.00  0.00     0.007 C 
ENDBRANCH  24  25
ENDBRANCH  23  24
ENDBRANCH   7  23
TORSDOF 4
