REMARK  7 active torsions:
REMARK  status: ('A' for Active; 'I' for Inactive)
REMARK       I    between atoms: N_4  and  C_1 
REMARK    1  A    between atoms: C_11  and  C_1 
REMARK    2  A    between atoms: C_2  and  C_5 
REMARK    3  A    between atoms: O_16  and  C_2 
REMARK    4  A    between atoms: O_20  and  C_3 
REMARK    5  A    between atoms: C_15  and  N_4 
REMARK    6  A    between atoms: O_21  and  C_6 
REMARK    7  A    between atoms: C_10  and  C_11 
ROOT
ATOM      1  C   UNL d   1       0.842   0.264  -0.210  0.00  0.00     0.226 C 
ATOM      2  N   UNL d   1      -0.030   0.215  -1.284  0.00  0.00    -0.327 N 
ATOM      3  O   UNL d   1       0.502   0.299   0.973  0.00  0.00    -0.273 OA
ATOM      4  H   UNL d   1       0.373  -0.002  -2.186  0.00  0.00     0.169 HD
ENDROOT
BRANCH   1   5
ATOM      5  C   UNL d   1       2.328   0.310  -0.594  0.00  0.00     0.141 C 
BRANCH   5   6
ATOM      6  C   UNL d   1       3.089  -1.001  -0.571  0.00  0.00    -0.047 A 
ATOM      7  C   UNL d   1       2.833  -1.962   0.418  0.00  0.00     0.047 A 
ATOM      8  C   UNL d   1       3.646  -3.098   0.604  0.00  0.00     0.102 A 
ATOM      9  C   UNL d   1       4.727  -3.307  -0.266  0.00  0.00     0.101 A 
ATOM     10  C   UNL d   1       4.969  -2.367  -1.280  0.00  0.00     0.040 A 
ATOM     11  C   UNL d   1       4.178  -1.218  -1.423  0.00  0.00     0.010 A 
BRANCH   8  12
ATOM     12  O   UNL d   1       3.410  -4.010   1.595  0.00  0.00    -0.353 OA
ATOM     13  C   UNL d   1       2.590  -3.648   2.702  0.00  0.00     0.210 C 
ENDBRANCH   8  12
BRANCH   9  14
ATOM     14  O   UNL d   1       5.652  -4.318  -0.278  0.00  0.00    -0.353 OA
ATOM     15  C   UNL d   1       5.661  -5.306   0.742  0.00  0.00     0.210 C 
ENDBRANCH   9  14
ENDBRANCH   5   6
ENDBRANCH   1   5
BRANCH   2  16
ATOM     16  C   UNL d   1      -1.428   0.463  -1.273  0.00  0.00     0.034 A 
ATOM     17  C   UNL d   1      -2.152   0.897  -0.158  0.00  0.00     0.030 A 
ATOM     18  C   UNL d   1      -3.519   1.245  -0.257  0.00  0.00     0.020 A 
ATOM     19  C   UNL d   1      -4.186   1.155  -1.479  0.00  0.00     0.037 A 
ATOM     20  C   UNL d   1      -3.473   0.671  -2.587  0.00  0.00     0.020 A 
ATOM     21  C   UNL d   1      -2.118   0.331  -2.485  0.00  0.00     0.030 A 
BRANCH  19  22
ATOM     22  C   UNL d   1      -5.603   1.565  -1.726  0.00  0.00     0.176 C 
ATOM     23  O   UNL d   1      -6.090   1.534  -2.846  0.00  0.00    -0.646 OA
BRANCH  22  24
ATOM     24  O   UNL d   1      -6.322   1.989  -0.671  0.00  0.00    -0.773 OA
ATOM     25  H   UNL d   1      -5.876   1.961   0.195  0.00  0.00     0.167 HD
ENDBRANCH  22  24
ENDBRANCH  19  22
ENDBRANCH   2  16
TORSDOF 7
