REMARK  5 active torsions:
REMARK  status: ('A' for Active; 'I' for Inactive)
REMARK       I    between atoms: N_2  and  C_1 
REMARK    1  A    between atoms: C_3  and  C_1 
REMARK    2  A    between atoms: C_12  and  N_2 
REMARK    3  A    between atoms: O_10  and  C_6 
REMARK    4  A    between atoms: C_7  and  C_8 
REMARK    5  A    between atoms: C_16  and  O_10 
ROOT
ATOM      1  N   UNL d   1       2.328  -4.811   0.803  0.00  0.00    -0.344 N 
ATOM      2  HN  UNL d   1       2.584  -5.561   1.445  1.00  0.00     0.167 HD
ATOM      3  C   UNL d   1       1.349  -4.970  -0.108  0.00  0.00     0.148 A 
ATOM      4  C   UNL d   1       2.649  -2.538   0.002  0.00  0.00     0.050 A 
ATOM      5  C   UNL d   1       2.961  -3.611   0.830  0.00  0.00     0.119 A 
ATOM      6  C   UNL d   1       0.953  -3.963  -0.975  0.00  0.00     0.059 A 
ATOM      7  C   UNL d   1       1.619  -2.733  -0.923  0.00  0.00     0.035 A 
ENDROOT
BRANCH   3   8
ATOM      8  O   UNL d   1       0.666  -6.178  -0.167  0.00  0.00    -0.294 OA
BRANCH   8   9
ATOM      9  C   UNL d   1       1.369  -7.316   0.168  0.00  0.00     0.077 A 
ATOM     10  C   UNL d   1       0.716  -8.289   0.917  0.00  0.00     0.038 A 
ATOM     11  C   UNL d   1       1.370  -9.488   1.240  0.00  0.00     0.011 A 
ATOM     12  C   UNL d   1       2.686  -9.748   0.808  0.00  0.00    -0.050 A 
ATOM     13  C   UNL d   1       3.318  -8.752   0.045  0.00  0.00     0.011 A 
ATOM     14  C   UNL d   1       2.665  -7.561  -0.284  0.00  0.00     0.038 A 
BRANCH  12  15
ATOM     15  C   UNL d   1       3.377 -11.084   1.140  0.00  0.00    -0.024 C 
ATOM     16  C   UNL d   1       4.821 -11.186   0.596  0.00  0.00     0.019 C 
ATOM     17  C   UNL d   1       3.454 -11.287   2.667  0.00  0.00     0.019 C 
ATOM     18  C   UNL d   1       2.572 -12.243   0.514  0.00  0.00     0.019 C 
ENDBRANCH  12  15
ENDBRANCH   8   9
ENDBRANCH   3   8
BRANCH   4  19
ATOM     19  N   UNL d   1       3.278  -1.270   0.069  0.00  0.00    -0.322 N 
ATOM     20  C   UNL d   1       4.287  -0.913   0.951  0.00  0.00     0.256 C 
ATOM     21  O   UNL d   1       4.874  -1.669   1.717  0.00  0.00    -0.267 OA
ATOM     22  H   UNL d   1       2.947  -0.564  -0.579  0.00  0.00     0.169 HD
BRANCH  20  23
ATOM     23  C   UNL d   1       4.644   0.535   0.969  0.00  0.00     0.038 A 
ATOM     24  C   UNL d   1       5.979   0.976   1.080  0.00  0.00    -0.046 A 
ATOM     25  C   UNL d   1       7.166   0.053   1.161  0.00  0.00     0.049 C 
ATOM     26  C   UNL d   1       6.225   2.356   1.192  0.00  0.00     0.007 A 
ATOM     27  C   UNL d   1       5.177   3.277   1.192  0.00  0.00     0.001 A 
ATOM     28  C   UNL d   1       3.862   2.836   1.089  0.00  0.00     0.001 A 
ATOM     29  C   UNL d   1       3.594   1.471   0.980  0.00  0.00     0.017 A 
ENDBRANCH  20  23
ENDBRANCH   4  19
TORSDOF 5
