REMARK  5 active torsions:
REMARK  status: ('A' for Active; 'I' for Inactive)
REMARK    1  A    between atoms: C_17  and  C_3 
REMARK    2  A    between atoms: O_10  and  C_4 
REMARK    3  A    between atoms: C_12  and  O_10 
REMARK    4  A    between atoms: C_11  and  C_13 
REMARK    5  A    between atoms: C_14  and  C_12 
ROOT
ATOM      1  N   UNL d   1       0.743   0.410  -0.247  0.00  0.00    -0.280 N 
ATOM      2  C   UNL d   1       1.674   1.446  -0.405  0.00  0.00     0.266 A 
ATOM      3  C   UNL d   1       3.164   1.036  -0.375  0.00  0.00     0.078 A 
ATOM      4  C   UNL d   1       3.491  -0.281  -0.181  0.00  0.00     0.108 A 
ATOM      5  C   UNL d   1       1.141  -0.898  -0.134  0.00  0.00     0.066 A 
ATOM      6  C   UNL d   1      -0.639   0.451  -0.153  0.00  0.00     0.027 A 
ATOM      7  C   UNL d   1       2.457  -1.352  -0.111  0.00  0.00     0.027 A 
ATOM      8  C   UNL d   1      -1.111  -0.847  -0.065  0.00  0.00    -0.022 A 
ATOM      9  C   UNL d   1       0.014  -1.708  -0.050  0.00  0.00     0.000 A 
ATOM     10  O   UNL d   1       1.257   2.590  -0.514  0.00  0.00    -0.267 OA
ATOM     11  C   UNL d   1       2.599  -2.745  -0.031  0.00  0.00     0.017 A 
ATOM     12  C   UNL d   1      -1.495   1.674  -0.089  0.00  0.00     0.058 C 
ATOM     13  C   UNL d   1       0.186  -3.095   0.038  0.00  0.00     0.014 A 
ATOM     14  C   UNL d   1      -2.564  -1.185   0.005  0.00  0.00     0.041 C 
ATOM     15  C   UNL d   1       1.489  -3.602   0.039  0.00  0.00     0.002 A 
ATOM     16  C   UNL d   1      -2.966   1.305  -0.371  0.00  0.00     0.006 C 
ATOM     17  C   UNL d   1      -3.410   0.042   0.384  0.00  0.00     0.005 C 
ENDROOT
BRANCH   4  18
ATOM     18  O   UNL d   1       4.820  -0.678   0.175  0.00  0.00    -0.273 OA
BRANCH  18  19
ATOM     19  C   UNL d   1       5.534  -1.605  -0.527  0.00  0.00     0.298 C 
ATOM     20  O   UNL d   1       5.234  -2.127  -1.590  0.00  0.00    -0.259 OA
BRANCH  19  21
ATOM     21  C   UNL d   1       6.845  -1.823   0.148  0.00  0.00     0.040 A 
ATOM     22  C   UNL d   1       6.989  -1.965   1.542  0.00  0.00     0.033 A 
ATOM     23  C   UNL d   1       8.276  -2.072   2.120  0.00  0.00     0.048 A 
ATOM     24  C   UNL d   1       9.401  -1.987   1.284  0.00  0.00     0.016 A 
ATOM     25  C   UNL d   1       9.255  -1.917  -0.101  0.00  0.00     0.002 A 
ATOM     26  C   UNL d   1       7.982  -1.867  -0.668  0.00  0.00     0.017 A 
BRANCH  23  27
ATOM     27  C   UNL d   1       8.489  -2.252   3.611  0.00  0.00     0.417 C 
ATOM     28  F   UNL d   1       7.441  -2.860   4.231  0.00  0.00    -0.166 F 
ATOM     29  F   UNL d   1       9.580  -3.022   3.891  0.00  0.00    -0.166 F 
ATOM     30  F   UNL d   1       8.686  -1.075   4.256  0.00  0.00    -0.166 F 
ENDBRANCH  23  27
ENDBRANCH  19  21
ENDBRANCH  18  19
ENDBRANCH   4  18
BRANCH   3  31
ATOM     31  C   UNL d   1       4.155   2.175  -0.521  0.00  0.00    -0.018 A 
ATOM     32  C   UNL d   1       3.858   3.263  -1.372  0.00  0.00     0.012 A 
ATOM     33  C   UNL d   1       4.677   4.410  -1.455  0.00  0.00     0.001 A 
ATOM     34  C   UNL d   1       5.848   4.476  -0.718  0.00  0.00     0.000 A 
ATOM     35  C   UNL d   1       6.196   3.404   0.097  0.00  0.00     0.001 A 
ATOM     36  C   UNL d   1       5.356   2.277   0.198  0.00  0.00     0.012 A 
ENDBRANCH   3  31
TORSDOF 5
