REMARK  4 active torsions:
REMARK  status: ('A' for Active; 'I' for Inactive)
REMARK    1  A    between atoms: C_10  and  C_2 
REMARK    2  A    between atoms: C_5  and  C_12 
REMARK    3  A    between atoms: N_8  and  N_14 
REMARK    4  A    between atoms: N_14  and  C_17 
ROOT
ATOM      1  N   UNL d   1       5.791  -4.323   0.035  0.00  0.00    -0.301 N 
ATOM      2  H   UNL d   1       6.641  -3.885   0.384  0.00  0.00     0.187 HD
ENDROOT
BRANCH   1   3
ATOM      3  N   UNL d   1       5.888  -5.218  -0.987  0.00  0.00    -0.311 N 
ATOM      4  C   UNL d   1       7.004  -5.870  -1.060  0.00  0.00     0.120 C 
ATOM      5  HN  UNL d   1       5.130  -5.366  -1.653  1.00  0.00     0.186 HD
BRANCH   4   6
ATOM      6  C   UNL d   1       7.263  -6.832  -2.155  0.00  0.00     0.008 A 
ATOM      7  C   UNL d   1       7.950  -8.021  -1.856  0.00  0.00     0.046 A 
ATOM      8 CL   UNL d   1       8.513  -8.405  -0.265  0.00  0.00    -0.083 Cl
ATOM      9  C   UNL d   1       8.183  -8.973  -2.854  0.00  0.00     0.025 A 
ATOM     10  C   UNL d   1       7.737  -8.748  -4.153  0.00  0.00     0.002 A 
ATOM     11  C   UNL d   1       7.073  -7.563  -4.462  0.00  0.00     0.007 A 
ATOM     12  C   UNL d   1       6.843  -6.581  -3.481  0.00  0.00    -0.049 A 
ATOM     13  C   UNL d   1       6.144  -5.323  -3.929  0.00  0.00     0.049 C 
ENDBRANCH   4   6
ENDBRANCH   1   3
BRANCH   1  14
ATOM     14  C   UNL d   1       4.684  -3.447  -0.024  0.00  0.00     0.048 A 
ATOM     15  C   UNL d   1       3.475  -3.845  -0.607  0.00  0.00     0.032 A 
ATOM     16  C   UNL d   1       2.368  -2.992  -0.640  0.00  0.00     0.016 A 
ATOM     17  C   UNL d   1       2.443  -1.713  -0.082  0.00  0.00    -0.008 A 
ATOM     18  C   UNL d   1       3.651  -1.305   0.502  0.00  0.00     0.016 A 
ATOM     19  C   UNL d   1       4.754  -2.170   0.547  0.00  0.00     0.032 A 
BRANCH  17  20
ATOM     20  C   UNL d   1       1.299  -0.808  -0.099  0.00  0.00     0.063 A 
ATOM     21  N   UNL d   1       1.464   0.573  -0.128  0.00  0.00    -0.292 N 
ATOM     22  N   UNL d   1       0.305   1.209  -0.146  0.00  0.00    -0.061 NA
ATOM     23  HN  UNL d   1       2.372   1.039  -0.135  1.00  0.00     0.183 HD
ATOM     24  S   UNL d   1      -1.006   0.172  -0.106  0.00  0.00    -0.010 SA
ATOM     25  C   UNL d   1      -0.019  -1.231  -0.068  0.00  0.00     0.096 A 
ENDBRANCH  17  20
ENDBRANCH   1  14
TORSDOF 4
