REMARK  4 active torsions:
REMARK  status: ('A' for Active; 'I' for Inactive)
REMARK       I    between atoms: N_3  and  C_1 
REMARK    1  A    between atoms: C_4  and  C_1 
REMARK    2  A    between atoms: S_6  and  C_2 
REMARK    3  A    between atoms: C_5  and  N_3 
REMARK    4  A    between atoms: C_14  and  S_6 
ROOT
ATOM      1  C   UNL d   1       0.502  -3.478   0.177  0.00  0.00     0.101 A 
ATOM      2  C   UNL d   1       1.055  -2.314   0.737  0.00  0.00     0.069 A 
ATOM      3  N   UNL d   1       1.028  -4.713   0.377  0.00  0.00    -0.358 N 
ATOM      4  HN  UNL d   1       0.606  -5.542  -0.040  1.00  0.00     0.166 HD
ATOM      5  C   UNL d   1       2.187  -2.456   1.542  0.00  0.00     0.034 A 
ATOM      6  C   UNL d   1       2.133  -4.801   1.149  0.00  0.00     0.089 A 
ATOM      7  C   UNL d   1       2.737  -3.714   1.755  0.00  0.00     0.019 A 
ENDROOT
BRANCH   2   8
ATOM      8  N   UNL d   1       0.496  -1.034   0.502  0.00  0.00    -0.319 N 
ATOM      9  C   UNL d   1       1.276   0.082   0.224  0.00  0.00     0.280 C 
ATOM     10  O   UNL d   1       2.502   0.025   0.121  0.00  0.00    -0.265 OA
ATOM     11  H   UNL d   1      -0.466  -0.979   0.193  0.00  0.00     0.169 HD
BRANCH   9  12
ATOM     12  C   UNL d   1       0.557   1.306  -0.010  0.00  0.00     0.142 A 
ATOM     13  O   UNL d   1      -0.773   1.397   0.293  0.00  0.00    -0.317 OA
ATOM     14  C   UNL d   1      -1.151   2.676   0.032  0.00  0.00     0.143 A 
ATOM     15  C   UNL d   1      -0.092   3.406  -0.464  0.00  0.00     0.027 A 
ATOM     16  C   UNL d   1       1.008   2.519  -0.496  0.00  0.00     0.045 A 
ENDBRANCH   9  12
ENDBRANCH   2   8
BRANCH   1  17
ATOM     17  S   UNL d   1      -0.919  -3.417  -0.900  0.00  0.00    -0.070 SA
BRANCH  17  18
ATOM     18  C   UNL d   1      -0.196  -3.415  -2.539  0.00  0.00     0.007 A 
ATOM     19  C   UNL d   1      -0.852  -4.125  -3.553  0.00  0.00     0.019 A 
ATOM     20  C   UNL d   1      -0.428  -4.034  -4.884  0.00  0.00     0.008 A 
ATOM     21  C   UNL d   1       0.658  -3.222  -5.228  0.00  0.00    -0.062 A 
ATOM     22  C   UNL d   1       1.347  -2.554  -4.211  0.00  0.00     0.008 A 
ATOM     23  C   UNL d   1       1.060  -3.067  -6.665  0.00  0.00     0.048 C 
ATOM     24  C   UNL d   1       0.922  -2.647  -2.880  0.00  0.00     0.019 A 
ENDBRANCH  17  18
ENDBRANCH   1  17
TORSDOF 4
