REMARK  3 active torsions:
REMARK  status: ('A' for Active; 'I' for Inactive)
REMARK    1  A    between atoms: C_3  and  C_1 
REMARK       I    between atoms: N_7  and  C_3 
REMARK    2  A    between atoms: C_13  and  N_7 
REMARK    3  A    between atoms: C_14  and  C_13 
ROOT
ATOM      1  C   UNL d   1      -1.294  -1.381   0.012  0.00  0.00     0.053 A 
ATOM      2  C   UNL d   1      -1.142  -0.107  -0.562  0.00  0.00     0.051 A 
ATOM      3  C   UNL d   1      -0.182  -1.973   0.641  0.00  0.00     0.020 A 
ATOM      4  C   UNL d   1       0.092   0.557  -0.488  0.00  0.00     0.048 A 
ATOM      5  C   UNL d   1       1.175  -0.044   0.149  0.00  0.00     0.035 A 
ATOM      6 CL   UNL d   1      -2.396   0.720  -1.419  0.00  0.00    -0.083 Cl
ATOM      7  C   UNL d   1       1.044  -1.308   0.714  0.00  0.00     0.025 A 
ATOM      8 CL   UNL d   1       2.683   0.777   0.228  0.00  0.00    -0.084 Cl
ENDROOT
BRANCH   1   9
ATOM      9  C   UNL d   1      -2.545  -2.196  -0.002  0.00  0.00     0.253 C 
ATOM     10  O   UNL d   1      -2.476  -3.420   0.082  0.00  0.00    -0.268 OA
ATOM     11  N   UNL d   1      -3.745  -1.532  -0.056  0.00  0.00    -0.356 N 
ATOM     12  H   UNL d   1      -3.760  -0.518  -0.023  0.00  0.00     0.162 HD
BRANCH  11  13
ATOM     13  C   UNL d   1      -5.020  -2.226  -0.008  0.00  0.00     0.137 C 
BRANCH  13  14
ATOM     14  C   UNL d   1      -5.497  -2.511   1.413  0.00  0.00     0.134 C 
ATOM     15 CL   UNL d   1      -5.760  -0.994   2.317  0.00  0.00    -0.129 Cl
ENDBRANCH  13  14
ENDBRANCH  11  13
ENDBRANCH   1   9
TORSDOF 3
