REMARK  8 active torsions:
REMARK  status: ('A' for Active; 'I' for Inactive)
REMARK    1  A    between atoms: C_3  and  C_1 
REMARK    2  A    between atoms: C_4  and  C_1 
REMARK    3  A    between atoms: N_5  and  C_2 
REMARK    4  A    between atoms: O_9  and  C_3 
REMARK    5  A    between atoms: O_10  and  C_4 
REMARK    6  A    between atoms: C_8  and  N_5 
REMARK    7  A    between atoms: C_17  and  O_9 
REMARK    8  A    between atoms: C_18  and  O_10 
ROOT
ATOM      1  C   UNL d   1       0.950   0.075  -0.031  0.00  0.00     0.129 C 
ATOM      2  C   UNL d   1       0.293  -0.830  -0.787  0.00  0.00     0.112 C 
ENDROOT
BRANCH   1   3
ATOM      3  C   UNL d   1       0.228   1.036   0.836  0.00  0.00     0.300 C 
ATOM      4  O   UNL d   1       0.699   2.085   1.242  0.00  0.00    -0.259 OA
BRANCH   3   5
ATOM      5  O   UNL d   1      -0.983   0.529   1.191  0.00  0.00    -0.318 OA
BRANCH   5   6
ATOM      6  C   UNL d   1      -1.575   1.098   2.368  0.00  0.00     0.174 C 
ATOM      7  C   UNL d   1      -1.154   0.244   3.550  0.00  0.00     0.034 C 
ENDBRANCH   5   6
ENDBRANCH   3   5
ENDBRANCH   1   3
BRANCH   1   8
ATOM      8  C   UNL d   1       2.430   0.009  -0.013  0.00  0.00     0.300 C 
ATOM      9  O   UNL d   1       3.102  -0.523  -0.891  0.00  0.00    -0.259 OA
BRANCH   8  10
ATOM     10  O   UNL d   1       2.903   0.430   1.184  0.00  0.00    -0.318 OA
BRANCH  10  11
ATOM     11  C   UNL d   1       4.221  -0.016   1.527  0.00  0.00     0.174 C 
ATOM     12  C   UNL d   1       4.075  -1.303   2.318  0.00  0.00     0.034 C 
ENDBRANCH  10  11
ENDBRANCH   8  10
ENDBRANCH   1   8
BRANCH   2  13
ATOM     13  N   UNL d   1       0.850  -1.780  -1.614  0.00  0.00    -0.365 N 
ATOM     14  H   UNL d   1       1.869  -1.714  -1.716  0.00  0.00     0.165 HD
BRANCH  13  15
ATOM     15  C   UNL d   1       0.246  -2.780  -2.386  0.00  0.00     0.032 A 
ATOM     16  C   UNL d   1       0.965  -3.281  -3.486  0.00  0.00     0.032 A 
ATOM     17  C   UNL d   1       0.412  -4.240  -4.336  0.00  0.00     0.044 A 
ATOM     18  C   UNL d   1      -0.869  -4.708  -4.085  0.00  0.00     0.116 A 
ATOM     19  C   UNL d   1      -1.603  -4.231  -3.007  0.00  0.00     0.044 A 
ATOM     20  F   UNL d   1      -1.404  -5.630  -4.896  0.00  0.00    -0.206 F 
ATOM     21  C   UNL d   1      -1.050  -3.259  -2.165  0.00  0.00     0.032 A 
ENDBRANCH  13  15
ENDBRANCH   2  13
TORSDOF 8
