REMARK  6 active torsions:
REMARK  status: ('A' for Active; 'I' for Inactive)
REMARK       I    between atoms: N_3  and  C_1 
REMARK    1  A    between atoms: C_8  and  C_1 
REMARK       I    between atoms: C_2  and  N_4 
REMARK    2  A    between atoms: C_12  and  C_2 
REMARK    3  A    between atoms: N_4  and  N_3 
REMARK    4  A    between atoms: C_9  and  C_13 
REMARK    5  A    between atoms: S_10  and  C_12 
REMARK    6  A    between atoms: C_13  and  S_10 
ROOT
ATOM      1  C   UNL d   1       0.150  -3.755  -0.032  0.00  0.00     0.245 C 
ATOM      2  N   UNL d   1      -0.225  -3.193   1.172  0.00  0.00    -0.267 N 
ATOM      3  O   UNL d   1      -0.028  -3.192  -1.112  0.00  0.00    -0.271 OA
ATOM      4  H   UNL d   1      -0.356  -3.778   2.001  0.00  0.00     0.190 HD
ENDROOT
BRANCH   1   5
ATOM      5  C   UNL d   1       0.925  -5.058   0.089  0.00  0.00     0.178 C 
BRANCH   5   6
ATOM      6  S   UNL d   1       0.043  -6.336   1.040  0.00  0.00    -0.155 SA
BRANCH   6   7
ATOM      7  C   UNL d   1      -1.262  -6.741  -0.161  0.00  0.00     0.113 C 
BRANCH   7   8
ATOM      8  C   UNL d   1      -2.229  -7.792   0.349  0.00  0.00    -0.038 A 
ATOM      9  C   UNL d   1      -2.171  -9.166  -0.037  0.00  0.00    -0.019 A 
ATOM     10  C   UNL d   1      -3.225 -10.030   0.365  0.00  0.00    -0.025 A 
ATOM     11  C   UNL d   1      -1.131  -9.736  -0.809  0.00  0.00     0.013 A 
ATOM     12  C   UNL d   1      -3.246 -11.369  -0.060  0.00  0.00     0.012 A 
ATOM     13  C   UNL d   1      -4.254  -9.549   1.186  0.00  0.00     0.012 A 
ATOM     14  C   UNL d   1      -2.226 -11.888  -0.852  0.00  0.00     0.001 A 
ATOM     15  C   UNL d   1      -1.159 -11.076  -1.212  0.00  0.00     0.001 A 
ATOM     16  C   UNL d   1      -4.265  -8.226   1.616  0.00  0.00     0.001 A 
ATOM     17  C   UNL d   1      -3.266  -7.355   1.196  0.00  0.00     0.009 A 
ENDBRANCH   7   8
ENDBRANCH   6   7
ENDBRANCH   5   6
ENDBRANCH   1   5
BRANCH   2  18
ATOM     18  N   UNL d   1      -0.909  -1.966   1.166  0.00  0.00    -0.263 N 
ATOM     19  C   UNL d   1      -1.825  -1.737   2.174  0.00  0.00     0.270 C 
ATOM     20  O   UNL d   1      -2.074  -2.576   3.036  0.00  0.00    -0.266 OA
ATOM     21  H   UNL d   1      -0.839  -1.401   0.322  0.00  0.00     0.190 HD
BRANCH  19  22
ATOM     22  C   UNL d   1      -2.518  -0.419   2.182  0.00  0.00     0.033 A 
ATOM     23  C   UNL d   1      -3.782  -0.340   2.786  0.00  0.00     0.017 A 
ATOM     24  C   UNL d   1      -4.440   0.886   2.891  0.00  0.00     0.001 A 
ATOM     25  C   UNL d   1      -3.835   2.045   2.406  0.00  0.00     0.000 A 
ATOM     26  C   UNL d   1      -2.576   1.976   1.807  0.00  0.00     0.001 A 
ATOM     27  C   UNL d   1      -1.916   0.747   1.692  0.00  0.00     0.017 A 
ENDBRANCH  19  22
ENDBRANCH   2  18
TORSDOF 6
