REMARK  3 active torsions:
REMARK  status: ('A' for Active; 'I' for Inactive)
REMARK    1  A    between atoms: C_6  and  C_1 
REMARK       I    between atoms: N_8  and  C_6 
REMARK    2  A    between atoms: C_11  and  C_7 
REMARK    3  A    between atoms: C_10  and  N_8 
ROOT
ATOM      1  C   UNL d   1      -0.210  -2.584   0.351  0.00  0.00     0.270 C 
ATOM      2  N   UNL d   1       0.800  -3.503   0.501  0.00  0.00    -0.342 N 
ATOM      3  O   UNL d   1      -1.378  -2.956   0.251  0.00  0.00    -0.266 OA
ATOM      4  H   UNL d   1       1.760  -3.211   0.638  0.00  0.00     0.163 HD
ENDROOT
BRANCH   1   5
ATOM      5  C   UNL d   1       0.206  -1.198   0.297  0.00  0.00     0.119 A 
ATOM      6  N   UNL d   1      -0.611  -0.122   0.030  0.00  0.00    -0.291 N 
ATOM      7  N   UNL d   1       0.050   1.048  -0.078  0.00  0.00    -0.302 N 
ATOM      8  C   UNL d   1      -2.041  -0.071  -0.165  0.00  0.00     0.178 C 
ATOM      9  C   UNL d   1       1.324   0.752   0.191  0.00  0.00     0.036 A 
ATOM     10  HN  UNL d   1      -0.338   1.961  -0.314  1.00  0.00     0.186 HD
ATOM     11  C   UNL d   1       1.462  -0.628   0.473  0.00  0.00     0.064 A 
BRANCH   9  12
ATOM     12  C   UNL d   1       2.408   1.815   0.094  0.00  0.00    -0.007 C 
ATOM     13  C   UNL d   1       3.103   1.701  -1.278  0.00  0.00     0.021 C 
ATOM     14  C   UNL d   1       1.829   3.242   0.226  0.00  0.00     0.021 C 
ATOM     15  C   UNL d   1       3.465   1.637   1.202  0.00  0.00     0.021 C 
ENDBRANCH   9  12
ENDBRANCH   1   5
BRANCH   2  16
ATOM     16  C   UNL d   1       0.540  -4.939   0.580  0.00  0.00     0.177 C 
ATOM     17  C   UNL d   1       1.756  -5.580   1.269  0.00  0.00     0.240 C 
ATOM     18  N   UNL d   1       1.655  -6.888   1.645  0.00  0.00    -0.359 N 
ATOM     19  O   UNL d   1       2.809  -4.967   1.456  0.00  0.00    -0.271 OA
ATOM     20  C   UNL d   1       0.512  -7.745   1.429  0.00  0.00     0.122 C 
ATOM     21  H   UNL d   1       2.497  -7.275   2.054  0.00  0.00     0.162 HD
ATOM     22  C   UNL d   1       0.299  -8.035  -0.051  0.00  0.00     0.020 C 
ATOM     23  C   UNL d   1      -0.387  -6.899  -0.811  0.00  0.00     0.004 C 
ATOM     24  C   UNL d   1       0.342  -5.552  -0.812  0.00  0.00     0.035 C 
ENDBRANCH   2  16
TORSDOF 3
