REMARK  6 active torsions:
REMARK  status: ('A' for Active; 'I' for Inactive)
REMARK    1  A    between atoms: N_3  and  C_1 
REMARK    2  A    between atoms: N_4  and  C_1 
REMARK    3  A    between atoms: C_2  and  N_3 
REMARK    4  A    between atoms: C_8  and  N_4 
REMARK    5  A    between atoms: C_12  and  C_8 
REMARK    6  A    between atoms: C_13  and  C_8 
ROOT
ATOM      1  N   UNL d   1       0.294  -0.892  -0.764  0.00  0.00    -0.354 N 
ATOM      2  H   UNL d   1       0.748  -0.352  -1.490  0.00  0.00     0.163 HD
ENDROOT
BRANCH   1   3
ATOM      3  C   UNL d   1       1.062  -1.073   0.346  0.00  0.00     0.173 C 
ATOM      4  S   UNL d   1       2.613  -0.441   0.310  0.00  0.00    -0.041 SA
BRANCH   3   5
ATOM      5  N   UNL d   1       0.507  -1.807   1.363  0.00  0.00    -0.332 N 
ATOM      6  H   UNL d   1       0.148  -2.710   1.063  0.00  0.00     0.168 HD
BRANCH   5   7
ATOM      7  C   UNL d   1       0.825  -1.702   2.743  0.00  0.00     0.058 A 
ATOM      8  C   UNL d   1       1.039  -0.445   3.324  0.00  0.00     0.057 A 
ATOM      9  C   UNL d   1       1.293  -0.324   4.694  0.00  0.00     0.058 A 
ATOM     10 CL   UNL d   1       1.519   1.267   5.330  0.00  0.00    -0.082 Cl
ATOM     11  C   UNL d   1       1.336  -1.466   5.499  0.00  0.00     0.057 A 
ATOM     12  C   UNL d   1       1.114  -2.724   4.933  0.00  0.00     0.051 A 
ATOM     13 CL   UNL d   1       1.636  -1.388   7.199  0.00  0.00    -0.082 Cl
ATOM     14  C   UNL d   1       0.845  -2.839   3.565  0.00  0.00     0.062 A 
ATOM     15 CL   UNL d   1       0.582  -4.417   2.912  0.00  0.00    -0.082 Cl
ENDBRANCH   5   7
ENDBRANCH   3   5
ENDBRANCH   1   3
BRANCH   1  16
ATOM     16  C   UNL d   1      -1.153  -1.031  -0.898  0.00  0.00     0.150 C 
BRANCH  16  17
ATOM     17  C   UNL d   1      -1.726   0.256  -1.490  0.00  0.00    -0.031 A 
ATOM     18  C   UNL d   1      -1.698   0.521  -2.870  0.00  0.00     0.009 A 
ATOM     19  C   UNL d   1      -2.215   1.713  -3.383  0.00  0.00     0.001 A 
ATOM     20  C   UNL d   1      -2.755   2.667  -2.522  0.00  0.00     0.000 A 
ATOM     21  C   UNL d   1      -2.770   2.432  -1.150  0.00  0.00     0.001 A 
ATOM     22  C   UNL d   1      -2.255   1.240  -0.636  0.00  0.00     0.009 A 
ENDBRANCH  16  17
BRANCH  16  23
ATOM     23  C   UNL d   1      -1.552  -2.286  -1.668  0.00  0.00    -0.031 A 
ATOM     24  C   UNL d   1      -2.838  -2.824  -1.483  0.00  0.00     0.009 A 
ATOM     25  C   UNL d   1      -3.257  -3.943  -2.205  0.00  0.00     0.001 A 
ATOM     26  C   UNL d   1      -2.402  -4.537  -3.129  0.00  0.00     0.000 A 
ATOM     27  C   UNL d   1      -1.127  -4.014  -3.332  0.00  0.00     0.001 A 
ATOM     28  C   UNL d   1      -0.704  -2.897  -2.607  0.00  0.00     0.009 A 
ENDBRANCH  16  23
ENDBRANCH   1  16
TORSDOF 6
