REMARK  1 active torsions:
REMARK  status: ('A' for Active; 'I' for Inactive)
REMARK    1  A    between atoms: S_12  and  C_5 
ROOT
ATOM      1  C   UNL d   1       0.232  -0.790   0.003  0.00  0.00     0.065 A 
ATOM      2  S   UNL d   1       1.827  -1.435   0.006  0.00  0.00    -0.096 SA
ATOM      3  C   UNL d   1       0.262   0.604   0.002  0.00  0.00     0.059 A 
ATOM      4  C   UNL d   1       1.599   1.131   0.003  0.00  0.00    -0.027 A 
ATOM      5  C   UNL d   1      -1.010  -1.424   0.002  0.00  0.00     0.087 A 
ATOM      6  C   UNL d   1       2.535   0.115   0.006  0.00  0.00     0.059 A 
ATOM      7  N   UNL d   1      -2.134  -0.680   0.000  0.00  0.00    -0.346 N 
ATOM      8  HN  UNL d   1      -3.055  -1.118  -0.001  1.00  0.00     0.167 HD
ATOM      9  N   UNL d   1      -0.869   1.355   0.001  0.00  0.00    -0.351 N 
ATOM     10  HN  UNL d   1      -0.853   2.374  -0.000  1.00  0.00     0.166 HD
ATOM     11  C   UNL d   1      -2.003   0.651  -0.000  0.00  0.00     0.181 A 
ATOM     12  C   UNL d   1       1.948   2.582   0.001  0.00  0.00     0.051 C 
ENDROOT
BRANCH   5  13
ATOM     13  S   UNL d   1      -1.185  -3.184   0.001  0.00  0.00    -0.124 SA
ATOM     14  H   UNL d   1       0.126  -3.464  -0.002  0.00  0.00     0.108 HD
ENDBRANCH   5  13
TORSDOF 1
