REMARK  3 active torsions:
REMARK  status: ('A' for Active; 'I' for Inactive)
REMARK    1  A    between atoms: N_15  and  N_4 
REMARK    2  A    between atoms: C_21  and  C_20 
REMARK    3  A    between atoms: O_25  and  C_23 
ROOT
ATOM      1  C   UNL d   1       1.228   0.945   0.029  0.00  0.00     0.107 A 
ATOM      2  C   UNL d   1       0.785  -0.341   0.008  0.00  0.00     0.086 A 
ATOM      3  C   UNL d   1       2.618   1.273   0.065  0.00  0.00     0.302 A 
ATOM      4  N   UNL d   1       3.435   0.122   0.078  0.00  0.00    -0.141 N 
ATOM      5  C   UNL d   1      -0.643  -0.463  -0.002  0.00  0.00     0.033 A 
ATOM      6  S   UNL d   1      -0.031   2.070   0.016  0.00  0.00    -0.064 SA
ATOM      7  N   UNL d   1       1.697  -1.402   0.008  0.00  0.00    -0.282 N 
ATOM      8  HN  UNL d   1       1.361  -2.364  -0.021  1.00  0.00     0.188 HD
ATOM      9  N   UNL d   1       2.934  -1.168   0.043  0.00  0.00    -0.218 N 
ATOM     10  HN  UNL d   1       3.586  -1.952   0.046  1.00  0.00     0.210 HD
ATOM     11  C   UNL d   1      -1.200   0.820   0.001  0.00  0.00     0.088 A 
ATOM     12  N   UNL d   1      -2.508   1.141  -0.005  0.00  0.00    -0.354 N 
ATOM     13  HN  UNL d   1      -2.836   2.107  -0.005  1.00  0.00     0.166 HD
ATOM     14  C   UNL d   1      -1.557  -1.550  -0.008  0.00  0.00    -0.045 A 
ATOM     15  O   UNL d   1       3.046   2.428   0.088  0.00  0.00    -0.263 OA
ATOM     16  C   UNL d   1      -2.929  -1.232  -0.010  0.00  0.00     0.032 A 
ATOM     17  C   UNL d   1      -3.349   0.092  -0.009  0.00  0.00     0.006 A 
ATOM     18  C   UNL d   1      -1.182  -3.006  -0.007  0.00  0.00     0.049 C 
ATOM     19  C   UNL d   1      -4.820   0.400  -0.009  0.00  0.00     0.068 C 
ENDROOT
BRANCH   4  20
ATOM     20  N   UNL d   1       4.794   0.343   0.124  0.00  0.00    -0.286 N 
ATOM     21  C   UNL d   1       5.614  -0.656   0.133  0.00  0.00     0.120 C 
ATOM     22  HN  UNL d   1       5.154   1.297   0.152  1.00  0.00     0.188 HD
BRANCH  21  23
ATOM     23  C   UNL d   1       7.079  -0.423   0.169  0.00  0.00    -0.017 A 
ATOM     24  C   UNL d   1       7.592   0.882   0.211  0.00  0.00     0.049 A 
ATOM     25  C   UNL d   1       8.971   1.092   0.216  0.00  0.00     0.069 A 
ATOM     26  C   UNL d   1       9.830  -0.010   0.174  0.00  0.00     0.037 A 
ATOM     27  C   UNL d   1       9.323  -1.311   0.138  0.00  0.00     0.004 A 
ATOM     28  C   UNL d   1       7.944  -1.521   0.140  0.00  0.00     0.013 A 
BRANCH  25  29
ATOM     29  O   UNL d   1       9.603   2.305   0.254  0.00  0.00    -0.356 OA
ATOM     30  C   UNL d   1       8.774   3.461   0.300  0.00  0.00     0.210 C 
ENDBRANCH  25  29
ENDBRANCH  21  23
ENDBRANCH   4  20
TORSDOF 3
