REMARK  2 active torsions:
REMARK  status: ('A' for Active; 'I' for Inactive)
REMARK       I    between atoms: N_5  and  C_1 
REMARK       I    between atoms: N_9  and  C_1 
REMARK    1  A    between atoms: C_6  and  N_5 
REMARK    2  A    between atoms: C_14  and  N_9 
ROOT
ATOM      1  C   UNL d   1       0.531  -1.879   3.146  0.00  0.00     0.021 A 
ATOM      2  N   UNL d   1       0.639  -3.131   5.181  0.00  0.00    -0.300 N 
ATOM      3  HN  UNL d   1       1.025  -3.258   6.117  1.00  0.00     0.187 HD
ATOM      4  C   UNL d   1       1.038  -0.810   2.362  0.00  0.00     0.049 A 
ATOM      5  N   UNL d   1      -0.326  -3.998   4.727  0.00  0.00    -0.305 N 
ATOM      6  HN  UNL d   1      -0.647  -4.763   5.320  1.00  0.00     0.186 HD
ATOM      7  C   UNL d   1       1.084  -2.122   4.415  0.00  0.00     0.060 A 
ATOM      8  C   UNL d   1      -0.456  -2.779   2.699  0.00  0.00     0.042 A 
ATOM      9  C   UNL d   1      -0.847  -3.835   3.501  0.00  0.00     0.023 A 
ATOM     10  C   UNL d   1       2.112  -0.045   2.817  0.00  0.00     0.030 A 
ATOM     11  C   UNL d   1       2.653  -0.294   4.077  0.00  0.00     0.005 A 
ATOM     12  C   UNL d   1       2.123  -1.317   4.865  0.00  0.00     0.032 A 
ATOM     13  C   UNL d   1      -1.816  -4.856   2.996  0.00  0.00     0.070 C 
ENDROOT
BRANCH   4  14
ATOM     14  N   UNL d   1       0.414  -0.478   1.135  0.00  0.00    -0.308 N 
ATOM     15  C   UNL d   1       1.118  -0.363  -0.056  0.00  0.00     0.325 C 
ATOM     16  N   UNL d   1       0.232  -0.096  -1.086  0.00  0.00    -0.309 N 
ATOM     17  O   UNL d   1       2.325  -0.523  -0.165  0.00  0.00    -0.247 OA
ATOM     18  H   UNL d   1      -0.598   0.411  -0.815  0.00  0.00     0.170 HD
ATOM     19  H   UNL d   1      -0.517  -0.838   0.993  0.00  0.00     0.170 HD
BRANCH  16  20
ATOM     20  C   UNL d   1       0.494  -0.183  -2.466  0.00  0.00     0.036 A 
ATOM     21  C   UNL d   1       1.578  -0.885  -2.996  0.00  0.00     0.029 A 
ATOM     22  C   UNL d   1       1.780  -0.930  -4.378  0.00  0.00     0.002 A 
ATOM     23  C   UNL d   1       0.898  -0.278  -5.237  0.00  0.00     0.000 A 
ATOM     24  C   UNL d   1      -0.200   0.402  -4.717  0.00  0.00     0.002 A 
ATOM     25  C   UNL d   1      -0.408   0.440  -3.336  0.00  0.00     0.029 A 
ENDBRANCH  16  20
ENDBRANCH   4  14
TORSDOF 2
