REMARK  2 active torsions:
REMARK  status: ('A' for Active; 'I' for Inactive)
REMARK    1  A    between atoms: S_11  and  C_3 
REMARK    2  A    between atoms: C_13  and  S_11 
ROOT
ATOM      1  C   UNL d   1       0.564  -0.658   0.012  0.00  0.00     0.039 A 
ATOM      2  C   UNL d   1       1.202   0.577  -0.099  0.00  0.00     0.089 A 
ATOM      3  C   UNL d   1       1.442  -1.760  -0.060  0.00  0.00     0.089 A 
ATOM      4  S   UNL d   1       0.141   1.905  -0.066  0.00  0.00    -0.075 SA
ATOM      5  C   UNL d   1      -0.866  -0.449   0.202  0.00  0.00    -0.029 A 
ATOM      6  C   UNL d   1      -1.205   0.894   0.121  0.00  0.00    -0.008 A 
ATOM      7  N   UNL d   1       2.519   0.808  -0.223  0.00  0.00    -0.346 N 
ATOM      8  HN  UNL d   1       2.924   1.741  -0.294  1.00  0.00     0.167 HD
ATOM      9  N   UNL d   1       2.777  -1.561  -0.184  0.00  0.00    -0.346 N 
ATOM     10  HN  UNL d   1       3.417  -2.353  -0.231  1.00  0.00     0.167 HD
ATOM     11  C   UNL d   1       3.238  -0.309  -0.243  0.00  0.00     0.182 A 
ATOM     12  C   UNL d   1      -1.937  -1.470   0.473  0.00  0.00     0.040 C 
ATOM     13  C   UNL d   1      -2.592   1.460   0.152  0.00  0.00     0.047 C 
ATOM     14  C   UNL d   1      -3.334  -0.962   0.090  0.00  0.00     0.005 C 
ATOM     15  C   UNL d   1      -3.601   0.430   0.668  0.00  0.00     0.005 C 
ENDROOT
BRANCH   3  16
ATOM     16  S   UNL d   1       0.957  -3.442   0.159  0.00  0.00    -0.072 SA
BRANCH  16  17
ATOM     17  C   UNL d   1      -0.055  -3.888  -1.238  0.00  0.00     0.007 A 
ATOM     18  C   UNL d   1      -0.080  -3.226  -2.467  0.00  0.00     0.019 A 
ATOM     19  C   UNL d   1      -0.989  -3.611  -3.461  0.00  0.00     0.001 A 
ATOM     20  C   UNL d   1      -1.868  -4.669  -3.242  0.00  0.00     0.000 A 
ATOM     21  C   UNL d   1      -1.828  -5.364  -2.036  0.00  0.00     0.001 A 
ATOM     22  C   UNL d   1      -0.921  -4.978  -1.050  0.00  0.00     0.019 A 
ENDBRANCH  16  17
ENDBRANCH   3  16
TORSDOF 2
