REMARK  3 active torsions:
REMARK  status: ('A' for Active; 'I' for Inactive)
REMARK    1  A    between atoms: C_8  and  C_3 
REMARK    2  A    between atoms: C_9  and  C_4 
REMARK    3  A    between atoms: C_10  and  C_6 
ROOT
ATOM      1  N   UNL d   1      -1.034  -1.091   0.148  0.00  0.00    -0.354 N 
ATOM      2  HN  UNL d   1      -1.571  -1.956   0.212  1.00  0.00     0.166 HD
ATOM      3  C   UNL d   1       0.324  -1.130   0.074  0.00  0.00     0.049 C 
ATOM      4  C   UNL d   1       0.451   1.294   0.038  0.00  0.00    -0.016 C 
ATOM      5  C   UNL d   1       1.101   0.041  -0.069  0.00  0.00    -0.023 C 
ATOM      6  C   UNL d   1      -1.665   0.104   0.136  0.00  0.00     0.043 C 
ATOM      7  C   UNL d   1      -0.948   1.294   0.150  0.00  0.00     0.043 C 
ATOM      8  C   UNL d   1       2.576  -0.038  -0.373  0.00  0.00     0.051 C 
ENDROOT
BRANCH   3   9
ATOM      9  C   UNL d   1       0.879  -2.507   0.092  0.00  0.00    -0.009 A 
ATOM     10  C   UNL d   1       0.262  -3.537  -0.640  0.00  0.00     0.014 A 
ATOM     11  C   UNL d   1       0.817  -4.820  -0.711  0.00  0.00     0.007 A 
ATOM     12  C   UNL d   1       2.014  -5.111  -0.053  0.00  0.00    -0.062 A 
ATOM     13  C   UNL d   1       2.600  -4.125   0.743  0.00  0.00     0.007 A 
ATOM     14  C   UNL d   1       2.639  -6.468  -0.186  0.00  0.00     0.048 C 
ATOM     15  C   UNL d   1       2.028  -2.849   0.827  0.00  0.00     0.014 A 
ENDBRANCH   3   9
BRANCH   6  16
ATOM     16  C   UNL d   1      -3.144   0.066   0.054  0.00  0.00    -0.009 A 
ATOM     17  C   UNL d   1      -3.875  -0.994   0.609  0.00  0.00     0.013 A 
ATOM     18  C   UNL d   1      -5.273  -1.045   0.517  0.00  0.00     0.001 A 
ATOM     19  C   UNL d   1      -5.967  -0.032  -0.138  0.00  0.00     0.000 A 
ATOM     20  C   UNL d   1      -5.268   1.025  -0.708  0.00  0.00     0.001 A 
ATOM     21  C   UNL d   1      -3.874   1.072  -0.614  0.00  0.00     0.013 A 
ENDBRANCH   6  16
BRANCH   4  22
ATOM     22  C   UNL d   1       1.155   2.602  -0.007  0.00  0.00    -0.025 A 
ATOM     23  C   UNL d   1       2.284   2.867   0.788  0.00  0.00     0.012 A 
ATOM     24  C   UNL d   1       2.950   4.095   0.718  0.00  0.00     0.001 A 
ATOM     25  C   UNL d   1       2.477   5.101  -0.119  0.00  0.00     0.000 A 
ATOM     26  C   UNL d   1       1.341   4.878  -0.889  0.00  0.00     0.001 A 
ATOM     27  C   UNL d   1       0.694   3.640  -0.840  0.00  0.00     0.012 A 
ENDBRANCH   4  22
TORSDOF 3
