REMARK  1 active torsions:
REMARK  status: ('A' for Active; 'I' for Inactive)
REMARK    1  A    between atoms: C_7  and  N_1 
ROOT
ATOM      1  N   UNL d   1       2.436  -0.607  -0.021  0.00  0.00    -0.254 N 
ATOM      2  C   UNL d   1       2.404   0.797   0.015  0.00  0.00     0.186 A 
ATOM      3  C   UNL d   1       1.275  -1.406  -0.027  0.00  0.00     0.267 A 
ATOM      4  C   UNL d   1      -0.023  -0.708  -0.007  0.00  0.00     0.059 A 
ATOM      5  N   UNL d   1       1.163   1.382   0.057  0.00  0.00    -0.332 N 
ATOM      6  C   UNL d   1      -0.037   0.679   0.026  0.00  0.00     0.050 A 
ATOM      7  S   UNL d   1       3.697   1.871  -0.065  0.00  0.00    -0.040 SA
ATOM      8  O   UNL d   1       1.260  -2.638  -0.025  0.00  0.00    -0.267 OA
ATOM      9  C   UNL d   1      -1.226  -1.422  -0.029  0.00  0.00     0.019 A 
ATOM     10  C   UNL d   1      -1.249   1.370   0.016  0.00  0.00     0.030 A 
ATOM     11  C   UNL d   1      -2.441  -0.736  -0.040  0.00  0.00     0.001 A 
ATOM     12  C   UNL d   1      -2.451   0.659  -0.023  0.00  0.00     0.002 A 
ATOM     13  H   UNL d   1       1.147   2.397   0.060  0.00  0.00     0.168 HD
ENDROOT
BRANCH   1  14
ATOM     14  C   UNL d   1       3.681  -1.318  -0.068  0.00  0.00     0.045 A 
ATOM     15  C   UNL d   1       3.945  -2.188  -1.139  0.00  0.00     0.033 A 
ATOM     16  C   UNL d   1       5.137  -2.912  -1.185  0.00  0.00     0.044 A 
ATOM     17  C   UNL d   1       6.055  -2.783  -0.150  0.00  0.00     0.116 A 
ATOM     18  C   UNL d   1       5.807  -1.938   0.926  0.00  0.00     0.044 A 
ATOM     19  F   UNL d   1       7.191  -3.492  -0.184  0.00  0.00    -0.206 F 
ATOM     20  C   UNL d   1       4.621  -1.201   0.967  0.00  0.00     0.033 A 
ENDBRANCH   1  14
TORSDOF 1
