REMARK  2 active torsions:
REMARK  status: ('A' for Active; 'I' for Inactive)
REMARK    1  A    between atoms: S_2  and  C_1 
REMARK    2  A    between atoms: N_9  and  S_2 
ROOT
ATOM      1  C   UNL d   1      -0.409  -1.185   0.019  0.00  0.00     0.117 A 
ATOM      2  S   UNL d   1       1.276  -0.886  -0.004  0.00  0.00    -0.068 SA
ATOM      3  C   UNL d   1      -1.134  -0.008   0.017  0.00  0.00     0.058 A 
ATOM      4  C   UNL d   1       1.033   0.794   0.006  0.00  0.00     0.074 A 
ATOM      5  C   UNL d   1      -0.295   1.145   0.011  0.00  0.00     0.060 A 
ATOM      6 BR   UNL d   1       2.473   1.998   0.001  0.00  0.00    -0.041 Br
ATOM      7 CL   UNL d   1      -0.947   2.728   0.005  0.00  0.00    -0.082 Cl
ENDROOT
BRANCH   1   8
ATOM      8  S   UNL d   1      -0.896  -2.892   0.017  0.00  0.00     0.245 S 
ATOM      9  O   UNL d   1      -0.235  -3.491   1.149  0.00  0.00    -0.206 OA
ATOM     10  O   UNL d   1      -2.330  -2.860  -0.145  0.00  0.00    -0.206 OA
BRANCH   8  11
ATOM     11  N   UNL d   1      -0.258  -3.573  -1.375  0.00  0.00    -0.225 NA
ATOM     12  H   UNL d   1       0.760  -3.613  -1.365  0.00  0.00     0.136 HD
ATOM     13  H   UNL d   1      -0.682  -3.210  -2.227  0.00  0.00     0.136 HD
ENDBRANCH   8  11
ENDBRANCH   1   8
TORSDOF 2
