REMARK  3 active torsions:
REMARK  status: ('A' for Active; 'I' for Inactive)
REMARK    1  A    between atoms: C_6  and  C_1 
REMARK    2  A    between atoms: C_15  and  C_3 
REMARK       I    between atoms: N_13  and  C_6 
REMARK    3  A    between atoms: C_8  and  N_14 
ROOT
ATOM      1  C   UNL d   1      -0.306  -2.429   0.097  0.00  0.00     0.262 C 
ATOM      2  N   UNL d   1       0.911  -3.071  -0.218  0.00  0.00    -0.344 N 
ATOM      3  N   UNL d   1       3.272  -4.796  -0.794  0.00  0.00     0.105 N 
ATOM      4  O   UNL d   1      -1.186  -2.320  -0.757  0.00  0.00    -0.267 OA
ATOM      5  C   UNL d   1       1.994  -3.267   0.750  0.00  0.00     0.156 C 
ATOM      6  C   UNL d   1       0.893  -3.963  -1.377  0.00  0.00     0.156 C 
ATOM      7  C   UNL d   1       3.332  -3.646   0.118  0.00  0.00     0.293 C 
ATOM      8  C   UNL d   1       2.262  -4.534  -1.828  0.00  0.00     0.293 C 
ENDROOT
BRANCH   1   9
ATOM      9  C   UNL d   1      -0.483  -1.857   1.422  0.00  0.00     0.097 C 
ATOM     10  S   UNL d   1      -0.295  -2.794   2.849  0.00  0.00    -0.063 SA
ATOM     11  C   UNL d   1      -0.420  -1.370   3.799  0.00  0.00     0.103 C 
ATOM     12  N   UNL d   1      -0.895  -0.326   3.140  0.00  0.00    -0.351 N 
ATOM     13  C   UNL d   1      -0.988  -0.619   1.783  0.00  0.00     0.029 C 
ATOM     14  HN  UNL d   1      -1.155   0.564   3.565  1.00  0.00     0.166 HD
ATOM     15  C   UNL d   1      -1.553   0.411   0.865  0.00  0.00     0.070 C 
BRANCH  11  16
ATOM     16  C   UNL d   1      -0.049  -1.401   5.218  0.00  0.00     0.081 A 
ATOM     17  N   UNL d   1       0.696  -2.457   5.651  0.00  0.00    -0.361 N 
ATOM     18  C   UNL d   1       1.034  -2.450   6.959  0.00  0.00     0.105 A 
ATOM     19  HN  UNL d   1       0.982  -3.209   5.024  1.00  0.00     0.165 HD
ATOM     20  C   UNL d   1       0.648  -1.435   7.818  0.00  0.00     0.104 A 
ATOM     21  N   UNL d   1      -0.078  -0.372   7.400  0.00  0.00    -0.372 N 
ATOM     22  C   UNL d   1      -0.409  -0.376   6.083  0.00  0.00     0.120 A 
ATOM     23  HN  UNL d   1      -0.356   0.380   8.031  1.00  0.00     0.164 HD
ENDBRANCH  11  16
ENDBRANCH   1   9
BRANCH   3  24
ATOM     24  C   UNL d   1       3.272  -6.149  -0.192  0.00  0.00     0.290 C 
ATOM     25  C   UNL d   1       4.348  -6.279   0.898  0.00  0.00    -0.009 A 
ATOM     26  C   UNL d   1       3.748  -6.553   2.147  0.00  0.00    -0.017 A 
ATOM     27  C   UNL d   1       5.720  -6.096   0.783  0.00  0.00     0.010 A 
ATOM     28  C   UNL d   1       4.520  -6.651   3.293  0.00  0.00     0.013 A 
ATOM     29  C   UNL d   1       2.324  -6.713   1.957  0.00  0.00    -0.017 C 
ATOM     30  C   UNL d   1       5.900  -6.460   3.184  0.00  0.00     0.001 A 
ATOM     31  C   UNL d   1       6.495  -6.183   1.941  0.00  0.00     0.001 A 
ATOM     32  C   UNL d   1       2.029  -6.587   0.582  0.00  0.00    -0.009 C 
ATOM     33  C   UNL d   1       1.318  -6.971   2.876  0.00  0.00     0.013 C 
ATOM     34  C   UNL d   1       0.764  -6.895   0.107  0.00  0.00     0.010 C 
ATOM     35  C   UNL d   1      -0.253  -7.148   1.029  0.00  0.00     0.001 C 
ATOM     36  C   UNL d   1       0.016  -7.156   2.405  0.00  0.00     0.001 C 
ENDBRANCH   3  24
TORSDOF 3
