REMARK  9 active torsions:
REMARK  status: ('A' for Active; 'I' for Inactive)
REMARK    1  A    between atoms: C_2  and  C_1 
REMARK    2  A    between atoms: O_13  and  C_2 
REMARK    3  A    between atoms: N_3  and  C_11 
REMARK    4  A    between atoms: C_6  and  C_5 
REMARK    5  A    between atoms: O_16  and  C_7 
REMARK    6  A    between atoms: O_15  and  C_10 
REMARK    7  A    between atoms: C_20  and  O_16 
REMARK    8  A    between atoms: O_17  and  C_21 
REMARK    9  A    between atoms: C_21  and  C_20 
ROOT
ATOM      1  C   UNL d   1       1.456  -0.165   0.021  0.00  0.00     0.073 A 
ATOM      2  C   UNL d   1       0.686  -1.333  -0.005  0.00  0.00     0.085 A 
ATOM      3  C   UNL d   1       0.822   1.098   0.093  0.00  0.00     0.050 A 
ATOM      4  C   UNL d   1      -0.569   1.229   0.113  0.00  0.00     0.033 A 
ATOM      5  C   UNL d   1      -0.711  -1.188  -0.021  0.00  0.00     0.040 A 
ATOM      6  C   UNL d   1      -1.329   0.066   0.014  0.00  0.00     0.032 A 
ENDROOT
BRANCH   4   7
ATOM      7  N   UNL d   1      -1.114   2.527   0.156  0.00  0.00    -0.365 N 
ATOM      8  C   UNL d   1      -2.244   2.731   0.757  0.00  0.00     0.102 C 
ATOM      9  HN  UNL d   1      -0.621   3.304  -0.284  1.00  0.00     0.165 HD
BRANCH   8  10
ATOM     10  C   UNL d   1      -2.850   4.079   0.835  0.00  0.00     0.012 A 
ATOM     11  C   UNL d   1      -2.184   5.225   0.388  0.00  0.00     0.077 A 
ATOM     12  C   UNL d   1      -2.783   6.477   0.512  0.00  0.00     0.037 A 
ATOM     13  C   UNL d   1      -4.055   6.590   1.076  0.00  0.00     0.003 A 
ATOM     14  C   UNL d   1      -4.729   5.449   1.514  0.00  0.00     0.001 A 
ATOM     15  C   UNL d   1      -4.127   4.192   1.397  0.00  0.00     0.015 A 
BRANCH  11  16
ATOM     16  O   UNL d   1      -0.939   5.193  -0.176  0.00  0.00    -0.360 OA
ATOM     17  H   UNL d   1      -0.675   4.247  -0.243  0.00  0.00     0.217 HD
ENDBRANCH  11  16
ENDBRANCH   8  10
ENDBRANCH   4   7
BRANCH   1  18
ATOM     18  C   UNL d   1       2.927  -0.076  -0.101  0.00  0.00     0.179 C 
ATOM     19  O   UNL d   1       3.477   0.538  -0.990  0.00  0.00    -0.646 OA
BRANCH  18  20
ATOM     20  O   UNL d   1       3.581  -0.630   0.942  0.00  0.00    -0.773 OA
ATOM     21  H   UNL d   1       2.996  -0.972   1.644  0.00  0.00     0.167 HD
ENDBRANCH  18  20
ENDBRANCH   1  18
BRANCH   2  22
ATOM     22  O   UNL d   1       1.025  -2.653  -0.030  0.00  0.00    -0.348 OA
BRANCH  22  23
ATOM     23  C   UNL d   1       2.372  -3.104  -0.128  0.00  0.00     0.201 C 
BRANCH  23  24
ATOM     24  C   UNL d   1       2.376  -4.630  -0.271  0.00  0.00     0.193 C 
BRANCH  24  25
ATOM     25  O   UNL d   1       1.870  -5.015  -1.550  0.00  0.00    -0.394 OA
ATOM     26  C   UNL d   1       1.974  -6.420  -1.747  0.00  0.00     0.201 C 
ENDBRANCH  24  25
ENDBRANCH  23  24
ENDBRANCH  22  23
ENDBRANCH   2  22
TORSDOF 9
