REMARK  3 active torsions:
REMARK  status: ('A' for Active; 'I' for Inactive)
REMARK    1  A    between atoms: N_2  and  S_1 
REMARK    2  A    between atoms: C_14  and  S_1 
REMARK    3  A    between atoms: C_3  and  N_4 
ROOT
ATOM      1  N   UNL d   1       0.493  -0.613  -1.241  0.00  0.00    -0.203 NA
ATOM      2  N   UNL d   1       2.628  -1.499  -3.000  0.00  0.00    -0.378 N 
ATOM      3  C   UNL d   1       0.804  -2.069  -1.389  0.00  0.00     0.127 C 
ATOM      4  C   UNL d   1       0.822   0.120  -2.502  0.00  0.00     0.127 C 
ATOM      5  C   UNL d   1       2.300  -0.066  -2.890  0.00  0.00     0.138 C 
ATOM      6  C   UNL d   1       2.282  -2.299  -1.797  0.00  0.00     0.138 C 
ENDROOT
BRANCH   2   7
ATOM      7  C   UNL d   1       3.612  -1.997  -3.862  0.00  0.00     0.044 A 
ATOM      8  C   UNL d   1       4.752  -1.287  -4.370  0.00  0.00     0.017 A 
ATOM      9  C   UNL d   1       5.551  -1.948  -5.341  0.00  0.00     0.044 A 
ATOM     10  C   UNL d   1       5.189   0.009  -3.978  0.00  0.00     0.016 A 
ATOM     11  C   UNL d   1       6.636  -1.297  -5.915  0.00  0.00     0.030 A 
ATOM     12  N   UNL d   1       5.336  -3.204  -5.758  0.00  0.00    -0.359 N 
ATOM     13  C   UNL d   1       7.002  -0.003  -5.554  0.00  0.00     0.002 A 
ATOM     14  C   UNL d   1       6.284   0.648  -4.569  0.00  0.00     0.001 A 
ATOM     15  C   UNL d   1       4.295  -3.878  -5.244  0.00  0.00     0.007 A 
ATOM     16  HN  UNL d   1       5.949  -3.637  -6.448  1.00  0.00     0.166 HD
ATOM     17  C   UNL d   1       3.423  -3.309  -4.330  0.00  0.00     0.054 A 
ATOM     18  C   UNL d   1       4.090  -5.293  -5.690  0.00  0.00     0.068 C 
ENDBRANCH   2   7
BRANCH   1  19
ATOM     19  S   UNL d   1       0.976   0.116   0.217  0.00  0.00     0.243 S 
ATOM     20  O   UNL d   1       1.171   1.532  -0.019  0.00  0.00    -0.206 OA
ATOM     21  O   UNL d   1       2.008  -0.690   0.830  0.00  0.00    -0.206 OA
BRANCH  19  22
ATOM     22  C   UNL d   1      -0.499  -0.058   1.198  0.00  0.00     0.074 A 
ATOM     23  C   UNL d   1      -0.672  -1.181   2.013  0.00  0.00     0.025 A 
ATOM     24  C   UNL d   1      -1.828  -1.293   2.788  0.00  0.00     0.002 A 
ATOM     25  C   UNL d   1      -2.792  -0.283   2.759  0.00  0.00     0.000 A 
ATOM     26  C   UNL d   1      -2.599   0.850   1.968  0.00  0.00     0.002 A 
ATOM     27  C   UNL d   1      -1.449   0.968   1.188  0.00  0.00     0.025 A 
ENDBRANCH  19  22
ENDBRANCH   1  19
TORSDOF 3
