REMARK  3 active torsions:
REMARK  status: ('A' for Active; 'I' for Inactive)
REMARK    1  A    between atoms: C_9  and  N_1 
REMARK    2  A    between atoms: C_11  and  C_7 
REMARK    3  A    between atoms: C_14  and  C_13 
ROOT
ATOM      1  N   UNL d   1      -3.901   7.304  -0.813  0.00  0.00    -0.192 NA
ATOM      2  C   UNL d   1      -3.662   6.170  -0.795  0.00  0.00     0.087 C 
ATOM      3  C   UNL d   1      -3.373   4.777  -0.773  0.00  0.00     0.093 C 
ATOM      4  C   UNL d   1      -2.154   4.308  -0.470  0.00  0.00     0.011 C 
ENDROOT
BRANCH   4   5
ATOM      5  C   UNL d   1      -1.835   2.895  -0.433  0.00  0.00     0.004 C 
ATOM      6  C   UNL d   1      -0.613   2.431  -0.122  0.00  0.00     0.051 C 
BRANCH   6   7
ATOM      7  C   UNL d   1      -0.240   1.058  -0.042  0.00  0.00     0.134 A 
ATOM      8  N   UNL d   1      -0.996  -0.023  -0.281  0.00  0.00    -0.264 N 
ATOM      9  N   UNL d   1      -0.118  -1.016   0.029  0.00  0.00    -0.179 N 
ATOM     10  HN  UNL d   1      -1.961  -0.084  -0.605  1.00  0.00     0.190 HD
ATOM     11  N   UNL d   1       1.109  -0.570   0.392  0.00  0.00     0.003 NA
ATOM     12  N   UNL d   1       1.034   0.751   0.351  0.00  0.00    -0.267 N 
ATOM     13  HN  UNL d   1       1.779   1.412   0.571  1.00  0.00     0.186 HD
BRANCH   9  14
ATOM     14  C   UNL d   1      -0.466  -2.390   0.032  0.00  0.00     0.073 A 
ATOM     15  C   UNL d   1       0.465  -3.350   0.460  0.00  0.00     0.034 A 
ATOM     16  C   UNL d   1       0.102  -4.700   0.516  0.00  0.00     0.026 A 
ATOM     17  C   UNL d   1      -1.181  -5.091   0.137  0.00  0.00     0.034 A 
ATOM     18  C   UNL d   1      -2.104  -4.146  -0.310  0.00  0.00     0.026 A 
ATOM     19 CL   UNL d   1      -1.631  -6.748   0.230  0.00  0.00    -0.084 Cl
ATOM     20  C   UNL d   1      -1.750  -2.793  -0.363  0.00  0.00     0.034 A 
ENDBRANCH   9  14
ENDBRANCH   6   7
ENDBRANCH   4   5
TORSDOF 3
