REMARK  4 active torsions:
REMARK  status: ('A' for Active; 'I' for Inactive)
REMARK       I    between atoms: C_7  and  N_14 
REMARK       I    between atoms: N_12  and  C_7 
REMARK    1  A    between atoms: C_10  and  O_15 
REMARK    2  A    between atoms: N_14  and  C_11 
REMARK    3  A    between atoms: C_17  and  N_12 
REMARK    4  A    between atoms: O_15  and  C_18 
ROOT
ATOM      1  C   UNL d   1      -4.716  -0.654   0.561  0.00  0.00     0.325 C 
ATOM      2  N   UNL d   1      -4.968   0.653   0.178  0.00  0.00    -0.306 N 
ATOM      3  N   UNL d   1      -5.839  -1.294   1.052  0.00  0.00    -0.309 N 
ATOM      4  O   UNL d   1      -3.609  -1.181   0.457  0.00  0.00    -0.247 OA
ATOM      5  H   UNL d   1      -5.925   0.900  -0.018  0.00  0.00     0.171 HD
ATOM      6  H   UNL d   1      -6.729  -0.827   0.933  0.00  0.00     0.170 HD
ENDROOT
BRANCH   3   7
ATOM      7  C   UNL d   1      -5.859  -2.575   1.668  0.00  0.00     0.038 A 
ATOM      8  C   UNL d   1      -4.672  -3.243   2.029  0.00  0.00     0.062 A 
ATOM      9  C   UNL d   1      -4.806  -4.452   2.754  0.00  0.00     0.069 A 
ATOM     10  C   UNL d   1      -6.160  -5.008   3.078  0.00  0.00     0.067 A 
ATOM     11  N   UNL d   1      -3.799  -5.200   3.233  0.00  0.00    -0.310 N 
ATOM     12  N   UNL d   1      -6.111  -6.142   3.793  0.00  0.00    -0.310 N 
ATOM     13  C   UNL d   1      -7.331  -4.343   2.647  0.00  0.00     0.035 A 
ATOM     14  S   UNL d   1      -4.499  -6.466   4.043  0.00  0.00     0.068 SA
ATOM     15  HN  UNL d   1      -6.904  -6.695   4.119  1.00  0.00     0.176 HD
ATOM     16  C   UNL d   1      -7.137  -3.126   1.955  0.00  0.00     0.032 A 
ATOM     17  HN  UNL d   1      -2.800  -5.024   3.121  1.00  0.00     0.176 HD
ENDBRANCH   3   7
BRANCH   2  18
ATOM     18  C   UNL d   1      -3.940   1.461  -0.374  0.00  0.00     0.070 A 
ATOM     19  C   UNL d   1      -4.085   2.194  -1.562  0.00  0.00     0.105 A 
ATOM     20  C   UNL d   1      -2.941   2.801  -2.119  0.00  0.00     0.039 A 
ATOM     21  C   UNL d   1      -1.698   2.758  -1.486  0.00  0.00     0.003 A 
ATOM     22  C   UNL d   1      -1.579   2.114  -0.266  0.00  0.00     0.002 A 
ATOM     23  C   UNL d   1      -2.690   1.474   0.281  0.00  0.00     0.032 A 
BRANCH  19  24
ATOM     24  O   UNL d   1      -5.154   2.314  -2.396  0.00  0.00    -0.253 OA
BRANCH  24  25
ATOM     25  C   UNL d   1      -6.486   2.258  -1.939  0.00  0.00     0.530 C 
ATOM     26  F   UNL d   1      -6.614   2.357  -0.598  0.00  0.00    -0.144 F 
ATOM     27  F   UNL d   1      -7.186   3.267  -2.498  0.00  0.00    -0.144 F 
ATOM     28  F   UNL d   1      -7.043   1.089  -2.325  0.00  0.00    -0.144 F 
ENDBRANCH  24  25
ENDBRANCH  19  24
ENDBRANCH   2  18
TORSDOF 4
