REMARK  6 active torsions:
REMARK  status: ('A' for Active; 'I' for Inactive)
REMARK    1  A    between atoms: C_3  and  C_1 
REMARK       I    between atoms: C_2  and  N_6 
REMARK       I    between atoms: N_7  and  C_2 
REMARK    2  A    between atoms: N_6  and  C_20 
REMARK    3  A    between atoms: C_21  and  N_7 
REMARK    4  A    between atoms: C_8  and  O_13 
REMARK    5  A    between atoms: C_9  and  C_10 
REMARK    6  A    between atoms: O_13  and  C_14 
ROOT
ATOM      1  N   UNL d   1      -0.150  -6.587  -5.971  0.00  0.00    -0.344 N 
ATOM      2  HN  UNL d   1       0.299  -6.081  -6.735  1.00  0.00     0.167 HD
ATOM      3  C   UNL d   1       0.031  -7.919  -5.803  0.00  0.00     0.148 A 
ATOM      4  C   UNL d   1      -1.628  -6.586  -4.038  0.00  0.00     0.051 A 
ATOM      5  C   UNL d   1      -0.953  -5.956  -5.081  0.00  0.00     0.119 A 
ATOM      6  C   UNL d   1      -0.638  -8.650  -4.841  0.00  0.00     0.059 A 
ATOM      7  C   UNL d   1      -1.476  -7.972  -3.956  0.00  0.00     0.035 A 
ENDROOT
BRANCH   4   8
ATOM      8  N   UNL d   1      -2.370  -5.808  -3.110  0.00  0.00    -0.307 N 
ATOM      9  C   UNL d   1      -3.070  -6.309  -2.021  0.00  0.00     0.325 C 
ATOM     10  N   UNL d   1      -3.523  -5.304  -1.178  0.00  0.00    -0.309 N 
ATOM     11  O   UNL d   1      -3.248  -7.500  -1.812  0.00  0.00    -0.247 OA
ATOM     12  H   UNL d   1      -3.580  -4.369  -1.547  0.00  0.00     0.170 HD
ATOM     13  H   UNL d   1      -2.335  -4.809  -3.222  0.00  0.00     0.170 HD
BRANCH  10  14
ATOM     14  C   UNL d   1      -4.014  -5.500   0.138  0.00  0.00     0.036 A 
ATOM     15  C   UNL d   1      -3.868  -6.694   0.843  0.00  0.00     0.030 A 
ATOM     16  C   UNL d   1      -4.251  -6.792   2.187  0.00  0.00     0.010 A 
ATOM     17  C   UNL d   1      -4.780  -5.694   2.882  0.00  0.00    -0.051 A 
ATOM     18  C   UNL d   1      -5.004  -4.524   2.138  0.00  0.00     0.010 A 
ATOM     19  C   UNL d   1      -4.616  -4.424   0.791  0.00  0.00     0.030 A 
BRANCH  17  20
ATOM     20  C   UNL d   1      -5.002  -5.786   4.403  0.00  0.00    -0.024 C 
ATOM     21  C   UNL d   1      -5.489  -4.463   5.033  0.00  0.00     0.019 C 
ATOM     22  C   UNL d   1      -6.035  -6.877   4.750  0.00  0.00     0.019 C 
ATOM     23  C   UNL d   1      -3.658  -6.140   5.086  0.00  0.00     0.019 C 
ENDBRANCH  17  20
ENDBRANCH  10  14
ENDBRANCH   4   8
BRANCH   3  24
ATOM     24  O   UNL d   1       0.935  -8.629  -6.591  0.00  0.00    -0.294 OA
BRANCH  24  25
ATOM     25  C   UNL d   1       1.945  -7.930  -7.214  0.00  0.00     0.078 C 
ATOM     26  C   UNL d   1       2.575  -6.822  -6.645  0.00  0.00     0.053 C 
ATOM     27  C   UNL d   1       3.476  -6.054  -7.390  0.00  0.00     0.050 C 
ATOM     28  C   UNL d   1       3.860  -6.506  -8.661  0.00  0.00     0.016 C 
ATOM     29  C   UNL d   1       3.317  -7.682  -9.186  0.00  0.00     0.004 C 
ATOM     30  C   UNL d   1       2.349  -8.385  -8.469  0.00  0.00     0.037 C 
BRANCH  27  31
ATOM     31  C   UNL d   1       3.939  -4.720  -6.867  0.00  0.00     0.417 C 
ATOM     32  F   UNL d   1       3.428  -4.401  -5.643  0.00  0.00    -0.166 F 
ATOM     33  F   UNL d   1       3.580  -3.693  -7.690  0.00  0.00    -0.166 F 
ATOM     34  F   UNL d   1       5.291  -4.640  -6.737  0.00  0.00    -0.166 F 
ENDBRANCH  27  31
ENDBRANCH  24  25
ENDBRANCH   3  24
TORSDOF 6
