REMARK  2 active torsions:
REMARK  status: ('A' for Active; 'I' for Inactive)
REMARK    1  A    between atoms: N_14  and  N_7 
REMARK    2  A    between atoms: C_16  and  C_10 
ROOT
ATOM      1  N   UNL d   1      -3.059   4.548  -0.327  0.00  0.00    -0.334 N 
ATOM      2  HN  UNL d   1      -2.186   4.623  -0.849  1.00  0.00     0.168 HD
ATOM      3  C   UNL d   1      -3.520   3.433   0.198  0.00  0.00     0.163 A 
ATOM      4  C   UNL d   1      -3.914   5.604  -0.075  0.00  0.00     0.051 A 
ATOM      5  S   UNL d   1      -5.020   3.606   1.032  0.00  0.00    -0.062 SA
ATOM      6  C   UNL d   1      -5.012   5.288   0.699  0.00  0.00     0.083 A 
ATOM      7  N   UNL d   1      -2.917   2.218   0.124  0.00  0.00    -0.279 N 
ATOM      8  H   UNL d   1      -3.461   1.409   0.433  0.00  0.00     0.189 HD
ENDROOT
BRANCH   7   9
ATOM      9  N   UNL d   1      -1.566   2.093  -0.017  0.00  0.00    -0.293 N 
ATOM     10  C   UNL d   1      -1.088   0.895  -0.093  0.00  0.00     0.129 A 
ATOM     11  C   UNL d   1      -1.830  -0.444  -0.113  0.00  0.00     0.275 A 
ATOM     12  C   UNL d   1       0.329   0.567  -0.157  0.00  0.00     0.024 A 
ATOM     13  N   UNL d   1      -0.848  -1.408  -0.221  0.00  0.00    -0.321 N 
ATOM     14  O   UNL d   1      -3.030  -0.582  -0.013  0.00  0.00    -0.266 OA
ATOM     15  C   UNL d   1       0.417  -0.821  -0.224  0.00  0.00     0.047 A 
ATOM     16  H   UNL d   1      -1.042  -2.397  -0.243  0.00  0.00     0.169 HD
ATOM     17  C   UNL d   1       1.639  -1.456  -0.249  0.00  0.00     0.030 A 
ATOM     18  C   UNL d   1       2.784  -0.650  -0.193  0.00  0.00     0.002 A 
ATOM     19  C   UNL d   1       2.686   0.755  -0.121  0.00  0.00     0.001 A 
ATOM     20  C   UNL d   1       1.441   1.384  -0.105  0.00  0.00     0.016 A 
ATOM     21  HN  UNL d   1      -0.959   2.911  -0.060  1.00  0.00     0.187 HD
ENDBRANCH   7   9
BRANCH   4  22
ATOM     22  C   UNL d   1      -3.669   6.915  -0.660  0.00  0.00    -0.009 A 
ATOM     23  C   UNL d   1      -3.078   6.989  -1.931  0.00  0.00     0.014 A 
ATOM     24  C   UNL d   1      -2.858   8.223  -2.545  0.00  0.00     0.001 A 
ATOM     25  C   UNL d   1      -3.216   9.398  -1.888  0.00  0.00     0.000 A 
ATOM     26  C   UNL d   1      -3.787   9.340  -0.617  0.00  0.00     0.001 A 
ATOM     27  C   UNL d   1      -4.015   8.103  -0.004  0.00  0.00     0.014 A 
ENDBRANCH   4  22
TORSDOF 2
