REMARK  1 active torsions:
REMARK  status: ('A' for Active; 'I' for Inactive)
REMARK    1  A    between atoms: C_9  and  N_6 
ROOT
ATOM      1  C   UNL d   1      -1.132   0.708  -0.029  0.00  0.00     0.114 C 
ATOM      2  C   UNL d   1      -1.734  -0.686  -0.315  0.00  0.00     0.273 C 
ATOM      3  N   UNL d   1      -0.663  -1.558  -0.276  0.00  0.00    -0.321 N 
ATOM      4  C   UNL d   1       0.319   0.499  -0.009  0.00  0.00     0.023 A 
ATOM      5  C   UNL d   1       0.534  -0.872  -0.118  0.00  0.00     0.047 A 
ATOM      6  N   UNL d   1      -1.681   1.855   0.210  0.00  0.00    -0.351 N 
ATOM      7  HN  UNL d   1      -1.075   2.660   0.370  1.00  0.00     0.166 HD
ATOM      8  O   UNL d   1      -2.886  -0.969  -0.544  0.00  0.00    -0.266 OA
ATOM      9  C   UNL d   1       1.357   1.401   0.107  0.00  0.00     0.016 A 
ATOM     10  C   UNL d   1       1.805  -1.405  -0.085  0.00  0.00     0.030 A 
ATOM     11  C   UNL d   1       2.653   0.880   0.122  0.00  0.00     0.001 A 
ATOM     12  C   UNL d   1       2.874  -0.510   0.037  0.00  0.00     0.002 A 
ATOM     13  H   UNL d   1      -0.764  -2.551  -0.426  0.00  0.00     0.169 HD
ENDROOT
BRANCH   6  14
ATOM     14  C   UNL d   1      -3.069   2.045   0.259  0.00  0.00     0.032 A 
ATOM     15  C   UNL d   1      -3.936   1.249   1.014  0.00  0.00     0.029 A 
ATOM     16  C   UNL d   1      -5.306   1.527   1.063  0.00  0.00     0.002 A 
ATOM     17  C   UNL d   1      -5.816   2.642   0.403  0.00  0.00     0.000 A 
ATOM     18  C   UNL d   1      -4.956   3.478  -0.305  0.00  0.00     0.002 A 
ATOM     19  C   UNL d   1      -3.593   3.176  -0.375  0.00  0.00     0.029 A 
ENDBRANCH   6  14
TORSDOF 1
