REMARK  4 active torsions:
REMARK  status: ('A' for Active; 'I' for Inactive)
REMARK    1  A    between atoms: S_10  and  C_1 
REMARK    2  A    between atoms: C_8  and  C_7 
REMARK    3  A    between atoms: C_12  and  C_8 
REMARK    4  A    between atoms: C_9  and  S_10 
ROOT
ATOM      1  S   UNL d   1      -3.704  -1.553   0.019  0.00  0.00    -0.077 SA
ENDROOT
BRANCH   1   2
ATOM      2  C   UNL d   1      -4.839  -0.241  -0.040  0.00  0.00     0.056 C 
ATOM      3  C   UNL d   1      -6.151  -0.489  -0.149  0.00  0.00     0.063 C 
BRANCH   3   4
ATOM      4  C   UNL d   1      -7.117   0.638  -0.221  0.00  0.00     0.182 C 
ATOM      5  O   UNL d   1      -6.847   1.755   0.207  0.00  0.00    -0.288 OA
BRANCH   4   6
ATOM      6  C   UNL d   1      -8.455   0.352  -0.805  0.00  0.00     0.014 A 
ATOM      7  C   UNL d   1      -9.553   1.103  -0.367  0.00  0.00     0.015 A 
ATOM      8  C   UNL d   1     -10.820   0.872  -0.908  0.00  0.00     0.001 A 
ATOM      9  C   UNL d   1     -10.993  -0.101  -1.892  0.00  0.00     0.000 A 
ATOM     10  C   UNL d   1      -9.900  -0.840  -2.344  0.00  0.00     0.001 A 
ATOM     11  C   UNL d   1      -8.632  -0.614  -1.806  0.00  0.00     0.015 A 
ENDBRANCH   4   6
ENDBRANCH   3   4
ENDBRANCH   1   2
BRANCH   1  12
ATOM     12  C   UNL d   1      -2.183  -0.671   0.046  0.00  0.00     0.117 A 
ATOM     13  N   UNL d   1      -2.110   0.638   0.020  0.00  0.00    -0.344 N 
ATOM     14  C   UNL d   1      -0.787   1.039   0.064  0.00  0.00     0.050 A 
ATOM     15  HN  UNL d   1      -2.911   1.268  -0.026  1.00  0.00     0.167 HD
ATOM     16  C   UNL d   1      -0.330   2.372   0.065  0.00  0.00     0.031 A 
ATOM     17  C   UNL d   1       0.151   0.006   0.113  0.00  0.00     0.034 A 
ATOM     18  C   UNL d   1       1.042   2.637   0.115  0.00  0.00     0.002 A 
ATOM     19  C   UNL d   1       1.960   1.592   0.162  0.00  0.00     0.002 A 
ATOM     20  C   UNL d   1       1.532   0.260   0.161  0.00  0.00     0.021 A 
ATOM     21  S   UNL d   1      -0.681  -1.501   0.105  0.00  0.00    -0.063 SA
ENDBRANCH   1  12
TORSDOF 4
