REMARK  6 active torsions:
REMARK  status: ('A' for Active; 'I' for Inactive)
REMARK    1  A    between atoms: CA_4  and  C_1 
REMARK    2  A    between atoms: OXT_5  and  C_1 
REMARK    3  A    between atoms: N_2  and  CA_4 
REMARK    4  A    between atoms: C3_10  and  N_2 
REMARK    5  A    between atoms: C2_9  and  C3_10 
REMARK    6  A    between atoms: O3_12  and  C4_11 
ROOT
ATOM      1  C3  <1> d   1       2.166  -2.187   1.272  0.00  0.00     0.312 C 
ENDROOT
BRANCH   1   2
ATOM      2  C2  <1> d   1       2.401  -3.050   2.486  0.00  0.00     0.003 A 
ATOM      3  C4  <1> d   1       1.747  -4.275   2.683  0.00  0.00     0.073 A 
ATOM      4  C7  <1> d   1       1.960  -5.019   3.844  0.00  0.00     0.037 A 
ATOM      5  C10 <1> d   1       2.849  -4.563   4.816  0.00  0.00     0.003 A 
ATOM      6  C9  <1> d   1       3.521  -3.359   4.630  0.00  0.00     0.001 A 
ATOM      7  C6  <1> d   1       3.295  -2.606   3.476  0.00  0.00     0.012 A 
BRANCH   3   8
ATOM      8  O3  <1> d   1       0.862  -4.808   1.787  0.00  0.00    -0.360 OA
ATOM      9  H6  <1> d   1       0.887  -4.332   0.934  0.00  0.00     0.217 HD
ENDBRANCH   3   8
ENDBRANCH   1   2
BRANCH   1  10
ATOM     10  N   ALA d   1       0.824  -1.595   1.310  0.00  0.00     0.102 N 
ATOM     11  H   ALA d   1       0.155  -2.331   1.555  0.00  0.00     0.317 HD
BRANCH  10  12
ATOM     12  CA  ALA d   1       0.392  -0.986   0.032  0.00  0.00     0.313 C 
ATOM     13  CB  ALA d   1       1.330   0.141  -0.394  0.00  0.00     0.054 C 
BRANCH  12  14
ATOM     14  C   ALA d   1       0.194  -2.066  -1.054  0.00  0.00     0.173 C 
ATOM     15  O   ALA d   1       0.283  -3.271  -0.842  0.00  0.00    -0.648 OA
BRANCH  14  16
ATOM     16  OXT ALA d   1      -0.155  -1.581  -2.267  0.00  0.00    -0.775 OA
ATOM     17  HXT ALA d   1      -0.268  -0.615  -2.311  0.00  0.00     0.167 HD
ENDBRANCH  14  16
ENDBRANCH  12  14
ENDBRANCH  10  12
ENDBRANCH   1  10
TORSDOF 6
