REMARK  1 active torsions:
REMARK  status: ('A' for Active; 'I' for Inactive)
REMARK    1  A    between atoms: C_8  and  C_7 
ROOT
ATOM      1  C   UNL d   1       0.378  -1.384  -0.045  0.00  0.00     0.101 C 
ATOM      2  N   UNL d   1       1.036   0.932  -0.011  0.00  0.00    -0.270 N 
ATOM      3  N   UNL d   1      -1.266   0.388   0.019  0.00  0.00    -0.270 N 
ATOM      4  C   UNL d   1      -0.277   1.362   0.070  0.00  0.00     0.333 C 
ATOM      5  C   UNL d   1      -1.046  -0.980  -0.034  0.00  0.00     0.267 C 
ATOM      6  C   UNL d   1       1.416  -0.359  -0.296  0.00  0.00     0.267 C 
ATOM      7  C   UNL d   1       0.675  -2.670   0.244  0.00  0.00     0.035 C 
ATOM      8  O   UNL d   1      -0.557   2.561   0.155  0.00  0.00    -0.246 OA
ATOM      9  O   UNL d   1      -1.948  -1.819  -0.056  0.00  0.00    -0.267 OA
ATOM     10  O   UNL d   1       2.516  -0.639  -0.764  0.00  0.00    -0.267 OA
ATOM     11  C   UNL d   1      -2.635   0.868   0.079  0.00  0.00     0.164 C 
ATOM     12  C   UNL d   1       2.065   1.956  -0.038  0.00  0.00     0.164 C 
ENDROOT
BRANCH   7  13
ATOM     13  C   UNL d   1       2.040  -3.176   0.456  0.00  0.00    -0.013 A 
ATOM     14  C   UNL d   1       2.648  -3.166   1.723  0.00  0.00     0.044 A 
ATOM     15 CL   UNL d   1       1.771  -2.725   3.148  0.00  0.00    -0.083 Cl
ATOM     16  C   UNL d   1       3.999  -3.495   1.863  0.00  0.00     0.024 A 
ATOM     17  C   UNL d   1       4.751  -3.848   0.743  0.00  0.00     0.002 A 
ATOM     18  C   UNL d   1       4.147  -3.901  -0.512  0.00  0.00     0.001 A 
ATOM     19  C   UNL d   1       2.796  -3.575  -0.656  0.00  0.00     0.013 A 
ENDBRANCH   7  13
TORSDOF 1
