REMARK  6 active torsions:
REMARK  status: ('A' for Active; 'I' for Inactive)
REMARK    1  A    between atoms: O_12  and  C_2 
REMARK    2  A    between atoms: C_8  and  C_3 
REMARK    3  A    between atoms: C_17  and  C_6 
REMARK    4  A    between atoms: C_16  and  O_12 
REMARK    5  A    between atoms: C_13  and  C_16 
REMARK    6  A    between atoms: C_20  and  C_13 
ROOT
ATOM      1  C   UNL d   1       0.557   0.055   0.072  0.00  0.00     0.107 A 
ATOM      2  C   UNL d   1      -0.236  -1.091   0.123  0.00  0.00     0.165 A 
ATOM      3  C   UNL d   1      -0.088   1.302   0.038  0.00  0.00     0.008 A 
ATOM      4  N   UNL d   1      -1.586  -1.089   0.062  0.00  0.00    -0.335 N 
ATOM      5  HN  UNL d   1      -2.115  -1.962   0.063  1.00  0.00     0.168 HD
ATOM      6  C   UNL d   1      -2.213   0.104  -0.001  0.00  0.00     0.045 A 
ATOM      7  C   UNL d   1      -1.496   1.298   0.028  0.00  0.00     0.044 A 
ATOM      8  C   UNL d   1       1.980  -0.086   0.044  0.00  0.00     0.104 C 
ATOM      9  N   UNL d   1       3.139  -0.174   0.018  0.00  0.00    -0.191 NA
ENDROOT
BRANCH   2  10
ATOM     10  O   UNL d   1       0.396  -2.320   0.187  0.00  0.00    -0.327 OA
BRANCH  10  11
ATOM     11  C   UNL d   1      -0.419  -3.355   0.733  0.00  0.00     0.261 C 
BRANCH  11  12
ATOM     12  C   UNL d   1      -0.713  -3.211   2.231  0.00  0.00     0.183 C 
ATOM     13  O   UNL d   1      -0.286  -2.265   2.898  0.00  0.00    -0.290 OA
BRANCH  12  14
ATOM     14  C   UNL d   1      -1.504  -4.283   2.912  0.00  0.00     0.012 A 
ATOM     15  C   UNL d   1      -2.017  -5.395   2.231  0.00  0.00     0.015 A 
ATOM     16  C   UNL d   1      -2.701  -6.394   2.930  0.00  0.00     0.001 A 
ATOM     17  C   UNL d   1      -2.881  -6.290   4.309  0.00  0.00     0.000 A 
ATOM     18  C   UNL d   1      -2.392  -5.180   4.992  0.00  0.00     0.001 A 
ATOM     19  C   UNL d   1      -1.709  -4.179   4.296  0.00  0.00     0.015 A 
ENDBRANCH  12  14
ENDBRANCH  11  12
ENDBRANCH  10  11
ENDBRANCH   2  10
BRANCH   3  20
ATOM     20  C   UNL d   1       0.628   2.601   0.017  0.00  0.00     0.016 A 
ATOM     21  S   UNL d   1      -0.022   3.939  -0.867  0.00  0.00    -0.101 SA
ATOM     22  C   UNL d   1       1.236   4.982  -0.386  0.00  0.00     0.050 A 
ATOM     23  C   UNL d   1       2.173   4.333   0.381  0.00  0.00     0.008 A 
ATOM     24  C   UNL d   1       1.817   2.974   0.623  0.00  0.00     0.020 A 
ENDBRANCH   3  20
BRANCH   6  25
ATOM     25  C   UNL d   1      -3.681   0.068  -0.139  0.00  0.00    -0.009 A 
ATOM     26  C   UNL d   1      -4.372   1.044  -0.881  0.00  0.00     0.013 A 
ATOM     27  C   UNL d   1      -5.760   1.004  -1.024  0.00  0.00     0.001 A 
ATOM     28  C   UNL d   1      -6.489  -0.024  -0.435  0.00  0.00     0.000 A 
ATOM     29  C   UNL d   1      -5.830  -1.008   0.297  0.00  0.00     0.001 A 
ATOM     30  C   UNL d   1      -4.440  -0.963   0.441  0.00  0.00     0.013 A 
ENDBRANCH   6  25
TORSDOF 6
