REMARK  2 active torsions:
REMARK  status: ('A' for Active; 'I' for Inactive)
REMARK    1  A    between atoms: C_4  and  N_1 
REMARK    2  A    between atoms: C_9  and  C_4 
ROOT
ATOM      1  N   UNL d   1      -1.293   1.323   0.013  0.00  0.00    -0.337 N 
ATOM      2  C   UNL d   1      -2.433   0.575  -0.301  0.00  0.00     0.080 C 
ATOM      3  C   UNL d   1      -0.020   0.662   0.143  0.00  0.00     0.041 A 
ATOM      4  S   UNL d   1      -3.772   1.121  -1.157  0.00  0.00    -0.065 SA
ATOM      5  C   UNL d   1       0.052  -0.739   0.020  0.00  0.00    -0.031 A 
ATOM      6  C   UNL d   1      -2.428  -0.828   0.263  0.00  0.00     0.074 C 
ATOM      7  C   UNL d   1      -1.185  -1.571  -0.170  0.00  0.00     0.048 C 
ATOM      8  C   UNL d   1       1.180   1.375   0.295  0.00  0.00     0.030 A 
ATOM      9  C   UNL d   1       1.299  -1.387   0.013  0.00  0.00     0.009 A 
ATOM     10  C   UNL d   1       2.417   0.723   0.277  0.00  0.00     0.002 A 
ATOM     11  C   UNL d   1       2.477  -0.658   0.132  0.00  0.00     0.001 A 
ENDROOT
BRANCH   1  12
ATOM     12  C   UNL d   1      -1.405   2.768   0.269  0.00  0.00     0.168 C 
BRANCH  12  13
ATOM     13  C   UNL d   1      -0.957   3.716  -0.819  0.00  0.00    -0.040 A 
ATOM     14  C   UNL d   1      -0.562   3.296  -2.095  0.00  0.00     0.009 A 
ATOM     15  C   UNL d   1      -0.129   4.219  -3.043  0.00  0.00     0.001 A 
ATOM     16  C   UNL d   1      -0.100   5.583  -2.737  0.00  0.00     0.000 A 
ATOM     17  C   UNL d   1      -0.510   6.019  -1.481  0.00  0.00     0.001 A 
ATOM     18  C   UNL d   1      -0.936   5.094  -0.530  0.00  0.00     0.009 A 
ENDBRANCH  12  13
ENDBRANCH   1  12
TORSDOF 2
