REMARK  6 active torsions:
REMARK  status: ('A' for Active; 'I' for Inactive)
REMARK    1  A    between atoms: N_14  and  C_1 
REMARK       I    between atoms: C_15  and  N_10 
REMARK    2  A    between atoms: C_11  and  S_24 
REMARK       I    between atoms: C_21  and  N_14 
REMARK    3  A    between atoms: O_31  and  C_15 
REMARK    4  A    between atoms: C_30  and  C_21 
REMARK    5  A    between atoms: S_24  and  C_30 
REMARK    6  A    between atoms: C_32  and  O_31 
ROOT
ATOM      1  C   UNL d   1       1.587   1.153  -0.093  0.00  0.00     0.098 A 
ATOM      2  C   UNL d   1       1.450  -0.207   0.077  0.00  0.00     0.086 A 
ATOM      3  C   UNL d   1      -0.759   0.501  -0.147  0.00  0.00     0.011 A 
ATOM      4  C   UNL d   1       0.071  -0.594   0.030  0.00  0.00    -0.018 A 
ATOM      5  S   UNL d   1       0.110   1.945  -0.379  0.00  0.00    -0.073 SA
ATOM      6  N   UNL d   1      -2.631  -0.915  -0.534  0.00  0.00    -0.323 N 
ATOM      7  C   UNL d   1      -3.514  -1.125  -1.568  0.00  0.00     0.363 C 
ATOM      8  C   UNL d   1      -2.255   0.451  -0.190  0.00  0.00     0.174 C 
ATOM      9  C   UNL d   1       2.539  -1.139   0.179  0.00  0.00     0.103 C 
ATOM     10  N   UNL d   1       3.371  -1.944   0.222  0.00  0.00    -0.191 NA
ATOM     11  C   UNL d   1      -0.482  -1.993   0.082  0.00  0.00     0.061 C 
ATOM     12  C   UNL d   1      -2.009  -1.986   0.257  0.00  0.00     0.133 C 
ATOM     13  O   UNL d   1      -4.054  -0.226  -2.200  0.00  0.00    -0.238 OA
ENDROOT
BRANCH   1  14
ATOM     14  N   UNL d   1       2.673   2.001  -0.098  0.00  0.00    -0.319 N 
ATOM     15  C   UNL d   1       3.687   1.839   0.832  0.00  0.00     0.232 C 
ATOM     16  O   UNL d   1       3.640   1.050   1.773  0.00  0.00    -0.272 OA
ATOM     17  H   UNL d   1       2.539   2.910  -0.523  0.00  0.00     0.169 HD
BRANCH  15  18
ATOM     18  C   UNL d   1       4.845   2.800   0.634  0.00  0.00     0.186 C 
BRANCH  18  19
ATOM     19  S   UNL d   1       6.437   1.952   0.800  0.00  0.00    -0.075 SA
BRANCH  19  20
ATOM     20  C   UNL d   1       6.357   0.828  -0.522  0.00  0.00     0.204 A 
ATOM     21  O   UNL d   1       7.286  -0.156  -0.699  0.00  0.00    -0.265 OA
ATOM     22  C   UNL d   1       6.871  -0.753  -1.863  0.00  0.00     0.199 A 
ATOM     23  C   UNL d   1       7.571  -1.841  -2.478  0.00  0.00     0.127 A 
ATOM     24  N   UNL d   1       5.789  -0.172  -2.353  0.00  0.00    -0.275 N 
ATOM     25  O   UNL d   1       8.724  -2.368  -1.950  0.00  0.00    -0.318 OA
ATOM     26  C   UNL d   1       7.272  -2.526  -3.644  0.00  0.00     0.043 A 
ATOM     27  C   UNL d   1       9.141  -3.366  -2.767  0.00  0.00     0.142 A 
ATOM     28  C   UNL d   1       8.283  -3.504  -3.830  0.00  0.00     0.027 A 
ATOM     29  N   UNL d   1       5.461   0.854  -1.488  0.00  0.00    -0.272 N 
ATOM     30  HN  UNL d   1       5.293  -0.431  -3.206  1.00  0.00     0.189 HD
ATOM     31  HN  UNL d   1       4.680   1.503  -1.579  1.00  0.00     0.189 HD
ENDBRANCH  19  20
ENDBRANCH  18  19
ENDBRANCH  15  18
ENDBRANCH   1  14
BRANCH   7  32
ATOM     32  O   UNL d   1      -3.755  -2.446  -1.773  0.00  0.00    -0.304 OA
BRANCH  32  33
ATOM     33  C   UNL d   1      -4.909  -2.746  -2.568  0.00  0.00     0.176 C 
ATOM     34  C   UNL d   1      -6.116  -2.782  -1.648  0.00  0.00     0.034 C 
ENDBRANCH  32  33
ENDBRANCH   7  32
TORSDOF 6
