REMARK  2 active torsions:
REMARK  status: ('A' for Active; 'I' for Inactive)
REMARK    1  A    between atoms: C_2  and  C_1 
REMARK    2  A    between atoms: C_9  and  C_2 
ROOT
ATOM      1  C   UNL d   1      -2.108   0.660  -0.091  0.00  0.00     0.011 A 
ATOM      2  C   UNL d   1      -0.911   1.388  -0.028  0.00  0.00     0.022 A 
ATOM      3  C   UNL d   1       0.286   0.693   0.025  0.00  0.00    -0.051 A 
ATOM      4  C   UNL d   1       0.308  -0.705   0.043  0.00  0.00    -0.052 A 
ATOM      5  C   UNL d   1      -2.083  -0.748  -0.061  0.00  0.00     0.016 A 
ATOM      6  C   UNL d   1      -0.867  -1.437   0.014  0.00  0.00     0.009 A 
ATOM      7  C   UNL d   1       1.673   1.249   0.126  0.00  0.00     0.039 C 
ATOM      8  C   UNL d   1       2.510   0.029  -0.286  0.00  0.00     0.009 C 
ATOM      9  C   UNL d   1       1.714  -1.213   0.140  0.00  0.00     0.039 C 
ENDROOT
BRANCH   1  10
ATOM     10  C   UNL d   1      -3.391   1.418  -0.177  0.00  0.00     0.163 C 
ATOM     11  O   UNL d   1      -3.405   2.571   0.260  0.00  0.00    -0.292 OA
BRANCH  10  12
ATOM     12  C   UNL d   1      -4.616   0.728  -0.851  0.00  0.00     0.060 C 
ATOM     13  C   UNL d   1      -4.501   0.396  -2.363  0.00  0.00     0.012 C 
ATOM     14  C   UNL d   1      -5.933   0.912  -2.561  0.00  0.00     0.002 C 
ATOM     15  C   UNL d   1      -5.815   1.646  -1.220  0.00  0.00     0.012 C 
ENDBRANCH  10  12
ENDBRANCH   1  10
TORSDOF 2
