REMARK  2 active torsions:
REMARK  status: ('A' for Active; 'I' for Inactive)
REMARK    1  A    between atoms: C_10  and  N_2 
REMARK    2  A    between atoms: C_8  and  C_13 
ROOT
ATOM      1  C   UNL d   1       3.486  -0.255   0.363  0.00  0.00     0.036 A 
ATOM      2  N   UNL d   1       4.661   0.499   0.755  0.00  0.00    -0.248 NA
ATOM      3  C   UNL d   1       2.217   0.251   0.057  0.00  0.00     0.013 A 
ATOM      4  N   UNL d   1       1.500  -2.032  -0.354  0.00  0.00    -0.358 N 
ATOM      5  HN  UNL d   1       0.771  -2.685  -0.639  1.00  0.00     0.166 HD
ATOM      6  C   UNL d   1       3.723  -1.630   0.352  0.00  0.00    -0.012 A 
ATOM      7  C   UNL d   1       1.226  -0.705  -0.271  0.00  0.00     0.050 A 
ATOM      8  C   UNL d   1       2.737  -2.490  -0.058  0.00  0.00     0.013 A 
ATOM      9  C   UNL d   1       5.411  -0.571   1.486  0.00  0.00     0.106 C 
ATOM     10  C   UNL d   1       5.116  -1.902   0.783  0.00  0.00     0.057 C 
ATOM     11  C   UNL d   1      -0.080  -0.253  -0.496  0.00  0.00    -0.034 A 
ATOM     12  C   UNL d   1       1.893   1.622   0.107  0.00  0.00     0.015 A 
ATOM     13  C   UNL d   1       2.983  -3.960  -0.191  0.00  0.00     0.068 C 
ATOM     14  C   UNL d   1       0.595   2.052  -0.149  0.00  0.00     0.002 A 
ATOM     15  C   UNL d   1      -0.390   1.116  -0.447  0.00  0.00     0.009 A 
ATOM     16  C   UNL d   1      -1.174  -1.240  -0.813  0.00  0.00     0.050 C 
ENDROOT
BRANCH   2  17
ATOM     17  C   UNL d   1       5.522   1.155  -0.180  0.00  0.00     0.016 A 
ATOM     18  C   UNL d   1       6.673   1.817   0.286  0.00  0.00     0.040 A 
ATOM     19  C   UNL d   1       7.629   2.349  -0.596  0.00  0.00     0.049 A 
ATOM     20  C   UNL d   1       7.396   2.264  -1.974  0.00  0.00     0.016 A 
ATOM     21  C   UNL d   1       6.228   1.673  -2.453  0.00  0.00     0.003 A 
ATOM     22  C   UNL d   1       5.298   1.126  -1.562  0.00  0.00     0.024 A 
BRANCH  19  23
ATOM     23  C   UNL d   1       8.913   2.946  -0.078  0.00  0.00     0.417 C 
ATOM     24  F   UNL d   1       8.935   3.106   1.275  0.00  0.00    -0.166 F 
ATOM     25  F   UNL d   1       9.995   2.173  -0.375  0.00  0.00    -0.166 F 
ATOM     26  F   UNL d   1       9.177   4.174  -0.604  0.00  0.00    -0.166 F 
ENDBRANCH  19  23
ENDBRANCH   2  17
TORSDOF 2
