REMARK  4 active torsions:
REMARK  status: ('A' for Active; 'I' for Inactive)
REMARK    1  A    between atoms: C_8  and  C_1 
REMARK    2  A    between atoms: C_9  and  N_2 
REMARK    3  A    between atoms: N_11  and  C_7 
REMARK    4  A    between atoms: C_12  and  C_8 
ROOT
ATOM      1  C   UNL d   1      -0.134  -1.221  -0.115  0.00  0.00     0.146 A 
ATOM      2  N   UNL d   1       0.938   0.590  -0.000  0.00  0.00    -0.195 N 
ATOM      3  N   UNL d   1       1.119  -0.739  -0.203  0.00  0.00    -0.272 N 
ATOM      4  HN  UNL d   1       1.987  -1.246  -0.379  1.00  0.00     0.189 HD
ATOM      5  N   UNL d   1      -0.337   0.997   0.203  0.00  0.00    -0.262 N 
ATOM      6  HN  UNL d   1      -0.686   1.941   0.372  1.00  0.00     0.191 HD
ATOM      7  C   UNL d   1      -1.019  -0.141   0.128  0.00  0.00     0.148 A 
ENDROOT
BRANCH   1   8
ATOM      8  C   UNL d   1      -0.464  -2.634  -0.266  0.00  0.00     0.213 C 
ATOM      9  O   UNL d   1      -1.450  -3.144   0.261  0.00  0.00    -0.285 OA
BRANCH   8  10
ATOM     10  C   UNL d   1       0.407  -3.483  -1.127  0.00  0.00     0.017 A 
ATOM     11  C   UNL d   1       0.961  -2.984  -2.315  0.00  0.00     0.015 A 
ATOM     12  C   UNL d   1       1.736  -3.810  -3.127  0.00  0.00     0.001 A 
ATOM     13  C   UNL d   1       1.955  -5.138  -2.764  0.00  0.00     0.000 A 
ATOM     14  C   UNL d   1       1.395  -5.645  -1.591  0.00  0.00     0.001 A 
ATOM     15  C   UNL d   1       0.614  -4.822  -0.773  0.00  0.00     0.015 A 
ENDBRANCH   8  10
ENDBRANCH   1   8
BRANCH   7  16
ATOM     16  N   UNL d   1      -2.351  -0.213   0.218  0.00  0.00    -0.382 N 
ATOM     17  H   UNL d   1      -2.910   0.625   0.322  0.00  0.00     0.157 HD
ATOM     18  H   UNL d   1      -2.860  -1.093   0.175  0.00  0.00     0.157 HD
ENDBRANCH   7  16
BRANCH   2  19
ATOM     19  C   UNL d   1       2.025   1.503  -0.052  0.00  0.00     0.075 A 
ATOM     20  C   UNL d   1       3.314   1.040  -0.362  0.00  0.00     0.035 A 
ATOM     21  C   UNL d   1       4.378   1.942  -0.444  0.00  0.00     0.026 A 
ATOM     22  C   UNL d   1       4.158   3.299  -0.207  0.00  0.00     0.034 A 
ATOM     23  C   UNL d   1       2.883   3.764   0.114  0.00  0.00     0.026 A 
ATOM     24 CL   UNL d   1       5.469   4.407  -0.317  0.00  0.00    -0.084 Cl
ATOM     25  C   UNL d   1       1.812   2.867   0.190  0.00  0.00     0.035 A 
ENDBRANCH   2  19
TORSDOF 4
