REMARK  4 active torsions:
REMARK  status: ('A' for Active; 'I' for Inactive)
REMARK    1  A    between atoms: C_8  and  C_1 
REMARK    2  A    between atoms: N_5  and  C_4 
REMARK       I    between atoms: C_9  and  N_5 
REMARK    3  A    between atoms: O_12  and  C_8 
REMARK    4  A    between atoms: C_14  and  O_12 
ROOT
ATOM      1  C   UNL d   1       1.365   0.751   0.034  0.00  0.00     0.117 A 
ATOM      2  N   UNL d   1       1.580  -0.622   0.114  0.00  0.00    -0.331 N 
ATOM      3  HN  UNL d   1       2.495  -1.066   0.191  1.00  0.00     0.168 HD
ATOM      4  C   UNL d   1       0.443  -1.258   0.075  0.00  0.00     0.151 A 
ATOM      5  S   UNL d   1      -0.959  -0.295  -0.044  0.00  0.00    -0.063 SA
ATOM      6  C   UNL d   1       0.028   1.111  -0.010  0.00  0.00     0.089 A 
ENDROOT
BRANCH   1   7
ATOM      7  C   UNL d   1       2.471   1.702  -0.072  0.00  0.00     0.310 C 
ATOM      8  O   UNL d   1       2.310   2.910  -0.196  0.00  0.00    -0.258 OA
BRANCH   7   9
ATOM      9  O   UNL d   1       3.677   1.067  -0.132  0.00  0.00    -0.317 OA
BRANCH   9  10
ATOM     10  C   UNL d   1       4.753   1.815  -0.704  0.00  0.00     0.175 C 
ATOM     11  C   UNL d   1       4.703   1.647  -2.212  0.00  0.00     0.034 C 
ENDBRANCH   9  10
ENDBRANCH   7   9
ENDBRANCH   1   7
BRANCH   4  12
ATOM     12  N   UNL d   1       0.211  -2.604   0.100  0.00  0.00    -0.307 N 
ATOM     13  C   UNL d   1       1.223  -3.507   0.345  0.00  0.00     0.219 C 
ATOM     14  O   UNL d   1       2.390  -3.257   0.618  0.00  0.00    -0.274 OA
ATOM     15  C   UNL d   1       0.756  -4.940   0.285  0.00  0.00     0.117 C 
ATOM     16  H   UNL d   1      -0.743  -2.905  -0.021  0.00  0.00     0.171 HD
ENDBRANCH   4  12
TORSDOF 4
