REMARK  3 active torsions:
REMARK  status: ('A' for Active; 'I' for Inactive)
REMARK    1  A    between atoms: C_11  and  N_9 
REMARK    2  A    between atoms: O_19  and  N_13 
REMARK    3  A    between atoms: O_20  and  C_17 
ROOT
ATOM      1  C   UNL d   1      -1.047   0.295   0.043  0.00  0.00     0.058 A 
ATOM      2  N   UNL d   1      -1.905   1.373  -0.101  0.00  0.00    -0.335 N 
ATOM      3  HN  UNL d   1      -1.613   2.339  -0.248  1.00  0.00     0.168 HD
ATOM      4  C   UNL d   1      -3.162   0.962  -0.020  0.00  0.00     0.150 A 
ATOM      5  C   UNL d   1      -1.662  -0.916   0.257  0.00  0.00     0.014 A 
ATOM      6  S   UNL d   1      -3.338  -0.739   0.283  0.00  0.00    -0.056 SA
ATOM      7  C   UNL d   1       0.414   0.329  -0.013  0.00  0.00    -0.002 A 
ATOM      8  C   UNL d   1       1.107  -0.899  -0.144  0.00  0.00    -0.043 A 
ATOM      9  N   UNL d   1      -4.228   1.787  -0.162  0.00  0.00    -0.331 N 
ATOM     10  C   UNL d   1       1.146   1.514   0.105  0.00  0.00     0.017 A 
ATOM     11  C   UNL d   1      -0.966  -2.214   0.454  0.00  0.00     0.053 C 
ATOM     12  C   UNL d   1       2.506  -0.914  -0.156  0.00  0.00     0.044 A 
ATOM     13  C   UNL d   1       0.347  -2.197  -0.336  0.00  0.00     0.045 C 
ATOM     14  C   UNL d   1       3.234   0.267  -0.011  0.00  0.00     0.068 A 
ATOM     15  C   UNL d   1       2.552   1.481   0.112  0.00  0.00     0.037 A 
ATOM     16  H   UNL d   1      -4.020   2.761  -0.341  0.00  0.00     0.168 HD
ENDROOT
BRANCH   9  17
ATOM     17  C   UNL d   1      -5.557   1.482  -0.126  0.00  0.00     0.206 C 
ATOM     18  N   UNL d   1      -6.533   2.316  -0.289  0.00  0.00    -0.265 N 
ATOM     19  HN  UNL d   1      -6.442   3.317  -0.465  1.00  0.00     0.194 HD
BRANCH  18  20
ATOM     20  O   UNL d   1      -7.739   1.605  -0.181  0.00  0.00    -0.289 OA
ATOM     21  H   UNL d   1      -8.411   2.299  -0.311  0.00  0.00     0.244 HD
ENDBRANCH  18  20
ENDBRANCH   9  17
BRANCH  14  22
ATOM     22  O   UNL d   1       4.588   0.082  -0.007  0.00  0.00    -0.356 OA
ATOM     23  C   UNL d   1       5.406   1.222   0.209  0.00  0.00     0.210 C 
ENDBRANCH  14  22
TORSDOF 3
