REMARK  6 active torsions:
REMARK  status: ('A' for Active; 'I' for Inactive)
REMARK    1  A    between atoms: C_8  and  N_1 
REMARK    2  A    between atoms: C_7  and  C_2 
REMARK    3  A    between atoms: N_12  and  C_9 
REMARK    4  A    between atoms: C_13  and  N_12 
REMARK    5  A    between atoms: O_22  and  C_14 
REMARK    6  A    between atoms: O_23  and  C_15 
ROOT
ATOM      1  N   UNL d   1       4.923  -1.040  -0.012  0.00  0.00    -0.225 N 
ATOM      2  C   UNL d   1       3.620  -0.595  -0.239  0.00  0.00     0.139 C 
ATOM      3  N   UNL d   1       4.897   1.088   0.185  0.00  0.00    -0.007 NA
ATOM      4  N   UNL d   1       5.662   0.025   0.380  0.00  0.00     0.001 NA
ATOM      5  N   UNL d   1       3.637   0.725  -0.212  0.00  0.00    -0.270 N 
ATOM      6  HN  UNL d   1       2.864   1.351  -0.441  1.00  0.00     0.185 HD
ENDROOT
BRANCH   2   7
ATOM      7  C   UNL d   1       2.533  -1.500  -0.312  0.00  0.00     0.068 C 
ATOM      8  C   UNL d   1       1.359  -1.220  -0.893  0.00  0.00     0.092 C 
BRANCH   8   9
ATOM      9  N   UNL d   1       0.933  -0.087  -1.534  0.00  0.00    -0.366 N 
ATOM     10  H   UNL d   1       1.577   0.702  -1.501  0.00  0.00     0.165 HD
BRANCH   9  11
ATOM     11  C   UNL d   1      -0.331   0.170  -2.099  0.00  0.00     0.032 A 
ATOM     12  C   UNL d   1      -1.405  -0.730  -2.030  0.00  0.00     0.032 A 
ATOM     13  C   UNL d   1      -2.627  -0.452  -2.653  0.00  0.00     0.039 A 
ATOM     14  C   UNL d   1      -2.785   0.725  -3.363  0.00  0.00     0.065 A 
ATOM     15  C   UNL d   1      -1.740   1.634  -3.462  0.00  0.00     0.039 A 
ATOM     16  C   UNL d   1      -0.519   1.351  -2.834  0.00  0.00     0.032 A 
BRANCH  14  17
ATOM     17  O   UNL d   1      -3.991   0.953  -3.955  0.00  0.00    -0.361 OA
ATOM     18  H   UNL d   1      -3.965   1.819  -4.391  0.00  0.00     0.217 HD
ENDBRANCH  14  17
ENDBRANCH   9  11
ENDBRANCH   8   9
ENDBRANCH   2   7
BRANCH   1  19
ATOM     19  C   UNL d   1       5.499  -2.331  -0.142  0.00  0.00     0.056 A 
ATOM     20  C   UNL d   1       4.981  -3.261  -1.056  0.00  0.00     0.034 A 
ATOM     21  C   UNL d   1       5.512  -4.552  -1.127  0.00  0.00     0.039 A 
ATOM     22  C   UNL d   1       6.554  -4.927  -0.281  0.00  0.00     0.068 A 
ATOM     23  C   UNL d   1       7.119  -3.979   0.575  0.00  0.00     0.039 A 
ATOM     24  C   UNL d   1       6.605  -2.679   0.641  0.00  0.00     0.034 A 
BRANCH  22  25
ATOM     25  O   UNL d   1       7.109  -6.175  -0.226  0.00  0.00    -0.356 OA
ATOM     26  C   UNL d   1       6.260  -7.244  -0.636  0.00  0.00     0.210 C 
ENDBRANCH  22  25
ENDBRANCH   1  19
TORSDOF 6
