REMARK  2 active torsions:
REMARK  status: ('A' for Active; 'I' for Inactive)
REMARK    1  A    between atoms: S_2  and  N_1 
REMARK    2  A    between atoms: C_8  and  S_2 
ROOT
ATOM      1  N   UNL d   1       2.428   0.060   0.053  0.00  0.00    -0.188 N 
ATOM      2  N   UNL d   1       1.654   1.185  -0.038  0.00  0.00    -0.288 N 
ATOM      3  HN  UNL d   1       1.956   2.158  -0.092  1.00  0.00     0.188 HD
ATOM      4  C   UNL d   1       0.364  -0.704  -0.043  0.00  0.00     0.008 A 
ATOM      5  C   UNL d   1       1.680  -1.101  -0.019  0.00  0.00     0.140 A 
ATOM      6  C   UNL d   1       0.409   0.704  -0.037  0.00  0.00     0.039 A 
ATOM      7  O   UNL d   1      -1.964  -0.604  -0.632  0.00  0.00    -0.386 OA
ATOM      8  C   UNL d   1      -0.923  -1.436  -0.081  0.00  0.00     0.209 C 
ATOM      9  C   UNL d   1      -0.818   1.540  -0.104  0.00  0.00     0.085 C 
ATOM     10  C   UNL d   1      -2.074   0.657   0.057  0.00  0.00     0.174 C 
ENDROOT
BRANCH   1  11
ATOM     11  S   UNL d   1       4.162   0.023   0.065  0.00  0.00     0.282 S 
ATOM     12  O   UNL d   1       4.603   1.275   0.654  0.00  0.00    -0.198 OA
ATOM     13  O   UNL d   1       4.517  -1.264   0.636  0.00  0.00    -0.198 OA
BRANCH  11  14
ATOM     14  C   UNL d   1       4.620   0.028  -1.649  0.00  0.00     0.081 A 
ATOM     15  C   UNL d   1       4.301   1.129  -2.450  0.00  0.00     0.027 A 
ATOM     16  C   UNL d   1       4.702   1.143  -3.789  0.00  0.00     0.025 A 
ATOM     17  C   UNL d   1       5.419   0.067  -4.314  0.00  0.00     0.034 A 
ATOM     18  C   UNL d   1       5.749  -1.024  -3.510  0.00  0.00     0.025 A 
ATOM     19 CL   UNL d   1       5.911   0.088  -5.963  0.00  0.00    -0.084 Cl
ATOM     20  C   UNL d   1       5.354  -1.045  -2.170  0.00  0.00     0.027 A 
ENDBRANCH  11  14
ENDBRANCH   1  11
TORSDOF 2
