REMARK  16 active torsions:
REMARK  status: ('A' for Active; 'I' for Inactive)
REMARK    1  A    between atoms: C_2  and  C_1 
REMARK    2  A    between atoms: C_3  and  C_1 
REMARK    3  A    between atoms: C_1  and  O_6 
REMARK    4  A    between atoms: C_5  and  C_2 
REMARK    5  A    between atoms: C_2  and  O_7 
REMARK    6  A    between atoms: C_4  and  C_3 
REMARK    7  A    between atoms: C_3  and  O_8 
REMARK    8  A    between atoms: C_4  and  O_9 
REMARK    9  A    between atoms: C_15  and  C_4 
REMARK   10  A    between atoms: O_23  and  C_5 
REMARK   11  A    between atoms: C_10  and  O_6 
REMARK   12  A    between atoms: C_11  and  O_7 
REMARK   13  A    between atoms: C_12  and  O_8 
REMARK   14  A    between atoms: C_13  and  O_9 
REMARK   15  A    between atoms: C_14  and  O_17 
REMARK   16  A    between atoms: O_17  and  C_15 
ROOT
ATOM      1  C   UNL d   1       0.311   0.760  -1.144  0.00  0.00     0.196 C 
ENDROOT
BRANCH   1   2
ATOM      2  C   UNL d   1       0.835   0.047   0.139  0.00  0.00     0.204 C 
BRANCH   2   3
ATOM      3  C   UNL d   1       0.283   0.525   1.502  0.00  0.00     0.261 C 
BRANCH   3   4
ATOM      4  C   UNL d   1      -1.236   0.533   1.605  0.00  0.00     0.173 C 
ATOM      5  O   UNL d   1      -1.925  -0.405   1.981  0.00  0.00    -0.648 OA
BRANCH   4   6
ATOM      6  O   UNL d   1      -1.800   1.718   1.260  0.00  0.00    -0.774 OA
ATOM      7  H   UNL d   1      -1.170   2.429   1.028  0.00  0.00     0.167 HD
ENDBRANCH   4   6
ENDBRANCH   3   4
BRANCH   3   8
ATOM      8  O   UNL d   1       0.746  -0.427   2.501  0.00  0.00    -0.303 OA
BRANCH   8   9
ATOM      9  C   UNL d   1       1.543   0.044   3.490  0.00  0.00     0.255 C 
ATOM     10  O   UNL d   1       1.913   1.201   3.607  0.00  0.00    -0.266 OA
ATOM     11  C   UNL d   1       1.904  -1.051   4.447  0.00  0.00     0.126 C 
ENDBRANCH   8   9
ENDBRANCH   3   8
ENDBRANCH   2   3
BRANCH   2  12
ATOM     12  O   UNL d   1       2.303   0.086   0.197  0.00  0.00    -0.310 OA
BRANCH  12  13
ATOM     13  C   UNL d   1       2.933   1.283   0.334  0.00  0.00     0.255 C 
ATOM     14  O   UNL d   1       2.365   2.366   0.316  0.00  0.00    -0.266 OA
ATOM     15  C   UNL d   1       4.413   1.102   0.474  0.00  0.00     0.126 C 
ENDBRANCH  12  13
ENDBRANCH   2  12
ENDBRANCH   1   2
BRANCH   1  16
ATOM     16  C   UNL d   1       0.968   0.291  -2.484  0.00  0.00     0.188 C 
BRANCH  16  17
ATOM     17  O   UNL d   1       0.530  -1.047  -2.825  0.00  0.00    -0.311 OA
BRANCH  17  18
ATOM     18  C   UNL d   1       1.302  -2.088  -2.419  0.00  0.00     0.255 C 
ATOM     19  O   UNL d   1       2.403  -1.987  -1.899  0.00  0.00    -0.266 OA
ATOM     20  C   UNL d   1       0.580  -3.385  -2.628  0.00  0.00     0.126 C 
ENDBRANCH  17  18
ENDBRANCH  16  17
BRANCH  16  21
ATOM     21  C   UNL d   1       0.496   1.203  -3.636  0.00  0.00     0.213 C 
BRANCH  21  22
ATOM     22  O   UNL d   1       1.037   0.788  -4.904  0.00  0.00    -0.319 OA
BRANCH  22  23
ATOM     23  C   UNL d   1       2.287   1.235  -5.187  0.00  0.00     0.254 C 
ATOM     24  O   UNL d   1       2.974   1.916  -4.440  0.00  0.00    -0.266 OA
ATOM     25  C   UNL d   1       2.706   0.797  -6.558  0.00  0.00     0.126 C 
ENDBRANCH  22  23
ENDBRANCH  21  22
ENDBRANCH  16  21
ENDBRANCH   1  16
BRANCH   1  26
ATOM     26  O   UNL d   1      -1.136   0.790  -1.306  0.00  0.00    -0.311 OA
BRANCH  26  27
ATOM     27  C   UNL d   1      -1.833  -0.377  -1.384  0.00  0.00     0.255 C 
ATOM     28  O   UNL d   1      -1.429  -1.462  -1.000  0.00  0.00    -0.266 OA
ATOM     29  C   UNL d   1      -3.156  -0.154  -2.047  0.00  0.00     0.126 C 
ENDBRANCH  26  27
ENDBRANCH   1  26
TORSDOF 16
