REMARK  4 active torsions:
REMARK  status: ('A' for Active; 'I' for Inactive)
REMARK    1  A    between atoms: N_4  and  C_1 
REMARK    2  A    between atoms: N_7  and  C_1 
REMARK    3  A    between atoms: C_3  and  N_4 
REMARK    4  A    between atoms: N_8  and  N_7 
ROOT
ATOM      1  N   UNL d   1       0.416   0.438  -1.106  0.00  0.00    -0.332 N 
ATOM      2  H   UNL d   1       0.902  -0.123  -0.421  0.00  0.00     0.168 HD
ENDROOT
BRANCH   1   3
ATOM      3  C   UNL d   1       0.985   0.558  -2.395  0.00  0.00     0.042 A 
ATOM      4  C   UNL d   1       1.990  -0.335  -2.828  0.00  0.00    -0.013 A 
ATOM      5  C   UNL d   1       2.632  -0.067  -4.058  0.00  0.00     0.042 A 
ATOM      6  C   UNL d   1       2.366  -1.569  -2.051  0.00  0.00     0.052 C 
ATOM      7 CL   UNL d   1       3.906  -1.077  -4.657  0.00  0.00    -0.084 Cl
ATOM      8  C   UNL d   1       2.279   1.033  -4.840  0.00  0.00     0.024 A 
ATOM      9  C   UNL d   1       1.276   1.893  -4.413  0.00  0.00     0.004 A 
ATOM     10  C   UNL d   1       0.640   1.657  -3.196  0.00  0.00     0.030 A 
ENDBRANCH   1   3
BRANCH   1  11
ATOM     11  C   UNL d   1      -0.848   0.819  -0.698  0.00  0.00     0.186 C 
ATOM     12  S   UNL d   1      -2.258   0.744  -1.591  0.00  0.00    -0.040 SA
BRANCH  11  13
ATOM     13  N   UNL d   1      -0.910   1.246   0.619  0.00  0.00    -0.298 N 
ATOM     14  H   UNL d   1      -1.826   1.597   0.902  0.00  0.00     0.183 HD
BRANCH  13  15
ATOM     15  N   UNL d   1       0.222   1.828   1.236  0.00  0.00    -0.242 NA
ATOM     16  C   UNL d   1       0.473   1.241   2.544  0.00  0.00     0.133 C 
ATOM     17  H   UNL d   1       1.034   1.722   0.624  0.00  0.00     0.146 HD
ENDBRANCH  13  15
ENDBRANCH  11  13
ENDBRANCH   1  11
TORSDOF 4
