REMARK  6 active torsions:
REMARK  status: ('A' for Active; 'I' for Inactive)
REMARK    1  A    between atoms: C_7  and  C_2 
REMARK    2  A    between atoms: C_6  and  N_3 
REMARK    3  A    between atoms: N_11  and  C_6 
REMARK    4  A    between atoms: C_10  and  O_15 
REMARK    5  A    between atoms: C_19  and  N_11 
REMARK    6  A    between atoms: O_15  and  C_23 
ROOT
ATOM      1  C   UNL d   1       1.024  -0.785   0.232  0.00  0.00     0.049 A 
ATOM      2  C   UNL d   1       2.429  -1.322   0.298  0.00  0.00     0.244 C 
ATOM      3  N   UNL d   1       3.357  -0.229  -0.188  0.00  0.00    -0.339 N 
ATOM      4  C   UNL d   1       0.633   0.527   0.057  0.00  0.00    -0.019 A 
ATOM      5  N   UNL d   1      -0.103  -1.561   0.301  0.00  0.00    -0.356 N 
ATOM      6  C   UNL d   1      -0.792   0.550   0.034  0.00  0.00    -0.001 A 
ATOM      7  C   UNL d   1      -1.223  -0.772   0.184  0.00  0.00     0.043 A 
ATOM      8  C   UNL d   1       3.033   1.132   0.331  0.00  0.00     0.131 C 
ATOM      9  C   UNL d   1       1.632   1.615  -0.113  0.00  0.00     0.061 C 
ATOM     10  C   UNL d   1      -1.761   1.559  -0.111  0.00  0.00     0.014 A 
ATOM     11  C   UNL d   1      -2.575  -1.135   0.188  0.00  0.00     0.030 A 
ATOM     12  C   UNL d   1      -3.118   1.214  -0.103  0.00  0.00     0.001 A 
ATOM     13  C   UNL d   1      -3.517  -0.113   0.040  0.00  0.00     0.002 A 
ATOM     14  H   UNL d   1      -0.127  -2.565   0.422  0.00  0.00     0.166 HD
ENDROOT
BRANCH   3  15
ATOM     15  C   UNL d   1       4.606  -0.570  -0.748  0.00  0.00     0.175 C 
ATOM     16  S   UNL d   1       5.054  -2.163  -1.102  0.00  0.00    -0.041 SA
BRANCH  15  17
ATOM     17  N   UNL d   1       5.398   0.527  -1.080  0.00  0.00    -0.333 N 
ATOM     18  H   UNL d   1       4.897   1.235  -1.603  0.00  0.00     0.168 HD
BRANCH  17  19
ATOM     19  C   UNL d   1       6.800   0.495  -1.290  0.00  0.00     0.034 A 
ATOM     20  C   UNL d   1       7.359   1.220  -2.346  0.00  0.00     0.032 A 
ATOM     21  C   UNL d   1       8.732   1.117  -2.631  0.00  0.00     0.039 A 
ATOM     22  C   UNL d   1       9.562   0.339  -1.824  0.00  0.00     0.078 A 
ATOM     23  C   UNL d   1       9.004  -0.335  -0.735  0.00  0.00     0.039 A 
ATOM     24  C   UNL d   1       7.641  -0.245  -0.459  0.00  0.00     0.032 A 
BRANCH  22  25
ATOM     25  O   UNL d   1      10.903   0.142  -1.950  0.00  0.00    -0.255 OA
BRANCH  25  26
ATOM     26  C   UNL d   1      11.648   0.896  -2.885  0.00  0.00     0.530 C 
ATOM     27  F   UNL d   1      11.245   2.187  -2.952  0.00  0.00    -0.144 F 
ATOM     28  F   UNL d   1      12.941   0.891  -2.493  0.00  0.00    -0.144 F 
ATOM     29  F   UNL d   1      11.575   0.338  -4.109  0.00  0.00    -0.144 F 
ENDBRANCH  25  26
ENDBRANCH  22  25
ENDBRANCH  17  19
ENDBRANCH  15  17
ENDBRANCH   3  15
BRANCH   2  30
ATOM     30  C   UNL d   1       2.812  -1.918   1.691  0.00  0.00     0.413 C 
ATOM     31  F   UNL d   1       1.775  -1.903   2.565  0.00  0.00    -0.168 F 
ATOM     32  F   UNL d   1       3.189  -3.216   1.576  0.00  0.00    -0.168 F 
ATOM     33  F   UNL d   1       3.831  -1.251   2.283  0.00  0.00    -0.168 F 
ENDBRANCH   2  30
TORSDOF 6
