REMARK  3 active torsions:
REMARK  status: ('A' for Active; 'I' for Inactive)
REMARK    1  A    between atoms: C_10  and  N_1 
REMARK    2  A    between atoms: N_7  and  N_2 
REMARK    3  A    between atoms: C_22  and  C_16 
ROOT
ATOM      1  N   UNL d   1      -0.699  -1.158   0.213  0.00  0.00    -0.308 N 
ATOM      2  N   UNL d   1       0.763   1.118   0.253  0.00  0.00    -0.251 N 
ATOM      3  C   UNL d   1      -1.421   0.043   0.122  0.00  0.00     0.244 C 
ATOM      4  C   UNL d   1       1.497  -0.062   0.034  0.00  0.00     0.257 C 
ATOM      5  C   UNL d   1      -0.566   1.218  -0.344  0.00  0.00     0.255 C 
ATOM      6  C   UNL d   1       0.613  -1.224  -0.432  0.00  0.00     0.236 C 
ATOM      7  O   UNL d   1       2.720  -0.175   0.085  0.00  0.00    -0.270 OA
ATOM      8  O   UNL d   1      -2.638   0.142   0.244  0.00  0.00    -0.271 OA
ENDROOT
BRANCH   2   9
ATOM      9  N   UNL d   1       1.330   2.325   0.628  0.00  0.00    -0.306 N 
ATOM     10  C   UNL d   1       2.358   2.307   1.415  0.00  0.00     0.118 C 
ATOM     11  HN  UNL d   1       0.945   3.208   0.292  1.00  0.00     0.186 HD
BRANCH  10  12
ATOM     12  C   UNL d   1       2.985   3.557   1.900  0.00  0.00    -0.017 A 
ATOM     13  C   UNL d   1       4.091   3.454   2.751  0.00  0.00     0.052 A 
ATOM     14  C   UNL d   1       4.649   4.627   3.212  0.00  0.00     0.105 A 
ATOM     15  O   UNL d   1       5.728   4.721   4.035  0.00  0.00    -0.323 OA
ATOM     16  C   UNL d   1       4.143   5.860   2.870  0.00  0.00     0.105 A 
ATOM     17  C   UNL d   1       5.888   6.153   4.110  0.00  0.00     0.352 A 
ATOM     18  O   UNL d   1       4.842   6.881   3.433  0.00  0.00    -0.323 OA
ATOM     19  C   UNL d   1       3.048   5.991   2.042  0.00  0.00     0.040 A 
ATOM     20  C   UNL d   1       2.464   4.820   1.545  0.00  0.00     0.016 A 
ENDBRANCH  10  12
ENDBRANCH   2   9
BRANCH   1  21
ATOM     21  C   UNL d   1      -1.345  -2.368   0.577  0.00  0.00     0.037 A 
ATOM     22  C   UNL d   1      -1.219  -3.511  -0.217  0.00  0.00     0.030 A 
ATOM     23  C   UNL d   1      -1.804  -4.717   0.173  0.00  0.00     0.009 A 
ATOM     24  C   UNL d   1      -2.499  -4.808   1.382  0.00  0.00    -0.062 A 
ATOM     25  C   UNL d   1      -2.624  -3.666   2.182  0.00  0.00     0.009 A 
ATOM     26  C   UNL d   1      -3.086  -6.123   1.801  0.00  0.00     0.048 C 
ATOM     27  C   UNL d   1      -2.068  -2.448   1.773  0.00  0.00     0.030 A 
ENDBRANCH   1  21
TORSDOF 3
