REMARK  3 active torsions:
REMARK  status: ('A' for Active; 'I' for Inactive)
REMARK    1  A    between atoms: N_18  and  C_8 
REMARK    2  A    between atoms: C_13  and  C_17 
REMARK    3  A    between atoms: N_14  and  N_18 
ROOT
ATOM      1  C   UNL d   1       1.235  -0.820  -0.038  0.00  0.00     0.150 A 
ATOM      2  C   UNL d   1       0.799   0.490   0.008  0.00  0.00     0.105 A 
ATOM      3  N   UNL d   1       2.515  -1.230  -0.079  0.00  0.00    -0.172 N 
ATOM      4  HN  UNL d   1       2.806  -2.207  -0.120  1.00  0.00     0.186 HD
ATOM      5  N   UNL d   1       0.129  -1.623  -0.035  0.00  0.00    -0.339 N 
ATOM      6  N   UNL d   1       1.700   1.498   0.032  0.00  0.00    -0.282 N 
ATOM      7  HN  UNL d   1       1.417   2.477   0.069  1.00  0.00     0.187 HD
ATOM      8  C   UNL d   1       3.369  -0.178  -0.058  0.00  0.00     0.713 A 
ATOM      9  C   UNL d   1      -0.619   0.486   0.010  0.00  0.00     0.022 A 
ATOM     10  C   UNL d   1      -1.019  -0.856  -0.011  0.00  0.00     0.046 A 
ATOM     11  N   UNL d   1       2.989   1.132   0.002  0.00  0.00    -0.130 N 
ATOM     12  HN  UNL d   1       3.709   1.854   0.025  1.00  0.00     0.205 HD
ATOM     13  C   UNL d   1      -1.608   1.490   0.023  0.00  0.00     0.016 A 
ATOM     14  C   UNL d   1      -2.367  -1.239  -0.009  0.00  0.00     0.030 A 
ATOM     15  C   UNL d   1      -2.958   1.121   0.017  0.00  0.00     0.001 A 
ATOM     16  C   UNL d   1      -3.327  -0.223   0.005  0.00  0.00     0.002 A 
ATOM     17  H   UNL d   1       0.160  -2.630  -0.059  0.00  0.00     0.167 HD
ENDROOT
BRANCH   8  18
ATOM     18  N   UNL d   1       4.738  -0.515  -0.122  0.00  0.00    -0.131 N 
ATOM     19  H   UNL d   1       4.819  -1.517   0.025  0.00  0.00     0.205 HD
BRANCH  18  20
ATOM     20  N   UNL d   1       5.633   0.343   0.454  0.00  0.00    -0.296 N 
ATOM     21  C   UNL d   1       6.868  -0.046   0.431  0.00  0.00     0.126 C 
ATOM     22  HN  UNL d   1       5.347   1.228   0.871  1.00  0.00     0.186 HD
BRANCH  21  23
ATOM     23  C   UNL d   1       7.899   0.775   1.015  0.00  0.00     0.021 A 
ATOM     24  S   UNL d   1       9.528   0.259   0.944  0.00  0.00    -0.101 SA
ATOM     25  C   UNL d   1      10.073   1.658   1.765  0.00  0.00     0.050 A 
ATOM     26  C   UNL d   1       9.035   2.501   2.095  0.00  0.00     0.008 A 
ATOM     27  C   UNL d   1       7.777   1.989   1.662  0.00  0.00     0.021 A 
ENDBRANCH  21  23
ENDBRANCH  18  20
ENDBRANCH   8  18
TORSDOF 3
