REMARK  4 active torsions:
REMARK  status: ('A' for Active; 'I' for Inactive)
REMARK    1  A    between atoms: C_5  and  N_1 
REMARK    2  A    between atoms: S_7  and  C_4 
REMARK    3  A    between atoms: C_10  and  S_7 
REMARK    4  A    between atoms: N_18  and  C_15 
ROOT
ATOM      1  N   UNL d   1       0.044   0.858  -0.026  0.00  0.00    -0.251 N 
ATOM      2  C   UNL d   1      -1.089   0.111   0.207  0.00  0.00     0.232 C 
ATOM      3  C   UNL d   1       1.155   0.050  -0.147  0.00  0.00     0.245 C 
ATOM      4  C   UNL d   1       0.720  -1.399  -0.194  0.00  0.00     0.154 C 
ATOM      5  C   UNL d   1      -0.744  -1.349   0.189  0.00  0.00     0.129 C 
ATOM      6  O   UNL d   1      -2.231   0.495   0.415  0.00  0.00    -0.273 OA
ATOM      7  O   UNL d   1       2.333   0.388  -0.174  0.00  0.00    -0.271 OA
ENDROOT
BRANCH   4   8
ATOM      8  S   UNL d   1       1.036  -2.023  -1.889  0.00  0.00    -0.113 SA
BRANCH   8   9
ATOM      9  C   UNL d   1       0.540  -3.744  -1.727  0.00  0.00     0.022 A 
ATOM     10  C   UNL d   1      -0.465  -4.262  -2.571  0.00  0.00     0.022 A 
ATOM     11  C   UNL d   1      -0.867  -5.593  -2.413  0.00  0.00     0.024 A 
ATOM     12  C   UNL d   1      -0.206  -6.435  -1.518  0.00  0.00     0.002 A 
ATOM     13  C   UNL d   1       0.837  -5.940  -0.739  0.00  0.00     0.001 A 
ATOM     14  C   UNL d   1       1.206  -4.596  -0.837  0.00  0.00     0.020 A 
BRANCH  10  15
ATOM     15  N   UNL d   1      -1.221  -3.418  -3.413  0.00  0.00    -0.302 NA
ATOM     16  H   UNL d   1      -0.676  -2.604  -3.695  0.00  0.00     0.124 HD
ATOM     17  H   UNL d   1      -1.622  -3.902  -4.210  0.00  0.00     0.124 HD
ENDBRANCH  10  15
ENDBRANCH   8   9
ENDBRANCH   4   8
BRANCH   1  18
ATOM     18  C   UNL d   1       0.074   2.286  -0.106  0.00  0.00     0.048 A 
ATOM     19  C   UNL d   1      -0.948   3.080   0.439  0.00  0.00     0.075 A 
ATOM     20  C   UNL d   1      -0.919   4.471   0.315  0.00  0.00     0.157 A 
ATOM     21  F   UNL d   1      -1.905   5.198   0.860  0.00  0.00    -0.203 F 
ATOM     22  C   UNL d   1       0.114   5.100  -0.360  0.00  0.00     0.154 A 
ATOM     23  C   UNL d   1       1.140   4.346  -0.909  0.00  0.00     0.048 A 
ATOM     24  F   UNL d   1       0.130   6.433  -0.492  0.00  0.00    -0.203 F 
ATOM     25  C   UNL d   1       1.122   2.951  -0.775  0.00  0.00     0.033 A 
ENDBRANCH   1  18
TORSDOF 4
