REMARK  2 active torsions:
REMARK  status: ('A' for Active; 'I' for Inactive)
REMARK    1  A    between atoms: C_2  and  C_1 
REMARK    2  A    between atoms: C_3  and  C_1 
ROOT
ATOM      1  C   UNL d   1       0.995   0.109  -0.007  0.00  0.00     0.205 C 
ATOM      2  O   UNL d   1       2.225   0.114   0.076  0.00  0.00    -0.286 OA
ENDROOT
BRANCH   1   3
ATOM      3  C   UNL d   1       0.328  -0.659  -1.060  0.00  0.00     0.056 A 
ATOM      4  S   UNL d   1      -1.114  -0.149  -1.839  0.00  0.00    -0.098 SA
ATOM      5  C   UNL d   1      -1.142  -1.521  -2.855  0.00  0.00     0.050 A 
ATOM      6  C   UNL d   1      -0.030  -2.312  -2.682  0.00  0.00     0.009 A 
ATOM      7  C   UNL d   1       0.827  -1.802  -1.665  0.00  0.00     0.023 A 
ENDBRANCH   1   3
BRANCH   1   8
ATOM      8  C   UNL d   1       0.188   0.873   0.946  0.00  0.00     0.056 A 
ATOM      9  S   UNL d   1      -1.330   0.340   1.545  0.00  0.00    -0.098 SA
ATOM     10  C   UNL d   1      -1.511   1.722   2.533  0.00  0.00     0.050 A 
ATOM     11  C   UNL d   1      -0.401   2.533   2.490  0.00  0.00     0.009 A 
ATOM     12  C   UNL d   1       0.587   2.031   1.595  0.00  0.00     0.023 A 
ENDBRANCH   1   8
TORSDOF 2
