REMARK  2 active torsions:
REMARK  status: ('A' for Active; 'I' for Inactive)
REMARK    1  A    between atoms: S_15  and  C_7 
REMARK    2  A    between atoms: C_16  and  S_15 
ROOT
ATOM      1  C   UNL d   1       0.265   5.151  -0.812  0.00  0.00    -0.107 C 
ATOM      2  C   UNL d   1       0.045   6.332  -0.886  0.00  0.00     0.013 C 
ATOM      3  C   UNL d   1       0.529   3.703  -0.717  0.00  0.00     0.175 C 
ENDROOT
BRANCH   3   4
ATOM      4  S   UNL d   1      -0.945   2.820  -0.131  0.00  0.00    -0.073 SA
BRANCH   4   5
ATOM      5  C   UNL d   1      -0.373   1.182  -0.075  0.00  0.00     0.204 A 
ATOM      6  O   UNL d   1      -1.224   0.110  -0.126  0.00  0.00    -0.265 OA
ATOM      7  C   UNL d   1      -0.368  -0.960  -0.028  0.00  0.00     0.199 A 
ATOM      8  N   UNL d   1       0.890  -0.568   0.083  0.00  0.00    -0.275 N 
ATOM      9  C   UNL d   1      -0.793  -2.330  -0.059  0.00  0.00     0.127 A 
ATOM     10  N   UNL d   1       0.886   0.814   0.046  0.00  0.00    -0.272 N 
ATOM     11  HN  UNL d   1       1.708  -1.171   0.178  1.00  0.00     0.189 HD
ATOM     12  HN  UNL d   1       1.698   1.428   0.103  1.00  0.00     0.189 HD
ATOM     13  O   UNL d   1      -2.101  -2.706  -0.254  0.00  0.00    -0.318 OA
ATOM     14  C   UNL d   1      -0.027  -3.478   0.078  0.00  0.00     0.043 A 
ATOM     15  C   UNL d   1      -2.151  -4.063  -0.247  0.00  0.00     0.142 A 
ATOM     16  C   UNL d   1      -0.899  -4.588  -0.045  0.00  0.00     0.027 A 
ENDBRANCH   4   5
ENDBRANCH   3   4
TORSDOF 2
