REMARK  5 active torsions:
REMARK  status: ('A' for Active; 'I' for Inactive)
REMARK       I    between atoms: C_2  and  N_1 
REMARK    1  A    between atoms: C_4  and  N_1 
REMARK    2  A    between atoms: C_3  and  C_2 
REMARK    3  A    between atoms: C_5  and  C_6 
REMARK    4  A    between atoms: O_11  and  C_5 
REMARK    5  A    between atoms: S_10  and  C_7 
ROOT
ATOM      1  N   UNL d   1       0.841   0.304   0.121  0.00  0.00    -0.322 N 
ATOM      2  C   UNL d   1      -0.147  -0.642   0.071  0.00  0.00     0.245 C 
ATOM      3  O   UNL d   1      -0.092  -1.725  -0.501  0.00  0.00    -0.268 OA
ATOM      4  H   UNL d   1       0.588   1.272   0.290  0.00  0.00     0.169 HD
ENDROOT
BRANCH   1   5
ATOM      5  C   UNL d   1       2.193   0.095  -0.219  0.00  0.00     0.051 A 
ATOM      6  C   UNL d   1       2.937   1.157  -0.762  0.00  0.00     0.026 A 
ATOM      7  C   UNL d   1       4.332   1.039  -0.839  0.00  0.00     0.021 A 
ATOM      8  C   UNL d   1       4.972  -0.125  -0.403  0.00  0.00     0.002 A 
ATOM      9  C   UNL d   1       4.220  -1.199   0.066  0.00  0.00     0.002 A 
ATOM     10  C   UNL d   1       2.830  -1.099   0.142  0.00  0.00     0.031 A 
BRANCH   6  11
ATOM     11  S   UNL d   1       2.190   2.670  -1.386  0.00  0.00    -0.132 SA
ATOM     12  C   UNL d   1       0.861   2.011  -2.450  0.00  0.00     0.095 C 
ENDBRANCH   6  11
ENDBRANCH   1   5
BRANCH   2  13
ATOM     13  C   UNL d   1      -1.374  -0.195   0.764  0.00  0.00     0.081 C 
ATOM     14  C   UNL d   1      -2.529  -0.826   0.530  0.00  0.00     0.086 C 
BRANCH  14  15
ATOM     15  C   UNL d   1      -3.699  -0.469   1.343  0.00  0.00     0.165 C 
ATOM     16  O   UNL d   1      -3.763   0.527   2.051  0.00  0.00    -0.647 OA
BRANCH  15  17
ATOM     17  O   UNL d   1      -4.682  -1.378   1.248  0.00  0.00    -0.773 OA
ATOM     18  H   UNL d   1      -4.477  -2.161   0.700  0.00  0.00     0.167 HD
ENDBRANCH  15  17
ENDBRANCH  14  15
ENDBRANCH   2  13
TORSDOF 5
