REMARK  7 active torsions:
REMARK  status: ('A' for Active; 'I' for Inactive)
REMARK    1  A    between atoms: C_4  and  N_1 
REMARK    2  A    between atoms: C_5  and  C_2 
REMARK    3  A    between atoms: O_13  and  C_5 
REMARK    4  A    between atoms: N_12  and  C_6 
REMARK    5  A    between atoms: C_14  and  N_12 
REMARK    6  A    between atoms: C_16  and  C_14 
REMARK    7  A    between atoms: C_15  and  C_16 
ROOT
ATOM      1  C   UNL d   1      -1.054   2.049   1.508  0.00  0.00     0.061 A 
ATOM      2  C   UNL d   1      -0.053   1.084   1.287  0.00  0.00     0.056 A 
ATOM      3  C   UNL d   1       1.293   1.438   1.410  0.00  0.00     0.104 A 
ATOM      4  C   UNL d   1      -0.712   3.382   1.862  0.00  0.00     0.025 A 
ATOM      5  C   UNL d   1       1.648   2.741   1.763  0.00  0.00     0.038 A 
ATOM      6  C   UNL d   1       0.652   3.694   1.997  0.00  0.00     0.027 A 
ENDROOT
BRANCH   4   7
ATOM      7  N   UNL d   1      -1.737   4.317   2.157  0.00  0.00    -0.292 NA
ATOM      8  H   UNL d   1      -2.137   4.046   3.067  0.00  0.00     0.127 HD
BRANCH   7   9
ATOM      9  C   UNL d   1      -1.414   5.762   2.220  0.00  0.00     0.097 C 
BRANCH   9  10
ATOM     10  C   UNL d   1      -1.115   6.346   0.835  0.00  0.00     0.053 C 
BRANCH  10  11
ATOM     11  C   UNL d   1      -0.677   7.789   0.903  0.00  0.00    -0.057 A 
ATOM     12  C   UNL d   1       0.682   8.114   1.021  0.00  0.00     0.007 A 
ATOM     13  C   UNL d   1       1.089   9.450   1.065  0.00  0.00     0.001 A 
ATOM     14  C   UNL d   1       0.143  10.470   0.996  0.00  0.00     0.000 A 
ATOM     15  C   UNL d   1      -1.211  10.157   0.891  0.00  0.00     0.001 A 
ATOM     16  C   UNL d   1      -1.621   8.823   0.847  0.00  0.00     0.007 A 
ENDBRANCH  10  11
ENDBRANCH   9  10
ENDBRANCH   7   9
ENDBRANCH   4   7
BRANCH   1  17
ATOM     17  C   UNL d   1      -2.462   1.584   1.321  0.00  0.00     0.178 C 
ATOM     18  O   UNL d   1      -2.769   0.404   1.298  0.00  0.00    -0.646 OA
BRANCH  17  19
ATOM     19  O   UNL d   1      -3.359   2.578   1.135  0.00  0.00    -0.773 OA
ATOM     20  H   UNL d   1      -2.939   3.467   1.221  0.00  0.00     0.167 HD
ENDBRANCH  17  19
ENDBRANCH   1  17
BRANCH   3  21
ATOM     21  N   UNL d   1       2.342   0.440   1.171  0.00  0.00    -0.116 N 
ATOM     22  O   UNL d   1       1.990  -0.712   0.883  0.00  0.00    -0.532 OA
ATOM     23  O   UNL d   1       3.520   0.812   1.271  0.00  0.00    -0.532 OA
ENDBRANCH   3  21
TORSDOF 7
