REMARK  5 active torsions:
REMARK  status: ('A' for Active; 'I' for Inactive)
REMARK    1  A    between atoms: N_2  and  S_1 
REMARK    2  A    between atoms: C_9  and  S_1 
REMARK    3  A    between atoms: C_3  and  N_2 
REMARK       I    between atoms: C_7  and  N_11 
REMARK    4  A    between atoms: C_10  and  C_7 
REMARK    5  A    between atoms: N_11  and  C_27 
ROOT
ATOM      1  C   UNL d   1       0.266   1.325   0.767  0.00  0.00     0.075 A 
ATOM      2  C   UNL d   1      -0.495   1.079   1.914  0.00  0.00     0.027 A 
ATOM      3  C   UNL d   1       0.628   2.625   0.436  0.00  0.00     0.027 A 
ATOM      4  C   UNL d   1      -0.462   3.450   2.462  0.00  0.00     0.035 A 
ATOM      5  C   UNL d   1      -0.867   2.142   2.752  0.00  0.00     0.031 A 
ATOM      6  C   UNL d   1       0.255   3.675   1.277  0.00  0.00     0.031 A 
ENDROOT
BRANCH   4   7
ATOM      7  N   UNL d   1      -0.758   4.472   3.405  0.00  0.00    -0.323 N 
ATOM      8  C   UNL d   1      -0.336   5.785   3.298  0.00  0.00     0.256 C 
ATOM      9  O   UNL d   1       0.290   6.259   2.354  0.00  0.00    -0.267 OA
ATOM     10  H   UNL d   1      -1.300   4.204   4.215  0.00  0.00     0.169 HD
BRANCH   8  11
ATOM     11  C   UNL d   1      -0.626   6.732   4.402  0.00  0.00     0.034 A 
ATOM     12  C   UNL d   1      -0.711   8.081   4.028  0.00  0.00     0.049 A 
ATOM     13  C   UNL d   1      -0.740   9.097   4.959  0.00  0.00     0.060 A 
ATOM     14  N   UNL d   1      -0.724  10.366   4.516  0.00  0.00    -0.363 N 
ATOM     15  C   UNL d   1      -0.734   8.775   6.336  0.00  0.00     0.059 A 
ATOM     16  C   UNL d   1      -0.676  11.326   5.459  0.00  0.00     0.105 A 
ATOM     17  HN  UNL d   1      -0.747  10.590   3.522  1.00  0.00     0.165 HD
ATOM     18  C   UNL d   1      -0.682  11.026   6.804  0.00  0.00     0.105 A 
ATOM     19  N   UNL d   1      -0.723   9.753   7.267  0.00  0.00    -0.363 N 
ATOM     20  HN  UNL d   1      -0.744   9.544   8.265  1.00  0.00     0.165 HD
ATOM     21  C   UNL d   1      -0.703   7.429   6.708  0.00  0.00     0.033 A 
ATOM     22  C   UNL d   1      -0.634   6.398   5.755  0.00  0.00     0.019 A 
ENDBRANCH   8  11
ENDBRANCH   4   7
BRANCH   1  23
ATOM     23  S   UNL d   1       0.928  -0.025  -0.170  0.00  0.00     0.247 S 
ATOM     24  O   UNL d   1       2.083   0.456  -0.900  0.00  0.00    -0.205 OA
ATOM     25  O   UNL d   1       1.038  -1.178   0.698  0.00  0.00    -0.205 OA
BRANCH  23  26
ATOM     26  N   UNL d   1      -0.248  -0.314  -1.344  0.00  0.00    -0.165 NA
ATOM     27  H   UNL d   1       0.237  -0.426  -2.232  0.00  0.00     0.147 HD
BRANCH  26  28
ATOM     28  C   UNL d   1      -1.218  -1.258  -1.040  0.00  0.00     0.117 A 
ATOM     29  N   UNL d   1      -2.348  -0.934  -0.410  0.00  0.00    -0.249 N 
ATOM     30  O   UNL d   1      -3.059  -2.116  -0.294  0.00  0.00    -0.241 OA
ATOM     31  HN  UNL d   1      -2.629  -0.010  -0.082  1.00  0.00     0.196 HD
ATOM     32  C   UNL d   1      -2.341  -3.131  -0.846  0.00  0.00     0.075 A 
ATOM     33  C   UNL d   1      -1.169  -2.629  -1.357  0.00  0.00     0.079 A 
ATOM     34  C   UNL d   1      -2.941  -4.473  -0.767  0.00  0.00     0.079 C 
ENDBRANCH  26  28
ENDBRANCH  23  26
ENDBRANCH   1  23
TORSDOF 5
