REMARK  1 active torsions:
REMARK  status: ('A' for Active; 'I' for Inactive)
REMARK    1  A    between atoms: N_3  and  C_1 
ROOT
ATOM      1  C   UNL d   1      -1.532   1.192   0.012  0.00  0.00     0.197 A 
ATOM      2  N   UNL d   1      -0.223   0.752   0.003  0.00  0.00    -0.288 N 
ATOM      3  C   UNL d   1      -2.329   0.079   0.006  0.00  0.00     0.145 A 
ATOM      4  N   UNL d   1      -1.571  -1.061  -0.000  0.00  0.00    -0.348 N 
ATOM      5  HN  UNL d   1      -1.905  -2.025  -0.006  1.00  0.00     0.167 HD
ATOM      6  C   UNL d   1      -0.320  -0.649   0.003  0.00  0.00     0.113 A 
ATOM      7  C   UNL d   1       1.018   1.405  -0.006  0.00  0.00     0.100 A 
ATOM      8  C   UNL d   1       0.891  -1.398   0.008  0.00  0.00     0.049 A 
ATOM      9  C   UNL d   1       2.154   0.687  -0.006  0.00  0.00     0.018 A 
ATOM     10  C   UNL d   1       2.077  -0.762   0.006  0.00  0.00     0.005 A 
ENDROOT
BRANCH   1  11
ATOM     11  N   UNL d   1      -1.940   2.549   0.026  0.00  0.00    -0.096 N 
ATOM     12  O   UNL d   1      -1.063   3.418   0.040  0.00  0.00    -0.530 OA
ATOM     13  O   UNL d   1      -3.158   2.766   0.034  0.00  0.00    -0.530 OA
ENDBRANCH   1  11
TORSDOF 1
