REMARK  3 active torsions:
REMARK  status: ('A' for Active; 'I' for Inactive)
REMARK    1  A    between atoms: C_12  and  C_4 
REMARK    2  A    between atoms: O_17  and  C_12 
REMARK    3  A    between atoms: C_19  and  O_17 
ROOT
ATOM      1  C   UNL d   1       1.624  -0.940   0.015  0.00  0.00     0.168 A 
ATOM      2  N   UNL d   1       0.913   0.246  -0.007  0.00  0.00    -0.222 N 
ATOM      3  N   UNL d   1       0.942  -2.167   0.088  0.00  0.00    -0.300 N 
ATOM      4  C   UNL d   1       2.950  -0.512  -0.044  0.00  0.00     0.171 A 
ATOM      5  N   UNL d   1       1.723   1.316  -0.029  0.00  0.00    -0.233 N 
ATOM      6  HN  UNL d   1       1.432   2.294  -0.024  1.00  0.00     0.209 HD
ATOM      7  C   UNL d   1      -0.467  -2.172   0.023  0.00  0.00     0.261 A 
ATOM      8  N   UNL d   1       2.966   0.872  -0.056  0.00  0.00    -0.277 N 
ATOM      9  HN  UNL d   1       3.803   1.455  -0.082  1.00  0.00     0.189 HD
ATOM     10  C   UNL d   1      -1.183  -0.868  -0.005  0.00  0.00     0.061 A 
ATOM     11  C   UNL d   1      -0.479   0.334  -0.008  0.00  0.00     0.075 A 
ATOM     12  O   UNL d   1      -1.138  -3.204  -0.005  0.00  0.00    -0.267 OA
ATOM     13  C   UNL d   1       1.578  -3.469   0.172  0.00  0.00     0.161 C 
ATOM     14  C   UNL d   1      -2.584  -0.838  -0.017  0.00  0.00     0.019 A 
ATOM     15  C   UNL d   1      -1.145   1.565  -0.016  0.00  0.00     0.033 A 
ATOM     16  C   UNL d   1      -3.259   0.387  -0.022  0.00  0.00     0.001 A 
ATOM     17  C   UNL d   1      -2.540   1.584  -0.020  0.00  0.00     0.002 A 
ENDROOT
BRANCH   4  18
ATOM     18  C   UNL d   1       4.211  -1.242  -0.111  0.00  0.00     0.315 C 
ATOM     19  O   UNL d   1       4.311  -2.461  -0.196  0.00  0.00    -0.257 OA
BRANCH  18  20
ATOM     20  O   UNL d   1       5.286  -0.398  -0.081  0.00  0.00    -0.317 OA
BRANCH  20  21
ATOM     21  C   UNL d   1       6.590  -1.001  -0.097  0.00  0.00     0.175 C 
ATOM     22  C   UNL d   1       6.982  -1.424  -1.501  0.00  0.00     0.034 C 
ENDBRANCH  20  21
ENDBRANCH  18  20
ENDBRANCH   4  18
TORSDOF 3
