REMARK  6 active torsions:
REMARK  status: ('A' for Active; 'I' for Inactive)
REMARK    1  A    between atoms: N_8  and  C_1 
REMARK    2  A    between atoms: C_2  and  C_4 
REMARK    3  A    between atoms: C_3  and  N_7 
REMARK    4  A    between atoms: N_11  and  C_3 
REMARK    5  A    between atoms: C_22  and  N_11 
REMARK    6  A    between atoms: C_23  and  C_22 
ROOT
ATOM      1  N   UNL d   1       2.024   4.625   0.895  0.00  0.00    -0.355 N 
ATOM      2  N   UNL d   1       0.565   2.290   0.207  0.00  0.00    -0.363 N 
ATOM      3  C   UNL d   1       0.977   4.091   1.786  0.00  0.00     0.145 C 
ATOM      4  C   UNL d   1       2.563   3.668  -0.093  0.00  0.00     0.145 C 
ATOM      5  C   UNL d   1      -0.111   3.307   1.032  0.00  0.00     0.144 C 
ATOM      6  C   UNL d   1       1.432   2.895  -0.817  0.00  0.00     0.144 C 
ENDROOT
BRANCH   2   7
ATOM      7  C   UNL d   1      -0.130   1.119  -0.053  0.00  0.00     0.125 A 
ATOM      8  N   UNL d   1      -1.477   1.143   0.115  0.00  0.00    -0.350 N 
ATOM      9  C   UNL d   1      -2.172  -0.018   0.053  0.00  0.00     0.106 A 
ATOM     10  HN  UNL d   1      -1.960   2.025   0.285  1.00  0.00     0.166 HD
ATOM     11  C   UNL d   1      -1.597  -1.255  -0.170  0.00  0.00     0.065 A 
ATOM     12  C   UNL d   1      -0.221  -1.283  -0.384  0.00  0.00     0.045 A 
ATOM     13  C   UNL d   1       0.523  -0.102  -0.321  0.00  0.00     0.078 A 
ATOM     14 CL   UNL d   1       2.244  -0.263  -0.420  0.00  0.00    -0.080 Cl
BRANCH  11  15
ATOM     15  C   UNL d   1      -2.437  -2.490  -0.124  0.00  0.00     0.418 C 
ATOM     16  F   UNL d   1      -1.728  -3.634  -0.332  0.00  0.00    -0.166 F 
ATOM     17  F   UNL d   1      -3.056  -2.652   1.079  0.00  0.00    -0.166 F 
ATOM     18  F   UNL d   1      -3.426  -2.488  -1.057  0.00  0.00    -0.166 F 
ENDBRANCH  11  15
ENDBRANCH   2   7
BRANCH   1  19
ATOM     19  C   UNL d   1       2.301   5.965   0.800  0.00  0.00     0.170 C 
ATOM     20  S   UNL d   1       1.148   7.174   0.733  0.00  0.00    -0.041 SA
BRANCH  19  21
ATOM     21  N   UNL d   1       3.615   6.325   0.753  0.00  0.00    -0.363 N 
ATOM     22  H   UNL d   1       3.754   7.326   0.680  0.00  0.00     0.162 HD
BRANCH  21  23
ATOM     23  C   UNL d   1       4.702   5.607   1.410  0.00  0.00     0.160 C 
BRANCH  23  24
ATOM     24  C   UNL d   1       5.277   6.408   2.555  0.00  0.00    -0.041 A 
ATOM     25  C   UNL d   1       4.481   6.747   3.661  0.00  0.00     0.009 A 
ATOM     26  C   UNL d   1       5.014   7.478   4.725  0.00  0.00     0.001 A 
ATOM     27  C   UNL d   1       6.349   7.875   4.699  0.00  0.00     0.000 A 
ATOM     28  C   UNL d   1       7.152   7.541   3.610  0.00  0.00     0.001 A 
ATOM     29  C   UNL d   1       6.620   6.812   2.543  0.00  0.00     0.009 A 
ENDBRANCH  23  24
ENDBRANCH  21  23
ENDBRANCH  19  21
ENDBRANCH   1  19
TORSDOF 6
