REMARK  5 active torsions:
REMARK  status: ('A' for Active; 'I' for Inactive)
REMARK    1  A    between atoms: C_14  and  N_2 
REMARK    2  A    between atoms: C_11  and  C_4 
REMARK    3  A    between atoms: C_16  and  N_5 
REMARK    4  A    between atoms: C_12  and  C_11 
REMARK    5  A    between atoms: C_22  and  C_13 
ROOT
ATOM      1  C   UNL d   1       0.004  -0.222  -0.339  0.00  0.00     0.247 C 
ATOM      2  N   UNL d   1       1.140  -1.054  -0.646  0.00  0.00    -0.265 N 
ATOM      3  S   UNL d   1      -0.697  -0.626   1.331  0.00  0.00    -0.039 SA
ATOM      4  C   UNL d   1      -2.219  -0.102   0.699  0.00  0.00     0.141 C 
ATOM      5  N   UNL d   1      -1.184  -0.295  -1.220  0.00  0.00    -0.241 N 
ATOM      6  N   UNL d   1      -2.384  -0.011  -0.578  0.00  0.00    -0.284 N 
ATOM      7  HN  UNL d   1      -3.259   0.232  -1.044  1.00  0.00     0.188 HD
ATOM      8  S   UNL d   1       0.658   1.503  -0.192  0.00  0.00    -0.056 SA
ATOM      9  C   UNL d   1       2.345  -0.558  -0.137  0.00  0.00     0.268 C 
ATOM     10  C   UNL d   1       2.257   0.915   0.106  0.00  0.00     0.074 C 
ATOM     11  C   UNL d   1       3.264   1.729   0.454  0.00  0.00     0.035 C 
ATOM     12  O   UNL d   1       3.351  -1.220   0.080  0.00  0.00    -0.266 OA
ENDROOT
BRANCH   2  13
ATOM     13  C   UNL d   1       1.106  -2.341  -1.248  0.00  0.00     0.041 A 
ATOM     14  C   UNL d   1       0.081  -3.265  -1.039  0.00  0.00     0.030 A 
ATOM     15  C   UNL d   1       0.120  -4.518  -1.668  0.00  0.00     0.002 A 
ATOM     16  C   UNL d   1       1.156  -4.842  -2.544  0.00  0.00     0.000 A 
ATOM     17  C   UNL d   1       2.179  -3.930  -2.767  0.00  0.00     0.002 A 
ATOM     18  C   UNL d   1       2.160  -2.701  -2.110  0.00  0.00     0.030 A 
ENDBRANCH   2  13
BRANCH   5  19
ATOM     19  C   UNL d   1      -1.233  -0.278  -2.614  0.00  0.00     0.055 A 
ATOM     20  C   UNL d   1      -2.301  -0.935  -3.262  0.00  0.00     0.031 A 
ATOM     21  C   UNL d   1      -2.401  -1.003  -4.654  0.00  0.00     0.002 A 
ATOM     22  C   UNL d   1      -1.448  -0.372  -5.440  0.00  0.00     0.000 A 
ATOM     23  C   UNL d   1      -0.411   0.330  -4.831  0.00  0.00     0.002 A 
ATOM     24  C   UNL d   1      -0.299   0.365  -3.433  0.00  0.00     0.031 A 
ENDBRANCH   5  19
BRANCH   4  25
ATOM     25  C   UNL d   1      -3.186   0.246   1.800  0.00  0.00     0.223 C 
ATOM     26  O   UNL d   1      -2.744   0.684   2.854  0.00  0.00    -0.284 OA
BRANCH  25  27
ATOM     27  C   UNL d   1      -4.606   0.103   1.494  0.00  0.00     0.057 A 
ATOM     28  S   UNL d   1      -5.741   0.504   2.726  0.00  0.00    -0.098 SA
ATOM     29  C   UNL d   1      -7.075   0.182   1.712  0.00  0.00     0.050 A 
ATOM     30  C   UNL d   1      -6.682  -0.237   0.463  0.00  0.00     0.009 A 
ATOM     31  C   UNL d   1      -5.262  -0.294   0.342  0.00  0.00     0.023 A 
ENDBRANCH  25  27
ENDBRANCH   4  25
BRANCH  11  32
ATOM     32  C   UNL d   1       4.653   1.315   0.669  0.00  0.00    -0.035 A 
ATOM     33  C   UNL d   1       5.530   1.195  -0.413  0.00  0.00     0.012 A 
ATOM     34  C   UNL d   1       6.850   0.785  -0.208  0.00  0.00     0.007 A 
ATOM     35  C   UNL d   1       7.311   0.490   1.081  0.00  0.00    -0.062 A 
ATOM     36  C   UNL d   1       6.430   0.615   2.162  0.00  0.00     0.007 A 
ATOM     37  C   UNL d   1       8.721   0.022   1.284  0.00  0.00     0.048 C 
ATOM     38  C   UNL d   1       5.109   1.025   1.958  0.00  0.00     0.012 A 
ENDBRANCH  11  32
TORSDOF 5
