REMARK  6 active torsions:
REMARK  status: ('A' for Active; 'I' for Inactive)
REMARK    1  A    between atoms: C_13  and  N_3 
REMARK    2  A    between atoms: C_4  and  C_8 
REMARK    3  A    between atoms: O_23  and  C_11 
REMARK    4  A    between atoms: O_24  and  C_12 
REMARK    5  A    between atoms: C_21  and  C_13 
REMARK    6  A    between atoms: C_20  and  C_21 
ROOT
ATOM      1  N   UNL d   1      -0.074  -0.590  -0.307  0.00  0.00    -0.350 N 
ATOM      2  HN  UNL d   1      -0.903  -1.105  -0.604  1.00  0.00     0.166 HD
ATOM      3  N   UNL d   1       1.377   1.053   0.065  0.00  0.00    -0.341 N 
ATOM      4  C   UNL d   1       1.002  -1.075   0.384  0.00  0.00     0.061 A 
ATOM      5  C   UNL d   1       0.189   0.680  -0.505  0.00  0.00     0.183 A 
ATOM      6  C   UNL d   1       1.941  -0.073   0.627  0.00  0.00     0.062 A 
ATOM      7  C   UNL d   1       2.444  -2.668   1.505  0.00  0.00     0.050 A 
ATOM      8  C   UNL d   1       1.246  -2.382   0.828  0.00  0.00     0.048 A 
ATOM      9  C   UNL d   1       3.143  -0.321   1.298  0.00  0.00     0.033 A 
ATOM     10  C   UNL d   1       3.375  -1.638   1.728  0.00  0.00     0.018 A 
ENDROOT
BRANCH   3  11
ATOM     11  C   UNL d   1       1.965   2.381   0.024  0.00  0.00     0.134 C 
BRANCH  11  12
ATOM     12  C   UNL d   1       0.947   3.525   0.089  0.00  0.00     0.059 C 
BRANCH  12  13
ATOM     13  C   UNL d   1       1.607   4.881   0.057  0.00  0.00    -0.054 A 
ATOM     14  C   UNL d   1       1.921   5.552   1.248  0.00  0.00     0.046 A 
ATOM     15  C   UNL d   1       2.530   6.820   1.237  0.00  0.00     0.102 A 
ATOM     16  C   UNL d   1       2.809   7.434   0.005  0.00  0.00     0.101 A 
ATOM     17  C   UNL d   1       2.493   6.758  -1.181  0.00  0.00     0.040 A 
ATOM     18  C   UNL d   1       1.905   5.493  -1.161  0.00  0.00     0.010 A 
BRANCH  15  19
ATOM     19  O   UNL d   1       2.797   7.499   2.397  0.00  0.00    -0.353 OA
ATOM     20  C   UNL d   1       3.117   6.707   3.535  0.00  0.00     0.210 C 
ENDBRANCH  15  19
BRANCH  16  21
ATOM     21  O   UNL d   1       3.377   8.658  -0.236  0.00  0.00    -0.353 OA
ATOM     22  C   UNL d   1       3.852   9.422   0.860  0.00  0.00     0.210 C 
ENDBRANCH  16  21
ENDBRANCH  12  13
ENDBRANCH  11  12
ENDBRANCH   3  11
BRANCH   7  23
ATOM     23  C   UNL d   1       2.736  -4.069   1.982  0.00  0.00     0.417 C 
ATOM     24  F   UNL d   1       1.747  -4.963   1.705  0.00  0.00    -0.166 F 
ATOM     25  F   UNL d   1       3.868  -4.582   1.424  0.00  0.00    -0.166 F 
ATOM     26  F   UNL d   1       2.925  -4.130   3.329  0.00  0.00    -0.166 F 
ENDBRANCH   7  23
TORSDOF 6
