REMARK  3 active torsions:
REMARK  status: ('A' for Active; 'I' for Inactive)
REMARK       I    between atoms: N_2  and  C_1 
REMARK       I    between atoms: N_6  and  C_1 
REMARK    1  A    between atoms: C_5  and  N_2 
REMARK    2  A    between atoms: C_13  and  N_6 
REMARK    3  A    between atoms: O_17  and  C_7 
ROOT
ATOM      1  C   UNL d   1       0.972   0.173   0.038  0.00  0.00     0.325 C 
ATOM      2  N   UNL d   1       0.382  -0.658   0.970  0.00  0.00    -0.309 N 
ATOM      3  N   UNL d   1       0.125   0.494  -1.010  0.00  0.00    -0.307 N 
ATOM      4  O   UNL d   1       2.133   0.561   0.101  0.00  0.00    -0.247 OA
ATOM      5  H   UNL d   1      -0.495  -1.089   0.716  0.00  0.00     0.170 HD
ATOM      6  H   UNL d   1      -0.858   0.298  -0.900  0.00  0.00     0.170 HD
ENDROOT
BRANCH   2   7
ATOM      7  C   UNL d   1       1.057  -1.217   2.087  0.00  0.00     0.037 A 
ATOM      8  C   UNL d   1       2.287  -0.741   2.554  0.00  0.00     0.036 A 
ATOM      9  C   UNL d   1       2.984  -1.388   3.580  0.00  0.00    -0.059 A 
ATOM     10  C   UNL d   1       4.343  -0.904   3.993  0.00  0.00     0.048 C 
ATOM     11  C   UNL d   1       2.415  -2.514   4.176  0.00  0.00     0.013 A 
ATOM     12  C   UNL d   1       1.160  -2.983   3.761  0.00  0.00    -0.059 A 
ATOM     13  C   UNL d   1       0.483  -2.324   2.722  0.00  0.00     0.036 A 
ATOM     14  C   UNL d   1       0.585  -4.209   4.407  0.00  0.00     0.048 C 
ENDBRANCH   2   7
BRANCH   3  15
ATOM     15  C   UNL d   1       0.533   1.165  -2.190  0.00  0.00     0.051 A 
ATOM     16  C   UNL d   1       1.853   1.511  -2.482  0.00  0.00     0.119 A 
ATOM     17  N   UNL d   1       2.260   2.114  -3.622  0.00  0.00    -0.345 N 
ATOM     18  C   UNL d   1       1.315   2.395  -4.533  0.00  0.00     0.141 A 
ATOM     19  HN  UNL d   1       3.240   2.344  -3.783  1.00  0.00     0.167 HD
ATOM     20  C   UNL d   1      -0.028   2.108  -4.346  0.00  0.00     0.058 A 
ATOM     21  C   UNL d   1      -0.423   1.484  -3.156  0.00  0.00     0.035 A 
BRANCH  18  22
ATOM     22  O   UNL d   1       1.687   2.987  -5.721  0.00  0.00    -0.341 OA
ATOM     23  C   UNL d   1       3.100   3.189  -5.799  0.00  0.00     0.211 C 
ENDBRANCH  18  22
ENDBRANCH   3  15
TORSDOF 3
