REMARK  2 active torsions:
REMARK  status: ('A' for Active; 'I' for Inactive)
REMARK       I    between atoms: C_2  and  N_1 
REMARK       I    between atoms: N_6  and  C_2 
REMARK    1  A    between atoms: C_11  and  C_4 
REMARK    2  A    between atoms: C_14  and  N_6 
ROOT
ATOM      1  N   UNL d   1      -2.529   0.332  -0.315  0.00  0.00    -0.321 N 
ATOM      2  C   UNL d   1      -3.420   0.520  -1.365  0.00  0.00     0.323 C 
ATOM      3  C   UNL d   1      -0.204   0.794   0.221  0.00  0.00    -0.017 A 
ATOM      4  C   UNL d   1      -1.619   1.333   0.277  0.00  0.00     0.156 C 
ATOM      5  C   UNL d   1       0.072  -0.549   0.021  0.00  0.00    -0.007 A 
ATOM      6  N   UNL d   1      -3.576   1.807  -1.827  0.00  0.00    -0.309 N 
ATOM      7  C   UNL d   1      -2.355  -1.050   0.178  0.00  0.00     0.134 C 
ATOM      8  S   UNL d   1       1.736  -0.886  -0.054  0.00  0.00    -0.106 SA
ATOM      9  C   UNL d   1      -0.968  -1.610  -0.172  0.00  0.00     0.067 C 
ATOM     10  C   UNL d   1       1.009   1.554   0.295  0.00  0.00     0.018 A 
ATOM     11  C   UNL d   1       2.130   0.766   0.151  0.00  0.00     0.051 A 
ATOM     12  O   UNL d   1      -4.047  -0.434  -1.823  0.00  0.00    -0.247 OA
ATOM     13  H   UNL d   1      -2.838   2.467  -1.659  0.00  0.00     0.170 HD
ENDROOT
BRANCH   4  14
ATOM     14  C   UNL d   1      -1.972   1.688   1.721  0.00  0.00    -0.031 A 
ATOM     15  C   UNL d   1      -2.926   2.701   1.942  0.00  0.00     0.011 A 
ATOM     16  C   UNL d   1      -3.317   3.068   3.230  0.00  0.00     0.024 A 
ATOM     17  C   UNL d   1      -2.768   2.424   4.332  0.00  0.00     0.034 A 
ATOM     18  C   UNL d   1      -1.834   1.407   4.150  0.00  0.00     0.024 A 
ATOM     19 CL   UNL d   1      -3.254   2.862   5.920  0.00  0.00    -0.084 Cl
ATOM     20  C   UNL d   1      -1.440   1.040   2.858  0.00  0.00     0.011 A 
ENDBRANCH   4  14
BRANCH   6  21
ATOM     21  C   UNL d   1      -4.623   2.285  -2.654  0.00  0.00     0.036 A 
ATOM     22  C   UNL d   1      -5.767   1.542  -2.965  0.00  0.00     0.031 A 
ATOM     23  C   UNL d   1      -6.837   2.127  -3.652  0.00  0.00     0.026 A 
ATOM     24  C   UNL d   1      -6.764   3.459  -4.041  0.00  0.00     0.034 A 
ATOM     25  C   UNL d   1      -5.608   4.196  -3.799  0.00  0.00     0.026 A 
ATOM     26 CL   UNL d   1      -8.120   4.206  -4.790  0.00  0.00    -0.084 Cl
ATOM     27  C   UNL d   1      -4.539   3.609  -3.111  0.00  0.00     0.031 A 
ENDBRANCH   6  21
TORSDOF 2
