REMARK  4 active torsions:
REMARK  status: ('A' for Active; 'I' for Inactive)
REMARK    1  A    between atoms: C_3  and  C_2 
REMARK    2  A    between atoms: C_7  and  C_3 
REMARK    3  A    between atoms: C_5  and  N_8 
REMARK    4  A    between atoms: N_8  and  C_6 
ROOT
ATOM      1  C   UNL d   1      -4.956  -2.239  -0.076  0.00  0.00     0.072 C 
ATOM      2  C   UNL d   1      -3.824  -1.551   0.130  0.00  0.00     0.092 C 
ENDROOT
BRANCH   2   3
ATOM      3  N   UNL d   1      -2.527  -2.002   0.111  0.00  0.00    -0.364 N 
ATOM      4  H   UNL d   1      -2.357  -2.924  -0.284  0.00  0.00     0.165 HD
BRANCH   3   5
ATOM      5  C   UNL d   1      -1.365  -1.246   0.390  0.00  0.00     0.054 A 
ATOM      6  C   UNL d   1      -0.119  -1.586  -0.178  0.00  0.00     0.062 A 
ATOM      7  C   UNL d   1       1.020  -0.800   0.035  0.00  0.00     0.050 A 
ATOM      8 CL   UNL d   1       0.041  -2.989  -1.180  0.00  0.00    -0.082 Cl
ATOM      9  C   UNL d   1       0.927   0.339   0.829  0.00  0.00     0.035 A 
ATOM     10 CL   UNL d   1       2.317   1.319   1.091  0.00  0.00    -0.084 Cl
ATOM     11  C   UNL d   1      -0.282   0.695   1.411  0.00  0.00     0.026 A 
ATOM     12  C   UNL d   1      -1.419  -0.090   1.189  0.00  0.00     0.033 A 
ENDBRANCH   3   5
ENDBRANCH   2   3
BRANCH   1  13
ATOM     13  C   UNL d   1      -6.242  -1.483  -0.065  0.00  0.00     0.183 C 
ATOM     14  O   UNL d   1      -6.268  -0.258   0.019  0.00  0.00    -0.288 OA
BRANCH  13  15
ATOM     15  C   UNL d   1      -7.521  -2.226  -0.207  0.00  0.00     0.014 A 
ATOM     16  C   UNL d   1      -7.707  -3.522   0.284  0.00  0.00     0.016 A 
ATOM     17  C   UNL d   1      -8.955  -4.144   0.153  0.00  0.00     0.007 A 
ATOM     18  C   UNL d   1     -10.027  -3.481  -0.461  0.00  0.00    -0.062 A 
ATOM     19  C   UNL d   1      -9.836  -2.183  -0.945  0.00  0.00     0.007 A 
ATOM     20  C   UNL d   1     -11.362  -4.156  -0.580  0.00  0.00     0.048 C 
ATOM     21  C   UNL d   1      -8.594  -1.558  -0.813  0.00  0.00     0.016 A 
ENDBRANCH  13  15
ENDBRANCH   1  13
TORSDOF 4
