REMARK  2 active torsions:
REMARK  status: ('A' for Active; 'I' for Inactive)
REMARK    1  A    between atoms: C_7  and  N_2 
REMARK    2  A    between atoms: C_6  and  C_3 
ROOT
ATOM      1  C   UNL d   1      -0.452   1.186   0.022  0.00  0.00     0.183 A 
ATOM      2  N   UNL d   1       0.923   0.792  -0.080  0.00  0.00    -0.297 N 
ATOM      3  C   UNL d   1      -0.282  -1.072   0.195  0.00  0.00     0.067 A 
ATOM      4  N   UNL d   1      -1.157  -0.020   0.192  0.00  0.00    -0.330 N 
ATOM      5  C   UNL d   1       0.955  -0.598   0.003  0.00  0.00     0.130 A 
ATOM      6  S   UNL d   1      -1.219   2.651  -0.090  0.00  0.00    -0.040 SA
ATOM      7  H   UNL d   1      -2.157  -0.091   0.312  0.00  0.00     0.168 HD
ENDROOT
BRANCH   2   8
ATOM      8  C   UNL d   1       2.072   1.622  -0.114  0.00  0.00     0.041 A 
ATOM      9  C   UNL d   1       2.132   2.819   0.606  0.00  0.00     0.030 A 
ATOM     10  C   UNL d   1       3.312   3.568   0.657  0.00  0.00     0.009 A 
ATOM     11  C   UNL d   1       4.454   3.146  -0.030  0.00  0.00    -0.062 A 
ATOM     12  C   UNL d   1       4.399   1.958  -0.763  0.00  0.00     0.009 A 
ATOM     13  C   UNL d   1       5.724   3.937   0.072  0.00  0.00     0.048 C 
ATOM     14  C   UNL d   1       3.223   1.200  -0.795  0.00  0.00     0.030 A 
ENDBRANCH   2   8
BRANCH   3  15
ATOM     15  C   UNL d   1      -0.642  -2.418   0.456  0.00  0.00     0.033 A 
ATOM     16  S   UNL d   1      -2.300  -2.873   0.636  0.00  0.00    -0.100 SA
ATOM     17  C   UNL d   1      -1.906  -4.490   1.008  0.00  0.00     0.050 A 
ATOM     18  C   UNL d   1      -0.551  -4.711   0.974  0.00  0.00     0.008 A 
ATOM     19  C   UNL d   1       0.171  -3.527   0.644  0.00  0.00     0.021 A 
ENDBRANCH   3  15
TORSDOF 2
