REMARK  7 active torsions:
REMARK  status: ('A' for Active; 'I' for Inactive)
REMARK    1  A    between atoms: N_2  and  S_1 
REMARK    2  A    between atoms: C_5  and  S_1 
REMARK    3  A    between atoms: N_7  and  N_2 
REMARK    4  A    between atoms: C_3  and  C_9 
REMARK    5  A    between atoms: C_4  and  C_8 
REMARK    6  A    between atoms: C_6  and  N_7 
REMARK    7  A    between atoms: C_17  and  C_6 
ROOT
ATOM      1  S   UNL d   1       1.009  -0.157  -0.011  0.00  0.00     0.276 S 
ATOM      2  O   UNL d   1       0.345  -1.010  -0.972  0.00  0.00    -0.199 OA
ATOM      3  O   UNL d   1       2.450  -0.072   0.054  0.00  0.00    -0.199 OA
ENDROOT
BRANCH   1   4
ATOM      4  N   UNL d   1       0.426  -0.580   1.533  0.00  0.00    -0.221 N 
ATOM      5  H   UNL d   1      -0.540  -0.299   1.723  0.00  0.00     0.200 HD
BRANCH   4   6
ATOM      6  N   UNL d   1       0.870  -1.896   2.079  0.00  0.00    -0.274 N 
ATOM      7  H   UNL d   1       1.461  -2.470   1.464  0.00  0.00     0.189 HD
BRANCH   6   8
ATOM      8  C   UNL d   1      -0.000  -2.572   2.904  0.00  0.00     0.141 C 
ATOM      9  N   UNL d   1      -0.822  -1.947   3.699  0.00  0.00    -0.383 N 
ATOM     10  H   UNL d   1      -0.597  -0.952   3.629  0.00  0.00     0.157 HD
ATOM     11  HN  UNL d   1      -1.548  -2.368   4.278  1.00  0.00     0.157 HD
BRANCH   8  12
ATOM     12  C   UNL d   1       0.040  -4.074   2.871  0.00  0.00     0.077 A 
ATOM     13  N   UNL d   1       0.923  -4.605   1.981  0.00  0.00    -0.363 N 
ATOM     14  C   UNL d   1       0.984  -5.955   1.937  0.00  0.00     0.088 A 
ATOM     15  HN  UNL d   1       1.504  -4.018   1.382  1.00  0.00     0.165 HD
ATOM     16  C   UNL d   1       0.218  -6.792   2.734  0.00  0.00     0.017 A 
ATOM     17  C   UNL d   1      -0.674  -6.218   3.635  0.00  0.00     0.004 A 
ATOM     18  C   UNL d   1      -0.769  -4.831   3.709  0.00  0.00     0.033 A 
ENDBRANCH   8  12
ENDBRANCH   6   8
ENDBRANCH   4   6
ENDBRANCH   1   4
BRANCH   1  19
ATOM     19  C   UNL d   1       0.361   1.490  -0.215  0.00  0.00     0.082 A 
ATOM     20  C   UNL d   1       1.143   2.591   0.155  0.00  0.00     0.041 A 
ATOM     21  C   UNL d   1       0.675   3.895  -0.072  0.00  0.00     0.050 A 
ATOM     22  C   UNL d   1      -0.583   4.070  -0.678  0.00  0.00     0.032 A 
ATOM     23  C   UNL d   1      -1.363   2.969  -1.078  0.00  0.00     0.050 A 
ATOM     24  C   UNL d   1      -0.879   1.673  -0.839  0.00  0.00     0.041 A 
BRANCH  21  25
ATOM     25  C   UNL d   1       1.504   5.105   0.303  0.00  0.00     0.417 C 
ATOM     26  F   UNL d   1       2.729   4.792   0.802  0.00  0.00    -0.166 F 
ATOM     27  F   UNL d   1       1.727   5.927  -0.758  0.00  0.00    -0.166 F 
ATOM     28  F   UNL d   1       0.895   5.870   1.249  0.00  0.00    -0.166 F 
ENDBRANCH  21  25
BRANCH  23  29
ATOM     29  C   UNL d   1      -2.687   3.198  -1.775  0.00  0.00     0.417 C 
ATOM     30  F   UNL d   1      -3.300   2.048  -2.165  0.00  0.00    -0.166 F 
ATOM     31  F   UNL d   1      -3.580   3.850  -0.982  0.00  0.00    -0.166 F 
ATOM     32  F   UNL d   1      -2.555   3.956  -2.898  0.00  0.00    -0.166 F 
ENDBRANCH  23  29
ENDBRANCH   1  19
TORSDOF 7
