REMARK  5 active torsions:
REMARK  status: ('A' for Active; 'I' for Inactive)
REMARK    1  A    between atoms: C_4  and  S_1 
REMARK    2  A    between atoms: N_5  and  S_1 
REMARK       I    between atoms: C_3  and  N_2 
REMARK    3  A    between atoms: O_19  and  C_3 
REMARK    4  A    between atoms: C_15  and  N_5 
REMARK    5  A    between atoms: C_22  and  O_19 
ROOT
ATOM      1  N   UNL d   1       0.412   1.720  -0.256  0.00  0.00    -0.310 N 
ATOM      2  H   UNL d   1       1.004   1.008  -0.687  0.00  0.00     0.172 HD
ENDROOT
BRANCH   1   3
ATOM      3  S   UNL d   1      -1.130   1.141   0.088  0.00  0.00     0.259 S 
ATOM      4  O   UNL d   1      -1.163  -0.222  -0.387  0.00  0.00    -0.201 OA
ATOM      5  O   UNL d   1      -1.468   1.502   1.450  0.00  0.00    -0.201 OA
BRANCH   3   6
ATOM      6  C   UNL d   1      -2.112   2.104  -1.027  0.00  0.00     0.081 A 
ATOM      7  C   UNL d   1      -1.850   1.999  -2.394  0.00  0.00     0.049 A 
ATOM      8  C   UNL d   1      -2.573   2.783  -3.293  0.00  0.00     0.041 A 
ATOM      9 CL   UNL d   1      -2.183   2.643  -4.970  0.00  0.00    -0.084 Cl
ATOM     10  C   UNL d   1      -3.568   3.661  -2.836  0.00  0.00    -0.040 A 
ATOM     11  C   UNL d   1      -3.825   3.741  -1.458  0.00  0.00     0.010 A 
ATOM     12  C   UNL d   1      -4.356   4.521  -3.786  0.00  0.00     0.050 C 
ATOM     13  C   UNL d   1      -3.099   2.964  -0.550  0.00  0.00     0.026 A 
ENDBRANCH   3   6
ENDBRANCH   1   3
BRANCH   1  14
ATOM     14  C   UNL d   1       1.037   2.755   0.591  0.00  0.00     0.096 C 
ATOM     15  C   UNL d   1       0.429   4.136   0.317  0.00  0.00     0.045 C 
ATOM     16  C   UNL d   1       0.823   4.667  -1.058  0.00  0.00     0.130 C 
ATOM     17  N   UNL d   1       2.269   4.633  -1.195  0.00  0.00    -0.328 N 
ATOM     18  C   UNL d   1       2.888   3.324  -1.039  0.00  0.00     0.130 C 
ATOM     19  C   UNL d   1       2.972   5.791  -1.450  0.00  0.00     0.362 C 
ATOM     20  C   UNL d   1       2.554   2.762   0.336  0.00  0.00     0.045 C 
ATOM     21  O   UNL d   1       2.451   6.880  -1.655  0.00  0.00    -0.238 OA
BRANCH  19  22
ATOM     22  O   UNL d   1       4.312   5.571  -1.482  0.00  0.00    -0.304 OA
BRANCH  22  23
ATOM     23  C   UNL d   1       5.092   6.582  -2.131  0.00  0.00     0.176 C 
ATOM     24  C   UNL d   1       5.125   6.250  -3.608  0.00  0.00     0.034 C 
ENDBRANCH  22  23
ENDBRANCH  19  22
ENDBRANCH   1  14
TORSDOF 5
