REMARK  2 active torsions:
REMARK  status: ('A' for Active; 'I' for Inactive)
REMARK    1  A    between atoms: N_14  and  N_9 
REMARK    2  A    between atoms: C_22  and  C_19 
ROOT
ATOM      1  C   UNL d   1       1.195   0.936  -0.006  0.00  0.00     0.104 A 
ATOM      2  C   UNL d   1       0.743  -0.355  -0.014  0.00  0.00     0.069 A 
ATOM      3  C   UNL d   1       2.586   1.296   0.005  0.00  0.00     0.286 C 
ATOM      4  S   UNL d   1      -0.067   2.063  -0.004  0.00  0.00    -0.064 SA
ATOM      5  C   UNL d   1      -0.685  -0.467  -0.011  0.00  0.00     0.032 A 
ATOM      6  C   UNL d   1      -1.237   0.817  -0.004  0.00  0.00     0.088 A 
ATOM      7  N   UNL d   1       1.626  -1.446  -0.027  0.00  0.00    -0.349 N 
ATOM      8  HN  UNL d   1       1.311  -2.415  -0.088  1.00  0.00     0.167 HD
ATOM      9  N   UNL d   1       3.414   0.164   0.130  0.00  0.00    -0.215 N 
ATOM     10  C   UNL d   1       2.880  -1.116   0.045  0.00  0.00     0.211 C 
ATOM     11  N   UNL d   1      -2.543   1.143   0.001  0.00  0.00    -0.354 N 
ATOM     12  HN  UNL d   1      -2.869   2.110   0.009  1.00  0.00     0.166 HD
ATOM     13  C   UNL d   1      -1.601  -1.553  -0.011  0.00  0.00    -0.045 A 
ATOM     14  O   UNL d   1       2.992   2.451  -0.104  0.00  0.00    -0.265 OA
ATOM     15  C   UNL d   1      -2.970  -1.232  -0.009  0.00  0.00     0.032 A 
ATOM     16  C   UNL d   1      -3.386   0.094  -0.004  0.00  0.00     0.006 A 
ATOM     17  C   UNL d   1      -1.223  -3.010  -0.013  0.00  0.00     0.049 C 
ATOM     18  C   UNL d   1      -4.854   0.409  -0.006  0.00  0.00     0.068 C 
ENDROOT
BRANCH   9  19
ATOM     19  N   UNL d   1       4.801   0.217   0.210  0.00  0.00    -0.301 N 
ATOM     20  C   UNL d   1       5.347   1.254   0.763  0.00  0.00     0.120 C 
ATOM     21  HN  UNL d   1       5.375  -0.541  -0.157  1.00  0.00     0.186 HD
BRANCH  20  22
ATOM     22  C   UNL d   1       6.806   1.381   0.901  0.00  0.00    -0.004 A 
ATOM     23  C   UNL d   1       7.675   0.420   0.406  0.00  0.00     0.100 A 
ATOM     24  N   UNL d   1       9.017   0.461   0.591  0.00  0.00    -0.374 N 
ATOM     25  C   UNL d   1       9.504   1.508   1.295  0.00  0.00     0.087 A 
ATOM     26  HN  UNL d   1       9.631  -0.263   0.217  1.00  0.00     0.164 HD
ATOM     27  C   UNL d   1       8.714   2.528   1.805  0.00  0.00     0.018 A 
ATOM     28  C   UNL d   1       7.338   2.465   1.599  0.00  0.00     0.015 A 
ENDBRANCH  20  22
ENDBRANCH   9  19
TORSDOF 2
