REMARK  7 active torsions:
REMARK  status: ('A' for Active; 'I' for Inactive)
REMARK       I    between atoms: N_4  and  C_1 
REMARK    1  A    between atoms: C_5  and  C_1 
REMARK    2  A    between atoms: C_2  and  C_5 
REMARK    3  A    between atoms: C_7  and  C_2 
REMARK    4  A    between atoms: C_3  and  C_7 
REMARK    5  A    between atoms: O_10  and  C_3 
REMARK    6  A    between atoms: C_9  and  N_4 
REMARK    7  A    between atoms: C_11  and  C_9 
ROOT
ATOM      1  C   UNL d   1       0.239   0.632   0.781  0.00  0.00     0.112 C 
ENDROOT
BRANCH   1   2
ATOM      2  C   UNL d   1      -1.316   0.575   0.834  0.00  0.00    -0.023 C 
ATOM      3  C   UNL d   1      -1.832  -0.888   0.983  0.00  0.00     0.010 C 
ATOM      4  C   UNL d   1      -1.641  -1.760  -0.256  0.00  0.00     0.001 C 
ATOM      5  C   UNL d   1      -2.273  -1.119  -1.483  0.00  0.00     0.000 C 
ATOM      6  C   UNL d   1      -1.718   0.279  -1.718  0.00  0.00     0.001 C 
ATOM      7  C   UNL d   1      -1.890   1.173  -0.488  0.00  0.00     0.010 C 
BRANCH   2   8
ATOM      8  C   UNL d   1      -1.888   1.375   2.042  0.00  0.00     0.119 C 
BRANCH   8   9
ATOM      9  C   UNL d   1      -1.613   2.864   2.033  0.00  0.00     0.140 C 
ATOM     10  O   UNL d   1      -0.552   3.374   1.698  0.00  0.00    -0.650 OA
BRANCH   9  11
ATOM     11  O   UNL d   1      -2.653   3.602   2.482  0.00  0.00    -0.776 OA
ATOM     12  H   UNL d   1      -3.428   3.082   2.764  0.00  0.00     0.167 HD
ENDBRANCH   9  11
ENDBRANCH   8   9
ENDBRANCH   2   8
ENDBRANCH   1   2
BRANCH   1  13
ATOM     13  C   UNL d   1       0.974   0.274   2.069  0.00  0.00     0.218 C 
ATOM     14  N   UNL d   1       1.730   1.293   2.596  0.00  0.00    -0.357 N 
ATOM     15  H   UNL d   1       1.619   2.236   2.234  0.00  0.00     0.162 HD
ATOM     16  O   UNL d   1       0.929  -0.852   2.555  0.00  0.00    -0.274 OA
BRANCH  14  17
ATOM     17  C   UNL d   1       2.697   1.075   3.652  0.00  0.00     0.161 C 
BRANCH  17  18
ATOM     18  C   UNL d   1       2.426   1.926   4.864  0.00  0.00    -0.041 A 
ATOM     19  C   UNL d   1       1.613   1.439   5.897  0.00  0.00     0.009 A 
ATOM     20  C   UNL d   1       1.383   2.207   7.040  0.00  0.00     0.001 A 
ATOM     21  C   UNL d   1       1.953   3.473   7.158  0.00  0.00     0.000 A 
ATOM     22  C   UNL d   1       2.752   3.974   6.131  0.00  0.00     0.001 A 
ATOM     23  C   UNL d   1       2.986   3.205   4.988  0.00  0.00     0.009 A 
ENDBRANCH  17  18
ENDBRANCH  14  17
ENDBRANCH   1  13
TORSDOF 7
