REMARK  4 active torsions:
REMARK  status: ('A' for Active; 'I' for Inactive)
REMARK    1  A    between atoms: N_2  and  S_1 
REMARK    2  A    between atoms: C_4  and  S_1 
REMARK       I    between atoms: C_3  and  N_2 
REMARK       I    between atoms: N_9  and  C_3 
REMARK    3  A    between atoms: C_14  and  N_9 
REMARK    4  A    between atoms: O_20  and  C_10 
ROOT
ATOM      1  N   UNL d   1       0.579  -0.846  -1.426  0.00  0.00    -0.232 N 
ATOM      2  C   UNL d   1       1.167  -0.251  -2.535  0.00  0.00     0.334 C 
ATOM      3  N   UNL d   1       0.700  -0.749  -3.725  0.00  0.00    -0.307 N 
ATOM      4  O   UNL d   1       2.000   0.632  -2.420  0.00  0.00    -0.246 OA
ATOM      5  H   UNL d   1      -0.158  -1.534  -1.491  0.00  0.00     0.183 HD
ATOM      6  H   UNL d   1       0.018  -1.490  -3.679  0.00  0.00     0.170 HD
ENDROOT
BRANCH   1   7
ATOM      7  S   UNL d   1       0.807  -0.285   0.134  0.00  0.00     0.266 S 
ATOM      8  O   UNL d   1       2.214  -0.318   0.460  0.00  0.00    -0.200 OA
ATOM      9  O   UNL d   1      -0.165  -0.997   0.941  0.00  0.00    -0.200 OA
BRANCH   7  10
ATOM     10  C   UNL d   1       0.255   1.395  -0.004  0.00  0.00     0.080 A 
ATOM     11  C   UNL d   1      -1.117   1.645  -0.111  0.00  0.00     0.026 A 
ATOM     12  C   UNL d   1      -1.553   2.933  -0.410  0.00  0.00     0.008 A 
ATOM     13  C   UNL d   1      -0.629   3.971  -0.596  0.00  0.00    -0.062 A 
ATOM     14  C   UNL d   1       0.738   3.719  -0.414  0.00  0.00     0.008 A 
ATOM     15  C   UNL d   1      -1.110   5.325  -1.027  0.00  0.00     0.048 C 
ATOM     16  C   UNL d   1       1.183   2.434  -0.110  0.00  0.00     0.026 A 
ENDBRANCH   7  10
ENDBRANCH   1   7
BRANCH   3  17
ATOM     17  C   UNL d   1       1.150  -0.369  -5.010  0.00  0.00     0.051 A 
ATOM     18  C   UNL d   1       2.108   0.613  -5.258  0.00  0.00     0.119 A 
ATOM     19  N   UNL d   1       2.599   0.910  -6.485  0.00  0.00    -0.345 N 
ATOM     20  C   UNL d   1       2.117   0.203  -7.522  0.00  0.00     0.141 A 
ATOM     21  HN  UNL d   1       3.302   1.638  -6.616  1.00  0.00     0.167 HD
ATOM     22  C   UNL d   1       1.124  -0.753  -7.396  0.00  0.00     0.058 A 
ATOM     23  C   UNL d   1       0.633  -1.040  -6.120  0.00  0.00     0.035 A 
BRANCH  20  24
ATOM     24  O   UNL d   1       2.636   0.405  -8.784  0.00  0.00    -0.341 OA
ATOM     25  C   UNL d   1       3.790   1.244  -8.768  0.00  0.00     0.211 C 
ENDBRANCH  20  24
ENDBRANCH   3  17
TORSDOF 4
