REMARK  5 active torsions:
REMARK  status: ('A' for Active; 'I' for Inactive)
REMARK    1  A    between atoms: S_2  and  C_1 
REMARK    2  A    between atoms: N_13  and  S_2 
REMARK    3  A    between atoms: C_11  and  C_3 
REMARK    4  A    between atoms: C_10  and  C_18 
REMARK    5  A    between atoms: C_18  and  N_13 
ROOT
ATOM      1  N   UNL d   1      -1.437  -3.844  -1.386  0.00  0.00    -0.210 NA
ATOM      2  H   UNL d   1      -1.856  -4.768  -1.321  0.00  0.00     0.140 HD
ENDROOT
BRANCH   1   3
ATOM      3  S   UNL d   1      -1.682  -2.981   0.032  0.00  0.00     0.242 S 
ATOM      4  O   UNL d   1      -0.851  -1.797  -0.004  0.00  0.00    -0.206 OA
ATOM      5  O   UNL d   1      -1.648  -3.929   1.117  0.00  0.00    -0.206 OA
BRANCH   3   6
ATOM      6  C   UNL d   1      -3.318  -2.390   0.024  0.00  0.00     0.088 A 
ATOM      7  C   UNL d   1      -4.460  -3.169  -0.075  0.00  0.00     0.002 A 
ATOM      8  S   UNL d   1      -5.872  -2.189  -0.101  0.00  0.00    -0.099 SA
ATOM      9  C   UNL d   1      -4.641  -4.649  -0.164  0.00  0.00     0.058 C 
ATOM     10  C   UNL d   1      -4.972  -0.745   0.014  0.00  0.00    -0.019 A 
ATOM     11  C   UNL d   1      -3.619  -0.993   0.073  0.00  0.00     0.039 A 
ATOM     12  C   UNL d   1      -5.669   0.571   0.039  0.00  0.00     0.056 C 
ENDBRANCH   3   6
ENDBRANCH   1   3
BRANCH   1  13
ATOM     13  C   UNL d   1      -1.710  -3.113  -2.631  0.00  0.00     0.162 C 
BRANCH  13  14
ATOM     14  C   UNL d   1      -1.392  -3.969  -3.824  0.00  0.00     0.030 A 
ATOM     15  N   UNL d   1      -1.727  -3.483  -5.085  0.00  0.00    -0.351 N 
ATOM     16  C   UNL d   1      -1.410  -4.355  -6.025  0.00  0.00     0.091 A 
ATOM     17  HN  UNL d   1      -2.159  -2.576  -5.260  1.00  0.00     0.166 HD
ATOM     18  S   UNL d   1      -0.704  -5.811  -5.439  0.00  0.00    -0.081 SA
ATOM     19  C   UNL d   1      -0.815  -5.226  -3.840  0.00  0.00     0.078 A 
BRANCH  16  20
ATOM     20  C   UNL d   1      -1.655  -4.088  -7.426  0.00  0.00     0.038 A 
ATOM     21  S   UNL d   1      -1.338  -5.229  -8.675  0.00  0.00    -0.099 SA
ATOM     22  C   UNL d   1      -1.890  -4.172  -9.895  0.00  0.00     0.050 A 
ATOM     23  C   UNL d   1      -2.304  -2.965  -9.381  0.00  0.00     0.008 A 
ATOM     24  C   UNL d   1      -2.168  -2.917  -7.961  0.00  0.00     0.022 A 
ENDBRANCH  16  20
ENDBRANCH  13  14
ENDBRANCH   1  13
TORSDOF 5
