REMARK  5 active torsions:
REMARK  status: ('A' for Active; 'I' for Inactive)
REMARK    1  A    between atoms: C_8  and  C_2 
REMARK    2  A    between atoms: C_4  and  N_9 
REMARK    3  A    between atoms: N_5  and  C_4 
REMARK    4  A    between atoms: C_6  and  N_5 
REMARK    5  A    between atoms: N_9  and  C_18 
ROOT
ATOM      1  N   UNL d   1       4.630   3.479   3.513  0.00  0.00    -0.333 N 
ATOM      2  H   UNL d   1       5.422   3.366   2.892  0.00  0.00     0.168 HD
ENDROOT
BRANCH   1   3
ATOM      3  C   UNL d   1       4.910   4.175   4.656  0.00  0.00     0.176 C 
ATOM      4  S   UNL d   1       4.474   3.714   6.206  0.00  0.00    -0.041 SA
BRANCH   3   5
ATOM      5  N   UNL d   1       5.735   5.261   4.530  0.00  0.00    -0.332 N 
ATOM      6  H   UNL d   1       6.154   5.552   5.411  0.00  0.00     0.168 HD
BRANCH   5   7
ATOM      7  C   UNL d   1       5.848   6.223   3.492  0.00  0.00     0.056 A 
ATOM      8  C   UNL d   1       6.743   7.301   3.671  0.00  0.00     0.062 A 
ATOM      9  C   UNL d   1       6.826   8.340   2.744  0.00  0.00     0.050 A 
ATOM     10 CL   UNL d   1       7.762   7.387   5.070  0.00  0.00    -0.082 Cl
ATOM     11  C   UNL d   1       6.008   8.319   1.623  0.00  0.00     0.035 A 
ATOM     12  C   UNL d   1       5.122   7.263   1.416  0.00  0.00     0.026 A 
ATOM     13 CL   UNL d   1       6.061   9.617   0.494  0.00  0.00    -0.084 Cl
ATOM     14  C   UNL d   1       5.041   6.222   2.350  0.00  0.00     0.033 A 
ENDBRANCH   5   7
ENDBRANCH   3   5
ENDBRANCH   1   3
BRANCH   1  15
ATOM     15  C   UNL d   1       3.442   2.810   3.148  0.00  0.00     0.034 A 
ATOM     16  C   UNL d   1       2.192   3.181   3.640  0.00  0.00     0.030 A 
ATOM     17  C   UNL d   1       1.023   2.656   3.068  0.00  0.00     0.010 A 
ATOM     18  C   UNL d   1       1.068   1.735   2.010  0.00  0.00    -0.051 A 
ATOM     19  C   UNL d   1       2.339   1.313   1.587  0.00  0.00     0.010 A 
ATOM     20  C   UNL d   1       3.510   1.853   2.134  0.00  0.00     0.030 A 
BRANCH  18  21
ATOM     21  C   UNL d   1      -0.180   1.344   1.252  0.00  0.00     0.060 A 
ATOM     22  C   UNL d   1      -1.380   0.665   1.873  0.00  0.00     0.121 A 
ATOM     23  C   UNL d   1      -0.483  -0.102   0.943  0.00  0.00     0.055 A 
ATOM     24 CL   UNL d   1      -2.970   1.141   1.268  0.00  0.00    -0.101 Cl
ATOM     25 CL   UNL d   1      -1.399   0.168   3.555  0.00  0.00    -0.101 Cl
ENDBRANCH  18  21
ENDBRANCH   1  15
TORSDOF 5
