REMARK  3 active torsions:
REMARK  status: ('A' for Active; 'I' for Inactive)
REMARK    1  A    between atoms: C_9  and  C_3 
REMARK    2  A    between atoms: C_11  and  C_4 
REMARK    3  A    between atoms: C_7  and  C_10 
ROOT
ATOM      1  N   UNL d   1       1.287   0.160   0.037  0.00  0.00    -0.319 N 
ATOM      2  HN  UNL d   1       2.296   0.308   0.065  1.00  0.00     0.169 HD
ATOM      3  C   UNL d   1       0.280   1.099  -0.002  0.00  0.00     0.138 A 
ATOM      4  C   UNL d   1       0.625  -0.976   0.029  0.00  0.00     0.182 A 
ATOM      5  N   UNL d   1      -0.956   0.572  -0.029  0.00  0.00    -0.242 N 
ATOM      6  HN  UNL d   1      -1.850   1.062  -0.057  1.00  0.00     0.196 HD
ATOM      7  O   UNL d   1      -0.728  -0.801  -0.011  0.00  0.00    -0.217 OA
ENDROOT
BRANCH   3   8
ATOM      8  C   UNL d   1       0.555   2.532  -0.027  0.00  0.00     0.011 A 
ATOM      9  C   UNL d   1       1.881   2.994  -0.070  0.00  0.00     0.031 A 
ATOM     10  C   UNL d   1       2.170   4.368  -0.126  0.00  0.00     0.048 A 
ATOM     11  C   UNL d   1       1.108   5.285  -0.125  0.00  0.00     0.016 A 
ATOM     12  C   UNL d   1      -0.212   4.839  -0.071  0.00  0.00     0.002 A 
ATOM     13  C   UNL d   1      -0.486   3.471  -0.024  0.00  0.00     0.015 A 
BRANCH  10  14
ATOM     14  C   UNL d   1       3.593   4.863  -0.203  0.00  0.00     0.417 C 
ATOM     15  F   UNL d   1       4.521   3.865  -0.190  0.00  0.00    -0.166 F 
ATOM     16  F   UNL d   1       3.832   5.577  -1.338  0.00  0.00    -0.166 F 
ATOM     17  F   UNL d   1       3.916   5.686   0.832  0.00  0.00    -0.166 F 
ENDBRANCH  10  14
ENDBRANCH   3   8
BRANCH   4  18
ATOM     18  C   UNL d   1       1.120  -2.345   0.074  0.00  0.00     0.019 A 
ATOM     19  C   UNL d   1       2.497  -2.579   0.208  0.00  0.00     0.039 A 
ATOM     20  C   UNL d   1       2.988  -3.883   0.278  0.00  0.00     0.035 A 
ATOM     21 CL   UNL d   1       4.678  -4.151   0.458  0.00  0.00    -0.084 Cl
ATOM     22  C   UNL d   1       2.121  -4.971   0.211  0.00  0.00     0.024 A 
ATOM     23  C   UNL d   1       0.752  -4.755   0.067  0.00  0.00     0.003 A 
ATOM     24  C   UNL d   1       0.255  -3.450  -0.001  0.00  0.00     0.016 A 
ENDBRANCH   4  18
TORSDOF 3
