REMARK  0 active torsions:
REMARK  status: ('A' for Active; 'I' for Inactive)
ROOT
ATOM      1  C   UNL d   1       2.494  -0.081  -0.015  0.00  0.00     0.147 A 
ATOM      2  N   UNL d   1       1.725   0.485   0.889  0.00  0.00    -0.334 N 
ATOM      3  HN  UNL d   1       2.075   1.036   1.673  1.00  0.00     0.168 HD
ATOM      4  C   UNL d   1       0.379   0.242   0.648  0.00  0.00     0.073 A 
ATOM      5  S   UNL d   1       1.614  -0.965  -1.214  0.00  0.00    -0.052 SA
ATOM      6  C   UNL d   1       0.126  -0.549  -0.474  0.00  0.00     0.038 A 
ATOM      7  N   UNL d   1       3.845   0.008  -0.015  0.00  0.00    -0.361 N 
ATOM      8  C   UNL d   1      -0.743   0.686   1.386  0.00  0.00     0.063 A 
ATOM      9  C   UNL d   1      -1.180  -0.901  -0.866  0.00  0.00     0.045 A 
ATOM     10  C   UNL d   1      -2.046   0.352   1.022  0.00  0.00     0.050 A 
ATOM     11  C   UNL d   1      -2.252  -0.438  -0.098  0.00  0.00     0.037 A 
ATOM     12 CL   UNL d   1      -0.419   1.662   2.753  0.00  0.00    -0.082 Cl
ATOM     13 CL   UNL d   1      -3.854  -0.863  -0.556  0.00  0.00    -0.084 Cl
ATOM     14  C   UNL d   1       4.557   0.813   0.962  0.00  0.00     0.125 C 
ATOM     15  C   UNL d   1       4.704  -0.425  -1.105  0.00  0.00     0.125 C 
ATOM     16  C   UNL d   1       5.816   1.244   0.216  0.00  0.00     0.021 C 
ATOM     17  C   UNL d   1       6.094   0.073  -0.714  0.00  0.00     0.021 C 
ENDROOT
TORSDOF 0
