REMARK  5 active torsions:
REMARK  status: ('A' for Active; 'I' for Inactive)
REMARK    1  A    between atoms: C_8  and  C_1 
REMARK    2  A    between atoms: O_9  and  C_3 
REMARK    3  A    between atoms: C_10  and  N_4 
REMARK    4  A    between atoms: C_15  and  C_10 
REMARK    5  A    between atoms: C_16  and  C_15 
ROOT
ATOM      1  C   UNL d   1       2.400  -0.821   0.024  0.00  0.00     0.076 A 
ATOM      2  C   UNL d   1       2.423   0.681   0.035  0.00  0.00     0.262 A 
ATOM      3  C   UNL d   1       1.226  -1.479   0.068  0.00  0.00     0.094 A 
ATOM      4  N   UNL d   1       1.200   1.360   0.052  0.00  0.00    -0.313 N 
ATOM      5  C   UNL d   1      -0.046  -0.748   0.052  0.00  0.00     0.025 A 
ATOM      6  C   UNL d   1      -0.045   0.655  -0.003  0.00  0.00     0.050 A 
ATOM      7  O   UNL d   1       3.511   1.260   0.021  0.00  0.00    -0.267 OA
ATOM      8  C   UNL d   1      -1.269  -1.445   0.046  0.00  0.00     0.016 A 
ATOM      9  C   UNL d   1      -1.279   1.318  -0.122  0.00  0.00     0.031 A 
ATOM     10  C   UNL d   1      -2.483  -0.767  -0.027  0.00  0.00     0.001 A 
ATOM     11  C   UNL d   1      -2.487   0.616  -0.119  0.00  0.00     0.002 A 
ENDROOT
BRANCH   1  12
ATOM     12  C   UNL d   1       3.666  -1.574  -0.069  0.00  0.00    -0.018 A 
ATOM     13  C   UNL d   1       4.196  -1.898  -1.327  0.00  0.00     0.012 A 
ATOM     14  C   UNL d   1       5.341  -2.690  -1.427  0.00  0.00     0.001 A 
ATOM     15  C   UNL d   1       5.962  -3.166  -0.274  0.00  0.00     0.000 A 
ATOM     16  C   UNL d   1       5.444  -2.844   0.981  0.00  0.00     0.001 A 
ATOM     17  C   UNL d   1       4.299  -2.050   1.085  0.00  0.00     0.012 A 
ENDBRANCH   1  12
BRANCH   3  18
ATOM     18  O   UNL d   1       1.113  -2.862   0.076  0.00  0.00    -0.359 OA
ATOM     19  H   UNL d   1       2.001  -3.258   0.073  0.00  0.00     0.217 HD
ENDBRANCH   3  18
BRANCH   4  20
ATOM     20  C   UNL d   1       1.240   2.828   0.039  0.00  0.00     0.132 C 
BRANCH  20  21
ATOM     21  C   UNL d   1       0.663   3.538   1.274  0.00  0.00     0.020 C 
BRANCH  21  22
ATOM     22  C   UNL d   1       1.352   3.197   2.593  0.00  0.00    -0.003 C 
ATOM     23  C   UNL d   1       0.679   3.935   3.746  0.00  0.00     0.005 C 
ENDBRANCH  21  22
ENDBRANCH  20  21
ENDBRANCH   4  20
TORSDOF 5
