REMARK  4 active torsions:
REMARK  status: ('A' for Active; 'I' for Inactive)
REMARK    1  A    between atoms: C_8  and  C_1 
REMARK    2  A    between atoms: N_24  and  C_2 
REMARK    3  A    between atoms: N_6  and  N_12 
REMARK    4  A    between atoms: C_17  and  N_7 
REMARK       I    between atoms: N_12  and  C_8 
ROOT
ATOM      1  C   UNL d   1       3.823  -0.037  -0.019  0.00  0.00     0.279 C 
ATOM      2  N   UNL d   1       4.588  -1.197   0.072  0.00  0.00    -0.260 N 
ATOM      3  O   UNL d   1       2.611  -0.075  -0.241  0.00  0.00    -0.265 OA
ATOM      4  H   UNL d   1       5.604  -1.132   0.033  0.00  0.00     0.190 HD
ENDROOT
BRANCH   1   5
ATOM      5  C   UNL d   1       4.522   1.224   0.229  0.00  0.00     0.103 A 
ATOM      6  C   UNL d   1       3.959   2.489   0.344  0.00  0.00     0.062 A 
ATOM      7  C   UNL d   1       4.905   3.517   0.725  0.00  0.00     0.032 A 
ATOM      8  C   UNL d   1       4.831   4.917   0.992  0.00  0.00    -0.045 A 
ATOM      9  C   UNL d   1       6.165   2.934   0.873  0.00  0.00     0.088 A 
ATOM     10  C   UNL d   1       6.008   5.546   1.445  0.00  0.00     0.032 A 
ATOM     11  C   UNL d   1       3.626   5.809   0.846  0.00  0.00     0.049 C 
ATOM     12  C   UNL d   1       7.186   4.828   1.589  0.00  0.00     0.006 A 
ATOM     13  N   UNL d   1       7.305   3.528   1.280  0.00  0.00    -0.354 N 
ATOM     14  C   UNL d   1       8.414   5.515   2.112  0.00  0.00     0.068 C 
ATOM     15  HN  UNL d   1       8.190   3.026   1.347  1.00  0.00     0.166 HD
ATOM     16  S   UNL d   1       6.207   1.278   0.490  0.00  0.00    -0.064 SA
BRANCH   6  17
ATOM     17  N   UNL d   1       2.632   2.681   0.157  0.00  0.00    -0.397 N 
ATOM     18  H   UNL d   1       2.013   1.877   0.014  0.00  0.00     0.156 HD
ATOM     19  H   UNL d   1       2.129   3.517   0.417  0.00  0.00     0.156 HD
ENDBRANCH   6  17
ENDBRANCH   1   5
BRANCH   2  20
ATOM     20  N   UNL d   1       4.050  -2.509  -0.049  0.00  0.00    -0.248 N 
ATOM     21  C   UNL d   1       4.688  -3.392  -0.911  0.00  0.00     0.257 C 
ATOM     22  C   UNL d   1       3.852  -4.644  -1.170  0.00  0.00     0.236 C 
ATOM     23  O   UNL d   1       5.744  -3.150  -1.486  0.00  0.00    -0.270 OA
ATOM     24  N   UNL d   1       3.206  -5.111   0.070  0.00  0.00    -0.308 N 
ATOM     25  C   UNL d   1       2.426  -4.163   0.766  0.00  0.00     0.244 C 
ATOM     26  C   UNL d   1       2.660  -2.714   0.331  0.00  0.00     0.255 C 
ATOM     27  O   UNL d   1       1.571  -4.404   1.616  0.00  0.00    -0.271 OA
BRANCH  24  28
ATOM     28  C   UNL d   1       3.221  -6.514   0.400  0.00  0.00     0.039 A 
ATOM     29  C   UNL d   1       2.213  -7.115   1.171  0.00  0.00     0.053 A 
ATOM     30  C   UNL d   1       2.264  -8.474   1.505  0.00  0.00     0.036 A 
ATOM     31 CL   UNL d   1       1.006  -9.171   2.452  0.00  0.00    -0.084 Cl
ATOM     32  C   UNL d   1       3.322  -9.268   1.083  0.00  0.00     0.024 A 
ATOM     33  C   UNL d   1       4.335  -8.699   0.321  0.00  0.00     0.004 A 
ATOM     34  C   UNL d   1       4.284  -7.338  -0.012  0.00  0.00     0.030 A 
ENDBRANCH  24  28
ENDBRANCH   2  20
TORSDOF 4
