REMARK  3 active torsions:
REMARK  status: ('A' for Active; 'I' for Inactive)
REMARK       I    between atoms: N_2  and  C_1 
REMARK       I    between atoms: N_5  and  C_1 
REMARK    1  A    between atoms: C_3  and  N_2 
REMARK    2  A    between atoms: C_14  and  N_5 
REMARK    3  A    between atoms: N_9  and  C_6 
ROOT
ATOM      1  C   UNL d   1       1.058  -1.832  -0.952  0.00  0.00     0.325 C 
ATOM      2  N   UNL d   1       2.244  -1.632  -0.263  0.00  0.00    -0.303 N 
ATOM      3  N   UNL d   1       0.170  -0.799  -0.705  0.00  0.00    -0.309 N 
ATOM      4  O   UNL d   1       0.816  -2.809  -1.654  0.00  0.00    -0.247 OA
ATOM      5  H   UNL d   1       2.208  -1.058   0.568  0.00  0.00     0.171 HD
ATOM      6  H   UNL d   1       0.584   0.085  -0.455  0.00  0.00     0.170 HD
ENDROOT
BRANCH   3   7
ATOM      7  C   UNL d   1      -1.222  -0.815  -0.933  0.00  0.00     0.036 A 
ATOM      8  C   UNL d   1      -1.947  -1.963  -1.229  0.00  0.00     0.032 A 
ATOM      9  C   UNL d   1      -3.346  -1.921  -1.348  0.00  0.00     0.031 A 
ATOM     10  C   UNL d   1      -4.078  -0.738  -1.169  0.00  0.00     0.029 A 
ATOM     11  C   UNL d   1      -3.320   0.411  -0.883  0.00  0.00     0.031 A 
ATOM     12  C   UNL d   1      -1.921   0.382  -0.768  0.00  0.00     0.032 A 
BRANCH  10  13
ATOM     13  N   UNL d   1      -5.470  -0.697  -1.178  0.00  0.00    -0.390 N 
ATOM     14  C   UNL d   1      -6.150   0.434  -1.809  0.00  0.00     0.149 C 
ATOM     15  C   UNL d   1      -6.243  -1.938  -1.181  0.00  0.00     0.149 C 
ENDBRANCH  10  13
ENDBRANCH   3   7
BRANCH   2  16
ATOM     16  C   UNL d   1       3.248  -2.574  -0.292  0.00  0.00     0.077 A 
ATOM     17  S   UNL d   1       4.230  -2.602   1.094  0.00  0.00    -0.084 SA
ATOM     18  C   UNL d   1       5.057  -3.996   0.536  0.00  0.00     0.052 A 
ATOM     19  C   UNL d   1       4.653  -4.361  -0.731  0.00  0.00     0.010 A 
ATOM     20  C   UNL d   1       3.605  -3.524  -1.217  0.00  0.00     0.038 A 
ENDBRANCH   2  16
TORSDOF 3
