REMARK  6 active torsions:
REMARK  status: ('A' for Active; 'I' for Inactive)
REMARK    1  A    between atoms: C_7  and  C_1 
REMARK    2  A    between atoms: C_13  and  C_2 
REMARK    3  A    between atoms: N_8  and  C_5 
REMARK    4  A    between atoms: C_12  and  C_10 
REMARK    5  A    between atoms: O_19  and  C_11 
REMARK    6  A    between atoms: O_20  and  C_14 
ROOT
ATOM      1  C   UNL d   1       1.302   0.787   0.042  0.00  0.00     0.147 A 
ATOM      2  C   UNL d   1       1.440  -0.632  -0.102  0.00  0.00     0.053 A 
ATOM      3  N   UNL d   1       0.003   1.147   0.022  0.00  0.00    -0.292 N 
ATOM      4  HN  UNL d   1      -0.386   2.086   0.104  1.00  0.00     0.187 HD
ATOM      5  C   UNL d   1       0.141  -1.119  -0.268  0.00  0.00     0.135 A 
ATOM      6  N   UNL d   1      -0.663  -0.009  -0.128  0.00  0.00    -0.280 N 
ATOM      7  C   UNL d   1      -2.108   0.011  -0.180  0.00  0.00     0.179 C 
ENDROOT
BRANCH   5   8
ATOM      8  N   UNL d   1      -0.431  -2.334  -0.513  0.00  0.00    -0.349 N 
ATOM      9  C   UNL d   1       0.193  -3.090  -1.373  0.00  0.00     0.104 C 
ATOM     10  HN  UNL d   1      -1.292  -2.631  -0.053  1.00  0.00     0.166 HD
BRANCH   9  11
ATOM     11  C   UNL d   1      -0.309  -4.400  -1.828  0.00  0.00     0.015 A 
ATOM     12  C   UNL d   1       0.289  -5.083  -2.913  0.00  0.00     0.113 A 
ATOM     13  C   UNL d   1      -0.224  -6.343  -3.278  0.00  0.00     0.102 A 
ATOM     14  C   UNL d   1      -1.300  -6.891  -2.560  0.00  0.00     0.040 A 
ATOM     15  C   UNL d   1      -1.875  -6.213  -1.490  0.00  0.00     0.004 A 
ATOM     16  C   UNL d   1      -1.386  -4.963  -1.130  0.00  0.00     0.016 A 
BRANCH  12  17
ATOM     17  O   UNL d   1       1.452  -4.661  -3.507  0.00  0.00    -0.352 OA
ATOM     18  C   UNL d   1       1.431  -3.374  -4.133  0.00  0.00     0.210 C 
ENDBRANCH  12  17
BRANCH  13  19
ATOM     19  O   UNL d   1       0.203  -7.188  -4.269  0.00  0.00    -0.353 OA
ATOM     20  C   UNL d   1       1.066  -6.685  -5.277  0.00  0.00     0.210 C 
ENDBRANCH  13  19
ENDBRANCH   9  11
ENDBRANCH   5   8
BRANCH   2  21
ATOM     21  C   UNL d   1       2.635  -1.471  -0.159  0.00  0.00    -0.020 A 
ATOM     22  C   UNL d   1       2.691  -2.675   0.559  0.00  0.00     0.012 A 
ATOM     23  C   UNL d   1       3.779  -3.540   0.417  0.00  0.00     0.001 A 
ATOM     24  C   UNL d   1       4.839  -3.192  -0.416  0.00  0.00     0.000 A 
ATOM     25  C   UNL d   1       4.811  -1.986  -1.112  0.00  0.00     0.001 A 
ATOM     26  C   UNL d   1       3.707  -1.135  -0.996  0.00  0.00     0.012 A 
ENDBRANCH   2  21
BRANCH   1  27
ATOM     27  C   UNL d   1       2.378   1.831   0.177  0.00  0.00     0.434 C 
ATOM     28  F   UNL d   1       3.611   1.315   0.438  0.00  0.00    -0.165 F 
ATOM     29  F   UNL d   1       2.515   2.559  -0.968  0.00  0.00    -0.165 F 
ATOM     30  F   UNL d   1       2.129   2.721   1.176  0.00  0.00    -0.165 F 
ENDBRANCH   1  27
TORSDOF 6
