REMARK  8 active torsions:
REMARK  status: ('A' for Active; 'I' for Inactive)
REMARK    1  A    between atoms: C_1  and  O_13 
REMARK    2  A    between atoms: C_4  and  C_10 
REMARK    3  A    between atoms: S_6  and  O_13 
REMARK    4  A    between atoms: S_7  and  O_14 
REMARK    5  A    between atoms: S_8  and  O_16 
REMARK    6  A    between atoms: O_14  and  C_10 
REMARK    7  A    between atoms: C_15  and  C_10 
REMARK    8  A    between atoms: O_16  and  C_15 
ROOT
ATOM      1  C   UNL d   1       1.624   1.475   0.190  0.00  0.00     0.208 C 
ATOM      2  C   UNL d   1       0.299   1.008   0.807  0.00  0.00     0.213 C 
ATOM      3  C   UNL d   1       0.440  -0.501   0.913  0.00  0.00     0.295 C 
ATOM      4  C   UNL d   1       2.071   0.189  -0.526  0.00  0.00     0.190 C 
ATOM      5  O   UNL d   1       1.746  -0.814   0.452  0.00  0.00    -0.348 OA
ATOM      6  O   UNL d   1      -0.554  -1.047   0.050  0.00  0.00    -0.323 OA
ATOM      7  O   UNL d   1      -0.805   1.247  -0.070  0.00  0.00    -0.343 OA
ATOM      8  C   UNL d   1      -1.496  -0.000  -0.148  0.00  0.00     0.160 C 
ATOM      9  C   UNL d   1      -2.128  -0.111  -1.526  0.00  0.00     0.078 C 
ATOM     10  C   UNL d   1      -2.557  -0.090   0.950  0.00  0.00     0.078 C 
ENDROOT
BRANCH   4  11
ATOM     11  C   UNL d   1       3.530  -0.018  -0.967  0.00  0.00     0.199 C 
BRANCH  11  12
ATOM     12  O   UNL d   1       3.676  -1.293  -1.648  0.00  0.00    -0.266 OA
BRANCH  12  13
ATOM     13  S   UNL d   1       3.503  -2.700  -0.828  0.00  0.00     0.262 S 
ATOM     14  O   UNL d   1       4.318  -2.654   0.368  0.00  0.00    -0.199 OA
ATOM     15  O   UNL d   1       2.114  -3.107  -0.833  0.00  0.00    -0.199 OA
ATOM     16  C   UNL d   1       4.305  -3.767  -1.996  0.00  0.00     0.194 C 
ENDBRANCH  12  13
ENDBRANCH  11  12
BRANCH  11  17
ATOM     17  C   UNL d   1       3.977   1.026  -2.002  0.00  0.00     0.226 C 
BRANCH  17  18
ATOM     18  O   UNL d   1       3.930   2.363  -1.525  0.00  0.00    -0.273 OA
BRANCH  18  19
ATOM     19  S   UNL d   1       4.229   3.523  -2.641  0.00  0.00     0.261 S 
ATOM     20  O   UNL d   1       5.606   3.397  -3.059  0.00  0.00    -0.199 OA
ATOM     21  O   UNL d   1       3.136   3.526  -3.590  0.00  0.00    -0.199 OA
ATOM     22  C   UNL d   1       4.080   4.947  -1.589  0.00  0.00     0.194 C 
ENDBRANCH  18  19
ENDBRANCH  17  18
ENDBRANCH  11  17
ENDBRANCH   4  11
BRANCH   1  23
ATOM     23  O   UNL d   1       2.560   1.850   1.209  0.00  0.00    -0.265 OA
BRANCH  23  24
ATOM     24  S   UNL d   1       2.244   3.197   2.081  0.00  0.00     0.262 S 
ATOM     25  O   UNL d   1       2.072   4.306   1.162  0.00  0.00    -0.199 OA
ATOM     26  O   UNL d   1       1.267   2.883   3.097  0.00  0.00    -0.199 OA
ATOM     27  C   UNL d   1       3.816   3.368   2.879  0.00  0.00     0.194 C 
ENDBRANCH  23  24
ENDBRANCH   1  23
TORSDOF 8
