REMARK  2 active torsions:
REMARK  status: ('A' for Active; 'I' for Inactive)
REMARK    1  A    between atoms: N_5  and  C_1 
REMARK    2  A    between atoms: C_4  and  N_5 
ROOT
ATOM      1  C   UNL d   1       0.030   1.466  -0.025  0.00  0.00     0.078 A 
ATOM      2  C   UNL d   1      -1.232   0.848   0.052  0.00  0.00     0.064 A 
ATOM      3  C   UNL d   1       1.163   0.618  -0.068  0.00  0.00     0.064 A 
ATOM      4  C   UNL d   1       1.054  -0.772   0.014  0.00  0.00     0.050 A 
ATOM      5  C   UNL d   1      -1.339  -0.550   0.143  0.00  0.00     0.050 A 
ATOM      6  C   UNL d   1      -0.201  -1.349   0.127  0.00  0.00     0.037 A 
ATOM      7 CL   UNL d   1      -2.738   1.677  -0.131  0.00  0.00    -0.082 Cl
ATOM      8 CL   UNL d   1       2.764   1.274  -0.214  0.00  0.00    -0.082 Cl
ATOM      9 CL   UNL d   1      -0.353  -3.059   0.201  0.00  0.00    -0.084 Cl
ENDROOT
BRANCH   1  10
ATOM     10  N   UNL d   1       0.291   2.857  -0.150  0.00  0.00    -0.331 N 
ATOM     11  H   UNL d   1       1.216   3.072  -0.516  0.00  0.00     0.168 HD
BRANCH  10  12
ATOM     12  C   UNL d   1      -0.345   3.982   0.238  0.00  0.00     0.170 C 
ATOM     13  S   UNL d   1       0.234   5.463  -0.251  0.00  0.00    -0.041 SA
ATOM     14  N   UNL d   1      -1.343   3.929   1.133  0.00  0.00    -0.376 N 
ATOM     15  H   UNL d   1      -1.904   3.094   1.226  0.00  0.00     0.158 HD
ATOM     16  H   UNL d   1      -1.818   4.798   1.340  0.00  0.00     0.158 HD
ENDBRANCH  10  12
ENDBRANCH   1  10
TORSDOF 2
