REMARK  5 active torsions:
REMARK  status: ('A' for Active; 'I' for Inactive)
REMARK    1  A    between atoms: N_6  and  C_1 
REMARK    2  A    between atoms: C_8  and  C_2 
REMARK       I    between atoms: C_7  and  N_6 
REMARK       I    between atoms: N_10  and  C_7 
REMARK    3  A    between atoms: O_17  and  C_8 
REMARK    4  A    between atoms: C_13  and  N_10 
REMARK    5  A    between atoms: C_24  and  O_17 
ROOT
ATOM      1  C   UNL d   1       2.352  -0.425   0.489  0.00  0.00     0.095 A 
ATOM      2  C   UNL d   1       1.892   0.850   0.161  0.00  0.00     0.080 A 
ATOM      3  C   UNL d   1       0.442   0.907   0.252  0.00  0.00    -0.026 A 
ATOM      4  C   UNL d   1      -0.099  -0.330   0.532  0.00  0.00    -0.008 A 
ATOM      5  S   UNL d   1       1.081  -1.485   0.882  0.00  0.00    -0.075 SA
ATOM      6  C   UNL d   1      -0.435   2.099  -0.035  0.00  0.00     0.041 C 
ATOM      7  C   UNL d   1      -1.557  -0.671   0.549  0.00  0.00     0.051 C 
ATOM      8  C   UNL d   1      -1.909   1.833   0.322  0.00  0.00     0.009 C 
ATOM      9  C   UNL d   1      -2.401   0.438  -0.116  0.00  0.00    -0.014 C 
ATOM     10  C   UNL d   1      -2.423   0.302  -1.643  0.00  0.00     0.010 C 
ENDROOT
BRANCH   1  11
ATOM     11  N   UNL d   1       3.660  -0.885   0.435  0.00  0.00    -0.302 N 
ATOM     12  C   UNL d   1       4.232  -2.105   0.704  0.00  0.00     0.325 C 
ATOM     13  N   UNL d   1       3.530  -2.960   1.504  0.00  0.00    -0.309 N 
ATOM     14  O   UNL d   1       5.358  -2.310   0.261  0.00  0.00    -0.247 OA
ATOM     15  H   UNL d   1       2.728  -2.546   1.957  0.00  0.00     0.170 HD
ATOM     16  H   UNL d   1       4.324  -0.255  -0.007  0.00  0.00     0.171 HD
BRANCH  13  17
ATOM     17  C   UNL d   1       3.825  -4.298   1.829  0.00  0.00     0.037 A 
ATOM     18  C   UNL d   1       4.827  -5.046   1.209  0.00  0.00     0.053 A 
ATOM     19  C   UNL d   1       5.024  -6.381   1.569  0.00  0.00     0.036 A 
ATOM     20 CL   UNL d   1       6.245  -7.309   0.785  0.00  0.00    -0.084 Cl
ATOM     21  C   UNL d   1       4.235  -6.980   2.550  0.00  0.00     0.024 A 
ATOM     22  C   UNL d   1       3.234  -6.239   3.172  0.00  0.00     0.004 A 
ATOM     23  C   UNL d   1       3.027  -4.907   2.809  0.00  0.00     0.029 A 
ENDBRANCH  13  17
ENDBRANCH   1  11
BRANCH   2  24
ATOM     24  C   UNL d   1       2.727   1.967  -0.293  0.00  0.00     0.296 C 
ATOM     25  O   UNL d   1       2.271   3.059  -0.621  0.00  0.00    -0.259 OA
BRANCH  24  26
ATOM     26  O   UNL d   1       4.055   1.649  -0.382  0.00  0.00    -0.318 OA
BRANCH  26  27
ATOM     27  C   UNL d   1       4.882   2.598  -1.076  0.00  0.00     0.174 C 
ATOM     28  C   UNL d   1       4.897   2.241  -2.550  0.00  0.00     0.034 C 
ENDBRANCH  26  27
ENDBRANCH  24  26
ENDBRANCH   2  24
TORSDOF 5
