REMARK  3 active torsions:
REMARK  status: ('A' for Active; 'I' for Inactive)
REMARK    1  A    between atoms: C_3  and  C_1 
REMARK    2  A    between atoms: C_8  and  N_2 
REMARK    3  A    between atoms: N_4  and  C_9 
ROOT
ATOM      1  C   UNL d   1      -0.400  -1.080  -0.317  0.00  0.00     0.141 C 
ATOM      2  N   UNL d   1       0.885  -0.750   0.063  0.00  0.00    -0.252 N 
ATOM      3  N   UNL d   1       0.919   0.493   0.619  0.00  0.00    -0.305 N 
ATOM      4  HN  UNL d   1       1.701   0.935   1.103  1.00  0.00     0.186 HD
ATOM      5  C   UNL d   1      -1.151   0.076  -0.190  0.00  0.00     0.055 C 
ATOM      6  C   UNL d   1      -0.287   1.006   0.393  0.00  0.00     0.110 C 
ENDROOT
BRANCH   2   7
ATOM      7  C   UNL d   1       2.107  -1.472  -0.051  0.00  0.00     0.057 A 
ATOM      8  C   UNL d   1       2.326  -2.382  -1.093  0.00  0.00     0.034 A 
ATOM      9  C   UNL d   1       3.523  -3.105  -1.151  0.00  0.00     0.038 A 
ATOM     10  C   UNL d   1       4.505  -2.909  -0.171  0.00  0.00     0.103 A 
ATOM     11  C   UNL d   1       4.314  -1.967   0.847  0.00  0.00     0.038 A 
ATOM     12  C   UNL d   1       3.122  -1.239   0.894  0.00  0.00     0.034 A 
BRANCH  10  13
ATOM     13  N   UNL d   1       5.744  -3.698  -0.210  0.00  0.00    -0.116 N 
ATOM     14  O   UNL d   1       5.875  -4.516  -1.134  0.00  0.00    -0.532 OA
ATOM     15  O   UNL d   1       6.579  -3.505   0.681  0.00  0.00    -0.532 OA
ENDBRANCH  10  13
ENDBRANCH   2   7
BRANCH   1  16
ATOM     16  C   UNL d   1      -0.858  -2.430  -0.673  0.00  0.00     0.434 C 
ATOM     17  F   UNL d   1      -0.017  -3.427  -0.312  0.00  0.00    -0.165 F 
ATOM     18  F   UNL d   1      -2.045  -2.713  -0.075  0.00  0.00    -0.165 F 
ATOM     19  F   UNL d   1      -1.061  -2.544  -2.009  0.00  0.00    -0.165 F 
ENDBRANCH   1  16
TORSDOF 3
