REMARK  5 active torsions:
REMARK  status: ('A' for Active; 'I' for Inactive)
REMARK    1  A    between atoms: C_10  and  C_1 
REMARK    2  A    between atoms: O_13  and  C_9 
REMARK    3  A    between atoms: O_15  and  C_10 
REMARK    4  A    between atoms: C_16  and  O_13 
REMARK    5  A    between atoms: C_17  and  O_15 
ROOT
ATOM      1  C   UNL d   1      -2.323  -0.191  -0.007  0.00  0.00     0.127 A 
ATOM      2  N   UNL d   1      -0.186  -0.679   0.014  0.00  0.00    -0.247 N 
ATOM      3  N   UNL d   1      -1.636   1.015  -0.022  0.00  0.00    -0.335 N 
ATOM      4  HN  UNL d   1      -2.037   1.953  -0.030  1.00  0.00     0.168 HD
ATOM      5  C   UNL d   1      -0.361   0.696  -0.023  0.00  0.00     0.127 A 
ATOM      6  C   UNL d   1      -1.425  -1.241   0.033  0.00  0.00     0.154 A 
ATOM      7  N   UNL d   1       0.987  -1.362   0.031  0.00  0.00    -0.272 N 
ATOM      8  HN  UNL d   1       1.054  -2.379   0.069  1.00  0.00     0.189 HD
ATOM      9  C   UNL d   1       2.009  -0.573  -0.006  0.00  0.00     0.163 A 
ATOM     10  C   UNL d   1       0.802   1.498  -0.081  0.00  0.00     0.054 A 
ATOM     11  C   UNL d   1       2.005   0.906  -0.098  0.00  0.00     0.061 A 
ENDROOT
BRANCH   9  12
ATOM     12  O   UNL d   1       3.329  -0.993   0.047  0.00  0.00    -0.293 OA
BRANCH  12  13
ATOM     13  C   UNL d   1       3.603  -2.292   0.520  0.00  0.00     0.077 A 
ATOM     14  C   UNL d   1       4.566  -3.033  -0.158  0.00  0.00     0.037 A 
ATOM     15  C   UNL d   1       4.927  -4.291   0.327  0.00  0.00     0.003 A 
ATOM     16  C   UNL d   1       4.333  -4.791   1.487  0.00  0.00     0.000 A 
ATOM     17  C   UNL d   1       3.382  -4.035   2.170  0.00  0.00     0.003 A 
ATOM     18  C   UNL d   1       3.022  -2.773   1.696  0.00  0.00     0.037 A 
ENDBRANCH  12  13
ENDBRANCH   9  12
BRANCH   1  19
ATOM     19  C   UNL d   1      -3.773  -0.317  -0.110  0.00  0.00     0.311 C 
ATOM     20  O   UNL d   1      -4.351  -1.398  -0.173  0.00  0.00    -0.258 OA
BRANCH  19  21
ATOM     21  O   UNL d   1      -4.385   0.897  -0.219  0.00  0.00    -0.317 OA
BRANCH  21  22
ATOM     22  C   UNL d   1      -5.723   0.871  -0.726  0.00  0.00     0.175 C 
ATOM     23  C   UNL d   1      -5.660   0.951  -2.241  0.00  0.00     0.034 C 
ENDBRANCH  21  22
ENDBRANCH  19  21
ENDBRANCH   1  19
TORSDOF 5
