REMARK  2 active torsions:
REMARK  status: ('A' for Active; 'I' for Inactive)
REMARK    1  A    between atoms: O_19  and  C_12 
REMARK    2  A    between atoms: O_20  and  C_16 
ROOT
ATOM      1  C   UNL d   1      -0.554  -0.723  -0.212  0.00  0.00    -0.014 C 
ATOM      2  C   UNL d   1      -0.182   0.233  -1.381  0.00  0.00     0.001 C 
ATOM      3  C   UNL d   1      -0.780  -0.170  -2.760  0.00  0.00    -0.001 C 
ATOM      4  C   UNL d   1      -0.256  -1.586  -3.161  0.00  0.00     0.023 C 
ATOM      5  C   UNL d   1      -1.126  -2.353  -4.144  0.00  0.00    -0.047 C 
ATOM      6  C   UNL d   1      -2.432  -1.948  -4.449  0.00  0.00    -0.049 C 
ATOM      7  C   UNL d   1      -0.859  -2.144  -0.727  0.00  0.00     0.013 C 
ATOM      8  C   UNL d   1       0.029  -2.484  -1.921  0.00  0.00     0.010 C 
ATOM      9  C   UNL d   1      -2.310  -0.026  -2.851  0.00  0.00     0.010 C 
ATOM     10  C   UNL d   1      -0.570   1.619  -0.864  0.00  0.00     0.008 C 
ATOM     11  C   UNL d   1      -0.644  -3.566  -4.672  0.00  0.00     0.011 C 
ATOM     12  C   UNL d   1      -1.798  -0.064   0.439  0.00  0.00     0.126 C 
ATOM     13  C   UNL d   1      -2.884  -0.547  -4.157  0.00  0.00     0.039 C 
ATOM     14  C   UNL d   1      -3.296  -2.847  -5.087  0.00  0.00     0.044 C 
ATOM     15  C   UNL d   1      -1.747   1.423   0.089  0.00  0.00     0.033 C 
ATOM     16  C   UNL d   1      -2.842  -4.116  -5.443  0.00  0.00     0.068 C 
ATOM     17  C   UNL d   1      -1.501  -4.448  -5.321  0.00  0.00     0.037 C 
ATOM     18  C   UNL d   1       0.623  -0.811   0.787  0.00  0.00     0.018 C 
ENDROOT
BRANCH  12  19
ATOM     19  O   UNL d   1      -1.880  -0.265   1.843  0.00  0.00    -0.395 OA
ATOM     20  H   UNL d   1      -1.198   0.285   2.271  0.00  0.00     0.210 HD
ENDBRANCH  12  19
BRANCH  16  21
ATOM     21  O   UNL d   1      -3.702  -5.071  -5.911  0.00  0.00    -0.356 OA
ATOM     22  C   UNL d   1      -4.531  -5.532  -4.838  0.00  0.00     0.210 C 
ENDBRANCH  16  21
TORSDOF 2
