REMARK  5 active torsions:
REMARK  status: ('A' for Active; 'I' for Inactive)
REMARK    1  A    between atoms: C_2  and  C_1 
REMARK       I    between atoms: N_5  and  C_2 
REMARK    2  A    between atoms: C_4  and  C_3 
REMARK    3  A    between atoms: C_10  and  N_5 
REMARK    4  A    between atoms: N_14  and  C_9 
REMARK    5  A    between atoms: C_24  and  N_14 
ROOT
ATOM      1  C   UNL d   1       0.636   1.223  -0.440  0.00  0.00     0.062 A 
ATOM      2  C   UNL d   1       1.493   0.135  -0.299  0.00  0.00     0.068 A 
ATOM      3  C   UNL d   1      -0.712   0.980  -0.640  0.00  0.00     0.107 A 
ATOM      4  N   UNL d   1      -1.247  -0.260  -0.713  0.00  0.00    -0.356 N 
ATOM      5  HN  UNL d   1      -2.251  -0.385  -0.843  1.00  0.00     0.166 HD
ATOM      6  C   UNL d   1      -0.430  -1.326  -0.612  0.00  0.00     0.081 A 
ATOM      7  C   UNL d   1       0.932  -1.156  -0.370  0.00  0.00     0.059 A 
ENDROOT
BRANCH   1   8
ATOM      8  C   UNL d   1       1.091   2.614  -0.561  0.00  0.00     0.258 C 
ATOM      9  N   UNL d   1       0.744   3.443   0.486  0.00  0.00    -0.321 N 
ATOM     10  H   UNL d   1       0.495   3.017   1.375  0.00  0.00     0.169 HD
ATOM     11  O   UNL d   1       1.716   2.907  -1.573  0.00  0.00    -0.267 OA
BRANCH   9  12
ATOM     12  C   UNL d   1       0.847   4.856   0.492  0.00  0.00     0.057 A 
ATOM     13  C   UNL d   1       0.799   5.548   1.716  0.00  0.00     0.062 A 
ATOM     14  C   UNL d   1       0.864   6.944   1.759  0.00  0.00     0.050 A 
ATOM     15 CL   UNL d   1       0.683   4.692   3.216  0.00  0.00    -0.082 Cl
ATOM     16  C   UNL d   1       0.949   7.662   0.570  0.00  0.00     0.035 A 
ATOM     17  C   UNL d   1       0.977   6.998  -0.653  0.00  0.00     0.026 A 
ATOM     18 CL   UNL d   1       1.010   9.381   0.609  0.00  0.00    -0.084 Cl
ATOM     19  C   UNL d   1       0.933   5.600  -0.691  0.00  0.00     0.033 A 
ENDBRANCH   9  12
ENDBRANCH   1   8
BRANCH   2  20
ATOM     20  C   UNL d   1       2.974   0.289  -0.117  0.00  0.00     0.418 C 
ATOM     21  F   UNL d   1       3.360   1.490   0.385  0.00  0.00    -0.166 F 
ATOM     22  F   UNL d   1       3.470  -0.635   0.758  0.00  0.00    -0.166 F 
ATOM     23  F   UNL d   1       3.667   0.103  -1.272  0.00  0.00    -0.166 F 
ENDBRANCH   2  20
BRANCH   6  24
ATOM     24  N   UNL d   1      -0.949  -2.629  -0.661  0.00  0.00    -0.274 NA
ATOM     25  H   UNL d   1      -0.300  -3.256  -1.124  0.00  0.00     0.129 HD
BRANCH  24  26
ATOM     26  C   UNL d   1      -2.317  -2.761  -1.196  0.00  0.00     0.061 C 
ATOM     27  C   UNL d   1      -3.035  -3.920  -0.485  0.00  0.00     0.020 C 
ATOM     28  C   UNL d   1      -2.606  -5.306  -0.959  0.00  0.00     0.002 C 
ATOM     29  C   UNL d   1      -2.687  -5.432  -2.475  0.00  0.00     0.000 C 
ATOM     30  C   UNL d   1      -1.852  -4.355  -3.156  0.00  0.00     0.002 C 
ATOM     31  C   UNL d   1      -2.285  -2.954  -2.723  0.00  0.00     0.020 C 
ENDBRANCH  24  26
ENDBRANCH   6  24
TORSDOF 5
