REMARK  2 active torsions:
REMARK  status: ('A' for Active; 'I' for Inactive)
REMARK    1  A    between atoms: C_10  and  N_1 
REMARK    2  A    between atoms: O_19  and  C_16 
ROOT
ATOM      1  N   UNL d   1       2.163  -0.689  -0.110  0.00  0.00    -0.254 N 
ATOM      2  C   UNL d   1       0.929  -1.364   0.004  0.00  0.00     0.187 A 
ATOM      3  C   UNL d   1       2.299   0.719  -0.128  0.00  0.00     0.270 A 
ATOM      4  N   UNL d   1      -0.249  -0.534   0.052  0.00  0.00    -0.317 N 
ATOM      5  C   UNL d   1       1.065   1.443  -0.064  0.00  0.00     0.095 A 
ATOM      6  C   UNL d   1      -0.143   0.827   0.019  0.00  0.00     0.139 A 
ATOM      7  N   UNL d   1      -0.559   3.037   0.003  0.00  0.00    -0.309 N 
ATOM      8  HN  UNL d   1      -1.045   3.934   0.015  1.00  0.00     0.186 HD
ATOM      9  N   UNL d   1      -1.093   1.802   0.066  0.00  0.00    -0.285 N 
ATOM     10  S   UNL d   1       0.637  -3.011   0.165  0.00  0.00    -0.040 SA
ATOM     11  C   UNL d   1       0.760   2.815  -0.081  0.00  0.00     0.128 A 
ATOM     12  O   UNL d   1       3.359   1.328  -0.213  0.00  0.00    -0.266 OA
ATOM     13  H   UNL d   1      -1.150  -0.995   0.138  0.00  0.00     0.170 HD
ATOM     14  H   UNL d   1      -2.102   1.719   0.140  0.00  0.00     0.188 HD
ENDROOT
BRANCH   1  15
ATOM     15  C   UNL d   1       3.386  -1.433  -0.212  0.00  0.00     0.045 A 
ATOM     16  C   UNL d   1       4.406  -1.246   0.730  0.00  0.00     0.033 A 
ATOM     17  C   UNL d   1       5.609  -1.956   0.632  0.00  0.00     0.039 A 
ATOM     18  C   UNL d   1       5.814  -2.844  -0.423  0.00  0.00     0.068 A 
ATOM     19  C   UNL d   1       4.804  -3.021  -1.371  0.00  0.00     0.039 A 
ATOM     20  C   UNL d   1       3.597  -2.324  -1.271  0.00  0.00     0.033 A 
BRANCH  18  21
ATOM     21  O   UNL d   1       6.941  -3.585  -0.644  0.00  0.00    -0.356 OA
ATOM     22  C   UNL d   1       8.009  -3.429   0.283  0.00  0.00     0.210 C 
ENDBRANCH  18  21
ENDBRANCH   1  15
TORSDOF 2
