REMARK  2 active torsions:
REMARK  status: ('A' for Active; 'I' for Inactive)
REMARK    1  A    between atoms: C_5  and  N_1 
REMARK    2  A    between atoms: C_11  and  C_5 
ROOT
ATOM      1  N   UNL d   1       0.430  -0.789   0.056  0.00  0.00    -0.288 N 
ATOM      2  C   UNL d   1       0.453   0.016   1.160  0.00  0.00     0.177 A 
ATOM      3  C   UNL d   1       0.516  -0.027  -1.082  0.00  0.00     0.244 A 
ATOM      4  N   UNL d   1       0.579   1.327   0.745  0.00  0.00    -0.358 N 
ATOM      5  S   UNL d   1       0.321  -0.364   2.766  0.00  0.00    -0.041 SA
ATOM      6  C   UNL d   1       0.607   1.438  -0.686  0.00  0.00     0.225 A 
ATOM      7  O   UNL d   1       0.492  -0.435  -2.238  0.00  0.00    -0.271 OA
ATOM      8  H   UNL d   1       0.584   2.100   1.401  0.00  0.00     0.162 HD
ENDROOT
BRANCH   1   9
ATOM      9  C   UNL d   1       0.245  -2.233   0.008  0.00  0.00     0.191 C 
BRANCH   9  10
ATOM     10  C   UNL d   1       1.534  -3.023   0.069  0.00  0.00     0.027 A 
ATOM     11  N   UNL d   1       2.002  -3.353   1.300  0.00  0.00    -0.368 N 
ATOM     12  C   UNL d   1       3.103  -4.132   1.368  0.00  0.00     0.088 A 
ATOM     13  HN  UNL d   1       1.537  -3.024   2.146  1.00  0.00     0.165 HD
ATOM     14  C   UNL d   1       3.772  -4.616   0.258  0.00  0.00     0.017 A 
ATOM     15  C   UNL d   1       3.296  -4.259  -0.998  0.00  0.00     0.003 A 
ATOM     16  C   UNL d   1       2.169  -3.444  -1.098  0.00  0.00     0.027 A 
ENDBRANCH   9  10
ENDBRANCH   1   9
TORSDOF 2
