REMARK  6 active torsions:
REMARK  status: ('A' for Active; 'I' for Inactive)
REMARK    1  A    between atoms: C_18  and  N_1 
REMARK    2  A    between atoms: C_19  and  N_2 
REMARK    3  A    between atoms: C_7  and  C_14 
REMARK    4  A    between atoms: C_12  and  C_7 
REMARK    5  A    between atoms: C_13  and  C_7 
REMARK    6  A    between atoms: C_15  and  C_7 
ROOT
ATOM      1  C   UNL d   1      -3.997   1.419  -0.041  0.00  0.00     0.209 C 
ENDROOT
BRANCH   1   2
ATOM      2  C   UNL d   1      -2.586   0.693   0.024  0.00  0.00    -0.026 C 
ATOM      3  C   UNL d   1      -1.903   0.273  -1.134  0.00  0.00     0.027 C 
ATOM      4  C   UNL d   1      -0.736  -0.465  -0.993  0.00  0.00     0.049 A 
ATOM      5  C   UNL d   1       0.091  -1.111  -2.006  0.00  0.00     0.266 A 
ATOM      6  C   UNL d   1      -0.195  -0.752   0.234  0.00  0.00     0.048 A 
ATOM      7  N   UNL d   1       1.078  -1.805  -1.339  0.00  0.00    -0.244 N 
ATOM      8  O   UNL d   1      -0.180  -1.012  -3.190  0.00  0.00    -0.267 OA
ATOM      9  C   UNL d   1       0.964  -1.614   0.024  0.00  0.00     0.266 A 
ATOM     10  O   UNL d   1       1.635  -2.006   0.960  0.00  0.00    -0.267 OA
ATOM     11  C   UNL d   1      -0.741  -0.253   1.394  0.00  0.00     0.018 C 
ATOM     12  C   UNL d   1      -1.926   0.492   1.280  0.00  0.00     0.010 C 
BRANCH   7  13
ATOM     13  C   UNL d   1       2.060  -2.623  -1.965  0.00  0.00     0.046 A 
ATOM     14  C   UNL d   1       2.356  -2.489  -3.331  0.00  0.00     0.032 A 
ATOM     15  C   UNL d   1       3.321  -3.295  -3.949  0.00  0.00     0.026 A 
ATOM     16  C   UNL d   1       3.993  -4.261  -3.210  0.00  0.00     0.034 A 
ATOM     17  C   UNL d   1       3.712  -4.422  -1.858  0.00  0.00     0.026 A 
ATOM     18 CL   UNL d   1       5.170  -5.258  -3.968  0.00  0.00    -0.084 Cl
ATOM     19  C   UNL d   1       2.759  -3.603  -1.241  0.00  0.00     0.032 A 
ENDBRANCH   7  13
ENDBRANCH   1   2
BRANCH   1  20
ATOM     20  C   UNL d   1      -4.832   0.992  -1.306  0.00  0.00     0.412 C 
ATOM     21  F   UNL d   1      -6.124   0.680  -1.091  0.00  0.00    -0.169 F 
ATOM     22  F   UNL d   1      -4.862   1.993  -2.228  0.00  0.00    -0.169 F 
ATOM     23  F   UNL d   1      -4.320  -0.078  -1.958  0.00  0.00    -0.169 F 
ENDBRANCH   1  20
BRANCH   1  24
ATOM     24  C   UNL d   1      -4.866   1.029   1.214  0.00  0.00     0.412 C 
ATOM     25  F   UNL d   1      -6.153   0.712   0.986  0.00  0.00    -0.169 F 
ATOM     26  F   UNL d   1      -4.367  -0.026   1.908  0.00  0.00    -0.169 F 
ATOM     27  F   UNL d   1      -4.908   2.053   2.111  0.00  0.00    -0.169 F 
ENDBRANCH   1  24
BRANCH   1  28
ATOM     28  C   UNL d   1      -3.772   2.981  -0.072  0.00  0.00    -0.026 A 
ATOM     29  C   UNL d   1      -2.476   3.565  -0.086  0.00  0.00     0.027 A 
ATOM     30  C   UNL d   1      -2.367   4.946  -0.048  0.00  0.00     0.049 A 
ATOM     31  C   UNL d   1      -1.180   5.799   0.015  0.00  0.00     0.266 A 
ATOM     32  C   UNL d   1      -3.470   5.759  -0.000  0.00  0.00     0.048 A 
ATOM     33  N   UNL d   1      -1.621   7.095   0.151  0.00  0.00    -0.244 N 
ATOM     34  O   UNL d   1      -0.055   5.312  -0.005  0.00  0.00    -0.267 OA
ATOM     35  C   UNL d   1      -3.000   7.142   0.128  0.00  0.00     0.266 A 
ATOM     36  O   UNL d   1      -3.786   8.066   0.178  0.00  0.00    -0.267 OA
ATOM     37  C   UNL d   1      -4.750   5.252  -0.033  0.00  0.00     0.018 A 
ATOM     38  C   UNL d   1      -4.893   3.858  -0.069  0.00  0.00     0.010 A 
BRANCH  33  39
ATOM     39  C   UNL d   1      -0.779   8.226   0.349  0.00  0.00     0.046 A 
ATOM     40  C   UNL d   1       0.584   8.200   0.005  0.00  0.00     0.032 A 
ATOM     41  C   UNL d   1       1.416   9.303   0.235  0.00  0.00     0.026 A 
ATOM     42  C   UNL d   1       0.902  10.449   0.831  0.00  0.00     0.034 A 
ATOM     43  C   UNL d   1      -0.441  10.507   1.179  0.00  0.00     0.026 A 
ATOM     44 CL   UNL d   1       1.928  11.792   1.142  0.00  0.00    -0.084 Cl
ATOM     45  C   UNL d   1      -1.275   9.409   0.929  0.00  0.00     0.032 A 
ENDBRANCH  33  39
ENDBRANCH   1  28
TORSDOF 6
