REMARK  3 active torsions:
REMARK  status: ('A' for Active; 'I' for Inactive)
REMARK    1  A    between atoms: C_8  and  N_1 
REMARK    2  A    between atoms: C_3  and  C_2 
REMARK    3  A    between atoms: C_9  and  C_10 
ROOT
ATOM      1  N   UNL d   1      -0.182  -1.298  -0.020  0.00  0.00    -0.224 N 
ATOM      2  C   UNL d   1       1.064  -0.662  -0.104  0.00  0.00     0.151 A 
ATOM      3  N   UNL d   1      -1.139  -0.344  -0.103  0.00  0.00     0.001 NA
ATOM      4  N   UNL d   1      -0.508   0.812  -0.196  0.00  0.00    -0.007 NA
ATOM      5  N   UNL d   1       0.841   0.637  -0.207  0.00  0.00    -0.269 N 
ATOM      6  HN  UNL d   1       1.547   1.369  -0.282  1.00  0.00     0.185 HD
ENDROOT
BRANCH   2   7
ATOM      7  C   UNL d   1       2.386  -1.285  -0.203  0.00  0.00     0.041 A 
ATOM      8  C   UNL d   1       3.523  -0.798   0.472  0.00  0.00     0.064 A 
ATOM      9  C   UNL d   1       4.755  -1.451   0.270  0.00  0.00     0.034 A 
ATOM     10  C   UNL d   1       4.816  -2.551  -0.562  0.00  0.00     0.088 A 
ATOM     11  N   UNL d   1       3.752  -3.029  -1.227  0.00  0.00    -0.374 N 
ATOM     12  C   UNL d   1       2.578  -2.382  -1.046  0.00  0.00     0.103 A 
ATOM     13  HN  UNL d   1       3.826  -3.840  -1.840  1.00  0.00     0.164 HD
BRANCH   8  14
ATOM     14  C   UNL d   1       3.525   0.407   1.381  0.00  0.00     0.418 C 
ATOM     15  F   UNL d   1       2.333   0.700   1.963  0.00  0.00    -0.166 F 
ATOM     16  F   UNL d   1       4.386   0.237   2.433  0.00  0.00    -0.166 F 
ATOM     17  F   UNL d   1       3.950   1.532   0.750  0.00  0.00    -0.166 F 
ENDBRANCH   8  14
ENDBRANCH   2   7
BRANCH   1  18
ATOM     18  C   UNL d   1      -0.513  -2.668   0.182  0.00  0.00     0.062 A 
ATOM     19  C   UNL d   1      -1.639  -3.273  -0.443  0.00  0.00    -0.028 A 
ATOM     20  C   UNL d   1      -1.926  -4.632  -0.151  0.00  0.00    -0.054 A 
ATOM     21  C   UNL d   1      -2.521  -2.542  -1.429  0.00  0.00     0.051 C 
ATOM     22  C   UNL d   1      -3.101  -5.382  -0.730  0.00  0.00     0.049 C 
ATOM     23  C   UNL d   1      -1.070  -5.365   0.689  0.00  0.00     0.007 A 
ATOM     24  C   UNL d   1       0.038  -4.769   1.279  0.00  0.00     0.003 A 
ATOM     25  C   UNL d   1       0.308  -3.426   1.038  0.00  0.00     0.032 A 
ENDBRANCH   1  18
TORSDOF 3
