REMARK  9 active torsions:
REMARK  status: ('A' for Active; 'I' for Inactive)
REMARK    1  A    between atoms: C_14  and  N_4 
REMARK    2  A    between atoms: C_29  and  N_11 
REMARK    3  A    between atoms: C_21  and  C_12 
REMARK    4  A    between atoms: C_16  and  C_14 
REMARK    5  A    between atoms: C_15  and  O_20 
REMARK    6  A    between atoms: C_19  and  C_16 
REMARK    7  A    between atoms: O_20  and  C_28 
REMARK    8  A    between atoms: C_34  and  C_29 
REMARK    9  A    between atoms: C_35  and  C_34 
ROOT
ATOM      1  N   UNL d   1       1.394  -0.698   0.046  0.00  0.00    -0.203 N 
ATOM      2  C   UNL d   1       1.222   0.655  -0.252  0.00  0.00     0.136 A 
ATOM      3  C   UNL d   1      -0.981  -1.027   0.221  0.00  0.00     0.062 A 
ATOM      4  N   UNL d   1      -0.061   1.164  -0.400  0.00  0.00    -0.319 N 
ATOM      5  C   UNL d   1      -1.105   0.265  -0.104  0.00  0.00     0.118 A 
ATOM      6  C   UNL d   1       0.360  -1.623   0.287  0.00  0.00     0.278 A 
ATOM      7  N   UNL d   1       2.701  -1.039   0.173  0.00  0.00    -0.289 N 
ATOM      8  HN  UNL d   1       3.083  -1.964   0.374  1.00  0.00     0.188 HD
ATOM      9  C   UNL d   1       2.494   1.186  -0.261  0.00  0.00     0.082 A 
ATOM     10  C   UNL d   1      -2.562   0.524   0.106  0.00  0.00     0.271 C 
ATOM     11  N   UNL d   1      -3.037  -0.509   0.939  0.00  0.00    -0.342 N 
ATOM     12  C   UNL d   1       3.386   0.098  -0.020  0.00  0.00     0.062 A 
ATOM     13  C   UNL d   1      -2.223  -1.685   0.699  0.00  0.00     0.173 C 
ATOM     14  O   UNL d   1       0.567  -2.794   0.578  0.00  0.00    -0.265 OA
ATOM     15  O   UNL d   1      -3.223   1.417  -0.389  0.00  0.00    -0.266 OA
ENDROOT
BRANCH   4  16
ATOM     16  C   UNL d   1      -0.233   2.640  -0.246  0.00  0.00     0.215 C 
BRANCH  16  17
ATOM     17  C   UNL d   1       0.068   3.502  -1.492  0.00  0.00     0.177 C 
ATOM     18  O   UNL d   1       1.198   3.721  -1.919  0.00  0.00    -0.291 OA
BRANCH  17  19
ATOM     19  C   UNL d   1      -1.093   4.251  -2.068  0.00  0.00     0.011 A 
ATOM     20  C   UNL d   1      -1.049   5.620  -2.348  0.00  0.00     0.018 A 
ATOM     21  C   UNL d   1      -2.234   6.314  -2.677  0.00  0.00     0.038 A 
ATOM     22  C   UNL d   1      -3.459   5.642  -2.731  0.00  0.00     0.078 A 
ATOM     23  C   UNL d   1      -3.467   4.260  -2.547  0.00  0.00     0.038 A 
ATOM     24  C   UNL d   1      -2.296   3.558  -2.241  0.00  0.00     0.018 A 
BRANCH  22  25
ATOM     25  O   UNL d   1      -4.659   6.162  -3.103  0.00  0.00    -0.255 OA
BRANCH  25  26
ATOM     26  C   UNL d   1      -5.073   7.424  -2.603  0.00  0.00     0.530 C 
ATOM     27  F   UNL d   1      -4.098   8.355  -2.637  0.00  0.00    -0.144 F 
ATOM     28  F   UNL d   1      -6.090   7.863  -3.382  0.00  0.00    -0.144 F 
ATOM     29  F   UNL d   1      -5.538   7.310  -1.341  0.00  0.00    -0.144 F 
ENDBRANCH  25  26
ENDBRANCH  22  25
ENDBRANCH  17  19
ENDBRANCH  16  17
ENDBRANCH   4  16
BRANCH  12  30
ATOM     30  C   UNL d   1       4.857   0.112   0.020  0.00  0.00    -0.008 A 
ATOM     31  C   UNL d   1       5.589   1.124  -0.615  0.00  0.00     0.014 A 
ATOM     32  C   UNL d   1       6.989   1.105  -0.614  0.00  0.00     0.001 A 
ATOM     33  C   UNL d   1       7.677   0.080   0.032  0.00  0.00     0.000 A 
ATOM     34  C   UNL d   1       6.961  -0.927   0.678  0.00  0.00     0.001 A 
ATOM     35  C   UNL d   1       5.566  -0.915   0.668  0.00  0.00     0.014 A 
ENDBRANCH  12  30
BRANCH  11  36
ATOM     36  C   UNL d   1      -4.440  -0.506   1.345  0.00  0.00     0.126 C 
BRANCH  36  37
ATOM     37  C   UNL d   1      -4.974  -1.461   2.429  0.00  0.00     0.020 C 
BRANCH  37  38
ATOM     38  C   UNL d   1      -4.425  -1.490   3.865  0.00  0.00    -0.003 C 
ATOM     39  C   UNL d   1      -4.642  -0.267   4.748  0.00  0.00     0.005 C 
ENDBRANCH  37  38
ENDBRANCH  36  37
ENDBRANCH  11  36
TORSDOF 9
