REMARK  3 active torsions:
REMARK  status: ('A' for Active; 'I' for Inactive)
REMARK    1  A    between atoms: C_4  and  C_1 
REMARK    2  A    between atoms: C_5  and  C_1 
REMARK    3  A    between atoms: O_9  and  N_2 
ROOT
ATOM      1  C   UNL d   1       0.950  -0.021  -0.085  0.00  0.00     0.074 C 
ATOM      2  N   UNL d   1       0.197  -1.085  -0.034  0.00  0.00    -0.268 N 
ATOM      3  HN  UNL d   1      -0.821  -1.049  -0.102  1.00  0.00     0.194 HD
ENDROOT
BRANCH   1   4
ATOM      4  C   UNL d   1       0.221   1.296  -0.129  0.00  0.00    -0.007 A 
ATOM      5  C   UNL d   1      -1.006   1.402   0.547  0.00  0.00     0.015 A 
ATOM      6  C   UNL d   1      -1.703   2.612   0.561  0.00  0.00     0.024 A 
ATOM      7  C   UNL d   1      -1.182   3.716  -0.106  0.00  0.00     0.034 A 
ATOM      8  C   UNL d   1       0.026   3.618  -0.799  0.00  0.00     0.024 A 
ATOM      9 CL   UNL d   1      -2.031   5.214  -0.076  0.00  0.00    -0.084 Cl
ATOM     10  C   UNL d   1       0.723   2.405  -0.818  0.00  0.00     0.015 A 
ENDBRANCH   1   4
BRANCH   1  11
ATOM     11  C   UNL d   1       2.452  -0.011  -0.077  0.00  0.00    -0.007 A 
ATOM     12  C   UNL d   1       3.178  -0.932  -0.842  0.00  0.00     0.014 A 
ATOM     13  C   UNL d   1       4.575  -0.923  -0.822  0.00  0.00     0.001 A 
ATOM     14  C   UNL d   1       5.257   0.027  -0.065  0.00  0.00     0.000 A 
ATOM     15  C   UNL d   1       4.543   0.961   0.685  0.00  0.00     0.001 A 
ATOM     16  C   UNL d   1       3.146   0.935   0.692  0.00  0.00     0.014 A 
ENDBRANCH   1  11
BRANCH   2  17
ATOM     17  O   UNL d   1       0.906  -2.277   0.120  0.00  0.00    -0.289 OA
ATOM     18  H   UNL d   1       0.193  -2.944   0.124  0.00  0.00     0.244 HD
ENDBRANCH   2  17
TORSDOF 3
