REMARK  3 active torsions:
REMARK  status: ('A' for Active; 'I' for Inactive)
REMARK    1  A    between atoms: C_10  and  C_3 
REMARK    2  A    between atoms: C_13  and  C_7 
REMARK       I    between atoms: C_8  and  N_9 
REMARK    3  A    between atoms: N_9  and  C_14 
ROOT
ATOM      1  N   UNL d   1       1.571  -0.083   0.082  0.00  0.00    -0.331 N 
ATOM      2  HN  UNL d   1       2.519  -0.457   0.107  1.00  0.00     0.168 HD
ATOM      3  C   UNL d   1       1.192   1.155   0.035  0.00  0.00     0.162 A 
ATOM      4  C   UNL d   1       0.380  -0.765   0.090  0.00  0.00     0.111 A 
ATOM      5  O   UNL d   1      -0.136   1.407   0.039  0.00  0.00    -0.256 OA
ATOM      6  C   UNL d   1      -0.762   0.197   0.078  0.00  0.00     0.316 A 
ATOM      7  C   UNL d   1       0.302  -2.102   0.063  0.00  0.00     0.047 C 
ATOM      8  O   UNL d   1      -1.961   0.008   0.087  0.00  0.00    -0.257 OA
ENDROOT
BRANCH   7   9
ATOM      9  C   UNL d   1      -0.937  -2.875   0.002  0.00  0.00    -0.034 A 
ATOM     10  C   UNL d   1      -1.458  -3.274  -1.230  0.00  0.00     0.013 A 
ATOM     11  C   UNL d   1      -2.657  -3.997  -1.288  0.00  0.00     0.030 A 
ATOM     12  C   UNL d   1      -3.348  -4.328  -0.115  0.00  0.00     0.034 A 
ATOM     13  C   UNL d   1      -2.811  -3.939   1.112  0.00  0.00     0.030 A 
ATOM     14  C   UNL d   1      -1.613  -3.216   1.173  0.00  0.00     0.013 A 
BRANCH  12  15
ATOM     15  N   UNL d   1      -4.566  -5.031  -0.251  0.00  0.00    -0.328 N 
ATOM     16  C   UNL d   1      -5.418  -5.426   0.765  0.00  0.00     0.218 C 
ATOM     17  O   UNL d   1      -5.252  -5.265   1.970  0.00  0.00    -0.274 OA
ATOM     18  C   UNL d   1      -6.662  -6.121   0.268  0.00  0.00     0.117 C 
ATOM     19  H   UNL d   1      -4.850  -5.239  -1.200  0.00  0.00     0.169 HD
ENDBRANCH  12  15
ENDBRANCH   7   9
BRANCH   3  20
ATOM     20  C   UNL d   1       2.059   2.340  -0.058  0.00  0.00     0.015 A 
ATOM     21  C   UNL d   1       3.447   2.161  -0.110  0.00  0.00     0.016 A 
ATOM     22  C   UNL d   1       4.291   3.264  -0.253  0.00  0.00     0.001 A 
ATOM     23  C   UNL d   1       3.752   4.547  -0.340  0.00  0.00     0.000 A 
ATOM     24  C   UNL d   1       2.372   4.732  -0.278  0.00  0.00     0.001 A 
ATOM     25  C   UNL d   1       1.523   3.632  -0.135  0.00  0.00     0.016 A 
ENDBRANCH   3  20
TORSDOF 3
