REMARK  8 active torsions:
REMARK  status: ('A' for Active; 'I' for Inactive)
REMARK    1  A    between atoms: C_4  and  C_1 
REMARK    2  A    between atoms: O_6  and  C_1 
REMARK    3  A    between atoms: N_2  and  O_6 
REMARK    4  A    between atoms: C_7  and  C_5 
REMARK    5  A    between atoms: N_10  and  C_5 
REMARK    6  A    between atoms: C_13  and  C_7 
REMARK    7  A    between atoms: S_11  and  C_13 
REMARK    8  A    between atoms: C_12  and  S_11 
ROOT
ATOM      1  N   UNL d   1       2.503  -2.429   0.192  0.00  0.00    -0.246 N 
ATOM      2  HN  UNL d   1       3.003  -1.560   0.381  1.00  0.00     0.196 HD
ATOM      3  C   UNL d   1       3.090  -3.561  -0.039  0.00  0.00     0.096 C 
ENDROOT
BRANCH   3   4
ATOM      4  C   UNL d   1       4.614  -3.555  -0.071  0.00  0.00     0.088 C 
BRANCH   4   5
ATOM      5  C   UNL d   1       5.171  -3.763   1.332  0.00  0.00     0.087 C 
BRANCH   5   6
ATOM      6  S   UNL d   1       6.999  -3.827   1.273  0.00  0.00    -0.130 SA
BRANCH   6   7
ATOM      7  C   UNL d   1       7.481  -4.085   2.978  0.00  0.00     0.000 A 
ATOM      8  C   UNL d   1       6.590  -4.243   4.045  0.00  0.00     0.020 A 
ATOM      9  C   UNL d   1       7.062  -4.454   5.347  0.00  0.00     0.025 A 
ATOM     10  C   UNL d   1       8.431  -4.508   5.593  0.00  0.00     0.034 A 
ATOM     11  C   UNL d   1       9.333  -4.348   4.546  0.00  0.00     0.025 A 
ATOM     12 CL   UNL d   1       9.007  -4.770   7.191  0.00  0.00    -0.084 Cl
ATOM     13  C   UNL d   1       8.858  -4.139   3.247  0.00  0.00     0.020 A 
ENDBRANCH   6   7
ENDBRANCH   5   6
ENDBRANCH   4   5
ENDBRANCH   3   4
BRANCH   3  14
ATOM     14  N   UNL d   1       2.452  -4.755  -0.242  0.00  0.00    -0.388 N 
ATOM     15  H   UNL d   1       1.482  -4.769   0.060  0.00  0.00     0.157 HD
ATOM     16  H   UNL d   1       2.963  -5.609  -0.061  0.00  0.00     0.157 HD
ENDBRANCH   3  14
BRANCH   1  17
ATOM     17  O   UNL d   1       1.090  -2.531   0.153  0.00  0.00    -0.193 OA
BRANCH  17  18
ATOM     18  C   UNL d   1       0.560  -1.271   0.128  0.00  0.00     0.315 C 
ATOM     19  O   UNL d   1       1.173  -0.210   0.209  0.00  0.00    -0.257 OA
BRANCH  18  20
ATOM     20  C   UNL d   1      -0.928  -1.287   0.087  0.00  0.00     0.047 A 
ATOM     21  C   UNL d   1      -1.725  -2.136  -0.707  0.00  0.00    -0.046 A 
ATOM     22  C   UNL d   1      -1.206  -3.192  -1.640  0.00  0.00     0.049 C 
ATOM     23  C   UNL d   1      -3.127  -1.966  -0.674  0.00  0.00     0.008 A 
ATOM     24  C   UNL d   1      -3.725  -0.972   0.103  0.00  0.00     0.001 A 
ATOM     25  C   UNL d   1      -2.935  -0.130   0.872  0.00  0.00     0.001 A 
ATOM     26  C   UNL d   1      -1.550  -0.287   0.864  0.00  0.00     0.018 A 
ENDBRANCH  18  20
ENDBRANCH  17  18
ENDBRANCH   1  17
TORSDOF 8
