REMARK  3 active torsions:
REMARK  status: ('A' for Active; 'I' for Inactive)
REMARK    1  A    between atoms: C_9  and  C_1 
REMARK    2  A    between atoms: C_5  and  C_2 
REMARK    3  A    between atoms: N_7  and  C_3 
REMARK       I    between atoms: C_8  and  N_7 
ROOT
ATOM      1  C   UNL d   1       1.499   0.809  -0.145  0.00  0.00     0.023 A 
ATOM      2  C   UNL d   1       0.202   1.292  -0.315  0.00  0.00     0.102 A 
ATOM      3  C   UNL d   1       1.549  -0.639  -0.255  0.00  0.00     0.053 A 
ATOM      4  S   UNL d   1      -0.930   0.009  -0.471  0.00  0.00    -0.094 SA
ATOM      5  C   UNL d   1       0.293  -1.171  -0.436  0.00  0.00     0.081 A 
ENDROOT
BRANCH   1   6
ATOM      6  C   UNL d   1       2.650   1.707   0.014  0.00  0.00    -0.022 A 
ATOM      7  C   UNL d   1       2.671   2.700   1.003  0.00  0.00     0.012 A 
ATOM      8  C   UNL d   1       3.779   3.541   1.138  0.00  0.00     0.001 A 
ATOM      9  C   UNL d   1       4.891   3.377   0.314  0.00  0.00     0.000 A 
ATOM     10  C   UNL d   1       4.889   2.382  -0.661  0.00  0.00     0.001 A 
ATOM     11  C   UNL d   1       3.768   1.565  -0.823  0.00  0.00     0.012 A 
ENDBRANCH   1   6
BRANCH   2  12
ATOM     12  C   UNL d   1      -0.315   2.697  -0.361  0.00  0.00     0.424 C 
ATOM     13  F   UNL d   1       0.547   3.552  -0.970  0.00  0.00    -0.166 F 
ATOM     14  F   UNL d   1      -1.492   2.813  -1.033  0.00  0.00    -0.166 F 
ATOM     15  F   UNL d   1      -0.535   3.186   0.888  0.00  0.00    -0.166 F 
ENDBRANCH   2  12
BRANCH   3  16
ATOM     16  N   UNL d   1       2.729  -1.379  -0.173  0.00  0.00    -0.326 N 
ATOM     17  C   UNL d   1       2.873  -2.705  -0.529  0.00  0.00     0.218 C 
ATOM     18  O   UNL d   1       1.990  -3.449  -0.948  0.00  0.00    -0.274 OA
ATOM     19  C   UNL d   1       4.291  -3.204  -0.407  0.00  0.00     0.117 C 
ATOM     20  H   UNL d   1       3.557  -0.861   0.091  0.00  0.00     0.169 HD
ENDBRANCH   3  16
TORSDOF 3
