REMARK  4 active torsions:
REMARK  status: ('A' for Active; 'I' for Inactive)
REMARK    1  A    between atoms: C_14  and  C_3 
REMARK    2  A    between atoms: C_3  and  O_18 
REMARK    3  A    between atoms: C_8  and  O_20 
REMARK    4  A    between atoms: O_25  and  C_22 
ROOT
ATOM      1  C   UNL d   1      15.179   2.233   2.708  0.00  0.00     0.001 C 
ATOM      2  C   UNL d   1      15.923   3.525   3.204  0.00  0.00     0.002 C 
ATOM      3  C   UNL d   1      15.472   1.206   3.854  0.00  0.00     0.128 C 
ATOM      4  C   UNL d   1      15.029   4.710   3.659  0.00  0.00    -0.002 C 
ATOM      5  C   UNL d   1      13.746   6.510   2.187  0.00  0.00    -0.034 C 
ATOM      6  C   UNL d   1      13.793   5.041   2.772  0.00  0.00     0.027 C 
ATOM      7  C   UNL d   1      13.685   2.535   2.453  0.00  0.00     0.045 C 
ATOM      8  C   UNL d   1      13.506   3.895   1.764  0.00  0.00     0.124 C 
ATOM      9  C   UNL d   1      16.892   1.574   4.353  0.00  0.00     0.025 C 
ATOM     10  C   UNL d   1      16.817   3.093   4.400  0.00  0.00     0.013 C 
ATOM     11  C   UNL d   1      14.150   7.585   3.268  0.00  0.00    -0.004 C 
ATOM     12  C   UNL d   1      15.930   5.912   3.974  0.00  0.00     0.006 C 
ATOM     13  C   UNL d   1      12.297   6.819   1.665  0.00  0.00     0.012 C 
ATOM     14  C   UNL d   1      15.119   7.119   4.357  0.00  0.00     0.006 C 
ATOM     15  C   UNL d   1      12.931   8.190   3.975  0.00  0.00     0.037 C 
ATOM     16  C   UNL d   1      15.767   1.776   1.338  0.00  0.00     0.019 C 
ATOM     17  C   UNL d   1      11.934   8.303   1.636  0.00  0.00     0.032 C 
ATOM     18  C   UNL d   1      12.036   8.956   3.013  0.00  0.00     0.118 C 
ATOM     19  C   UNL d   1      14.711   6.630   0.978  0.00  0.00     0.016 C 
ATOM     20  C   UNL d   1      18.105   1.158   3.518  0.00  0.00     0.013 C 
ENDROOT
BRANCH   3  21
ATOM     21  C   UNL d   1      15.308  -0.302   3.585  0.00  0.00     0.158 C 
ATOM     22  O   UNL d   1      14.895  -0.747   2.518  0.00  0.00    -0.295 OA
ATOM     23  C   UNL d   1      15.613  -1.237   4.741  0.00  0.00     0.094 C 
ENDBRANCH   3  21
BRANCH   3  24
ATOM     24  O   UNL d   1      14.582   1.475   4.963  0.00  0.00    -0.381 OA
ATOM     25  H   UNL d   1      13.688   1.180   4.708  0.00  0.00     0.211 HD
ENDBRANCH   3  24
BRANCH   8  26
ATOM     26  O   UNL d   1      12.165   3.968   1.290  0.00  0.00    -0.395 OA
ATOM     27  H   UNL d   1      12.076   3.318   0.570  0.00  0.00     0.210 HD
ENDBRANCH   8  26
BRANCH  18  28
ATOM     28  O   UNL d   1      10.743   9.092   3.601  0.00  0.00    -0.396 OA
ATOM     29  H   UNL d   1      10.418   8.201   3.816  0.00  0.00     0.210 HD
ENDBRANCH  18  28
TORSDOF 4
