REMARK  7 active torsions:
REMARK  status: ('A' for Active; 'I' for Inactive)
REMARK    1  A    between atoms: N_8  and  C_1 
REMARK    2  A    between atoms: N_3  and  C_19 
REMARK    3  A    between atoms: C_20  and  C_6 
REMARK       I    between atoms: C_7  and  N_8 
REMARK    4  A    between atoms: C_18  and  C_7 
REMARK    5  A    between atoms: S_25  and  C_9 
REMARK    6  A    between atoms: C_17  and  C_30 
REMARK    7  A    between atoms: C_30  and  S_25 
ROOT
ATOM      1  S   UNL d   1      -0.012  -3.064   0.102  0.00  0.00    -0.095 SA
ENDROOT
BRANCH   1   2
ATOM      2  C   UNL d   1      -0.133  -1.318   0.215  0.00  0.00     0.130 A 
ATOM      3  S   UNL d   1      -1.585  -0.500   0.620  0.00  0.00    -0.026 SA
ATOM      4  C   UNL d   1      -0.703   0.958   0.567  0.00  0.00     0.168 A 
ATOM      5  N   UNL d   1       0.552   0.811   0.195  0.00  0.00    -0.278 N 
ATOM      6  N   UNL d   1       0.891  -0.518   0.011  0.00  0.00    -0.286 N 
ATOM      7  HN  UNL d   1       1.199   1.587   0.057  1.00  0.00     0.189 HD
ATOM      8  HN  UNL d   1       1.823  -0.839  -0.250  1.00  0.00     0.188 HD
BRANCH   4   9
ATOM      9  N   UNL d   1      -1.229   2.190   0.883  0.00  0.00    -0.302 N 
ATOM     10  C   UNL d   1      -2.456   2.439   1.464  0.00  0.00     0.260 C 
ATOM     11  O   UNL d   1      -3.311   1.601   1.716  0.00  0.00    -0.267 OA
ATOM     12  H   UNL d   1      -0.572   2.950   0.760  0.00  0.00     0.171 HD
BRANCH  10  13
ATOM     13  C   UNL d   1      -2.731   3.859   1.864  0.00  0.00     0.070 A 
ATOM     14  C   UNL d   1      -1.880   4.921   1.554  0.00  0.00     0.132 A 
ATOM     15  F   UNL d   1      -0.772   4.724   0.823  0.00  0.00    -0.205 F 
ATOM     16  C   UNL d   1      -2.145   6.217   2.002  0.00  0.00     0.043 A 
ATOM     17  C   UNL d   1      -3.279   6.468   2.773  0.00  0.00     0.003 A 
ATOM     18  C   UNL d   1      -4.154   5.427   3.074  0.00  0.00     0.001 A 
ATOM     19  C   UNL d   1      -3.883   4.130   2.622  0.00  0.00     0.020 A 
ENDBRANCH  10  13
ENDBRANCH   4   9
ENDBRANCH   1   2
BRANCH   1  20
ATOM     20  C   UNL d   1       1.793  -3.263   0.030  0.00  0.00     0.167 C 
BRANCH  20  21
ATOM     21  C   UNL d   1       2.213  -4.688  -0.055  0.00  0.00     0.150 A 
ATOM     22  O   UNL d   1       2.008  -5.501   1.036  0.00  0.00    -0.277 OA
ATOM     23  C   UNL d   1       2.583  -6.680   0.619  0.00  0.00     0.174 A 
ATOM     24  N   UNL d   1       3.097  -6.585  -0.590  0.00  0.00    -0.277 N 
ATOM     25  N   UNL d   1       2.860  -5.299  -1.026  0.00  0.00    -0.281 N 
ATOM     26  HN  UNL d   1       3.579  -7.322  -1.105  1.00  0.00     0.189 HD
ATOM     27  HN  UNL d   1       3.131  -4.899  -1.924  1.00  0.00     0.189 HD
BRANCH  23  28
ATOM     28  C   UNL d   1       2.556  -7.823   1.529  0.00  0.00     0.017 A 
ATOM     29  C   UNL d   1       1.933  -7.767   2.787  0.00  0.00     0.025 A 
ATOM     30  C   UNL d   1       1.894  -8.880   3.662  0.00  0.00    -0.028 A 
ATOM     31  C   UNL d   1       1.184  -8.701   4.978  0.00  0.00     0.050 C 
ATOM     32  C   UNL d   1       2.511 -10.081   3.246  0.00  0.00     0.108 A 
ATOM     33  C   UNL d   1       3.142 -10.143   1.990  0.00  0.00     0.037 A 
ATOM     34  C   UNL d   1       3.161  -9.027   1.146  0.00  0.00     0.018 A 
BRANCH  32  35
ATOM     35  N   UNL d   1       2.531 -11.309   4.075  0.00  0.00    -0.115 N 
ATOM     36  O   UNL d   1       1.987 -11.291   5.185  0.00  0.00    -0.532 OA
ATOM     37  O   UNL d   1       3.102 -12.305   3.606  0.00  0.00    -0.532 OA
ENDBRANCH  32  35
ENDBRANCH  23  28
ENDBRANCH  20  21
ENDBRANCH   1  20
TORSDOF 7
