REMARK  4 active torsions:
REMARK  status: ('A' for Active; 'I' for Inactive)
REMARK    1  A    between atoms: N_2  and  S_1 
REMARK    2  A    between atoms: C_10  and  S_1 
REMARK    3  A    between atoms: C_5  and  N_2 
REMARK    4  A    between atoms: C_3  and  C_4 
ROOT
ATOM      1  C   UNL d   1       1.283   0.647  -5.192  0.00  0.00     0.063 A 
ATOM      2  C   UNL d   1       0.945  -0.446  -2.711  0.00  0.00     0.093 A 
ATOM      3  N   UNL d   1      -0.099   0.198  -3.256  0.00  0.00    -0.355 N 
ATOM      4  HN  UNL d   1      -0.995   0.270  -2.774  1.00  0.00     0.166 HD
ATOM      5  C   UNL d   1       0.098   0.747  -4.477  0.00  0.00     0.105 A 
ATOM      6  C   UNL d   1       2.348  -0.029  -4.583  0.00  0.00     0.021 A 
ATOM      7  C   UNL d   1       2.185  -0.571  -3.307  0.00  0.00     0.044 A 
ENDROOT
BRANCH   2   8
ATOM      8  N   UNL d   1       0.649  -0.996  -1.452  0.00  0.00    -0.166 NA
ATOM      9  H   UNL d   1      -0.337  -1.246  -1.394  0.00  0.00     0.147 HD
BRANCH   8  10
ATOM     10  S   UNL d   1       1.067  -0.057  -0.115  0.00  0.00     0.247 S 
ATOM     11  O   UNL d   1       2.484   0.240  -0.172  0.00  0.00    -0.205 OA
ATOM     12  O   UNL d   1       0.493  -0.717   1.043  0.00  0.00    -0.205 OA
BRANCH  10  13
ATOM     13  C   UNL d   1       0.169   1.459  -0.356  0.00  0.00     0.074 A 
ATOM     14  C   UNL d   1      -1.163   1.551   0.065  0.00  0.00     0.025 A 
ATOM     15  C   UNL d   1      -1.868   2.737  -0.144  0.00  0.00     0.002 A 
ATOM     16  C   UNL d   1      -1.242   3.823  -0.759  0.00  0.00     0.000 A 
ATOM     17  C   UNL d   1       0.095   3.736  -1.151  0.00  0.00     0.002 A 
ATOM     18  C   UNL d   1       0.809   2.556  -0.943  0.00  0.00     0.025 A 
ENDBRANCH  10  13
ENDBRANCH   8  10
ENDBRANCH   2   8
BRANCH   1  19
ATOM     19  C   UNL d   1       1.392   1.218  -6.574  0.00  0.00     0.418 C 
ATOM     20  F   UNL d   1       0.271   1.877  -6.979  0.00  0.00    -0.166 F 
ATOM     21  F   UNL d   1       2.413   2.110  -6.695  0.00  0.00    -0.166 F 
ATOM     22  F   UNL d   1       1.618   0.260  -7.514  0.00  0.00    -0.166 F 
ENDBRANCH   1  19
TORSDOF 4
