REMARK  2 active torsions:
REMARK  status: ('A' for Active; 'I' for Inactive)
REMARK    1  A    between atoms: C_6  and  C_1 
REMARK    2  A    between atoms: S_7  and  C_3 
ROOT
ATOM      1  C   UNL d   1      -2.411  -0.213  -0.097  0.00  0.00     0.060 A 
ATOM      2  N   UNL d   1      -1.599   0.910  -0.092  0.00  0.00    -0.354 N 
ATOM      3  C   UNL d   1      -1.544  -1.300  -0.062  0.00  0.00     0.040 A 
ATOM      4  C   UNL d   1      -0.196  -0.816  -0.060  0.00  0.00     0.010 A 
ATOM      5  C   UNL d   1      -0.268   0.574  -0.080  0.00  0.00     0.044 A 
ATOM      6  C   UNL d   1       1.084  -1.414  -0.019  0.00  0.00     0.015 A 
ATOM      7  C   UNL d   1       0.863   1.399  -0.062  0.00  0.00     0.030 A 
ATOM      8  C   UNL d   1       2.228  -0.606  -0.011  0.00  0.00     0.001 A 
ATOM      9  C   UNL d   1       2.116   0.781  -0.031  0.00  0.00     0.002 A 
ATOM     10  H   UNL d   1      -1.940   1.861  -0.062  0.00  0.00     0.166 HD
ENDROOT
BRANCH   1  11
ATOM     11  C   UNL d   1      -3.878  -0.076  -0.094  0.00  0.00    -0.008 A 
ATOM     12  C   UNL d   1      -4.498   0.995  -0.763  0.00  0.00     0.015 A 
ATOM     13  C   UNL d   1      -5.889   1.152  -0.743  0.00  0.00     0.024 A 
ATOM     14  C   UNL d   1      -6.679   0.228  -0.067  0.00  0.00     0.034 A 
ATOM     15  C   UNL d   1      -6.088  -0.843   0.594  0.00  0.00     0.024 A 
ATOM     16 CL   UNL d   1      -8.389   0.413  -0.046  0.00  0.00    -0.084 Cl
ATOM     17  C   UNL d   1      -4.697  -0.984   0.591  0.00  0.00     0.015 A 
ENDBRANCH   1  11
BRANCH   3  18
ATOM     18  S   UNL d   1      -1.979  -3.002   0.048  0.00  0.00    -0.131 SA
ATOM     19  C   UNL d   1      -1.437  -3.639  -1.548  0.00  0.00     0.095 C 
ENDBRANCH   3  18
TORSDOF 2
