REMARK  6 active torsions:
REMARK  status: ('A' for Active; 'I' for Inactive)
REMARK    1  A    between atoms: N_2  and  C_1 
REMARK    2  A    between atoms: C_7  and  C_3 
REMARK    3  A    between atoms: N_6  and  C_4 
REMARK    4  A    between atoms: C_5  and  C_14 
REMARK    5  A    between atoms: O_17  and  C_7 
REMARK    6  A    between atoms: C_20  and  O_17 
ROOT
ATOM      1  C   UNL d   1      -1.879   2.453  -0.585  0.00  0.00     0.120 C 
ATOM      2  C   UNL d   1      -1.014   2.586   0.453  0.00  0.00     0.040 C 
ATOM      3  C   UNL d   1      -1.951   3.392  -1.682  0.00  0.00     0.105 C 
ATOM      4  N   UNL d   1      -1.969   4.179  -2.533  0.00  0.00    -0.191 NA
ENDROOT
BRANCH   1   5
ATOM      5  C   UNL d   1      -2.736   1.216  -0.598  0.00  0.00     0.303 C 
ATOM      6  O   UNL d   1      -2.747   0.336   0.253  0.00  0.00    -0.258 OA
BRANCH   5   7
ATOM      7  O   UNL d   1      -3.424   1.180  -1.769  0.00  0.00    -0.317 OA
BRANCH   7   8
ATOM      8  C   UNL d   1      -3.941  -0.097  -2.171  0.00  0.00     0.174 C 
ATOM      9  C   UNL d   1      -2.847  -0.825  -2.929  0.00  0.00     0.034 C 
ENDBRANCH   7   8
ENDBRANCH   5   7
ENDBRANCH   1   5
BRANCH   2  10
ATOM     10  C   UNL d   1      -0.054   3.700   0.523  0.00  0.00    -0.032 A 
ATOM     11  C   UNL d   1       1.258   3.531   0.090  0.00  0.00     0.050 A 
ATOM     12  C   UNL d   1       2.140   4.639   0.048  0.00  0.00     0.130 A 
ATOM     13  C   UNL d   1       1.774   5.958   0.398  0.00  0.00     0.063 A 
ATOM     14  C   UNL d   1       0.451   6.064   0.874  0.00  0.00     0.033 A 
ATOM     15  C   UNL d   1      -0.443   4.971   0.940  0.00  0.00     0.014 A 
BRANCH  12  16
ATOM     16  N   UNL d   1       3.507   4.313  -0.303  0.00  0.00    -0.113 N 
ATOM     17  O   UNL d   1       4.363   4.389   0.589  0.00  0.00    -0.532 OA
ATOM     18  O   UNL d   1       3.708   3.916  -1.461  0.00  0.00    -0.532 OA
ENDBRANCH  12  16
BRANCH  13  19
ATOM     19  N   UNL d   1       2.589   7.073   0.289  0.00  0.00    -0.379 N 
ATOM     20  C   UNL d   1       2.370   8.351   0.976  0.00  0.00     0.123 C 
ATOM     21  C   UNL d   1       2.680   9.401  -0.084  0.00  0.00     0.021 C 
ATOM     22  C   UNL d   1       3.822   8.775  -0.859  0.00  0.00     0.021 C 
ATOM     23  C   UNL d   1       3.498   7.278  -0.857  0.00  0.00     0.123 C 
ENDBRANCH  13  19
ENDBRANCH   2  10
TORSDOF 6
