REMARK  3 active torsions:
REMARK  status: ('A' for Active; 'I' for Inactive)
REMARK    1  A    between atoms: C_10  and  C_1 
REMARK    2  A    between atoms: O_8  and  C_4 
REMARK    3  A    between atoms: C_11  and  O_8 
ROOT
ATOM      1  C   UNL d   1       2.595  -0.889  -0.128  0.00  0.00     0.077 A 
ATOM      2  N   UNL d   1       1.029   0.986  -0.034  0.00  0.00    -0.312 N 
ATOM      3  C   UNL d   1       2.342   0.611  -0.069  0.00  0.00     0.262 A 
ATOM      4  C   UNL d   1       1.560  -1.765  -0.122  0.00  0.00     0.108 A 
ATOM      5  C   UNL d   1       0.166  -1.289  -0.027  0.00  0.00     0.026 A 
ATOM      6  C   UNL d   1      -0.013   0.079  -0.012  0.00  0.00     0.057 A 
ATOM      7  C   UNL d   1       0.497   2.344   0.008  0.00  0.00     0.137 A 
ATOM      8  O   UNL d   1       3.264   1.422  -0.057  0.00  0.00    -0.267 OA
ATOM      9  C   UNL d   1      -1.239   0.724   0.035  0.00  0.00    -0.029 A 
ATOM     10  C   UNL d   1      -1.045   2.210   0.026  0.00  0.00     0.061 A 
ATOM     11  C   UNL d   1      -1.002  -2.053   0.030  0.00  0.00     0.017 A 
ATOM     12  C   UNL d   1      -2.269  -1.427   0.070  0.00  0.00     0.002 A 
ATOM     13  C   UNL d   1      -2.394  -0.029   0.068  0.00  0.00     0.009 A 
ENDROOT
BRANCH   1  14
ATOM     14  C   UNL d   1       3.996  -1.336  -0.220  0.00  0.00    -0.018 A 
ATOM     15  C   UNL d   1       4.594  -1.496  -1.477  0.00  0.00     0.012 A 
ATOM     16  C   UNL d   1       5.953  -1.799  -1.576  0.00  0.00     0.001 A 
ATOM     17  C   UNL d   1       6.721  -1.952  -0.422  0.00  0.00     0.000 A 
ATOM     18  C   UNL d   1       6.128  -1.812   0.833  0.00  0.00     0.001 A 
ATOM     19  C   UNL d   1       4.769  -1.507   0.935  0.00  0.00     0.012 A 
ENDBRANCH   1  14
BRANCH   4  20
ATOM     20  O   UNL d   1       1.758  -3.161  -0.137  0.00  0.00    -0.277 OA
BRANCH  20  21
ATOM     21  C   UNL d   1       1.438  -3.775  -1.322  0.00  0.00     0.260 C 
ATOM     22  O   UNL d   1       1.013  -3.240  -2.338  0.00  0.00    -0.265 OA
ATOM     23  C   UNL d   1       1.658  -5.255  -1.188  0.00  0.00     0.126 C 
ENDBRANCH  20  21
ENDBRANCH   4  20
TORSDOF 3
