REMARK  3 active torsions:
REMARK  status: ('A' for Active; 'I' for Inactive)
REMARK    1  A    between atoms: C_2  and  S_1 
REMARK    2  A    between atoms: C_4  and  S_1 
REMARK    3  A    between atoms: C_12  and  C_3 
ROOT
ATOM      1  C   UNL d   1       0.535  -1.604  -0.456  0.00  0.00     0.146 C 
ATOM      2  C   UNL d   1      -0.209  -2.386   0.351  0.00  0.00     0.046 C 
ATOM      3  C   UNL d   1       0.985  -0.311  -0.106  0.00  0.00     0.112 C 
ATOM      4  N   UNL d   1       1.336   0.752   0.203  0.00  0.00    -0.191 NA
ENDROOT
BRANCH   1   5
ATOM      5  S   UNL d   1       0.814  -2.158  -2.077  0.00  0.00     0.232 S 
ATOM      6  O   UNL d   1      -0.270  -1.654  -2.907  0.00  0.00    -0.215 OA
ATOM      7  O   UNL d   1       1.096  -3.585  -2.071  0.00  0.00    -0.215 OA
BRANCH   5   8
ATOM      8  C   UNL d   1       2.309  -1.340  -2.615  0.00  0.00     0.134 A 
ATOM      9  N   UNL d   1       3.373  -1.535  -1.790  0.00  0.00    -0.356 N 
ATOM     10  C   UNL d   1       4.530  -0.966  -2.189  0.00  0.00     0.089 A 
ATOM     11  HN  UNL d   1       3.302  -2.076  -0.928  1.00  0.00     0.166 HD
ATOM     12  C   UNL d   1       4.662  -0.212  -3.346  0.00  0.00     0.017 A 
ATOM     13  C   UNL d   1       3.541  -0.019  -4.151  0.00  0.00     0.004 A 
ATOM     14  C   UNL d   1       2.329  -0.594  -3.784  0.00  0.00     0.042 A 
ENDBRANCH   5   8
ENDBRANCH   1   5
BRANCH   2  15
ATOM     15  C   UNL d   1      -0.635  -1.985   1.694  0.00  0.00    -0.032 A 
ATOM     16  C   UNL d   1      -1.917  -1.447   1.875  0.00  0.00     0.038 A 
ATOM     17  C   UNL d   1      -2.314  -1.006   3.139  0.00  0.00     0.073 A 
ATOM     18 CL   UNL d   1      -3.883  -0.328   3.341  0.00  0.00    -0.081 Cl
ATOM     19  C   UNL d   1      -1.438  -1.107   4.217  0.00  0.00     0.138 A 
ATOM     20  C   UNL d   1      -0.165  -1.646   4.045  0.00  0.00     0.045 A 
ATOM     21  F   UNL d   1      -1.799  -0.683   5.436  0.00  0.00    -0.204 F 
ATOM     22  C   UNL d   1       0.238  -2.087   2.783  0.00  0.00     0.014 A 
ENDBRANCH   2  15
TORSDOF 3
