REMARK  6 active torsions:
REMARK  status: ('A' for Active; 'I' for Inactive)
REMARK    1  A    between atoms: C_5  and  S_1 
REMARK    2  A    between atoms: N_12  and  S_1 
REMARK       I    between atoms: C_2  and  N_6 
REMARK    3  A    between atoms: C_3  and  C_2 
REMARK    4  A    between atoms: C_7  and  C_4 
REMARK    5  A    between atoms: N_6  and  C_11 
REMARK    6  A    between atoms: O_15  and  C_7 
ROOT
ATOM      1  C   UNL d   1       2.341  -4.977  -0.144  0.00  0.00     0.257 C 
ATOM      2  N   UNL d   1       1.627  -4.730  -1.299  0.00  0.00    -0.323 N 
ATOM      3  O   UNL d   1       2.474  -4.180   0.785  0.00  0.00    -0.267 OA
ATOM      4  H   UNL d   1       1.580  -5.464  -2.009  0.00  0.00     0.169 HD
ENDROOT
BRANCH   2   5
ATOM      5  C   UNL d   1       0.873  -3.568  -1.592  0.00  0.00     0.036 A 
ATOM      6  C   UNL d   1       0.836  -2.437  -0.776  0.00  0.00     0.054 A 
ATOM      7  C   UNL d   1       0.031  -1.344  -1.119  0.00  0.00     0.076 A 
ATOM      8  C   UNL d   1      -0.741  -1.357  -2.279  0.00  0.00     0.025 A 
ATOM      9  C   UNL d   1      -0.699  -2.477  -3.106  0.00  0.00     0.004 A 
ATOM     10  C   UNL d   1       0.105  -3.573  -2.765  0.00  0.00     0.029 A 
BRANCH   7  11
ATOM     11  S   UNL d   1      -0.026   0.040  -0.021  0.00  0.00     0.239 S 
ATOM     12  O   UNL d   1      -0.313  -0.430   1.312  0.00  0.00    -0.206 OA
ATOM     13  O   UNL d   1      -0.773   1.111  -0.641  0.00  0.00    -0.206 OA
BRANCH  11  14
ATOM     14  N   UNL d   1       1.569   0.565  -0.007  0.00  0.00    -0.225 NA
ATOM     15  H   UNL d   1       1.968   0.435   0.924  0.00  0.00     0.136 HD
ATOM     16  H   UNL d   1       1.619   1.523  -0.352  0.00  0.00     0.136 HD
ENDBRANCH  11  14
ENDBRANCH   7  11
ENDBRANCH   2   5
BRANCH   1  17
ATOM     17  C   UNL d   1       3.033  -6.295   0.028  0.00  0.00     0.049 A 
ATOM     18  C   UNL d   1       2.611  -7.545  -0.451  0.00  0.00     0.053 A 
ATOM     19  C   UNL d   1       3.316  -8.715  -0.099  0.00  0.00     0.019 A 
ATOM     20  C   UNL d   1       4.421  -8.654   0.748  0.00  0.00     0.001 A 
ATOM     21  C   UNL d   1       4.850  -7.424   1.230  0.00  0.00     0.001 A 
ATOM     22  C   UNL d   1       4.166  -6.262   0.871  0.00  0.00     0.018 A 
BRANCH  18  23
ATOM     23  C   UNL d   1       1.458  -7.715  -1.351  0.00  0.00     0.177 C 
ATOM     24  O   UNL d   1       1.337  -7.084  -2.386  0.00  0.00    -0.646 OA
BRANCH  23  25
ATOM     25  O   UNL d   1       0.577  -8.642  -0.926  0.00  0.00    -0.773 OA
ATOM     26  H   UNL d   1       0.746  -9.007  -0.035  0.00  0.00     0.167 HD
ENDBRANCH  23  25
ENDBRANCH  18  23
ENDBRANCH   1  17
TORSDOF 6
