REMARK  4 active torsions:
REMARK  status: ('A' for Active; 'I' for Inactive)
REMARK    1  A    between atoms: C_9  and  C_1 
REMARK    2  A    between atoms: C_11  and  C_2 
REMARK       I    between atoms: N_16  and  C_9 
REMARK    3  A    between atoms: C_10  and  C_21 
REMARK    4  A    between atoms: C_21  and  N_16 
ROOT
ATOM      1  C   UNL d   1      -4.072   0.561   0.071  0.00  0.00     0.180 C 
ENDROOT
BRANCH   1   2
ATOM      2  C   UNL d   1      -5.527   0.907   0.004  0.00  0.00     0.034 A 
ATOM      3  N   UNL d   1      -6.257   1.082   1.180  0.00  0.00    -0.351 N 
ATOM      4  C   UNL d   1      -7.509   1.406   0.904  0.00  0.00     0.091 A 
ATOM      5  HN  UNL d   1      -5.877   0.975   2.121  1.00  0.00     0.166 HD
ATOM      6  S   UNL d   1      -7.865   1.518  -0.779  0.00  0.00    -0.081 SA
ATOM      7  C   UNL d   1      -6.253   1.109  -1.154  0.00  0.00     0.078 A 
BRANCH   4   8
ATOM      8  C   UNL d   1      -8.487   1.656   1.946  0.00  0.00     0.038 A 
ATOM      9  S   UNL d   1     -10.145   1.997   1.627  0.00  0.00    -0.099 SA
ATOM     10  C   UNL d   1     -10.523   2.140   3.284  0.00  0.00     0.050 A 
ATOM     11  C   UNL d   1      -9.421   1.938   4.082  0.00  0.00     0.008 A 
ATOM     12  C   UNL d   1      -8.252   1.659   3.312  0.00  0.00     0.022 A 
ENDBRANCH   4   8
ENDBRANCH   1   2
BRANCH   1  13
ATOM     13  N   UNL d   1      -3.897  -0.872   0.072  0.00  0.00    -0.350 N 
ATOM     14  C   UNL d   1      -3.770  -1.597  -1.090  0.00  0.00     0.270 C 
ATOM     15  O   UNL d   1      -3.810  -1.079  -2.205  0.00  0.00    -0.266 OA
ATOM     16  H   UNL d   1      -3.936  -1.380   0.949  0.00  0.00     0.163 HD
BRANCH  14  17
ATOM     17  C   UNL d   1      -3.572  -3.038  -0.911  0.00  0.00     0.124 A 
ATOM     18  N   UNL d   1      -3.484  -3.614   0.302  0.00  0.00    -0.256 N 
ATOM     19  O   UNL d   1      -3.283  -4.965   0.067  0.00  0.00    -0.242 OA
ATOM     20  HN  UNL d   1      -3.552  -3.151   1.209  1.00  0.00     0.195 HD
ATOM     21  C   UNL d   1      -3.253  -5.197  -1.272  0.00  0.00     0.075 A 
ATOM     22  C   UNL d   1      -3.431  -4.010  -1.936  0.00  0.00     0.071 A 
ATOM     23  C   UNL d   1      -3.049  -6.592  -1.701  0.00  0.00     0.079 C 
ENDBRANCH  14  17
ENDBRANCH   1  13
TORSDOF 4
