REMARK  5 active torsions:
REMARK  status: ('A' for Active; 'I' for Inactive)
REMARK    1  A    between atoms: C_10  and  C_1 
REMARK    2  A    between atoms: O_7  and  C_2 
REMARK    3  A    between atoms: S_3  and  O_7 
REMARK    4  A    between atoms: C_9  and  S_3 
REMARK    5  A    between atoms: C_17  and  C_10 
ROOT
ATOM      1  C   UNL d   1      -1.630  -1.486  -0.048  0.00  0.00     0.050 A 
ATOM      2  C   UNL d   1      -0.312  -1.867  -0.047  0.00  0.00     0.114 A 
ATOM      3  C   UNL d   1      -1.990  -0.023   0.038  0.00  0.00     0.257 A 
ATOM      4  N   UNL d   1      -0.969   0.908  -0.010  0.00  0.00    -0.317 N 
ATOM      5  C   UNL d   1       0.740  -0.813  -0.031  0.00  0.00     0.026 A 
ATOM      6  C   UNL d   1       0.393   0.538  -0.023  0.00  0.00     0.050 A 
ATOM      7  O   UNL d   1      -3.166   0.314   0.181  0.00  0.00    -0.267 OA
ATOM      8  C   UNL d   1      -1.329   2.318   0.016  0.00  0.00     0.159 C 
ATOM      9  C   UNL d   1       2.116  -1.060  -0.029  0.00  0.00     0.016 A 
ATOM     10  C   UNL d   1       1.413   1.528  -0.009  0.00  0.00     0.031 A 
ATOM     11  C   UNL d   1       3.126  -0.112  -0.018  0.00  0.00     0.001 A 
ATOM     12  C   UNL d   1       2.772   1.213  -0.017  0.00  0.00     0.002 A 
ENDROOT
BRANCH   2  13
ATOM     13  O   UNL d   1       0.022  -3.231   0.104  0.00  0.00    -0.227 OA
BRANCH  13  14
ATOM     14  S   UNL d   1       1.292  -4.083  -0.520  0.00  0.00     0.303 S 
ATOM     15  O   UNL d   1       0.883  -5.488  -0.585  0.00  0.00    -0.193 OA
ATOM     16  O   UNL d   1       1.800  -3.432  -1.715  0.00  0.00    -0.193 OA
BRANCH  14  17
ATOM     17  C   UNL d   1       2.622  -4.072   0.752  0.00  0.00     0.086 A 
ATOM     18  C   UNL d   1       2.309  -3.938   2.108  0.00  0.00     0.026 A 
ATOM     19  C   UNL d   1       3.340  -3.948   3.067  0.00  0.00     0.008 A 
ATOM     20  C   UNL d   1       4.684  -4.018   2.688  0.00  0.00    -0.062 A 
ATOM     21  C   UNL d   1       5.000  -4.049   1.322  0.00  0.00     0.008 A 
ATOM     22  C   UNL d   1       5.762  -4.109   3.741  0.00  0.00     0.048 C 
ATOM     23  C   UNL d   1       3.975  -4.082   0.355  0.00  0.00     0.026 A 
ENDBRANCH  14  17
ENDBRANCH  13  14
ENDBRANCH   2  13
BRANCH   1  24
ATOM     24  C   UNL d   1      -2.883  -2.368  -0.014  0.00  0.00     0.085 C 
BRANCH  24  25
ATOM     25  C   UNL d   1      -3.505  -2.645  -1.375  0.00  0.00    -0.054 A 
ATOM     26  C   UNL d   1      -3.222  -3.843  -2.042  0.00  0.00     0.007 A 
ATOM     27  C   UNL d   1      -3.770  -4.106  -3.302  0.00  0.00     0.001 A 
ATOM     28  C   UNL d   1      -4.614  -3.179  -3.913  0.00  0.00     0.000 A 
ATOM     29  C   UNL d   1      -4.928  -1.996  -3.250  0.00  0.00     0.001 A 
ATOM     30  C   UNL d   1      -4.383  -1.732  -1.990  0.00  0.00     0.007 A 
ENDBRANCH  24  25
ENDBRANCH   1  24
TORSDOF 5
