REMARK  8 active torsions:
REMARK  status: ('A' for Active; 'I' for Inactive)
REMARK    1  A    between atoms: C_7  and  C_1 
REMARK    2  A    between atoms: N_8  and  C_2 
REMARK       I    between atoms: C_9  and  N_6 
REMARK    3  A    between atoms: C_13  and  C_7 
REMARK       I    between atoms: C_11  and  N_8 
REMARK    4  A    between atoms: O_21  and  C_9 
REMARK    5  A    between atoms: C_18  and  C_11 
REMARK    6  A    between atoms: C_25  and  C_18 
REMARK    7  A    between atoms: C_27  and  O_21 
REMARK    8  A    between atoms: O_26  and  C_22 
ROOT
ATOM      1  C   UNL d   1       1.254   1.649  -0.187  0.00  0.00     0.056 C 
ATOM      2  C   UNL d   1       2.278   0.715  -0.110  0.00  0.00     0.091 C 
ATOM      3  C   UNL d   1      -0.029   0.941  -0.125  0.00  0.00    -0.025 C 
ATOM      4  C   UNL d   1       0.128  -0.435  -0.120  0.00  0.00     0.010 C 
ATOM      5  S   UNL d   1       1.751  -0.899  -0.241  0.00  0.00    -0.074 SA
ATOM      6  N   UNL d   1      -2.236  -0.804  -0.331  0.00  0.00    -0.323 N 
ATOM      7  C   UNL d   1      -3.024  -1.330  -1.331  0.00  0.00     0.363 C 
ATOM      8  C   UNL d   1      -0.968  -1.455  -0.025  0.00  0.00     0.174 C 
ATOM      9  C   UNL d   1      -1.418   1.539  -0.107  0.00  0.00     0.060 C 
ATOM     10  C   UNL d   1      -2.473   0.494   0.317  0.00  0.00     0.133 C 
ATOM     11  O   UNL d   1      -2.757  -2.359  -1.941  0.00  0.00    -0.238 OA
ENDROOT
BRANCH   2  12
ATOM     12  N   UNL d   1       3.646   0.760   0.031  0.00  0.00    -0.320 N 
ATOM     13  C   UNL d   1       4.263   1.656   0.888  0.00  0.00     0.226 C 
ATOM     14  O   UNL d   1       3.677   2.446   1.623  0.00  0.00    -0.273 OA
ATOM     15  H   UNL d   1       4.131  -0.118  -0.120  0.00  0.00     0.169 HD
BRANCH  13  16
ATOM     16  C   UNL d   1       5.780   1.633   0.794  0.00  0.00     0.141 C 
BRANCH  16  17
ATOM     17  C   UNL d   1       6.418   0.280   1.009  0.00  0.00    -0.050 A 
ATOM     18  C   UNL d   1       7.002  -0.413  -0.062  0.00  0.00     0.007 A 
ATOM     19  C   UNL d   1       7.625  -1.646   0.144  0.00  0.00     0.001 A 
ATOM     20  C   UNL d   1       7.672  -2.195   1.425  0.00  0.00     0.000 A 
ATOM     21  C   UNL d   1       7.085  -1.521   2.495  0.00  0.00     0.001 A 
ATOM     22  C   UNL d   1       6.457  -0.291   2.288  0.00  0.00     0.007 A 
ENDBRANCH  16  17
ENDBRANCH  13  16
ENDBRANCH   2  12
BRANCH   1  23
ATOM     23  C   UNL d   1       1.380   3.117  -0.289  0.00  0.00     0.195 C 
ATOM     24  O   UNL d   1       0.458   3.856   0.066  0.00  0.00    -0.287 OA
BRANCH  23  25
ATOM     25  C   UNL d   1       2.577   3.782  -0.892  0.00  0.00     0.015 A 
ATOM     26  C   UNL d   1       2.947   5.036  -0.393  0.00  0.00     0.018 A 
ATOM     27  C   UNL d   1       4.078   5.694  -0.890  0.00  0.00     0.037 A 
ATOM     28  C   UNL d   1       4.857   5.120  -1.897  0.00  0.00     0.068 A 
ATOM     29  C   UNL d   1       4.459   3.900  -2.443  0.00  0.00     0.037 A 
ATOM     30  C   UNL d   1       3.319   3.236  -1.949  0.00  0.00     0.018 A 
BRANCH  28  31
ATOM     31  O   UNL d   1       5.962   5.849  -2.226  0.00  0.00    -0.356 OA
ATOM     32  C   UNL d   1       6.855   5.348  -3.209  0.00  0.00     0.210 C 
ENDBRANCH  28  31
ENDBRANCH  23  25
ENDBRANCH   1  23
BRANCH   7  33
ATOM     33  O   UNL d   1      -4.109  -0.557  -1.597  0.00  0.00    -0.304 OA
BRANCH  33  34
ATOM     34  C   UNL d   1      -4.802  -0.863  -2.816  0.00  0.00     0.176 C 
ATOM     35  C   UNL d   1      -4.164  -0.059  -3.933  0.00  0.00     0.034 C 
ENDBRANCH  33  34
ENDBRANCH   7  33
TORSDOF 8
