REMARK  2 active torsions:
REMARK  status: ('A' for Active; 'I' for Inactive)
REMARK    1  A    between atoms: N_5  and  C_3 
REMARK    2  A    between atoms: N_15  and  C_4 
ROOT
ATOM      1  N   UNL d   1       1.614  -0.848  -0.908  0.00  0.00    -0.180 N 
ATOM      2  HN  UNL d   1       2.131  -1.485  -1.514  1.00  0.00     0.185 HD
ATOM      3  C   UNL d   1       2.262  -0.069  -0.022  0.00  0.00     0.681 A 
ATOM      4  C   UNL d   1       0.275  -0.772  -0.981  0.00  0.00     0.116 A 
ATOM      5  N   UNL d   1       1.616   0.798   0.774  0.00  0.00    -0.200 N 
ATOM      6  HN  UNL d   1       2.122   1.377   1.444  1.00  0.00     0.183 HD
ATOM      7  C   UNL d   1      -0.455   0.106  -0.212  0.00  0.00     0.099 A 
ATOM      8  C   UNL d   1      -1.871   0.218  -0.274  0.00  0.00     0.104 C 
ATOM      9  N   UNL d   1      -3.027   0.307  -0.289  0.00  0.00    -0.191 NA
ATOM     10  C   UNL d   1       0.276   0.875   0.657  0.00  0.00     0.132 A 
ENDROOT
BRANCH   4  11
ATOM     11  N   UNL d   1      -0.312  -1.617  -1.926  0.00  0.00    -0.287 NA
ATOM     12  H   UNL d   1       0.422  -2.203  -2.317  0.00  0.00     0.125 HD
ATOM     13  H   UNL d   1      -1.076  -2.173  -1.553  0.00  0.00     0.125 HD
ENDBRANCH   4  11
BRANCH   3  14
ATOM     14  N   UNL d   1       3.617  -0.249   0.140  0.00  0.00    -0.214 N 
ATOM     15  C   UNL d   1       4.339   0.645   1.047  0.00  0.00     0.171 C 
ATOM     16  C   UNL d   1       5.654  -0.042   1.490  0.00  0.00     0.292 C 
ATOM     17  N   UNL d   1       6.501  -0.468   0.350  0.00  0.00     0.087 N 
ATOM     18  C   UNL d   1       5.708  -1.323  -0.566  0.00  0.00     0.292 C 
ATOM     19  C   UNL d   1       7.672  -1.197   0.835  0.00  0.00     0.310 C 
ATOM     20  C   UNL d   1       4.393  -0.657  -1.034  0.00  0.00     0.171 C 
ENDBRANCH   3  14
TORSDOF 2
