REMARK  2 active torsions:
REMARK  status: ('A' for Active; 'I' for Inactive)
REMARK    1  A    between atoms: C_3  and  C_1 
REMARK       I    between atoms: N_7  and  C_3 
REMARK    2  A    between atoms: C_12  and  N_11 
ROOT
ATOM      1  C   UNL d   1      -1.346  -2.936  -0.050  0.00  0.00     0.256 C 
ATOM      2  N   UNL d   1      -0.092  -3.559  -0.105  0.00  0.00    -0.345 N 
ATOM      3  N   UNL d   1       2.425  -4.879  -0.484  0.00  0.00    -0.378 N 
ATOM      4  O   UNL d   1      -2.215  -3.147  -0.894  0.00  0.00    -0.267 OA
ATOM      5  C   UNL d   1       0.943  -3.523   0.944  0.00  0.00     0.146 C 
ATOM      6  C   UNL d   1       0.076  -4.626  -1.110  0.00  0.00     0.146 C 
ATOM      7  C   UNL d   1       1.520  -4.738  -1.634  0.00  0.00     0.143 C 
ATOM      8  C   UNL d   1       2.379  -3.713   0.416  0.00  0.00     0.143 C 
ENDROOT
BRANCH   1   9
ATOM      9  C   UNL d   1      -1.678  -2.002   1.047  0.00  0.00     0.061 A 
ATOM     10  C   UNL d   1      -2.329  -0.764   0.780  0.00  0.00     0.082 A 
ATOM     11  N   UNL d   1      -2.666  -0.238  -0.411  0.00  0.00    -0.310 N 
ATOM     12  C   UNL d   1      -2.706   0.149   1.928  0.00  0.00     0.068 A 
ATOM     13  S   UNL d   1      -3.455   1.188  -0.114  0.00  0.00     0.068 SA
ATOM     14  HN  UNL d   1      -2.472  -0.641  -1.327  1.00  0.00     0.176 HD
ATOM     15  N   UNL d   1      -3.329   1.273   1.538  0.00  0.00    -0.310 N 
ATOM     16  HN  UNL d   1      -3.658   2.028   2.138  1.00  0.00     0.176 HD
ATOM     17  C   UNL d   1      -2.411  -0.194   3.269  0.00  0.00     0.032 A 
ATOM     18  C   UNL d   1      -1.805  -1.442   3.472  0.00  0.00     0.003 A 
ATOM     19  C   UNL d   1      -1.486  -2.321   2.411  0.00  0.00     0.019 A 
ENDBRANCH   1   9
BRANCH   3  20
ATOM     20  C   UNL d   1       3.650  -5.520  -0.611  0.00  0.00     0.031 A 
ATOM     21  C   UNL d   1       4.221  -6.123   0.521  0.00  0.00     0.053 A 
ATOM     22  C   UNL d   1       5.419  -6.833   0.437  0.00  0.00     0.036 A 
ATOM     23 CL   UNL d   1       6.062  -7.587   1.845  0.00  0.00    -0.084 Cl
ATOM     24  C   UNL d   1       6.082  -6.950  -0.778  0.00  0.00     0.024 A 
ATOM     25  C   UNL d   1       5.538  -6.356  -1.913  0.00  0.00     0.004 A 
ATOM     26  C   UNL d   1       4.330  -5.653  -1.829  0.00  0.00     0.029 A 
ENDBRANCH   3  20
TORSDOF 2
