REMARK  4 active torsions:
REMARK  status: ('A' for Active; 'I' for Inactive)
REMARK    1  A    between atoms: N_15  and  C_4 
REMARK    2  A    between atoms: C_12  and  S_21 
REMARK       I    between atoms: C_18  and  N_15 
REMARK    3  A    between atoms: C_29  and  C_18 
REMARK    4  A    between atoms: S_21  and  C_29 
ROOT
ATOM      1  N   UNL d   1       1.041  -2.495   0.958  0.00  0.00    -0.305 N 
ATOM      2  C   UNL d   1       1.765  -3.051  -0.078  0.00  0.00     0.233 C 
ATOM      3  O   UNL d   1       2.217  -2.449  -1.050  0.00  0.00    -0.272 OA
ATOM      4  H   UNL d   1       0.612  -3.081   1.661  0.00  0.00     0.171 HD
ENDROOT
BRANCH   2   5
ATOM      5  C   UNL d   1       1.942  -4.557   0.051  0.00  0.00     0.186 C 
BRANCH   5   6
ATOM      6  S   UNL d   1       3.695  -5.020  -0.072  0.00  0.00    -0.075 SA
BRANCH   6   7
ATOM      7  C   UNL d   1       4.329  -4.267   1.358  0.00  0.00     0.204 A 
ATOM      8  O   UNL d   1       5.660  -4.256   1.667  0.00  0.00    -0.265 OA
ATOM      9  C   UNL d   1       5.677  -3.591   2.869  0.00  0.00     0.199 A 
ATOM     10  C   UNL d   1       6.864  -3.339   3.628  0.00  0.00     0.127 A 
ATOM     11  N   UNL d   1       4.463  -3.232   3.248  0.00  0.00    -0.275 N 
ATOM     12  O   UNL d   1       8.113  -3.747   3.230  0.00  0.00    -0.318 OA
ATOM     13  C   UNL d   1       6.983  -2.686   4.846  0.00  0.00     0.043 A 
ATOM     14  C   UNL d   1       8.998  -3.360   4.183  0.00  0.00     0.142 A 
ATOM     15  C   UNL d   1       8.353  -2.701   5.201  0.00  0.00     0.027 A 
ATOM     16  N   UNL d   1       3.594  -3.677   2.278  0.00  0.00    -0.272 N 
ATOM     17  HN  UNL d   1       4.217  -2.722   4.097  1.00  0.00     0.189 HD
ATOM     18  HN  UNL d   1       2.580  -3.570   2.272  1.00  0.00     0.189 HD
ENDBRANCH   6   7
ENDBRANCH   5   6
ENDBRANCH   2   5
BRANCH   1  19
ATOM     19  C   UNL d   1       0.821  -1.153   1.161  0.00  0.00     0.168 A 
ATOM     20  S   UNL d   1       1.622   0.054   0.274  0.00  0.00    -0.032 SA
ATOM     21  C   UNL d   1       0.776   1.222   1.208  0.00  0.00     0.109 A 
ATOM     22  N   UNL d   1      -0.031   0.688   2.104  0.00  0.00    -0.291 N 
ATOM     23  C   UNL d   1       0.951   2.640   1.010  0.00  0.00     0.040 A 
ATOM     24  N   UNL d   1       0.014  -0.697   2.092  0.00  0.00    -0.279 N 
ATOM     25  HN  UNL d   1      -0.620   1.232   2.734  1.00  0.00     0.187 HD
ATOM     26  HN  UNL d   1      -0.516  -1.291   2.729  1.00  0.00     0.189 HD
ATOM     27  S   UNL d   1      -0.022   3.789   1.838  0.00  0.00    -0.099 SA
ATOM     28  C   UNL d   1       1.862   3.280   0.183  0.00  0.00     0.022 A 
ATOM     29  C   UNL d   1       0.769   5.109   1.096  0.00  0.00     0.050 A 
ATOM     30  C   UNL d   1       1.757   4.701   0.234  0.00  0.00     0.008 A 
ENDBRANCH   1  19
TORSDOF 4
