REMARK  3 active torsions:
REMARK  status: ('A' for Active; 'I' for Inactive)
REMARK    1  A    between atoms: C_2  and  S_1 
REMARK    2  A    between atoms: C_3  and  S_1 
REMARK    3  A    between atoms: N_13  and  C_4 
ROOT
ATOM      1  C   UNL d   1       0.435  -0.024  -1.568  0.00  0.00     0.159 C 
ATOM      2  C   UNL d   1      -0.297  -1.038  -2.061  0.00  0.00     0.120 C 
ATOM      3  C   UNL d   1       0.944   0.028  -0.255  0.00  0.00     0.113 C 
ATOM      4  N   UNL d   1       1.384   0.050   0.822  0.00  0.00    -0.191 NA
ENDROOT
BRANCH   1   5
ATOM      5  S   UNL d   1       0.811   1.323  -2.587  0.00  0.00     0.218 S 
ATOM      6  O   UNL d   1       0.473   2.570  -1.927  0.00  0.00    -0.216 OA
ATOM      7  O   UNL d   1       0.425   1.081  -3.964  0.00  0.00    -0.216 OA
BRANCH   5   8
ATOM      8  C   UNL d   1       2.554   1.356  -2.665  0.00  0.00     0.071 A 
ATOM      9  C   UNL d   1       3.383   2.086  -1.758  0.00  0.00     0.031 A 
ATOM     10  C   UNL d   1       4.720   1.937  -2.054  0.00  0.00     0.051 A 
ATOM     11  S   UNL d   1       4.971   0.925  -3.412  0.00  0.00    -0.112 SA
ATOM     12  C   UNL d   1       3.290   0.684  -3.618  0.00  0.00     0.073 A 
ENDBRANCH   5   8
ENDBRANCH   1   5
BRANCH   2  13
ATOM     13  N   UNL d   1      -0.803  -2.197  -1.474  0.00  0.00    -0.397 N 
ATOM     14  C   UNL d   1      -1.092  -2.346  -0.042  0.00  0.00     0.148 C 
ATOM     15  C   UNL d   1      -1.084  -3.402  -2.261  0.00  0.00     0.148 C 
ENDBRANCH   2  13
TORSDOF 3
