REMARK  7 active torsions:
REMARK  status: ('A' for Active; 'I' for Inactive)
REMARK    1  A    between atoms: C_10  and  N_1 
REMARK    2  A    between atoms: C_13  and  C_6 
REMARK    3  A    between atoms: N_9  and  C_11 
REMARK    4  A    between atoms: C_21  and  C_13 
REMARK    5  A    between atoms: N_22  and  N_15 
REMARK    6  A    between atoms: C_23  and  N_22 
REMARK    7  A    between atoms: O_29  and  C_24 
ROOT
ATOM      1  N   UNL d   1      -0.483  -0.960  -1.008  0.00  0.00    -0.227 N 
ATOM      2  N   UNL d   1       0.686  -0.229   0.646  0.00  0.00    -0.226 N 
ATOM      3  HN  UNL d   1       1.480   0.005   1.243  1.00  0.00     0.210 HD
ATOM      4  N   UNL d   1       0.776  -0.874  -0.501  0.00  0.00    -0.220 N 
ATOM      5  HN  UNL d   1       1.628  -1.239  -0.926  1.00  0.00     0.210 HD
ATOM      6  C   UNL d   1      -1.338  -0.370  -0.076  0.00  0.00     0.125 A 
ATOM      7  N   UNL d   1      -0.606   0.083   0.927  0.00  0.00    -0.271 N 
ATOM      8  HN  UNL d   1      -0.947   0.573   1.754  1.00  0.00     0.190 HD
ENDROOT
BRANCH   6   9
ATOM      9  C   UNL d   1      -2.813  -0.253  -0.105  0.00  0.00     0.126 C 
BRANCH   9  10
ATOM     10  C   UNL d   1      -3.441  -1.583   0.210  0.00  0.00     0.087 C 
ATOM     11  N   UNL d   1      -4.299  -2.113  -0.603  0.00  0.00    -0.315 N 
ATOM     12  HN  UNL d   1      -4.547  -1.684  -1.495  1.00  0.00     0.185 HD
BRANCH  11  13
ATOM     13  N   UNL d   1      -4.842  -3.283  -0.179  0.00  0.00    -0.301 N 
ATOM     14  H   UNL d   1      -4.393  -3.840   0.545  0.00  0.00     0.187 HD
BRANCH  13  15
ATOM     15  C   UNL d   1      -5.686  -4.011  -1.043  0.00  0.00     0.048 A 
ATOM     16  C   UNL d   1      -6.079  -3.527  -2.300  0.00  0.00     0.033 A 
ATOM     17  C   UNL d   1      -6.966  -4.247  -3.111  0.00  0.00     0.038 A 
ATOM     18  C   UNL d   1      -7.492  -5.457  -2.650  0.00  0.00     0.103 A 
ATOM     19  C   UNL d   1      -7.143  -5.944  -1.385  0.00  0.00     0.038 A 
ATOM     20  C   UNL d   1      -6.250  -5.215  -0.590  0.00  0.00     0.033 A 
BRANCH  18  21
ATOM     21  N   UNL d   1      -8.425  -6.218  -3.492  0.00  0.00    -0.116 N 
ATOM     22  O   UNL d   1      -8.697  -5.764  -4.609  0.00  0.00    -0.532 OA
ATOM     23  O   UNL d   1      -8.886  -7.274  -3.031  0.00  0.00    -0.532 OA
ENDBRANCH  18  21
ENDBRANCH  13  15
ENDBRANCH  11  13
ENDBRANCH   9  10
ENDBRANCH   6   9
BRANCH   1  24
ATOM     24  C   UNL d   1      -0.691  -1.597  -2.266  0.00  0.00     0.059 A 
ATOM     25  C   UNL d   1       0.393  -2.250  -2.885  0.00  0.00     0.034 A 
ATOM     26  C   UNL d   1       0.234  -2.924  -4.104  0.00  0.00     0.039 A 
ATOM     27  C   UNL d   1      -1.010  -2.951  -4.727  0.00  0.00     0.068 A 
ATOM     28  C   UNL d   1      -2.082  -2.297  -4.125  0.00  0.00     0.039 A 
ATOM     29  C   UNL d   1      -1.926  -1.612  -2.914  0.00  0.00     0.034 A 
BRANCH  27  30
ATOM     30  O   UNL d   1      -1.315  -3.605  -5.885  0.00  0.00    -0.356 OA
ATOM     31  C   UNL d   1      -0.236  -3.836  -6.781  0.00  0.00     0.210 C 
ENDBRANCH  27  30
ENDBRANCH   1  24
TORSDOF 7
