REMARK  3 active torsions:
REMARK  status: ('A' for Active; 'I' for Inactive)
REMARK    1  A    between atoms: N_9  and  C_1 
REMARK    2  A    between atoms: C_7  and  N_2 
REMARK    3  A    between atoms: C_8  and  C_4 
ROOT
ATOM      1  C   UNL d   1      -0.382  -1.295  -0.073  0.00  0.00     0.148 C 
ATOM      2  N   UNL d   1       0.891  -0.733   0.096  0.00  0.00    -0.222 N 
ATOM      3  N   UNL d   1       0.768   0.574   0.438  0.00  0.00    -0.013 NA
ATOM      4  C   UNL d   1      -1.231  -0.199   0.011  0.00  0.00     0.101 C 
ATOM      5  N   UNL d   1      -0.506   0.918   0.333  0.00  0.00    -0.279 N 
ATOM      6  HN  UNL d   1      -0.884   1.855   0.469  1.00  0.00     0.184 HD
ENDROOT
BRANCH   2   7
ATOM      7  C   UNL d   1       2.176  -1.334   0.005  0.00  0.00     0.056 A 
ATOM      8  C   UNL d   1       2.390  -2.482  -0.770  0.00  0.00     0.032 A 
ATOM      9  C   UNL d   1       3.660  -3.065  -0.823  0.00  0.00     0.021 A 
ATOM     10  C   UNL d   1       4.713  -2.505  -0.102  0.00  0.00     0.011 A 
ATOM     11  C   UNL d   1       4.518  -1.351   0.652  0.00  0.00     0.021 A 
ATOM     12 BR   UNL d   1       6.420  -3.315  -0.154  0.00  0.00    -0.051 Br
ATOM     13  C   UNL d   1       3.254  -0.754   0.693  0.00  0.00     0.032 A 
ENDBRANCH   2   7
BRANCH   1  14
ATOM     14  N   UNL d   1      -0.631  -2.638  -0.177  0.00  0.00    -0.382 N 
ATOM     15  H   UNL d   1       0.050  -3.291   0.208  0.00  0.00     0.157 HD
ATOM     16  H   UNL d   1      -1.575  -2.954   0.046  0.00  0.00     0.157 HD
ENDBRANCH   1  14
BRANCH   4  17
ATOM     17  C   UNL d   1      -2.683  -0.183  -0.080  0.00  0.00    -0.005 A 
ATOM     18  C   UNL d   1      -3.403   0.790   0.630  0.00  0.00     0.014 A 
ATOM     19  C   UNL d   1      -4.799   0.825   0.583  0.00  0.00     0.001 A 
ATOM     20  C   UNL d   1      -5.493  -0.111  -0.179  0.00  0.00     0.000 A 
ATOM     21  C   UNL d   1      -4.792  -1.071  -0.907  0.00  0.00     0.001 A 
ATOM     22  C   UNL d   1      -3.394  -1.099  -0.867  0.00  0.00     0.014 A 
ENDBRANCH   4  17
TORSDOF 3
