REMARK  9 active torsions:
REMARK  status: ('A' for Active; 'I' for Inactive)
REMARK    1  A    between atoms: C_8  and  C_1 
REMARK    2  A    between atoms: C_5  and  C_2 
REMARK       I    between atoms: N_11  and  C_5 
REMARK    3  A    between atoms: N_15  and  C_9 
REMARK    4  A    between atoms: N_19  and  C_10 
REMARK    5  A    between atoms: C_14  and  N_11 
REMARK    6  A    between atoms: C_26  and  N_15 
REMARK    7  A    between atoms: C_27  and  N_15 
REMARK    8  A    between atoms: C_30  and  N_19 
REMARK    9  A    between atoms: C_31  and  N_19 
ROOT
ATOM      1  C   UNL d   1       0.488  -2.528   0.867  0.00  0.00     0.240 C 
ATOM      2  N   UNL d   1      -0.045  -3.629   0.176  0.00  0.00    -0.222 NA
ATOM      3  O   UNL d   1      -0.137  -1.478   1.016  0.00  0.00    -0.273 OA
ATOM      4  H   UNL d   1       0.486  -3.794  -0.668  0.00  0.00     0.137 HD
ENDROOT
BRANCH   2   5
ATOM      5  C   UNL d   1      -1.470  -3.558  -0.026  0.00  0.00     0.059 C 
ATOM      6  C   UNL d   1      -2.383  -3.885   1.001  0.00  0.00     0.126 C 
ATOM      7  N   UNL d   1      -3.598  -3.277   1.047  0.00  0.00    -0.332 N 
ATOM      8  C   UNL d   1      -4.018  -2.433   0.077  0.00  0.00     0.083 C 
ATOM      9  HN  UNL d   1      -4.214  -3.465   1.839  1.00  0.00     0.168 HD
ATOM     10  C   UNL d   1      -3.256  -2.354  -1.096  0.00  0.00     0.044 C 
ATOM     11  C   UNL d   1      -1.966  -2.891  -1.141  0.00  0.00     0.031 C 
BRANCH   6  12
ATOM     12  N   UNL d   1      -2.075  -4.822   2.004  0.00  0.00    -0.366 N 
BRANCH  12  13
ATOM     13  C   UNL d   1      -1.328  -6.038   1.648  0.00  0.00     0.120 C 
ATOM     14  C   UNL d   1       0.008  -6.072   2.378  0.00  0.00     0.026 C 
ENDBRANCH  12  13
BRANCH  12  15
ATOM     15  C   UNL d   1      -3.074  -4.972   3.078  0.00  0.00     0.120 C 
ATOM     16  C   UNL d   1      -4.249  -5.884   2.718  0.00  0.00     0.026 C 
ENDBRANCH  12  15
ENDBRANCH   6  12
BRANCH   8  17
ATOM     17  N   UNL d   1      -5.207  -1.663   0.267  0.00  0.00    -0.270 NA
BRANCH  17  18
ATOM     18  C   UNL d   1      -5.167  -0.330  -0.390  0.00  0.00     0.092 C 
ATOM     19  C   UNL d   1      -6.511   0.401  -0.404  0.00  0.00     0.021 C 
ENDBRANCH  17  18
BRANCH  17  20
ATOM     20  C   UNL d   1      -5.597  -1.589   1.708  0.00  0.00     0.092 C 
ATOM     21  C   UNL d   1      -6.326  -2.812   2.235  0.00  0.00     0.021 C 
ENDBRANCH  17  20
ENDBRANCH   8  17
ENDBRANCH   2   5
BRANCH   1  22
ATOM     22  C   UNL d   1       1.738  -2.705   1.585  0.00  0.00     0.087 A 
ATOM     23  C   UNL d   1       3.142  -2.773   1.280  0.00  0.00     0.086 A 
ATOM     24  N   UNL d   1       3.853  -2.822   2.425  0.00  0.00    -0.259 N 
ATOM     25  O   UNL d   1       2.977  -2.713   3.458  0.00  0.00    -0.241 OA
ATOM     26  HN  UNL d   1       4.865  -2.922   2.501  1.00  0.00     0.195 HD
ATOM     27  C   UNL d   1       1.722  -2.657   2.972  0.00  0.00     0.090 A 
ATOM     28  C   UNL d   1       0.667  -2.543   3.998  0.00  0.00     0.080 C 
BRANCH  23  29
ATOM     29  C   UNL d   1       3.982  -2.838   0.071  0.00  0.00     0.037 A 
ATOM     30  C   UNL d   1       5.052  -1.919  -0.070  0.00  0.00     0.048 A 
ATOM     31 CL   UNL d   1       5.032  -0.352   0.675  0.00  0.00    -0.083 Cl
ATOM     32  C   UNL d   1       6.207  -2.248  -0.796  0.00  0.00     0.025 A 
ATOM     33  C   UNL d   1       6.298  -3.477  -1.438  0.00  0.00     0.003 A 
ATOM     34  C   UNL d   1       5.207  -4.342  -1.416  0.00  0.00     0.025 A 
ATOM     35  C   UNL d   1       4.056  -4.028  -0.673  0.00  0.00     0.048 A 
ATOM     36 CL   UNL d   1       2.783  -5.197  -0.673  0.00  0.00    -0.083 Cl
ENDBRANCH  23  29
ENDBRANCH   1  22
TORSDOF 9
