REMARK  1 active torsions:
REMARK  status: ('A' for Active; 'I' for Inactive)
REMARK    1  A    between atoms: O_8  and  N_1 
ROOT
ATOM      1  N   UNL d   1      -2.342  -0.557  -0.004  0.00  0.00    -0.148 N 
ATOM      2  C   UNL d   1      -1.862   0.714  -0.001  0.00  0.00     0.285 A 
ATOM      3  C   UNL d   1      -1.379  -1.516  -0.006  0.00  0.00     0.285 A 
ATOM      4  C   UNL d   1      -0.405   0.578  -0.002  0.00  0.00     0.050 A 
ATOM      5  C   UNL d   1      -0.112  -0.779  -0.004  0.00  0.00     0.050 A 
ATOM      6  O   UNL d   1      -1.454  -2.729  -0.009  0.00  0.00    -0.265 OA
ATOM      7  O   UNL d   1      -2.481   1.761   0.003  0.00  0.00    -0.265 OA
ATOM      8  C   UNL d   1       1.187  -1.248  -0.005  0.00  0.00     0.018 A 
ATOM      9  C   UNL d   1       0.588   1.538   0.001  0.00  0.00     0.018 A 
ATOM     10  C   UNL d   1       1.912   1.086   0.000  0.00  0.00     0.001 A 
ATOM     11  C   UNL d   1       2.209  -0.294  -0.002  0.00  0.00     0.001 A 
ENDROOT
BRANCH   1  12
ATOM     12  O   UNL d   1      -3.701  -0.844  -0.003  0.00  0.00    -0.277 OA
ATOM     13  H   UNL d   1      -4.101   0.048   0.001  0.00  0.00     0.245 HD
ENDBRANCH   1  12
TORSDOF 1
