REMARK  5 active torsions:
REMARK  status: ('A' for Active; 'I' for Inactive)
REMARK    1  A    between atoms: C_14  and  N_3 
REMARK       I    between atoms: C_12  and  N_10 
REMARK    2  A    between atoms: O_22  and  C_12 
REMARK    3  A    between atoms: C_15  and  C_14 
REMARK    4  A    between atoms: C_21  and  C_15 
REMARK    5  A    between atoms: C_25  and  O_22 
ROOT
ATOM      1  C   UNL d   1       0.668   0.368  -0.027  0.00  0.00     0.073 A 
ATOM      2  C   UNL d   1       1.182  -0.911  -0.089  0.00  0.00     0.091 A 
ATOM      3  N   UNL d   1       2.946   1.079   0.034  0.00  0.00    -0.302 N 
ATOM      4  C   UNL d   1       1.610   1.474   0.031  0.00  0.00     0.262 A 
ATOM      5  C   UNL d   1      -0.764   0.373  -0.009  0.00  0.00    -0.023 A 
ATOM      6  C   UNL d   1      -1.272  -0.916  -0.029  0.00  0.00     0.010 A 
ATOM      7  N   UNL d   1       2.494  -1.256  -0.131  0.00  0.00    -0.346 N 
ATOM      8  HN  UNL d   1       2.810  -2.224  -0.200  1.00  0.00     0.167 HD
ATOM      9  S   UNL d   1      -0.046  -2.097  -0.097  0.00  0.00    -0.074 SA
ATOM     10  N   UNL d   1      -3.513  -0.094   0.314  0.00  0.00    -0.323 N 
ATOM     11  C   UNL d   1       3.307  -0.252  -0.076  0.00  0.00     0.187 A 
ATOM     12  C   UNL d   1      -4.346  -0.035   1.413  0.00  0.00     0.363 C 
ATOM     13  C   UNL d   1      -2.729  -1.289  -0.021  0.00  0.00     0.174 C 
ATOM     14  C   UNL d   1      -1.685   1.560   0.060  0.00  0.00     0.061 C 
ATOM     15  C   UNL d   1      -3.114   1.152  -0.349  0.00  0.00     0.133 C 
ATOM     16  O   UNL d   1       1.250   2.646   0.118  0.00  0.00    -0.267 OA
ATOM     17  O   UNL d   1      -4.834   1.003   1.845  0.00  0.00    -0.238 OA
ENDROOT
BRANCH   3  18
ATOM     18  C   UNL d   1       3.974   2.090   0.220  0.00  0.00     0.216 C 
BRANCH  18  19
ATOM     19  C   UNL d   1       4.503   2.652  -1.097  0.00  0.00     0.177 C 
ATOM     20  O   UNL d   1       4.153   2.209  -2.191  0.00  0.00    -0.291 OA
BRANCH  19  21
ATOM     21  C   UNL d   1       5.537   3.735  -1.028  0.00  0.00     0.011 A 
ATOM     22  C   UNL d   1       6.002   4.248   0.192  0.00  0.00     0.015 A 
ATOM     23  C   UNL d   1       6.995   5.234   0.212  0.00  0.00     0.001 A 
ATOM     24  C   UNL d   1       7.526   5.715  -0.980  0.00  0.00     0.000 A 
ATOM     25  C   UNL d   1       7.068   5.216  -2.198  0.00  0.00     0.001 A 
ATOM     26  C   UNL d   1       6.077   4.230  -2.223  0.00  0.00     0.015 A 
ENDBRANCH  19  21
ENDBRANCH  18  19
ENDBRANCH   3  18
BRANCH  12  27
ATOM     27  O   UNL d   1      -4.529  -1.252   1.988  0.00  0.00    -0.304 OA
BRANCH  27  28
ATOM     28  C   UNL d   1      -5.064  -1.241   3.318  0.00  0.00     0.176 C 
ATOM     29  C   UNL d   1      -3.909  -1.080   4.291  0.00  0.00     0.034 C 
ENDBRANCH  27  28
ENDBRANCH  12  27
TORSDOF 5
