REMARK  4 active torsions:
REMARK  status: ('A' for Active; 'I' for Inactive)
REMARK       I    between atoms: N_3  and  C_1 
REMARK    1  A    between atoms: C_8  and  C_1 
REMARK    2  A    between atoms: C_2  and  C_8 
REMARK    3  A    between atoms: C_11  and  N_3 
REMARK    4  A    between atoms: O_19  and  C_14 
ROOT
ATOM      1  C   UNL d   1       1.015  -0.024  -0.113  0.00  0.00     0.226 C 
ATOM      2  N   UNL d   1       0.338   0.899  -0.892  0.00  0.00    -0.327 N 
ATOM      3  O   UNL d   1       2.174  -0.403  -0.277  0.00  0.00    -0.273 OA
ATOM      4  H   UNL d   1      -0.566   1.213  -0.563  0.00  0.00     0.169 HD
ENDROOT
BRANCH   1   5
ATOM      5  C   UNL d   1       0.187  -0.578   1.039  0.00  0.00     0.141 C 
BRANCH   5   6
ATOM      6  C   UNL d   1      -0.436  -1.914   0.715  0.00  0.00    -0.044 A 
ATOM      7  C   UNL d   1       0.362  -3.002   0.328  0.00  0.00     0.050 A 
ATOM      8  C   UNL d   1      -0.223  -4.228   0.016  0.00  0.00     0.119 A 
ATOM      9  F   UNL d   1       0.553  -5.249  -0.367  0.00  0.00    -0.206 F 
ATOM     10  C   UNL d   1      -1.595  -4.405   0.092  0.00  0.00     0.084 A 
ATOM     11  C   UNL d   1      -2.383  -3.335   0.495  0.00  0.00     0.119 A 
ATOM     12  C   UNL d   1      -1.822  -2.099   0.809  0.00  0.00     0.050 A 
ATOM     13  F   UNL d   1      -3.710  -3.493   0.583  0.00  0.00    -0.206 F 
ENDBRANCH   5   6
ENDBRANCH   1   5
BRANCH   2  14
ATOM     14  C   UNL d   1       0.854   1.572  -2.020  0.00  0.00     0.034 A 
ATOM     15  C   UNL d   1       2.017   1.180  -2.684  0.00  0.00     0.032 A 
ATOM     16  C   UNL d   1       2.524   1.934  -3.749  0.00  0.00     0.039 A 
ATOM     17  C   UNL d   1       1.876   3.097  -4.157  0.00  0.00     0.068 A 
ATOM     18  C   UNL d   1       0.680   3.459  -3.536  0.00  0.00     0.039 A 
ATOM     19  C   UNL d   1       0.164   2.697  -2.481  0.00  0.00     0.032 A 
BRANCH  17  20
ATOM     20  O   UNL d   1       2.305   3.949  -5.136  0.00  0.00    -0.356 OA
ATOM     21  C   UNL d   1       3.615   3.721  -5.646  0.00  0.00     0.210 C 
ENDBRANCH  17  20
ENDBRANCH   2  14
TORSDOF 4
