REMARK  4 active torsions:
REMARK  status: ('A' for Active; 'I' for Inactive)
REMARK    1  A    between atoms: N_4  and  C_1 
REMARK       I    between atoms: C_2  and  N_3 
REMARK    2  A    between atoms: C_6  and  C_2 
REMARK    3  A    between atoms: N_3  and  N_4 
REMARK    4  A    between atoms: O_14  and  C_11 
ROOT
ATOM      1  C   UNL d   1       0.060  -2.671  -2.692  0.00  0.00     0.270 C 
ATOM      2  N   UNL d   1       0.711  -1.637  -2.043  0.00  0.00    -0.264 N 
ATOM      3  O   UNL d   1       0.631  -3.635  -3.190  0.00  0.00    -0.266 OA
ATOM      4  H   UNL d   1       0.318  -0.704  -2.120  0.00  0.00     0.190 HD
ENDROOT
BRANCH   1   5
ATOM      5  C   UNL d   1      -1.420  -2.543  -2.776  0.00  0.00     0.033 A 
ATOM      6  C   UNL d   1      -2.083  -2.999  -3.921  0.00  0.00     0.020 A 
ATOM      7  C   UNL d   1      -3.476  -2.945  -3.981  0.00  0.00     0.037 A 
ATOM      8  C   UNL d   1      -4.196  -2.458  -2.894  0.00  0.00     0.065 A 
ATOM      9  C   UNL d   1      -3.547  -2.005  -1.749  0.00  0.00     0.037 A 
ATOM     10  C   UNL d   1      -2.152  -2.045  -1.689  0.00  0.00     0.020 A 
BRANCH   8  11
ATOM     11  O   UNL d   1      -5.556  -2.454  -2.986  0.00  0.00    -0.361 OA
ATOM     12  H   UNL d   1      -5.930  -2.183  -2.131  0.00  0.00     0.217 HD
ENDBRANCH   8  11
ENDBRANCH   1   5
BRANCH   2  13
ATOM     13  N   UNL d   1       2.095  -1.727  -1.973  0.00  0.00    -0.274 N 
ATOM     14  H   UNL d   1       2.497  -2.538  -2.450  0.00  0.00     0.189 HD
BRANCH  13  15
ATOM     15  C   UNL d   1       2.938  -0.932  -1.284  0.00  0.00     0.186 C 
ATOM     16  S   UNL d   1       4.578  -1.254  -1.364  0.00  0.00    -0.040 SA
ATOM     17  N   UNL d   1       2.554   0.120  -0.539  0.00  0.00    -0.370 N 
ATOM     18  C   UNL d   1       1.274   0.649  -0.128  0.00  0.00     0.148 C 
ATOM     19  H   UNL d   1       3.355   0.608  -0.151  0.00  0.00     0.161 HD
ENDBRANCH  13  15
ENDBRANCH   2  13
TORSDOF 4
