REMARK  3 active torsions:
REMARK  status: ('A' for Active; 'I' for Inactive)
REMARK    1  A    between atoms: N_2  and  C_1 
REMARK    2  A    between atoms: N_4  and  C_3 
REMARK       I    between atoms: C_7  and  N_4 
REMARK    3  A    between atoms: O_13  and  C_11 
ROOT
ATOM      1  C   UNL d   1       1.421  -0.097   0.178  0.00  0.00     0.132 A 
ATOM      2  C   UNL d   1       0.662  -1.272   0.087  0.00  0.00     0.068 A 
ATOM      3  C   UNL d   1       0.821   1.170   0.152  0.00  0.00     0.075 A 
ATOM      4  C   UNL d   1      -0.730  -1.150   0.005  0.00  0.00     0.035 A 
ATOM      5  C   UNL d   1      -0.564   1.271   0.074  0.00  0.00     0.070 A 
ATOM      6  C   UNL d   1      -1.339   0.113  -0.005  0.00  0.00     0.039 A 
ENDROOT
BRANCH   2   7
ATOM      7  N   UNL d   1       1.257  -2.558   0.028  0.00  0.00    -0.325 N 
ATOM      8  C   UNL d   1       0.830  -3.603   0.826  0.00  0.00     0.218 C 
ATOM      9  O   UNL d   1      -0.045  -3.517   1.684  0.00  0.00    -0.274 OA
ATOM     10  C   UNL d   1       1.541  -4.903   0.563  0.00  0.00     0.117 C 
ATOM     11  H   UNL d   1       2.216  -2.610  -0.314  0.00  0.00     0.169 HD
ENDBRANCH   2   7
BRANCH   1  12
ATOM     12  N   UNL d   1       2.839  -0.157   0.473  0.00  0.00    -0.113 N 
ATOM     13  O   UNL d   1       3.524  -0.963  -0.186  0.00  0.00    -0.532 OA
ATOM     14  O   UNL d   1       3.272   0.580   1.369  0.00  0.00    -0.532 OA
ENDBRANCH   1  12
BRANCH   5  15
ATOM     15  O   UNL d   1      -1.048   2.548   0.066  0.00  0.00    -0.356 OA
ATOM     16  C   UNL d   1      -2.329   2.716   0.661  0.00  0.00     0.210 C 
ENDBRANCH   5  15
TORSDOF 3
