REMARK  4 active torsions:
REMARK  status: ('A' for Active; 'I' for Inactive)
REMARK    1  A    between atoms: C_9  and  N_1 
REMARK    2  A    between atoms: C_7  and  C_4 
REMARK    3  A    between atoms: C_8  and  C_10 
REMARK    4  A    between atoms: O_22  and  C_15 
ROOT
ATOM      1  N   UNL d   1      -0.168  -1.243   0.145  0.00  0.00    -0.180 N 
ATOM      2  N   UNL d   1       1.085  -0.763   0.424  0.00  0.00    -0.266 N 
ATOM      3  HN  UNL d   1       1.884  -1.259   0.819  1.00  0.00     0.190 HD
ATOM      4  C   UNL d   1       1.000   0.476   0.061  0.00  0.00     0.181 A 
ATOM      5  C   UNL d   1      -0.979  -0.252  -0.364  0.00  0.00     0.394 A 
ATOM      6  O   UNL d   1      -0.209   0.881  -0.393  0.00  0.00    -0.240 OA
ATOM      7  O   UNL d   1      -2.140  -0.267  -0.736  0.00  0.00    -0.236 OA
ENDROOT
BRANCH   1   8
ATOM      8  C   UNL d   1      -0.421  -2.625   0.173  0.00  0.00     0.132 A 
ATOM      9  N   UNL d   1      -1.534  -3.112  -0.419  0.00  0.00    -0.350 N 
ATOM     10  C   UNL d   1      -1.689  -4.455  -0.495  0.00  0.00     0.106 A 
ATOM     11  HN  UNL d   1      -2.242  -2.483  -0.798  1.00  0.00     0.166 HD
ATOM     12  C   UNL d   1      -0.785  -5.370   0.017  0.00  0.00     0.063 A 
ATOM     13  C   UNL d   1       0.334  -4.860   0.675  0.00  0.00     0.021 A 
ATOM     14  C   UNL d   1       0.520  -3.480   0.748  0.00  0.00     0.051 A 
BRANCH  12  15
ATOM     15  C   UNL d   1      -0.999  -6.842  -0.145  0.00  0.00     0.418 C 
ATOM     16  F   UNL d   1      -2.089  -7.160  -0.895  0.00  0.00    -0.166 F 
ATOM     17  F   UNL d   1       0.058  -7.454  -0.750  0.00  0.00    -0.166 F 
ATOM     18  F   UNL d   1      -1.164  -7.480   1.046  0.00  0.00    -0.166 F 
ENDBRANCH  12  15
ENDBRANCH   1   8
BRANCH   4  19
ATOM     19  C   UNL d   1       2.058   1.490   0.024  0.00  0.00     0.050 A 
ATOM     20  C   UNL d   1       3.391   1.125  -0.242  0.00  0.00     0.082 A 
ATOM     21  C   UNL d   1       4.371   2.123  -0.297  0.00  0.00     0.038 A 
ATOM     22  C   UNL d   1       4.032   3.461  -0.077  0.00  0.00     0.003 A 
ATOM     23  C   UNL d   1       2.713   3.817   0.194  0.00  0.00     0.001 A 
ATOM     24  C   UNL d   1       1.725   2.835   0.242  0.00  0.00     0.018 A 
BRANCH  20  25
ATOM     25  O   UNL d   1       3.644  -0.192  -0.518  0.00  0.00    -0.355 OA
ATOM     26  C   UNL d   1       4.973  -0.653  -0.308  0.00  0.00     0.210 C 
ENDBRANCH  20  25
ENDBRANCH   4  19
TORSDOF 4
