REMARK  5 active torsions:
REMARK  status: ('A' for Active; 'I' for Inactive)
REMARK       I    between atoms: C_2  and  N_1 
REMARK    1  A    between atoms: C_4  and  N_1 
REMARK    2  A    between atoms: C_5  and  N_1 
REMARK    3  A    between atoms: C_3  and  C_2 
REMARK    4  A    between atoms: C_11  and  C_4 
REMARK    5  A    between atoms: C_12  and  C_5 
ROOT
ATOM      1  N   UNL d   1       0.858   0.007   0.046  0.00  0.00    -0.339 N 
ATOM      2  C   UNL d   1       0.039  -0.433   1.096  0.00  0.00     0.254 C 
ATOM      3  O   UNL d   1      -1.118  -0.032   1.244  0.00  0.00    -0.267 OA
ENDROOT
BRANCH   1   4
ATOM      4  C   UNL d   1       0.260   1.029  -0.828  0.00  0.00     0.166 C 
BRANCH   4   5
ATOM      5  C   UNL d   1       0.497   0.840  -2.301  0.00  0.00    -0.025 A 
ATOM      6  C   UNL d   1       1.204   1.784  -3.039  0.00  0.00     0.096 A 
ATOM      7  N   UNL d   1       1.379   1.732  -4.380  0.00  0.00    -0.375 N 
ATOM      8  C   UNL d   1       0.799   0.700  -5.027  0.00  0.00     0.087 A 
ATOM      9  HN  UNL d   1       1.922   2.438  -4.876  1.00  0.00     0.164 HD
ATOM     10  C   UNL d   1       0.074  -0.295  -4.391  0.00  0.00     0.018 A 
ATOM     11  C   UNL d   1      -0.070  -0.226  -3.007  0.00  0.00     0.011 A 
ENDBRANCH   4   5
ENDBRANCH   1   4
BRANCH   1  12
ATOM     12  C   UNL d   1       2.322  -0.132   0.029  0.00  0.00     0.166 C 
BRANCH  12  13
ATOM     13  C   UNL d   1       3.047   0.852   0.910  0.00  0.00    -0.025 A 
ATOM     14  C   UNL d   1       3.342   2.138   0.468  0.00  0.00     0.096 A 
ATOM     15  N   UNL d   1       3.997   3.069   1.198  0.00  0.00    -0.375 N 
ATOM     16  C   UNL d   1       4.391   2.704   2.434  0.00  0.00     0.087 A 
ATOM     17  HN  UNL d   1       4.183   4.002   0.831  1.00  0.00     0.164 HD
ATOM     18  C   UNL d   1       4.161   1.449   2.971  0.00  0.00     0.018 A 
ATOM     19  C   UNL d   1       3.480   0.514   2.196  0.00  0.00     0.011 A 
ENDBRANCH  12  13
ENDBRANCH   1  12
BRANCH   2  20
ATOM     20  C   UNL d   1       0.502  -1.410   2.110  0.00  0.00     0.032 A 
ATOM     21  C   UNL d   1       0.183  -1.152   3.453  0.00  0.00     0.018 A 
ATOM     22  C   UNL d   1       0.471  -2.093   4.445  0.00  0.00     0.025 A 
ATOM     23  C   UNL d   1       1.075  -3.297   4.093  0.00  0.00     0.034 A 
ATOM     24  C   UNL d   1       1.388  -3.568   2.760  0.00  0.00     0.025 A 
ATOM     25 CL   UNL d   1       1.407  -4.471   5.306  0.00  0.00    -0.084 Cl
ATOM     26  C   UNL d   1       1.083  -2.634   1.763  0.00  0.00     0.018 A 
ENDBRANCH   2  20
TORSDOF 5
