REMARK  6 active torsions:
REMARK  status: ('A' for Active; 'I' for Inactive)
REMARK    1  A    between atoms: C_12  and  C_3 
REMARK    2  A    between atoms: C_22  and  C_4 
REMARK    3  A    between atoms: C_7  and  C_10 
REMARK    4  A    between atoms: C_8  and  C_11 
REMARK    5  A    between atoms: C_13  and  S_21 
REMARK    6  A    between atoms: S_21  and  C_22 
ROOT
ATOM      1  N   UNL d   1       1.273   0.148   0.301  0.00  0.00    -0.322 N 
ATOM      2  HN  UNL d   1       2.247   0.236   0.593  1.00  0.00     0.169 HD
ATOM      3  C   UNL d   1       0.577  -0.942   0.089  0.00  0.00     0.182 A 
ATOM      4  C   UNL d   1       0.363   1.144   0.033  0.00  0.00     0.114 A 
ATOM      5  N   UNL d   1      -0.880   0.701  -0.214  0.00  0.00    -0.246 N 
ATOM      6  HN  UNL d   1      -1.725   1.247  -0.380  1.00  0.00     0.196 HD
ATOM      7  O   UNL d   1      -0.737  -0.695  -0.189  0.00  0.00    -0.217 OA
ENDROOT
BRANCH   3   8
ATOM      8  C   UNL d   1       1.062  -2.315   0.004  0.00  0.00     0.019 A 
ATOM      9  C   UNL d   1       2.429  -2.549   0.230  0.00  0.00     0.032 A 
ATOM     10  C   UNL d   1       2.999  -3.818   0.066  0.00  0.00     0.049 A 
ATOM     11  C   UNL d   1       2.170  -4.879  -0.323  0.00  0.00     0.032 A 
ATOM     12  C   UNL d   1       0.799  -4.676  -0.562  0.00  0.00     0.049 A 
ATOM     13  C   UNL d   1       0.251  -3.391  -0.381  0.00  0.00     0.032 A 
BRANCH  10  14
ATOM     14  C   UNL d   1       4.485  -4.001   0.259  0.00  0.00     0.417 C 
ATOM     15  F   UNL d   1       4.905  -5.277   0.036  0.00  0.00    -0.166 F 
ATOM     16  F   UNL d   1       5.214  -3.216  -0.580  0.00  0.00    -0.166 F 
ATOM     17  F   UNL d   1       4.891  -3.688   1.519  0.00  0.00    -0.166 F 
ENDBRANCH  10  14
BRANCH  12  18
ATOM     18  C   UNL d   1      -0.074  -5.806  -1.061  0.00  0.00     0.417 C 
ATOM     19  F   UNL d   1       0.610  -6.963  -1.277  0.00  0.00    -0.166 F 
ATOM     20  F   UNL d   1      -1.075  -6.115  -0.194  0.00  0.00    -0.166 F 
ATOM     21  F   UNL d   1      -0.677  -5.504  -2.243  0.00  0.00    -0.166 F 
ENDBRANCH  12  18
ENDBRANCH   3   8
BRANCH   4  22
ATOM     22  C   UNL d   1       0.742   2.584  -0.012  0.00  0.00     0.160 C 
BRANCH  22  23
ATOM     23  S   UNL d   1       2.399   2.802  -0.751  0.00  0.00    -0.086 SA
BRANCH  23  24
ATOM     24  C   UNL d   1       2.596   4.548  -0.580  0.00  0.00     0.144 A 
ATOM     25  N   UNL d   1       1.576   5.279  -0.098  0.00  0.00    -0.347 N 
ATOM     26  C   UNL d   1       1.782   6.607  -0.013  0.00  0.00     0.091 A 
ATOM     27  HN  UNL d   1       0.695   4.851   0.188  1.00  0.00     0.167 HD
ATOM     28  C   UNL d   1       2.955   7.221  -0.387  0.00  0.00     0.034 A 
ATOM     29  C   UNL d   1       3.933   6.384  -0.864  0.00  0.00     0.091 A 
ATOM     30  N   UNL d   1       3.779   5.052  -0.970  0.00  0.00    -0.347 N 
ATOM     31  HN  UNL d   1       4.524   4.454  -1.328  1.00  0.00     0.167 HD
ENDBRANCH  23  24
ENDBRANCH  22  23
ENDBRANCH   4  22
TORSDOF 6
