REMARK  4 active torsions:
REMARK  status: ('A' for Active; 'I' for Inactive)
REMARK    1  A    between atoms: N_9  and  C_6 
REMARK    2  A    between atoms: C_8  and  O_16 
REMARK       I    between atoms: N_11  and  C_8 
REMARK    3  A    between atoms: O_16  and  N_9 
REMARK    4  A    between atoms: C_12  and  N_11 
ROOT
ATOM      1  N   UNL d   1      -3.801  -1.745  -0.178  0.00  0.00    -0.258 N 
ATOM      2  HN  UNL d   1      -4.778  -1.527   0.018  1.00  0.00     0.194 HD
ENDROOT
BRANCH   1   3
ATOM      3  C   UNL d   1      -2.857  -0.888   0.000  0.00  0.00     0.061 C 
ATOM      4  C   UNL d   1      -1.426  -0.952  -0.064  0.00  0.00     0.066 A 
ATOM      5  N   UNL d   1      -0.917   0.319  -0.073  0.00  0.00    -0.344 N 
ATOM      6  C   UNL d   1      -0.354  -1.820  -0.046  0.00  0.00    -0.021 A 
ATOM      7  C   UNL d   1       0.433   0.357  -0.068  0.00  0.00     0.045 A 
ATOM      8  C   UNL d   1      -1.943   1.345  -0.034  0.00  0.00     0.136 C 
ATOM      9  C   UNL d   1       0.834  -0.984  -0.050  0.00  0.00    -0.001 A 
ATOM     10  C   UNL d   1       1.335   1.427  -0.063  0.00  0.00     0.030 A 
ATOM     11  C   UNL d   1       2.218  -1.258  -0.011  0.00  0.00     0.014 A 
ATOM     12  C   UNL d   1       3.135  -0.200   0.003  0.00  0.00     0.001 A 
ATOM     13  C   UNL d   1       2.698   1.122  -0.026  0.00  0.00     0.002 A 
ATOM     14  C   UNL d   1      -3.206   0.563   0.349  0.00  0.00     0.081 C 
ATOM     15  C   UNL d   1      -0.335  -3.300   0.043  0.00  0.00     0.052 C 
ENDBRANCH   1   3
BRANCH   1  16
ATOM     16  O   UNL d   1      -3.394  -3.000  -0.659  0.00  0.00    -0.181 OA
BRANCH  16  17
ATOM     17  C   UNL d   1      -4.514  -3.801  -0.785  0.00  0.00     0.387 C 
ATOM     18  N   UNL d   1      -4.241  -4.923  -1.551  0.00  0.00    -0.299 N 
ATOM     19  H   UNL d   1      -3.278  -5.224  -1.512  0.00  0.00     0.171 HD
ATOM     20  O   UNL d   1      -5.593  -3.580  -0.243  0.00  0.00    -0.236 OA
BRANCH  18  21
ATOM     21  C   UNL d   1      -5.223  -5.816  -2.058  0.00  0.00     0.058 A 
ATOM     22  C   UNL d   1      -6.520  -5.442  -2.475  0.00  0.00     0.062 A 
ATOM     23  C   UNL d   1      -7.458  -6.414  -2.849  0.00  0.00     0.050 A 
ATOM     24 CL   UNL d   1      -6.997  -3.802  -2.771  0.00  0.00    -0.082 Cl
ATOM     25  C   UNL d   1      -7.096  -7.754  -2.874  0.00  0.00     0.035 A 
ATOM     26  C   UNL d   1      -5.788  -8.130  -2.584  0.00  0.00     0.026 A 
ATOM     27 CL   UNL d   1      -8.263  -8.947  -3.293  0.00  0.00    -0.084 Cl
ATOM     28  C   UNL d   1      -4.852  -7.164  -2.188  0.00  0.00     0.033 A 
ENDBRANCH  18  21
ENDBRANCH  16  17
ENDBRANCH   1  16
TORSDOF 4
