REMARK  7 active torsions:
REMARK  status: ('A' for Active; 'I' for Inactive)
REMARK    1  A    between atoms: C_6  and  N_1 
REMARK    2  A    between atoms: C_3  and  C_2 
REMARK    3  A    between atoms: O_16  and  C_3 
REMARK    4  A    between atoms: C_8  and  N_10 
REMARK    5  A    between atoms: N_10  and  N_14 
REMARK    6  A    between atoms: N_14  and  C_15 
REMARK    7  A    between atoms: C_19  and  O_16 
ROOT
ATOM      1  C   UNL d   1      -2.511   7.326   3.760  0.00  0.00     0.136 C 
ATOM      2  C   UNL d   1      -3.422   8.302   4.246  0.00  0.00     0.107 C 
ATOM      3  N   UNL d   1      -4.196   9.054   4.669  0.00  0.00    -0.191 NA
ATOM      4  C   UNL d   1      -2.816   6.017   3.795  0.00  0.00     0.136 C 
ENDROOT
BRANCH   1   5
ATOM      5  C   UNL d   1      -1.175   7.738   3.270  0.00  0.00     0.305 C 
ATOM      6  O   UNL d   1      -0.302   6.966   2.905  0.00  0.00    -0.258 OA
BRANCH   5   7
ATOM      7  O   UNL d   1      -1.043   9.083   3.400  0.00  0.00    -0.317 OA
BRANCH   7   8
ATOM      8  C   UNL d   1       0.298   9.588   3.446  0.00  0.00     0.174 C 
ATOM      9  C   UNL d   1       0.767   9.526   4.888  0.00  0.00     0.034 C 
ENDBRANCH   7   8
ENDBRANCH   5   7
ENDBRANCH   1   5
BRANCH   4  10
ATOM     10  N   UNL d   1      -3.962   5.431   4.290  0.00  0.00    -0.310 N 
ATOM     11  H   UNL d   1      -4.545   6.040   4.869  0.00  0.00     0.186 HD
BRANCH  10  12
ATOM     12  N   UNL d   1      -4.269   4.105   4.316  0.00  0.00    -0.301 N 
ATOM     13  H   UNL d   1      -3.643   3.503   3.777  0.00  0.00     0.187 HD
BRANCH  12  14
ATOM     14  C   UNL d   1      -5.611   3.653   4.252  0.00  0.00     0.048 A 
ATOM     15  C   UNL d   1      -5.882   2.381   3.724  0.00  0.00     0.033 A 
ATOM     16  C   UNL d   1      -7.189   1.881   3.681  0.00  0.00     0.038 A 
ATOM     17  C   UNL d   1      -8.239   2.648   4.198  0.00  0.00     0.103 A 
ATOM     18  C   UNL d   1      -7.989   3.911   4.743  0.00  0.00     0.038 A 
ATOM     19  C   UNL d   1      -6.679   4.404   4.769  0.00  0.00     0.033 A 
BRANCH  17  20
ATOM     20  N   UNL d   1      -9.607   2.116   4.185  0.00  0.00    -0.116 N 
ATOM     21  O   UNL d   1     -10.501   2.809   4.692  0.00  0.00    -0.532 OA
ATOM     22  O   UNL d   1      -9.787   1.003   3.671  0.00  0.00    -0.532 OA
ENDBRANCH  17  20
ENDBRANCH  12  14
ENDBRANCH  10  12
ENDBRANCH   4  10
TORSDOF 7
