REMARK  4 active torsions:
REMARK  status: ('A' for Active; 'I' for Inactive)
REMARK    1  A    between atoms: C_5  and  N_1 
REMARK    2  A    between atoms: C_9  and  C_5 
REMARK    3  A    between atoms: C_10  and  C_9 
REMARK    4  A    between atoms: O_16  and  C_11 
ROOT
ATOM      1  C   UNL d   1       0.189  -2.155   0.032  0.00  0.00     0.139 C 
ENDROOT
BRANCH   1   2
ATOM      2  N   UNL d   1       0.430  -0.717  -0.038  0.00  0.00    -0.293 N 
ATOM      3  C   UNL d   1       0.543   0.053  -1.163  0.00  0.00     0.176 A 
ATOM      4  N   UNL d   1       0.721   1.365  -0.782  0.00  0.00    -0.358 N 
ATOM      5  S   UNL d   1       0.485  -0.394  -2.758  0.00  0.00    -0.041 SA
ATOM      6  C   UNL d   1       0.713   1.517   0.646  0.00  0.00     0.225 A 
ATOM      7  H   UNL d   1       0.799   2.119  -1.456  0.00  0.00     0.162 HD
ATOM      8  C   UNL d   1       0.547   0.069   1.083  0.00  0.00     0.243 A 
ATOM      9  O   UNL d   1       0.510  -0.305   2.246  0.00  0.00    -0.271 OA
ENDBRANCH   1   2
BRANCH   1  10
ATOM     10  C   UNL d   1       1.483  -2.979  -0.029  0.00  0.00     0.059 C 
BRANCH  10  11
ATOM     11  C   UNL d   1       1.282  -4.481  -0.031  0.00  0.00    -0.056 A 
ATOM     12  C   UNL d   1       0.201  -5.092  -0.680  0.00  0.00     0.010 A 
ATOM     13  C   UNL d   1       0.054  -6.484  -0.692  0.00  0.00     0.037 A 
ATOM     14  C   UNL d   1       1.001  -7.296  -0.074  0.00  0.00     0.068 A 
ATOM     15  C   UNL d   1       2.098  -6.701   0.549  0.00  0.00     0.037 A 
ATOM     16  C   UNL d   1       2.241  -5.308   0.568  0.00  0.00     0.010 A 
BRANCH  14  17
ATOM     17  O   UNL d   1       0.972  -8.663  -0.020  0.00  0.00    -0.356 OA
ATOM     18  C   UNL d   1      -0.145  -9.302  -0.628  0.00  0.00     0.210 C 
ENDBRANCH  14  17
ENDBRANCH  10  11
ENDBRANCH   1  10
TORSDOF 4
