REMARK  3 active torsions:
REMARK  status: ('A' for Active; 'I' for Inactive)
REMARK    1  A    between atoms: O_8  and  C_1 
REMARK       I    between atoms: N_9  and  C_1 
REMARK    2  A    between atoms: N_3  and  O_8 
REMARK    3  A    between atoms: C_12  and  C_11 
ROOT
ATOM      1  N   UNL d   1      -1.095  -0.069  -1.121  0.00  0.00    -0.267 N 
ATOM      2  HN  UNL d   1      -1.584   0.301  -0.305  1.00  0.00     0.194 HD
ATOM      3  C   UNL d   1      -1.668  -0.502  -2.195  0.00  0.00     0.126 C 
ENDROOT
BRANCH   3   4
ATOM      4  C   UNL d   1      -3.140  -0.496  -2.304  0.00  0.00    -0.017 A 
ATOM      5  C   UNL d   1      -3.748  -0.968  -3.469  0.00  0.00     0.040 A 
ATOM      6  C   UNL d   1      -5.143  -0.966  -3.558  0.00  0.00     0.073 A 
ATOM      7 CL   UNL d   1      -5.897  -1.548  -4.991  0.00  0.00    -0.081 Cl
ATOM      8  C   UNL d   1      -5.914  -0.497  -2.493  0.00  0.00     0.138 A 
ATOM      9  C   UNL d   1      -5.308  -0.025  -1.333  0.00  0.00     0.045 A 
ATOM     10  F   UNL d   1      -7.253  -0.493  -2.564  0.00  0.00    -0.204 F 
ATOM     11  C   UNL d   1      -3.919  -0.024  -1.236  0.00  0.00     0.016 A 
ENDBRANCH   3   4
BRANCH   1  12
ATOM     12  O   UNL d   1       0.312  -0.183  -1.246  0.00  0.00    -0.181 OA
BRANCH  12  13
ATOM     13  C   UNL d   1       0.954   0.282  -0.108  0.00  0.00     0.382 C 
ATOM     14  O   UNL d   1       2.173   0.255   0.005  0.00  0.00    -0.236 OA
ATOM     15  N   UNL d   1       0.095   0.761   0.845  0.00  0.00    -0.340 N 
ATOM     16  C   UNL d   1       0.482   1.293   2.118  0.00  0.00     0.151 C 
ATOM     17  H   UNL d   1      -0.877   0.691   0.567  0.00  0.00     0.164 HD
ENDBRANCH  12  13
ENDBRANCH   1  12
TORSDOF 3
