REMARK  3 active torsions:
REMARK  status: ('A' for Active; 'I' for Inactive)
REMARK    1  A    between atoms: C_10  and  N_1 
REMARK    2  A    between atoms: C_7  and  C_2 
REMARK    3  A    between atoms: N_9  and  C_8 
ROOT
ATOM      1  N   UNL d   1       0.047  -0.866   1.022  0.00  0.00    -0.225 N 
ATOM      2  C   UNL d   1       1.090  -0.778   0.099  0.00  0.00     0.139 A 
ATOM      3  N   UNL d   1      -0.707   0.015  -0.786  0.00  0.00    -0.007 NA
ATOM      4  N   UNL d   1      -1.083  -0.441   0.397  0.00  0.00     0.001 NA
ATOM      5  N   UNL d   1       0.627  -0.191  -0.988  0.00  0.00    -0.270 N 
ATOM      6  HN  UNL d   1       1.163   0.060  -1.819  1.00  0.00     0.185 HD
ENDROOT
BRANCH   1   7
ATOM      7  C   UNL d   1       0.004  -1.253   2.389  0.00  0.00     0.056 A 
ATOM      8  C   UNL d   1       1.146  -1.238   3.202  0.00  0.00     0.032 A 
ATOM      9  C   UNL d   1       1.048  -1.562   4.560  0.00  0.00     0.021 A 
ATOM     10  C   UNL d   1      -0.183  -1.917   5.106  0.00  0.00     0.011 A 
ATOM     11  C   UNL d   1      -1.323  -1.949   4.308  0.00  0.00     0.021 A 
ATOM     12 BR   UNL d   1      -0.309  -2.331   6.945  0.00  0.00    -0.051 Br
ATOM     13  C   UNL d   1      -1.234  -1.606   2.956  0.00  0.00     0.032 A 
ENDBRANCH   1   7
BRANCH   2  14
ATOM     14  C   UNL d   1       2.363  -1.348   0.319  0.00  0.00     0.068 C 
ATOM     15  C   UNL d   1       2.618  -2.597  -0.087  0.00  0.00     0.089 C 
BRANCH  15  16
ATOM     16  N   UNL d   1       3.795  -3.317  -0.001  0.00  0.00    -0.390 N 
ATOM     17  C   UNL d   1       5.054  -2.842   0.568  0.00  0.00     0.122 C 
ATOM     18  C   UNL d   1       6.110  -3.471  -0.327  0.00  0.00     0.021 C 
ATOM     19  C   UNL d   1       5.517  -4.831  -0.648  0.00  0.00     0.021 C 
ATOM     20  C   UNL d   1       4.014  -4.571  -0.736  0.00  0.00     0.122 C 
ENDBRANCH  15  16
ENDBRANCH   2  14
TORSDOF 3
