REMARK  4 active torsions:
REMARK  status: ('A' for Active; 'I' for Inactive)
REMARK    1  A    between atoms: N_2  and  S_1 
REMARK    2  A    between atoms: C_3  and  S_1 
REMARK    3  A    between atoms: C_4  and  C_6 
REMARK    4  A    between atoms: C_7  and  N_5 
ROOT
ATOM      1  N   UNL d   1       0.209   1.563  -0.159  0.00  0.00    -0.304 N 
ATOM      2  N   UNL d   1       0.418   3.724  -2.061  0.00  0.00    -0.364 N 
ATOM      3  C   UNL d   1      -0.802   1.763  -1.228  0.00  0.00     0.155 C 
ATOM      4  C   UNL d   1       0.780   2.858   0.301  0.00  0.00     0.155 C 
ATOM      5  C   UNL d   1      -0.147   2.419  -2.437  0.00  0.00     0.145 C 
ATOM      6  C   UNL d   1       1.264   3.775  -0.858  0.00  0.00     0.145 C 
ENDROOT
BRANCH   1   7
ATOM      7  S   UNL d   1       1.138   0.155  -0.154  0.00  0.00     0.261 S 
ATOM      8  O   UNL d   1       0.369  -0.902  -0.770  0.00  0.00    -0.200 OA
ATOM      9  O   UNL d   1       1.691   0.000   1.176  0.00  0.00    -0.200 OA
BRANCH   7  10
ATOM     10  C   UNL d   1       2.528   0.481  -1.222  0.00  0.00     0.081 A 
ATOM     11  C   UNL d   1       3.620   1.188  -0.704  0.00  0.00     0.050 A 
ATOM     12  C   UNL d   1       4.710   1.486  -1.524  0.00  0.00     0.057 A 
ATOM     13 CL   UNL d   1       5.977   2.444  -0.844  0.00  0.00    -0.083 Cl
ATOM     14  C   UNL d   1       4.732   1.034  -2.848  0.00  0.00     0.055 A 
ATOM     15  C   UNL d   1       3.670   0.266  -3.339  0.00  0.00     0.027 A 
ATOM     16 CL   UNL d   1       6.036   1.392  -3.923  0.00  0.00    -0.083 Cl
ATOM     17  C   UNL d   1       2.569  -0.021  -2.526  0.00  0.00     0.027 A 
ENDBRANCH   7  10
ENDBRANCH   1   7
BRANCH   2  18
ATOM     18  C   UNL d   1      -0.239   4.840  -2.545  0.00  0.00     0.103 A 
ATOM     19  N   UNL d   1      -1.460   4.665  -3.092  0.00  0.00    -0.352 N 
ATOM     20  C   UNL d   1      -2.077   5.704  -3.699  0.00  0.00     0.106 A 
ATOM     21  HN  UNL d   1      -1.915   3.754  -3.049  1.00  0.00     0.166 HD
ATOM     22  C   UNL d   1      -1.535   6.970  -3.789  0.00  0.00     0.063 A 
ATOM     23  C   UNL d   1      -0.291   7.168  -3.193  0.00  0.00     0.021 A 
ATOM     24  C   UNL d   1       0.359   6.098  -2.569  0.00  0.00     0.049 A 
BRANCH  22  25
ATOM     25  C   UNL d   1      -2.258   8.054  -4.521  0.00  0.00     0.418 C 
ATOM     26  F   UNL d   1      -3.438   7.649  -5.067  0.00  0.00    -0.166 F 
ATOM     27  F   UNL d   1      -2.563   9.110  -3.718  0.00  0.00    -0.166 F 
ATOM     28  F   UNL d   1      -1.528   8.564  -5.551  0.00  0.00    -0.166 F 
ENDBRANCH  22  25
ENDBRANCH   2  18
TORSDOF 4
