REMARK  3 active torsions:
REMARK  status: ('A' for Active; 'I' for Inactive)
REMARK    1  A    between atoms: C_7  and  N_1 
REMARK    2  A    between atoms: C_3  and  S_10 
REMARK    3  A    between atoms: S_10  and  C_7 
ROOT
ATOM      1  S   UNL d   1       4.058  -2.425   0.091  0.00  0.00    -0.073 SA
ENDROOT
BRANCH   1   2
ATOM      2  C   UNL d   1       4.441  -4.103   0.026  0.00  0.00     0.146 A 
ATOM      3  N   UNL d   1       3.660  -5.153   0.039  0.00  0.00    -0.335 N 
ATOM      4  C   UNL d   1       4.529  -6.232  -0.001  0.00  0.00     0.061 A 
ATOM      5  HN  UNL d   1       2.641  -5.173   0.070  1.00  0.00     0.168 HD
ATOM      6  C   UNL d   1       4.276  -7.614  -0.007  0.00  0.00     0.032 A 
ATOM      7  C   UNL d   1       5.855  -5.803  -0.032  0.00  0.00     0.061 A 
ATOM      8  C   UNL d   1       5.364  -8.505  -0.034  0.00  0.00     0.002 A 
ATOM      9  C   UNL d   1       6.678  -8.034  -0.059  0.00  0.00     0.002 A 
ATOM     10  C   UNL d   1       6.953  -6.664  -0.061  0.00  0.00     0.032 A 
ATOM     11  N   UNL d   1       5.762  -4.439  -0.026  0.00  0.00    -0.335 N 
ATOM     12  H   UNL d   1       6.525  -3.783  -0.045  0.00  0.00     0.168 HD
ENDBRANCH   1   2
BRANCH   1  13
ATOM     13  C   UNL d   1       2.247  -2.404   0.021  0.00  0.00     0.213 C 
BRANCH  13  14
ATOM     14  N   UNL d   1       1.770  -1.017   0.046  0.00  0.00    -0.321 N 
ATOM     15  C   UNL d   1       1.558  -0.236  -1.096  0.00  0.00     0.147 A 
ATOM     16  S   UNL d   1       1.088   1.414  -0.627  0.00  0.00    -0.058 SA
ATOM     17  S   UNL d   1       1.704  -0.682  -2.698  0.00  0.00    -0.052 SA
ATOM     18  C   UNL d   1       1.226   1.024   1.087  0.00  0.00     0.034 A 
ATOM     19  C   UNL d   1       1.600  -0.309   1.271  0.00  0.00     0.054 A 
ATOM     20  C   UNL d   1       1.014   1.882   2.157  0.00  0.00     0.021 A 
ATOM     21  C   UNL d   1       1.775  -0.802   2.559  0.00  0.00     0.031 A 
ATOM     22  C   UNL d   1       1.560   0.053   3.648  0.00  0.00     0.002 A 
ATOM     23  C   UNL d   1       1.181   1.387   3.450  0.00  0.00     0.002 A 
ENDBRANCH  13  14
ENDBRANCH   1  13
TORSDOF 3
