REMARK  4 active torsions:
REMARK  status: ('A' for Active; 'I' for Inactive)
REMARK    1  A    between atoms: C_6  and  C_14 
REMARK       I    between atoms: N_9  and  C_6 
REMARK    2  A    between atoms: C_16  and  N_9 
REMARK    3  A    between atoms: O_17  and  C_12 
REMARK    4  A    between atoms: C_14  and  O_17 
ROOT
ATOM      1  C   UNL d   1      -0.026  -0.878  -0.010  0.00  0.00     0.049 A 
ATOM      2  C   UNL d   1      -1.348  -1.552  -0.012  0.00  0.00     0.165 C 
ATOM      3  C   UNL d   1      -0.042   0.527   0.018  0.00  0.00     0.086 A 
ATOM      4  O   UNL d   1      -1.181   1.302  -0.022  0.00  0.00    -0.340 OA
ATOM      5  C   UNL d   1       1.206  -1.563  -0.027  0.00  0.00    -0.043 A 
ATOM      6  C   UNL d   1      -2.382   0.622  -0.429  0.00  0.00     0.067 C 
ATOM      7  C   UNL d   1      -2.519  -0.678   0.350  0.00  0.00     0.121 C 
ATOM      8  C   UNL d   1       1.155   1.246   0.084  0.00  0.00     0.074 A 
ATOM      9  C   UNL d   1       2.404  -0.804   0.011  0.00  0.00     0.044 A 
ATOM     10  C   UNL d   1       2.385   0.592   0.085  0.00  0.00     0.072 A 
ATOM     11  O   UNL d   1      -1.521  -2.731  -0.275  0.00  0.00    -0.292 OA
ATOM     12  C   UNL d   1       1.365  -3.059  -0.096  0.00  0.00     0.049 C 
ATOM     13  C   UNL d   1      -2.385   0.428  -1.958  0.00  0.00     0.046 C 
ATOM     14  C   UNL d   1      -3.569   1.526  -0.067  0.00  0.00     0.046 C 
ENDROOT
BRANCH  10  15
ATOM     15  O   UNL d   1       3.475   1.424   0.151  0.00  0.00    -0.342 OA
BRANCH  15  16
ATOM     16  C   UNL d   1       4.758   0.819   0.175  0.00  0.00     0.278 C 
BRANCH  16  17
ATOM     17  C   UNL d   1       5.932   1.817   0.171  0.00  0.00     0.248 C 
ATOM     18  N   UNL d   1       6.123   2.640   1.285  0.00  0.00    -0.321 N 
ATOM     19  C   UNL d   1       5.201   2.782   2.410  0.00  0.00     0.159 C 
ATOM     20  O   UNL d   1       6.732   1.770  -0.770  0.00  0.00    -0.271 OA
BRANCH  18  21
ATOM     21  C   UNL d   1       7.282   3.474   1.345  0.00  0.00     0.036 A 
ATOM     22  C   UNL d   1       7.552   4.396   0.329  0.00  0.00     0.029 A 
ATOM     23  C   UNL d   1       8.679   5.220   0.404  0.00  0.00     0.002 A 
ATOM     24  C   UNL d   1       9.561   5.102   1.477  0.00  0.00     0.000 A 
ATOM     25  C   UNL d   1       9.306   4.178   2.489  0.00  0.00     0.002 A 
ATOM     26  C   UNL d   1       8.159   3.381   2.434  0.00  0.00     0.029 A 
ENDBRANCH  18  21
ENDBRANCH  16  17
ENDBRANCH  15  16
ENDBRANCH  10  15
TORSDOF 4
