REMARK  6 active torsions:
REMARK  status: ('A' for Active; 'I' for Inactive)
REMARK    1  A    between atoms: C_5  and  S_1 
REMARK    2  A    between atoms: C_7  and  S_1 
REMARK       I    between atoms: C_2  and  N_3 
REMARK    3  A    between atoms: C_6  and  C_2 
REMARK       I    between atoms: N_3  and  C_8 
REMARK    4  A    between atoms: C_4  and  C_9 
REMARK    5  A    between atoms: C_10  and  C_5 
REMARK       I    between atoms: C_8  and  N_15 
REMARK       I    between atoms: N_16  and  C_10 
REMARK    6  A    between atoms: N_15  and  N_16 
ROOT
ATOM      1  C   UNL d   1       1.991   1.425   1.704  0.00  0.00     0.250 C 
ATOM      2  N   UNL d   1       2.788   0.353   2.054  0.00  0.00    -0.265 N 
ATOM      3  O   UNL d   1       2.183   2.560   2.136  0.00  0.00    -0.271 OA
ATOM      4  H   UNL d   1       2.445  -0.609   1.999  0.00  0.00     0.190 HD
ENDROOT
BRANCH   1   5
ATOM      5  C   UNL d   1       0.901   1.109   0.721  0.00  0.00     0.251 C 
BRANCH   5   6
ATOM      6  S   UNL d   1      -0.635   0.929   1.564  0.00  0.00     0.199 S 
ATOM      7  O   UNL d   1      -0.457  -0.127   2.549  0.00  0.00    -0.221 OA
ATOM      8  O   UNL d   1      -1.692   0.813   0.575  0.00  0.00    -0.221 OA
BRANCH   6   9
ATOM      9  C   UNL d   1      -0.856   2.464   2.435  0.00  0.00     0.128 A 
ATOM     10  N   UNL d   1      -0.919   3.553   1.626  0.00  0.00    -0.356 N 
ATOM     11  C   UNL d   1      -0.956   4.751   2.251  0.00  0.00     0.105 A 
ATOM     12  HN  UNL d   1      -0.938   3.471   0.609  1.00  0.00     0.166 HD
ATOM     13  C   UNL d   1      -0.918   4.909   3.632  0.00  0.00     0.063 A 
ATOM     14  C   UNL d   1      -0.873   3.752   4.424  0.00  0.00     0.020 A 
ATOM     15  C   UNL d   1      -0.847   2.500   3.820  0.00  0.00     0.042 A 
BRANCH  13  16
ATOM     16  C   UNL d   1      -0.895   6.274   4.247  0.00  0.00     0.418 C 
ATOM     17  F   UNL d   1      -0.939   7.286   3.338  0.00  0.00    -0.166 F 
ATOM     18  F   UNL d   1      -1.945   6.483   5.089  0.00  0.00    -0.166 F 
ATOM     19  F   UNL d   1       0.226   6.489   4.991  0.00  0.00    -0.166 F 
ENDBRANCH  13  16
ENDBRANCH   6   9
ENDBRANCH   5   6
ENDBRANCH   1   5
BRANCH   2  20
ATOM     20  N   UNL d   1       3.807   0.558   3.010  0.00  0.00    -0.249 N 
ATOM     21  C   UNL d   1       4.056  -0.447   3.903  0.00  0.00     0.341 C 
ATOM     22  N   UNL d   1       4.990  -0.217   4.879  0.00  0.00    -0.274 N 
ATOM     23  O   UNL d   1       3.498  -1.544   3.833  0.00  0.00    -0.245 OA
ATOM     24  C   UNL d   1       5.919   0.804   4.995  0.00  0.00     0.261 C 
ATOM     25  H   UNL d   1       5.104  -1.029   5.471  0.00  0.00     0.173 HD
ATOM     26  O   UNL d   1       5.913   1.810   4.293  0.00  0.00    -0.267 OA
ATOM     27  H   UNL d   1       4.096   1.519   3.209  0.00  0.00     0.192 HD
BRANCH  24  28
ATOM     28  C   UNL d   1       6.882   0.694   6.139  0.00  0.00     0.054 A 
ATOM     29  C   UNL d   1       7.393  -0.511   6.646  0.00  0.00     0.049 A 
ATOM     30 CL   UNL d   1       7.107  -2.049   5.909  0.00  0.00    -0.083 Cl
ATOM     31  C   UNL d   1       8.204  -0.510   7.790  0.00  0.00     0.025 A 
ATOM     32  C   UNL d   1       8.528   0.688   8.425  0.00  0.00     0.002 A 
ATOM     33  C   UNL d   1       8.067   1.893   7.903  0.00  0.00     0.001 A 
ATOM     34  C   UNL d   1       7.255   1.897   6.765  0.00  0.00     0.019 A 
ENDBRANCH  24  28
ENDBRANCH   2  20
TORSDOF 6
