REMARK  6 active torsions:
REMARK  status: ('A' for Active; 'I' for Inactive)
REMARK    1  A    between atoms: N_5  and  C_1 
REMARK    2  A    between atoms: C_8  and  C_2 
REMARK       I    between atoms: C_7  and  N_5 
REMARK    3  A    between atoms: C_11  and  C_6 
REMARK       I    between atoms: N_9  and  C_7 
REMARK    4  A    between atoms: O_14  and  C_8 
REMARK    5  A    between atoms: C_13  and  N_9 
REMARK    6  A    between atoms: C_22  and  O_14 
ROOT
ATOM      1  C   UNL d   1       0.446   1.222   0.024  0.00  0.00     0.095 C 
ATOM      2  C   UNL d   1       1.695   0.673  -0.174  0.00  0.00     0.074 C 
ATOM      3  S   UNL d   1      -0.753   0.050   0.322  0.00  0.00    -0.071 SA
ATOM      4  C   UNL d   1       1.600  -0.770  -0.073  0.00  0.00     0.040 C 
ATOM      5  C   UNL d   1       0.313  -1.262   0.068  0.00  0.00     0.018 C 
ENDROOT
BRANCH   1   6
ATOM      6  N   UNL d   1      -0.099   2.474   0.172  0.00  0.00    -0.302 N 
ATOM      7  C   UNL d   1      -0.088   3.567  -0.645  0.00  0.00     0.325 C 
ATOM      8  N   UNL d   1       0.596   3.511  -1.821  0.00  0.00    -0.309 N 
ATOM      9  O   UNL d   1      -0.833   4.487  -0.319  0.00  0.00    -0.247 OA
ATOM     10  H   UNL d   1       1.169   2.710  -2.028  0.00  0.00     0.170 HD
ATOM     11  H   UNL d   1      -0.951   2.504   0.723  0.00  0.00     0.171 HD
BRANCH   8  12
ATOM     12  C   UNL d   1       0.622   4.584  -2.736  0.00  0.00     0.036 A 
ATOM     13  C   UNL d   1       0.786   5.893  -2.278  0.00  0.00     0.030 A 
ATOM     14  C   UNL d   1       0.742   6.962  -3.166  0.00  0.00     0.009 A 
ATOM     15  C   UNL d   1       0.503   6.738  -4.525  0.00  0.00    -0.062 A 
ATOM     16  C   UNL d   1       0.357   5.422  -4.984  0.00  0.00     0.009 A 
ATOM     17  C   UNL d   1       0.307   7.908  -5.443  0.00  0.00     0.048 C 
ATOM     18  C   UNL d   1       0.452   4.341  -4.098  0.00  0.00     0.030 A 
ENDBRANCH   8  12
ENDBRANCH   1   6
BRANCH   2  19
ATOM     19  C   UNL d   1       2.985   1.347  -0.351  0.00  0.00     0.296 C 
ATOM     20  O   UNL d   1       4.049   0.788  -0.105  0.00  0.00    -0.259 OA
BRANCH  19  21
ATOM     21  O   UNL d   1       2.876   2.573  -0.895  0.00  0.00    -0.318 OA
BRANCH  21  22
ATOM     22  C   UNL d   1       4.095   3.278  -1.196  0.00  0.00     0.174 C 
ATOM     23  C   UNL d   1       4.488   3.041  -2.643  0.00  0.00     0.034 C 
ENDBRANCH  21  22
ENDBRANCH  19  21
ENDBRANCH   2  19
BRANCH   5  24
ATOM     24  C   UNL d   1      -0.172  -2.664   0.030  0.00  0.00    -0.019 A 
ATOM     25  C   UNL d   1       0.701  -3.698  -0.351  0.00  0.00     0.013 A 
ATOM     26  C   UNL d   1       0.261  -5.022  -0.464  0.00  0.00     0.001 A 
ATOM     27  C   UNL d   1      -1.065  -5.343  -0.197  0.00  0.00     0.000 A 
ATOM     28  C   UNL d   1      -1.947  -4.343   0.193  0.00  0.00     0.001 A 
ATOM     29  C   UNL d   1      -1.504  -3.020   0.308  0.00  0.00     0.013 A 
ENDBRANCH   5  24
TORSDOF 6
