REMARK  5 active torsions:
REMARK  status: ('A' for Active; 'I' for Inactive)
REMARK    1  A    between atoms: C_7  and  C_1 
REMARK    2  A    between atoms: C_9  and  C_2 
REMARK    3  A    between atoms: C_8  and  C_11 
REMARK    4  A    between atoms: O_20  and  C_9 
REMARK    5  A    between atoms: C_22  and  O_20 
ROOT
ATOM      1  C   UNL d   1       0.626   1.187   0.090  0.00  0.00     0.087 A 
ATOM      2  C   UNL d   1      -0.180  -1.116   0.023  0.00  0.00     0.104 A 
ATOM      3  S   UNL d   1       1.364  -0.364   0.006  0.00  0.00    -0.064 SA
ATOM      4  N   UNL d   1      -0.686   1.159   0.162  0.00  0.00    -0.352 N 
ATOM      5  HN  UNL d   1      -1.276   1.985   0.260  1.00  0.00     0.166 HD
ATOM      6  C   UNL d   1      -1.164  -0.141   0.089  0.00  0.00     0.029 A 
ATOM      7  C   UNL d   1      -2.642  -0.320   0.062  0.00  0.00     0.070 C 
ENDROOT
BRANCH   1   8
ATOM      8  C   UNL d   1       1.442   2.416   0.070  0.00  0.00     0.019 A 
ATOM      9  C   UNL d   1       1.042   3.571  -0.629  0.00  0.00     0.047 A 
ATOM     10  C   UNL d   1       1.822   4.737  -0.592  0.00  0.00     0.041 A 
ATOM     11 CL   UNL d   1      -0.382   3.636  -1.614  0.00  0.00    -0.083 Cl
ATOM     12  C   UNL d   1       3.019   4.783   0.131  0.00  0.00     0.049 A 
ATOM     13  C   UNL d   1       3.433   3.634   0.814  0.00  0.00     0.017 A 
ATOM     14  C   UNL d   1       2.653   2.473   0.788  0.00  0.00     0.017 A 
BRANCH  12  15
ATOM     15  C   UNL d   1       3.859   6.036   0.182  0.00  0.00     0.417 C 
ATOM     16  F   UNL d   1       3.325   7.079  -0.511  0.00  0.00    -0.166 F 
ATOM     17  F   UNL d   1       4.040   6.486   1.454  0.00  0.00    -0.166 F 
ATOM     18  F   UNL d   1       5.106   5.846  -0.330  0.00  0.00    -0.166 F 
ENDBRANCH  12  15
ENDBRANCH   1   8
BRANCH   2  19
ATOM     19  C   UNL d   1      -0.257  -2.555  -0.089  0.00  0.00     0.302 C 
ATOM     20  O   UNL d   1       0.692  -3.323  -0.186  0.00  0.00    -0.259 OA
BRANCH  19  21
ATOM     21  O   UNL d   1      -1.561  -2.947  -0.150  0.00  0.00    -0.317 OA
BRANCH  21  22
ATOM     22  C   UNL d   1      -1.793  -4.266  -0.658  0.00  0.00     0.174 C 
ATOM     23  C   UNL d   1      -1.859  -4.186  -2.172  0.00  0.00     0.034 C 
ENDBRANCH  21  22
ENDBRANCH  19  21
ENDBRANCH   2  19
TORSDOF 5
