REMARK  6 active torsions:
REMARK  status: ('A' for Active; 'I' for Inactive)
REMARK    1  A    between atoms: N_2  and  C_1 
REMARK    2  A    between atoms: N_3  and  C_1 
REMARK    3  A    between atoms: C_5  and  N_2 
REMARK    4  A    between atoms: C_6  and  N_3 
REMARK    5  A    between atoms: S_8  and  C_7 
REMARK    6  A    between atoms: O_18  and  C_9 
ROOT
ATOM      1  C   UNL d   1       1.109  -0.117  -0.065  0.00  0.00     0.176 C 
ATOM      2  S   UNL d   1       2.745  -0.168  -0.424  0.00  0.00    -0.041 SA
ENDROOT
BRANCH   1   3
ATOM      3  N   UNL d   1       0.561   0.094   1.173  0.00  0.00    -0.333 N 
ATOM      4  H   UNL d   1      -0.185  -0.551   1.405  0.00  0.00     0.168 HD
BRANCH   3   5
ATOM      5  C   UNL d   1       1.030   0.920   2.212  0.00  0.00     0.034 A 
ATOM      6  C   UNL d   1       1.787   2.066   1.968  0.00  0.00     0.032 A 
ATOM      7  C   UNL d   1       2.193   2.890   3.022  0.00  0.00     0.039 A 
ATOM      8  C   UNL d   1       1.849   2.567   4.333  0.00  0.00     0.068 A 
ATOM      9  C   UNL d   1       1.047   1.452   4.575  0.00  0.00     0.039 A 
ATOM     10  C   UNL d   1       0.630   0.634   3.520  0.00  0.00     0.032 A 
BRANCH   8  11
ATOM     11  O   UNL d   1       2.207   3.290   5.436  0.00  0.00    -0.356 OA
ATOM     12  C   UNL d   1       3.429   4.012   5.314  0.00  0.00     0.210 C 
ENDBRANCH   8  11
ENDBRANCH   3   5
ENDBRANCH   1   3
BRANCH   1  13
ATOM     13  N   UNL d   1       0.242  -0.440  -1.075  0.00  0.00    -0.333 N 
ATOM     14  H   UNL d   1       0.716  -0.819  -1.889  0.00  0.00     0.168 HD
BRANCH  13  15
ATOM     15  C   UNL d   1      -1.127  -0.147  -1.247  0.00  0.00     0.034 A 
ATOM     16  C   UNL d   1      -1.860   0.702  -0.417  0.00  0.00     0.031 A 
ATOM     17  C   UNL d   1      -3.205   0.983  -0.691  0.00  0.00     0.021 A 
ATOM     18  C   UNL d   1      -3.843   0.420  -1.797  0.00  0.00    -0.000 A 
ATOM     19  C   UNL d   1      -3.099  -0.404  -2.647  0.00  0.00     0.021 A 
ATOM     20  C   UNL d   1      -1.753  -0.685  -2.374  0.00  0.00     0.031 A 
BRANCH  18  21
ATOM     21  S   UNL d   1      -5.543   0.756  -2.223  0.00  0.00    -0.134 SA
ATOM     22  C   UNL d   1      -6.313   0.890  -0.586  0.00  0.00     0.095 C 
ENDBRANCH  18  21
ENDBRANCH  13  15
ENDBRANCH   1  13
TORSDOF 6
