REMARK  7 active torsions:
REMARK  status: ('A' for Active; 'I' for Inactive)
REMARK    1  A    between atoms: C_2  and  S_1 
REMARK    2  A    between atoms: N_12  and  S_1 
REMARK    3  A    between atoms: C_3  and  C_4 
REMARK    4  A    between atoms: C_16  and  C_5 
REMARK    5  A    between atoms: C_15  and  C_6 
REMARK    6  A    between atoms: O_25  and  C_15 
REMARK    7  A    between atoms: O_24  and  C_16 
ROOT
ATOM      1  C   UNL d   1       0.664  -5.315  -0.813  0.00  0.00     0.011 A 
ATOM      2  C   UNL d   1       1.275  -6.055  -1.856  0.00  0.00     0.073 A 
ATOM      3  C   UNL d   1       0.353  -5.995   0.388  0.00  0.00     0.073 A 
ATOM      4  N   UNL d   1       1.259  -8.045  -0.495  0.00  0.00    -0.362 N 
ATOM      5  HN  UNL d   1       1.466  -9.038  -0.383  1.00  0.00     0.165 HD
ATOM      6  C   UNL d   1       0.697  -7.347   0.520  0.00  0.00     0.022 A 
ATOM      7  C   UNL d   1       1.545  -7.414  -1.662  0.00  0.00     0.022 A 
ATOM      8  C   UNL d   1       0.517  -8.122   1.793  0.00  0.00     0.069 C 
ATOM      9  C   UNL d   1       2.207  -8.304  -2.675  0.00  0.00     0.069 C 
ENDROOT
BRANCH   1  10
ATOM     10  C   UNL d   1       0.376  -3.874  -0.941  0.00  0.00    -0.015 A 
ATOM     11  C   UNL d   1      -0.859  -3.206  -0.647  0.00  0.00     0.045 A 
ATOM     12  C   UNL d   1      -0.771  -1.831  -0.754  0.00  0.00     0.116 A 
ATOM     13  S   UNL d   1       0.765  -1.345  -1.315  0.00  0.00    -0.088 SA
ATOM     14  C   UNL d   1       1.342  -2.957  -1.317  0.00  0.00     0.063 A 
BRANCH  12  15
ATOM     15  S   UNL d   1      -1.939  -0.535  -0.415  0.00  0.00     0.250 S 
ATOM     16  O   UNL d   1      -3.022  -1.193   0.278  0.00  0.00    -0.205 OA
ATOM     17  O   UNL d   1      -2.158   0.117  -1.690  0.00  0.00    -0.205 OA
BRANCH  15  18
ATOM     18  N   UNL d   1      -1.221   0.581   0.648  0.00  0.00    -0.202 NA
ATOM     19  C   UNL d   1      -0.932   0.098   2.036  0.00  0.00     0.134 C 
ATOM     20  C   UNL d   1      -2.165   0.200   2.946  0.00  0.00     0.183 C 
ATOM     21  O   UNL d   1      -2.723   1.522   2.942  0.00  0.00    -0.389 OA
ATOM     22  C   UNL d   1      -3.094   1.914   1.612  0.00  0.00     0.183 C 
ATOM     23  C   UNL d   1      -1.869   1.927   0.695  0.00  0.00     0.134 C 
ENDBRANCH  15  18
ENDBRANCH  12  15
ENDBRANCH   1  10
BRANCH   2  24
ATOM     24  C   UNL d   1       1.721  -5.427  -3.115  0.00  0.00     0.295 C 
ATOM     25  O   UNL d   1       2.880  -5.458  -3.496  0.00  0.00    -0.259 OA
BRANCH  24  26
ATOM     26  O   UNL d   1       0.679  -4.835  -3.744  0.00  0.00    -0.322 OA
ATOM     27  C   UNL d   1       1.067  -4.071  -4.890  0.00  0.00     0.213 C 
ENDBRANCH  24  26
ENDBRANCH   2  24
BRANCH   3  28
ATOM     28  C   UNL d   1      -0.239  -5.299   1.552  0.00  0.00     0.295 C 
ATOM     29  O   UNL d   1       0.225  -4.303   2.079  0.00  0.00    -0.259 OA
BRANCH  28  30
ATOM     30  O   UNL d   1      -1.381  -5.942   1.901  0.00  0.00    -0.322 OA
ATOM     31  C   UNL d   1      -2.027  -5.425   3.068  0.00  0.00     0.213 C 
ENDBRANCH  28  30
ENDBRANCH   3  28
TORSDOF 7
