REMARK  10 active torsions:
REMARK  status: ('A' for Active; 'I' for Inactive)
REMARK    1  A    between atoms: C_11  and  C_5 
REMARK    2  A    between atoms: C_12  and  C_6 
REMARK    3  A    between atoms: N_14  and  C_7 
REMARK    4  A    between atoms: C_8  and  N_13 
REMARK    5  A    between atoms: C_19  and  C_9 
REMARK    6  A    between atoms: C_20  and  C_10 
REMARK    7  A    between atoms: O_36  and  C_19 
REMARK    8  A    between atoms: O_35  and  C_20 
REMARK    9  A    between atoms: C_38  and  O_35 
REMARK   10  A    between atoms: C_37  and  O_36 
ROOT
ATOM      1  N   UNL d   1       0.933   5.446   0.106  0.00  0.00    -0.214 N 
ATOM      2  N   UNL d   1       0.197   2.715  -0.121  0.00  0.00    -0.214 N 
ATOM      3  C   UNL d   1       1.510   3.174  -0.616  0.00  0.00     0.161 C 
ATOM      4  C   UNL d   1      -0.392   5.035   0.585  0.00  0.00     0.161 C 
ATOM      5  C   UNL d   1       1.445   4.660  -1.020  0.00  0.00     0.161 C 
ATOM      6  C   UNL d   1      -0.366   3.534   0.971  0.00  0.00     0.161 C 
ENDROOT
BRANCH   1   7
ATOM      7  C   UNL d   1       1.355   6.740   0.262  0.00  0.00     0.680 A 
ATOM      8  N   UNL d   1       0.705   7.546   1.109  0.00  0.00    -0.185 N 
ATOM      9  C   UNL d   1       1.187   8.805   1.373  0.00  0.00     0.150 A 
ATOM     10  HN  UNL d   1      -0.151   7.225   1.561  1.00  0.00     0.184 HD
ATOM     11  C   UNL d   1       2.341   9.268   0.767  0.00  0.00     0.087 A 
ATOM     12  C   UNL d   1       2.936   8.374  -0.098  0.00  0.00     0.126 A 
ATOM     13  N   UNL d   1       2.465   7.136  -0.360  0.00  0.00    -0.201 N 
ATOM     14  HN  UNL d   1       2.946   6.520  -1.017  1.00  0.00     0.183 HD
BRANCH   9  15
ATOM     15  C   UNL d   1       0.407   9.611   2.388  0.00  0.00     0.434 C 
ATOM     16  F   UNL d   1      -0.674   8.944   2.888  0.00  0.00    -0.165 F 
ATOM     17  F   UNL d   1       1.145   9.948   3.485  0.00  0.00    -0.165 F 
ATOM     18  F   UNL d   1      -0.104  10.771   1.884  0.00  0.00    -0.165 F 
ENDBRANCH   9  15
BRANCH  11  19
ATOM     19  C   UNL d   1       3.023  10.565   0.918  0.00  0.00     0.296 C 
ATOM     20  O   UNL d   1       4.090  10.809   0.369  0.00  0.00    -0.259 OA
BRANCH  19  21
ATOM     21  O   UNL d   1       2.330  11.434   1.684  0.00  0.00    -0.318 OA
BRANCH  21  22
ATOM     22  C   UNL d   1       2.913  12.743   1.828  0.00  0.00     0.174 C 
ATOM     23  C   UNL d   1       2.528  13.620   0.650  0.00  0.00     0.034 C 
ENDBRANCH  21  22
ENDBRANCH  19  21
ENDBRANCH  11  19
ENDBRANCH   1   7
BRANCH   2  24
ATOM     24  C   UNL d   1       0.081   1.345   0.036  0.00  0.00     0.680 A 
ATOM     25  N   UNL d   1       0.875   0.543  -0.690  0.00  0.00    -0.185 N 
ATOM     26  C   UNL d   1       0.724  -0.818  -0.641  0.00  0.00     0.150 A 
ATOM     27  HN  UNL d   1       1.598   0.951  -1.283  1.00  0.00     0.184 HD
ATOM     28  C   UNL d   1      -0.246  -1.397   0.153  0.00  0.00     0.087 A 
ATOM     29  C   UNL d   1      -1.005  -0.500   0.881  0.00  0.00     0.126 A 
ATOM     30  N   UNL d   1      -0.860   0.844   0.839  0.00  0.00    -0.201 N 
ATOM     31  HN  UNL d   1      -1.451   1.455   1.403  1.00  0.00     0.183 HD
BRANCH  26  32
ATOM     32  C   UNL d   1       1.684  -1.612  -1.499  0.00  0.00     0.434 C 
ATOM     33  F   UNL d   1       2.571  -0.823  -2.180  0.00  0.00    -0.165 F 
ATOM     34  F   UNL d   1       2.465  -2.468  -0.779  0.00  0.00    -0.165 F 
ATOM     35  F   UNL d   1       1.070  -2.352  -2.466  0.00  0.00    -0.165 F 
ENDBRANCH  26  32
BRANCH  28  36
ATOM     36  C   UNL d   1      -0.583  -2.826   0.318  0.00  0.00     0.296 C 
ATOM     37  O   UNL d   1      -1.446  -3.207   1.090  0.00  0.00    -0.259 OA
BRANCH  36  38
ATOM     38  O   UNL d   1       0.143  -3.620  -0.494  0.00  0.00    -0.318 OA
BRANCH  38  39
ATOM     39  C   UNL d   1      -0.149  -5.028  -0.429  0.00  0.00     0.174 C 
ATOM     40  C   UNL d   1      -1.330  -5.364  -1.322  0.00  0.00     0.034 C 
ENDBRANCH  38  39
ENDBRANCH  36  38
ENDBRANCH  28  36
ENDBRANCH   2  24
TORSDOF 10
