REMARK  3 active torsions:
REMARK  status: ('A' for Active; 'I' for Inactive)
REMARK    1  A    between atoms: N_7  and  N_1 
REMARK    2  A    between atoms: C_9  and  C_2 
REMARK    3  A    between atoms: C_14  and  C_11 
ROOT
ATOM      1  N   UNL d   1       0.912  -0.755  -0.036  0.00  0.00    -0.211 N 
ATOM      2  C   UNL d   1       0.945   0.617   0.028  0.00  0.00     0.154 A 
ATOM      3  C   UNL d   1      -0.431  -1.092   0.043  0.00  0.00     0.214 A 
ATOM      4  N   UNL d   1      -0.235   1.177   0.069  0.00  0.00    -0.281 N 
ATOM      5  HN  UNL d   1      -0.453   2.173   0.114  1.00  0.00     0.188 HD
ATOM      6  N   UNL d   1      -1.114   0.127   0.038  0.00  0.00    -0.273 N 
ATOM      7  S   UNL d   1      -1.210  -2.552   0.181  0.00  0.00    -0.037 SA
ATOM      8  H   UNL d   1      -2.113   0.259   0.136  0.00  0.00     0.189 HD
ENDROOT
BRANCH   1   9
ATOM      9  N   UNL d   1       2.016  -1.533   0.154  0.00  0.00    -0.300 N 
ATOM     10  C   UNL d   1       2.083  -2.662  -0.474  0.00  0.00     0.120 C 
ATOM     11  HN  UNL d   1       2.768  -1.233   0.774  1.00  0.00     0.186 HD
BRANCH  10  12
ATOM     12  C   UNL d   1       3.280  -3.514  -0.369  0.00  0.00    -0.004 A 
ATOM     13  C   UNL d   1       3.310  -4.729  -1.036  0.00  0.00     0.100 A 
ATOM     14  N   UNL d   1       4.387  -5.551  -1.047  0.00  0.00    -0.374 N 
ATOM     15  C   UNL d   1       5.476  -5.138  -0.360  0.00  0.00     0.087 A 
ATOM     16  HN  UNL d   1       4.376  -6.439  -1.549  1.00  0.00     0.164 HD
ATOM     17  C   UNL d   1       5.538  -3.942   0.338  0.00  0.00     0.018 A 
ATOM     18  C   UNL d   1       4.418  -3.114   0.334  0.00  0.00     0.015 A 
ENDBRANCH  10  12
ENDBRANCH   1   9
BRANCH   2  19
ATOM     19  C   UNL d   1       2.212   1.381   0.050  0.00  0.00     0.011 A 
ATOM     20  C   UNL d   1       3.349   0.943  -0.643  0.00  0.00     0.017 A 
ATOM     21  C   UNL d   1       4.539   1.670  -0.579  0.00  0.00     0.025 A 
ATOM     22  C   UNL d   1       4.587   2.852   0.155  0.00  0.00     0.034 A 
ATOM     23  C   UNL d   1       3.452   3.319   0.817  0.00  0.00     0.025 A 
ATOM     24 CL   UNL d   1       6.058   3.739   0.240  0.00  0.00    -0.084 Cl
ATOM     25  C   UNL d   1       2.261   2.587   0.761  0.00  0.00     0.017 A 
ENDBRANCH   2  19
TORSDOF 3
