REMARK  5 active torsions:
REMARK  status: ('A' for Active; 'I' for Inactive)
REMARK    1  A    between atoms: C_6  and  C_1 
REMARK    2  A    between atoms: C_11  and  N_2 
REMARK    3  A    between atoms: C_10  and  C_3 
REMARK    4  A    between atoms: N_8  and  C_9 
REMARK    5  A    between atoms: O_15  and  C_10 
ROOT
ATOM      1  C   UNL d   1      -0.254  -1.181  -0.013  0.00  0.00     0.088 A 
ATOM      2  N   UNL d   1       1.024  -0.598  -0.087  0.00  0.00    -0.254 N 
ATOM      3  C   UNL d   1      -1.135  -0.093   0.042  0.00  0.00     0.090 A 
ATOM      4  N   UNL d   1       0.973   0.752   0.029  0.00  0.00    -0.297 N 
ATOM      5  HN  UNL d   1       1.763   1.395   0.091  1.00  0.00     0.187 HD
ATOM      6  C   UNL d   1      -0.318   1.064   0.044  0.00  0.00     0.042 A 
ATOM      7  C   UNL d   1      -0.693   2.501   0.132  0.00  0.00     0.071 C 
ENDROOT
BRANCH   1   8
ATOM      8  C   UNL d   1      -0.518  -2.643   0.103  0.00  0.00     0.027 A 
ATOM      9  C   UNL d   1      -1.492  -3.376  -0.611  0.00  0.00     0.115 A 
ATOM     10  C   UNL d   1      -1.611  -4.776  -0.480  0.00  0.00     0.037 A 
ATOM     11  C   UNL d   1      -0.750  -5.476   0.357  0.00  0.00     0.002 A 
ATOM     12  C   UNL d   1       0.190  -4.779   1.103  0.00  0.00     0.001 A 
ATOM     13  C   UNL d   1       0.277  -3.385   1.004  0.00  0.00     0.016 A 
BRANCH   9  14
ATOM     14  N   UNL d   1      -2.400  -2.756  -1.568  0.00  0.00    -0.115 N 
ATOM     15  O   UNL d   1      -1.930  -1.900  -2.335  0.00  0.00    -0.532 OA
ATOM     16  O   UNL d   1      -3.572  -3.154  -1.589  0.00  0.00    -0.532 OA
ENDBRANCH   9  14
ENDBRANCH   1   8
BRANCH   2  17
ATOM     17  C   UNL d   1       2.310  -1.201  -0.211  0.00  0.00     0.057 A 
ATOM     18  C   UNL d   1       2.508  -2.382  -0.935  0.00  0.00     0.031 A 
ATOM     19  C   UNL d   1       3.773  -2.977  -0.960  0.00  0.00     0.002 A 
ATOM     20  C   UNL d   1       4.839  -2.394  -0.273  0.00  0.00     0.000 A 
ATOM     21  C   UNL d   1       4.655  -1.199   0.418  0.00  0.00     0.002 A 
ATOM     22  C   UNL d   1       3.399  -0.592   0.435  0.00  0.00     0.031 A 
ENDBRANCH   2  17
BRANCH   3  23
ATOM     23  C   UNL d   1      -2.578  -0.143   0.168  0.00  0.00     0.180 C 
ATOM     24  O   UNL d   1      -3.159  -0.913   0.917  0.00  0.00    -0.646 OA
BRANCH  23  25
ATOM     25  O   UNL d   1      -3.242   0.709  -0.652  0.00  0.00    -0.773 OA
ATOM     26  H   UNL d   1      -2.666   1.079  -1.348  0.00  0.00     0.167 HD
ENDBRANCH  23  25
ENDBRANCH   3  23
TORSDOF 5
