REMARK  4 active torsions:
REMARK  status: ('A' for Active; 'I' for Inactive)
REMARK    1  A    between atoms: C_3  and  C_1 
REMARK    2  A    between atoms: C_8  and  C_1 
REMARK    3  A    between atoms: C_11  and  C_2 
REMARK    4  A    between atoms: N_4  and  C_3 
ROOT
ATOM      1  C   UNL d   1       0.920   0.047   0.038  0.00  0.00     0.054 C 
ATOM      2  C   UNL d   1       0.269  -1.138   0.064  0.00  0.00     0.035 C 
ENDROOT
BRANCH   1   3
ATOM      3  C   UNL d   1       2.440   0.047   0.038  0.00  0.00    -0.035 C 
BRANCH   3   4
ATOM      4  N   UNL d   1       3.701   0.047   0.038  0.00  0.00    -0.365 N 
ATOM      5  HN2 UNL d   1       2.681   0.047   0.038  1.00  0.00     0.165 HD
ATOM      6  HN1 UNL d   1       4.721   0.047   0.038  1.00  0.00     0.165 HD
ENDBRANCH   3   4
ENDBRANCH   1   3
BRANCH   1   7
ATOM      7  C   UNL d   1       0.205   1.347   0.032  0.00  0.00     0.051 A 
ATOM      8  N   UNL d   1      -1.153   1.294   0.050  0.00  0.00    -0.365 N 
ATOM      9  C   UNL d   1      -1.834   2.462   0.058  0.00  0.00     0.088 A 
ATOM     10  HN  UNL d   1      -1.643   0.400   0.058  1.00  0.00     0.165 HD
ATOM     11  C   UNL d   1      -1.232   3.706   0.049  0.00  0.00     0.017 A 
ATOM     12  C   UNL d   1       0.154   3.757   0.029  0.00  0.00     0.004 A 
ATOM     13  C   UNL d   1       0.883   2.568   0.020  0.00  0.00     0.031 A 
ENDBRANCH   1   7
BRANCH   2  14
ATOM     14  C   UNL d   1       0.943  -2.444   0.091  0.00  0.00    -0.032 A 
ATOM     15  C   UNL d   1       1.277  -3.087  -1.109  0.00  0.00     0.051 A 
ATOM     16  C   UNL d   1       1.965  -4.281  -1.032  0.00  0.00     0.105 A 
ATOM     17  O   UNL d   1       2.380  -5.030  -2.089  0.00  0.00    -0.323 OA
ATOM     18  C   UNL d   1       2.317  -4.841   0.174  0.00  0.00     0.105 A 
ATOM     19  C   UNL d   1       3.062  -6.106  -1.411  0.00  0.00     0.352 A 
ATOM     20  O   UNL d   1       2.998  -6.008   0.028  0.00  0.00    -0.323 OA
ATOM     21  C   UNL d   1       1.996  -4.240   1.372  0.00  0.00     0.040 A 
ATOM     22  C   UNL d   1       1.301  -3.026   1.327  0.00  0.00     0.014 A 
ENDBRANCH   2  14
TORSDOF 4
