REMARK  2 active torsions:
REMARK  status: ('A' for Active; 'I' for Inactive)
REMARK    1  A    between atoms: C_4  and  C_1 
REMARK       I    between atoms: N_7  and  C_4 
REMARK    2  A    between atoms: C_13  and  N_7 
ROOT
ATOM      1  C   UNL d   1      -4.690  -1.776   0.734  0.00  0.00     0.274 C 
ATOM      2  N   UNL d   1      -3.911  -0.862   0.046  0.00  0.00    -0.322 N 
ATOM      3  O   UNL d   1      -5.754  -1.530   1.297  0.00  0.00    -0.266 OA
ATOM      4  H   UNL d   1      -3.128  -1.253  -0.470  0.00  0.00     0.169 HD
ENDROOT
BRANCH   2   5
ATOM      5  C   UNL d   1      -4.104   0.537   0.002  0.00  0.00     0.035 A 
ATOM      6  C   UNL d   1      -5.016   1.200   0.834  0.00  0.00     0.043 A 
ATOM      7  C   UNL d   1      -5.132   2.602   0.789  0.00  0.00    -0.006 A 
ATOM      8  C   UNL d   1      -5.921   3.544   1.503  0.00  0.00     0.030 A 
ATOM      9  C   UNL d   1      -4.336   3.314  -0.104  0.00  0.00     0.042 A 
ATOM     10  C   UNL d   1      -5.595   4.797   1.037  0.00  0.00     0.089 A 
ATOM     11  N   UNL d   1      -4.645   4.646   0.061  0.00  0.00    -0.365 N 
ATOM     12  H   UNL d   1      -4.218   5.404  -0.455  0.00  0.00     0.165 HD
ATOM     13  C   UNL d   1      -3.428   2.684  -0.963  0.00  0.00     0.033 A 
ATOM     14  C   UNL d   1      -3.320   1.286  -0.883  0.00  0.00     0.032 A 
ENDBRANCH   2   5
BRANCH   1  15
ATOM     15  C   UNL d   1      -4.163  -3.142   0.751  0.00  0.00     0.125 A 
ATOM     16  N   UNL d   1      -2.996  -3.497   0.185  0.00  0.00    -0.256 N 
ATOM     17  O   UNL d   1      -2.847  -4.852   0.457  0.00  0.00    -0.242 OA
ATOM     18  HN  UNL d   1      -2.354  -2.897  -0.334  1.00  0.00     0.195 HD
ATOM     19  C   UNL d   1      -3.917  -5.295   1.170  0.00  0.00     0.075 A 
ATOM     20  C   UNL d   1      -4.781  -4.254   1.376  0.00  0.00     0.071 A 
ATOM     21  C   UNL d   1      -3.936  -6.717   1.554  0.00  0.00     0.079 C 
ENDBRANCH   1  15
TORSDOF 2
