REMARK  3 active torsions:
REMARK  status: ('A' for Active; 'I' for Inactive)
REMARK    1  A    between atoms: C_7  and  C_10 
REMARK    2  A    between atoms: C_18  and  N_11 
REMARK    3  A    between atoms: C_15  and  C_12 
ROOT
ATOM      1  C   UNL d   1       1.988  -3.151   0.445  0.00  0.00     0.011 A 
ATOM      2  N   UNL d   1       3.968  -4.139  -0.037  0.00  0.00    -0.293 N 
ATOM      3  HN  UNL d   1       4.703  -4.686  -0.486  1.00  0.00     0.187 HD
ATOM      4  N   UNL d   1       4.079  -3.378   1.085  0.00  0.00    -0.266 N 
ATOM      5  C   UNL d   1       2.688  -4.021  -0.431  0.00  0.00     0.070 A 
ATOM      6  C   UNL d   1       2.873  -2.821   1.439  0.00  0.00     0.130 A 
ENDROOT
BRANCH   1   7
ATOM      7  C   UNL d   1       0.675  -2.613   0.348  0.00  0.00     0.038 C 
ATOM      8  C   UNL d   1       0.356  -1.435  -0.225  0.00  0.00     0.101 C 
ATOM      9  C   UNL d   1      -1.057  -1.012  -0.176  0.00  0.00     0.267 C 
ATOM     10  C   UNL d   1       1.366  -0.549  -0.844  0.00  0.00     0.267 C 
ATOM     11  N   UNL d   1      -1.280   0.309  -0.503  0.00  0.00    -0.270 N 
ATOM     12  O   UNL d   1      -1.944  -1.801   0.145  0.00  0.00    -0.267 OA
ATOM     13  C   UNL d   1      -2.647   0.808  -0.464  0.00  0.00     0.164 C 
ATOM     14  C   UNL d   1      -0.298   1.242  -0.805  0.00  0.00     0.333 C 
ATOM     15  N   UNL d   1       1.002   0.779  -0.905  0.00  0.00    -0.270 N 
ATOM     16  O   UNL d   1      -0.575   2.428  -0.995  0.00  0.00    -0.246 OA
ATOM     17  C   UNL d   1       2.015   1.737  -1.314  0.00  0.00     0.164 C 
ATOM     18  O   UNL d   1       2.434  -0.968  -1.279  0.00  0.00    -0.267 OA
ENDBRANCH   1   7
BRANCH   5  19
ATOM     19  C   UNL d   1       2.181  -4.728  -1.614  0.00  0.00    -0.007 A 
ATOM     20  C   UNL d   1       0.856  -5.192  -1.659  0.00  0.00     0.015 A 
ATOM     21  C   UNL d   1       0.382  -5.907  -2.762  0.00  0.00     0.024 A 
ATOM     22  C   UNL d   1       1.234  -6.175  -3.828  0.00  0.00     0.034 A 
ATOM     23  C   UNL d   1       2.549  -5.715  -3.810  0.00  0.00     0.024 A 
ATOM     24 CL   UNL d   1       0.662  -7.097  -5.163  0.00  0.00    -0.084 Cl
ATOM     25  C   UNL d   1       3.020  -4.992  -2.707  0.00  0.00     0.015 A 
ENDBRANCH   5  19
BRANCH   4  26
ATOM     26  C   UNL d   1       5.322  -3.228   1.763  0.00  0.00     0.056 A 
ATOM     27  C   UNL d   1       5.394  -2.562   2.997  0.00  0.00     0.031 A 
ATOM     28  C   UNL d   1       6.618  -2.441   3.659  0.00  0.00     0.002 A 
ATOM     29  C   UNL d   1       7.776  -2.967   3.092  0.00  0.00     0.000 A 
ATOM     30  C   UNL d   1       7.715  -3.614   1.859  0.00  0.00     0.002 A 
ATOM     31  C   UNL d   1       6.493  -3.749   1.194  0.00  0.00     0.031 A 
ENDBRANCH   4  26
TORSDOF 3
