REMARK  4 active torsions:
REMARK  status: ('A' for Active; 'I' for Inactive)
REMARK    1  A    between atoms: C_9  and  C_23 
REMARK    2  A    between atoms: C_22  and  C_10 
REMARK    3  A    between atoms: C_28  and  N_11 
REMARK    4  A    between atoms: N_20  and  N_14 
ROOT
ATOM      1  N   UNL d   1       4.802   0.284   0.103  0.00  0.00    -0.301 N 
ATOM      2  HN  UNL d   1       5.098   1.228   0.353  1.00  0.00     0.186 HD
ATOM      3  C   UNL d   1       5.665  -0.665  -0.054  0.00  0.00     0.123 C 
ENDROOT
BRANCH   1   4
ATOM      4  N   UNL d   1       3.459  -0.023  -0.078  0.00  0.00    -0.215 N 
ATOM      5  C   UNL d   1       2.991  -0.999  -0.978  0.00  0.00     0.286 A 
ATOM      6  C   UNL d   1       1.557  -1.078  -0.981  0.00  0.00     0.104 A 
ATOM      7  O   UNL d   1       3.712  -1.681  -1.705  0.00  0.00    -0.265 OA
ATOM      8  C   UNL d   1       0.749  -0.246  -0.255  0.00  0.00     0.069 A 
ATOM      9  S   UNL d   1       0.680  -2.195  -1.897  0.00  0.00    -0.064 SA
ATOM     10  C   UNL d   1      -0.650  -0.491  -0.446  0.00  0.00     0.032 A 
ATOM     11  N   UNL d   1       1.274   0.762   0.570  0.00  0.00    -0.349 N 
ATOM     12  C   UNL d   1      -1.842   0.096   0.057  0.00  0.00    -0.045 A 
ATOM     13  C   UNL d   1      -0.801  -1.552  -1.341  0.00  0.00     0.088 A 
ATOM     14  C   UNL d   1      -3.058  -0.442  -0.403  0.00  0.00     0.032 A 
ATOM     15  C   UNL d   1      -1.906   1.243   1.027  0.00  0.00     0.049 C 
ATOM     16  C   UNL d   1      -3.067  -1.502  -1.302  0.00  0.00     0.006 A 
ATOM     17  N   UNL d   1      -1.957  -2.082  -1.787  0.00  0.00    -0.354 N 
ATOM     18  C   UNL d   1      -4.381  -2.054  -1.779  0.00  0.00     0.068 C 
ATOM     19  HN  UNL d   1      -1.987  -2.863  -2.443  1.00  0.00     0.166 HD
ATOM     20  C   UNL d   1       2.572   0.805   0.598  0.00  0.00     0.211 A 
ATOM     21  HN  UNL d   1       0.687   1.404   1.102  1.00  0.00     0.167 HD
ENDBRANCH   1   4
BRANCH   3  22
ATOM     22  C   UNL d   1       7.072  -0.376   0.105  0.00  0.00     0.028 A 
ATOM     23  C   UNL d   1       8.129  -1.253   0.445  0.00  0.00     0.078 A 
ATOM     24  N   UNL d   1       9.324  -0.649   0.344  0.00  0.00    -0.292 N 
ATOM     25  N   UNL d   1       9.036   0.657   0.067  0.00  0.00    -0.266 N 
ATOM     26  HN  UNL d   1      10.245  -1.073   0.451  1.00  0.00     0.187 HD
ATOM     27  C   UNL d   1       7.684   0.836  -0.118  0.00  0.00     0.132 A 
BRANCH  23  28
ATOM     28  C   UNL d   1       7.984  -2.693   0.874  0.00  0.00     0.034 A 
ATOM     29  S   UNL d   1       6.576  -3.337   1.616  0.00  0.00    -0.100 SA
ATOM     30  C   UNL d   1       7.217  -4.913   1.645  0.00  0.00     0.050 A 
ATOM     31  C   UNL d   1       8.500  -4.953   1.153  0.00  0.00     0.008 A 
ATOM     32  C   UNL d   1       8.962  -3.659   0.746  0.00  0.00     0.021 A 
ENDBRANCH  23  28
BRANCH  25  33
ATOM     33  C   UNL d   1      10.050   1.658  -0.004  0.00  0.00     0.056 A 
ATOM     34  C   UNL d   1       9.725   2.994  -0.292  0.00  0.00     0.031 A 
ATOM     35  C   UNL d   1      10.723   3.972  -0.343  0.00  0.00     0.002 A 
ATOM     36  C   UNL d   1      12.050   3.628  -0.109  0.00  0.00     0.000 A 
ATOM     37  C   UNL d   1      12.384   2.304   0.178  0.00  0.00     0.002 A 
ATOM     38  C   UNL d   1      11.390   1.319   0.230  0.00  0.00     0.031 A 
ENDBRANCH  25  33
ENDBRANCH   3  22
TORSDOF 4
