REMARK  4 active torsions:
REMARK  status: ('A' for Active; 'I' for Inactive)
REMARK    1  A    between atoms: N_2  and  S_1 
REMARK    2  A    between atoms: C_4  and  S_1 
REMARK    3  A    between atoms: C_13  and  C_3 
REMARK    4  A    between atoms: C_7  and  C_14 
ROOT
ATOM      1  S   UNL d   1       1.411  -0.093  -0.275  0.00  0.00     0.261 S 
ATOM      2  O   UNL d   1       0.538  -1.244  -0.307  0.00  0.00    -0.200 OA
ATOM      3  O   UNL d   1       2.727  -0.210   0.329  0.00  0.00    -0.200 OA
ENDROOT
BRANCH   1   4
ATOM      4  N   UNL d   1       0.630   1.163   0.505  0.00  0.00    -0.298 N 
ATOM      5  C   UNL d   1      -0.744   1.653   0.296  0.00  0.00     0.129 C 
ATOM      6  C   UNL d   1      -0.498   3.077  -0.213  0.00  0.00     0.032 C 
ATOM      7  C   UNL d   1       0.685   3.554   0.619  0.00  0.00     0.023 C 
ATOM      8  C   UNL d   1       1.432   2.288   1.034  0.00  0.00     0.136 C 
BRANCH   5   9
ATOM      9  C   UNL d   1      -1.781   0.819  -0.418  0.00  0.00    -0.035 A 
ATOM     10  C   UNL d   1      -2.194  -0.394   0.171  0.00  0.00     0.012 A 
ATOM     11  C   UNL d   1      -3.225  -1.157  -0.380  0.00  0.00     0.043 A 
ATOM     12  C   UNL d   1      -3.877  -0.699  -1.513  0.00  0.00     0.116 A 
ATOM     13  C   UNL d   1      -3.508   0.501  -2.108  0.00  0.00     0.043 A 
ATOM     14  F   UNL d   1      -4.885  -1.412  -2.032  0.00  0.00    -0.206 F 
ATOM     15  C   UNL d   1      -2.462   1.256  -1.566  0.00  0.00     0.012 A 
ENDBRANCH   5   9
ENDBRANCH   1   4
BRANCH   1  16
ATOM     16  C   UNL d   1       1.720   0.383  -1.969  0.00  0.00     0.079 A 
ATOM     17  C   UNL d   1       2.285   1.617  -2.297  0.00  0.00     0.026 A 
ATOM     18  C   UNL d   1       2.781   1.840  -3.592  0.00  0.00     0.016 A 
ATOM     19  C   UNL d   1       2.745   0.830  -4.568  0.00  0.00    -0.001 A 
ATOM     20  C   UNL d   1       2.109  -0.377  -4.242  0.00  0.00     0.016 A 
ATOM     21  C   UNL d   1       1.597  -0.600  -2.958  0.00  0.00     0.026 A 
BRANCH  19  22
ATOM     22  C   UNL d   1       3.429   1.000  -5.846  0.00  0.00     0.102 A 
ATOM     23  O   UNL d   1       3.473  -0.088  -6.684  0.00  0.00    -0.304 OA
ATOM     24  C   UNL d   1       4.225   0.328  -7.738  0.00  0.00     0.233 A 
ATOM     25  N   UNL d   1       4.652   1.567  -7.665  0.00  0.00    -0.354 N 
ATOM     26  C   UNL d   1       4.154   2.002  -6.461  0.00  0.00     0.127 A 
ATOM     27  HN  UNL d   1       5.217   2.083  -8.339  1.00  0.00     0.166 HD
ENDBRANCH  19  22
ENDBRANCH   1  16
TORSDOF 4
