REMARK  5 active torsions:
REMARK  status: ('A' for Active; 'I' for Inactive)
REMARK    1  A    between atoms: N_2  and  S_1 
REMARK    2  A    between atoms: C_11  and  S_1 
REMARK    3  A    between atoms: C_3  and  N_9 
REMARK    4  A    between atoms: C_4  and  C_5 
REMARK    5  A    between atoms: C_8  and  C_18 
ROOT
ATOM      1  N   UNL d   1       0.355   1.591   0.120  0.00  0.00    -0.304 N 
ATOM      2  N   UNL d   1       0.317   3.894  -1.594  0.00  0.00    -0.363 N 
ATOM      3  C   UNL d   1      -0.785   1.874  -0.788  0.00  0.00     0.155 C 
ATOM      4  C   UNL d   1       1.034   2.840   0.566  0.00  0.00     0.155 C 
ATOM      5  C   UNL d   1      -0.300   2.630  -2.021  0.00  0.00     0.145 C 
ATOM      6  C   UNL d   1       1.399   3.788  -0.611  0.00  0.00     0.145 C 
ENDROOT
BRANCH   1   7
ATOM      7  S   UNL d   1       1.198   0.140  -0.030  0.00  0.00     0.260 S 
ATOM      8  O   UNL d   1       0.285  -0.858  -0.542  0.00  0.00    -0.200 OA
ATOM      9  O   UNL d   1       1.918  -0.076   1.209  0.00  0.00    -0.200 OA
BRANCH   7  10
ATOM     10  C   UNL d   1       2.443   0.407  -1.279  0.00  0.00     0.079 A 
ATOM     11  C   UNL d   1       3.604   1.111  -0.941  0.00  0.00     0.026 A 
ATOM     12  C   UNL d   1       4.599   1.320  -1.896  0.00  0.00     0.018 A 
ATOM     13  C   UNL d   1       4.473   0.782  -3.185  0.00  0.00     0.048 A 
ATOM     14  C   UNL d   1       3.341   0.005  -3.488  0.00  0.00     0.018 A 
ATOM     15  C   UNL d   1       2.328  -0.185  -2.541  0.00  0.00     0.026 A 
BRANCH  13  16
ATOM     16  C   UNL d   1       5.534   1.022  -4.236  0.00  0.00     0.417 C 
ATOM     17  F   UNL d   1       6.559   1.809  -3.804  0.00  0.00    -0.166 F 
ATOM     18  F   UNL d   1       6.107  -0.131  -4.676  0.00  0.00    -0.166 F 
ATOM     19  F   UNL d   1       5.033   1.639  -5.342  0.00  0.00    -0.166 F 
ENDBRANCH  13  16
ENDBRANCH   7  10
ENDBRANCH   1   7
BRANCH   2  20
ATOM     20  C   UNL d   1       0.151   4.937  -2.481  0.00  0.00     0.125 A 
ATOM     21  N   UNL d   1      -1.151   5.166  -2.820  0.00  0.00    -0.350 N 
ATOM     22  C   UNL d   1      -1.461   6.158  -3.680  0.00  0.00     0.106 A 
ATOM     23  HN  UNL d   1      -1.890   4.587  -2.422  1.00  0.00     0.166 HD
ATOM     24  C   UNL d   1      -0.526   6.979  -4.269  0.00  0.00     0.065 A 
ATOM     25  C   UNL d   1       0.813   6.753  -3.940  0.00  0.00     0.045 A 
ATOM     26  C   UNL d   1       1.158   5.734  -3.040  0.00  0.00     0.078 A 
ATOM     27 CL   UNL d   1       2.852   5.491  -2.790  0.00  0.00    -0.080 Cl
BRANCH  24  28
ATOM     28  C   UNL d   1      -0.962   8.041  -5.225  0.00  0.00     0.418 C 
ATOM     29  F   UNL d   1       0.071   8.745  -5.763  0.00  0.00    -0.166 F 
ATOM     30  F   UNL d   1      -1.660   7.538  -6.281  0.00  0.00    -0.166 F 
ATOM     31  F   UNL d   1      -1.778   8.961  -4.642  0.00  0.00    -0.166 F 
ENDBRANCH  24  28
ENDBRANCH   2  20
TORSDOF 5
