REMARK  4 active torsions:
REMARK  status: ('A' for Active; 'I' for Inactive)
REMARK    1  A    between atoms: C_9  and  C_2 
REMARK       I    between atoms: C_5  and  N_8 
REMARK    2  A    between atoms: C_10  and  C_5 
REMARK    3  A    between atoms: N_8  and  C_14 
REMARK    4  A    between atoms: C_14  and  C_15 
ROOT
ATOM      1  C   UNL d   1       2.128  -1.968  -0.163  0.00  0.00    -0.008 A 
ATOM      2  C   UNL d   1       3.223  -1.497  -0.901  0.00  0.00     0.014 A 
ATOM      3  C   UNL d   1       2.252  -3.189   0.513  0.00  0.00     0.014 A 
ATOM      4  C   UNL d   1       4.553  -3.423  -0.243  0.00  0.00    -0.040 A 
ATOM      5  C   UNL d   1       4.423  -2.217  -0.942  0.00  0.00     0.010 A 
ATOM      6  C   UNL d   1       3.450  -3.912   0.469  0.00  0.00     0.010 A 
ENDROOT
BRANCH   4   7
ATOM      7  C   UNL d   1       5.856  -4.176  -0.245  0.00  0.00     0.161 C 
BRANCH   7   8
ATOM      8  N   UNL d   1       5.904  -5.201  -1.262  0.00  0.00    -0.356 N 
ATOM      9  C   UNL d   1       7.018  -6.007  -1.353  0.00  0.00     0.225 C 
ATOM     10  O   UNL d   1       7.920  -5.945  -0.520  0.00  0.00    -0.273 OA
ATOM     11  H   UNL d   1       5.232  -5.168  -2.015  0.00  0.00     0.162 HD
BRANCH   9  12
ATOM     12  C   UNL d   1       7.062  -6.980  -2.546  0.00  0.00     0.030 C 
ATOM     13  C   UNL d   1       7.001  -6.200  -3.868  0.00  0.00     0.024 C 
ATOM     14  C   UNL d   1       8.386  -7.766  -2.503  0.00  0.00     0.024 C 
ATOM     15  C   UNL d   1       5.896  -7.974  -2.467  0.00  0.00     0.024 C 
ENDBRANCH   9  12
ENDBRANCH   7   8
ENDBRANCH   4   7
BRANCH   1  16
ATOM     16  C   UNL d   1       0.896  -1.189  -0.124  0.00  0.00     0.063 A 
ATOM     17  N   UNL d   1       0.546  -0.341  -1.171  0.00  0.00    -0.292 N 
ATOM     18  N   UNL d   1      -0.603   0.276  -0.948  0.00  0.00    -0.061 NA
ATOM     19  HN  UNL d   1       1.108  -0.212  -2.012  1.00  0.00     0.183 HD
ATOM     20  S   UNL d   1      -1.280  -0.126   0.525  0.00  0.00    -0.010 SA
ATOM     21  C   UNL d   1       0.000  -1.194   0.932  0.00  0.00     0.096 A 
ENDBRANCH   1  16
TORSDOF 4
