REMARK  8 active torsions:
REMARK  status: ('A' for Active; 'I' for Inactive)
REMARK    1  A    between atoms: C_4  and  S_1 
REMARK    2  A    between atoms: N_13  and  S_1 
REMARK    3  A    between atoms: S_2  and  C_3 
REMARK    4  A    between atoms: N_14  and  S_2 
REMARK    5  A    between atoms: C_19  and  N_13 
REMARK    6  A    between atoms: C_20  and  N_13 
REMARK    7  A    between atoms: C_21  and  N_14 
REMARK    8  A    between atoms: C_22  and  N_14 
ROOT
ATOM      1  C   UNL d   1      -2.869  -6.305   3.147  0.00  0.00     0.116 A 
ATOM      2  C   UNL d   1       0.341  -2.137  -0.279  0.00  0.00     0.121 A 
ATOM      3  S   UNL d   1      -0.996  -3.174  -0.077  0.00  0.00    -0.075 SA
ATOM      4  S   UNL d   1      -2.847  -5.081   1.958  0.00  0.00    -0.076 SA
ATOM      5  C   UNL d   1      -1.189  -4.720   2.219  0.00  0.00     0.023 A 
ATOM      6  C   UNL d   1      -0.479  -3.709   1.466  0.00  0.00     0.023 A 
ATOM      7  C   UNL d   1      -1.643  -6.396   3.781  0.00  0.00     0.034 A 
ATOM      8  C   UNL d   1       1.147  -2.148   0.843  0.00  0.00     0.034 A 
ATOM      9  C   UNL d   1      -0.672  -5.516   3.224  0.00  0.00     0.022 A 
ATOM     10  C   UNL d   1       0.674  -3.046   1.846  0.00  0.00     0.022 A 
ENDROOT
BRANCH   1  11
ATOM     11  S   UNL d   1      -4.420  -7.163   3.402  0.00  0.00     0.250 S 
ATOM     12  O   UNL d   1      -4.603  -7.116   4.840  0.00  0.00    -0.205 OA
ATOM     13  O   UNL d   1      -5.377  -6.556   2.505  0.00  0.00    -0.205 OA
BRANCH  11  14
ATOM     14  N   UNL d   1      -4.246  -8.849   2.975  0.00  0.00    -0.207 NA
BRANCH  14  15
ATOM     15  C   UNL d   1      -3.072  -9.484   3.668  0.00  0.00     0.103 C 
ATOM     16  C   UNL d   1      -2.778 -10.911   3.228  0.00  0.00     0.021 C 
ENDBRANCH  14  15
BRANCH  14  17
ATOM     17  C   UNL d   1      -5.513  -9.627   3.233  0.00  0.00     0.103 C 
ATOM     18  C   UNL d   1      -6.702  -9.197   2.392  0.00  0.00     0.021 C 
ENDBRANCH  14  17
ENDBRANCH  11  14
ENDBRANCH   1  11
BRANCH   2  19
ATOM     19  S   UNL d   1       0.406  -1.170  -1.773  0.00  0.00     0.267 S 
ATOM     20  O   UNL d   1       1.588  -0.340  -1.587  0.00  0.00    -0.200 OA
ATOM     21  O   UNL d   1      -0.890  -0.554  -1.910  0.00  0.00    -0.200 OA
BRANCH  19  22
ATOM     22  N   UNL d   1       0.707  -2.136  -3.170  0.00  0.00    -0.307 N 
BRANCH  22  23
ATOM     23  C   UNL d   1      -0.173  -3.308  -3.420  0.00  0.00     0.131 C 
ATOM     24  C   UNL d   1      -1.628  -2.973  -3.689  0.00  0.00     0.027 C 
ENDBRANCH  22  23
BRANCH  22  25
ATOM     25  C   UNL d   1       0.988  -1.270  -4.362  0.00  0.00     0.131 C 
ATOM     26  C   UNL d   1       1.314  -2.036  -5.634  0.00  0.00     0.027 C 
ENDBRANCH  22  25
ENDBRANCH  19  22
ENDBRANCH   2  19
TORSDOF 8
