REMARK  3 active torsions:
REMARK  status: ('A' for Active; 'I' for Inactive)
REMARK    1  A    between atoms: C_10  and  C_3 
REMARK       I    between atoms: C_9  and  N_8 
REMARK       I    between atoms: N_13  and  C_9 
REMARK    2  A    between atoms: C_15  and  N_13 
REMARK    3  A    between atoms: O_18  and  C_17 
ROOT
ATOM      1  S   UNL d   1      -1.893   0.626   0.333  0.00  0.00    -0.037 SA
ATOM      2  C   UNL d   1      -0.238   1.022   0.399  0.00  0.00     0.169 A 
ATOM      3  C   UNL d   1      -1.425  -1.004   0.589  0.00  0.00     0.074 A 
ATOM      4  N   UNL d   1      -0.120  -1.178   0.684  0.00  0.00    -0.296 N 
ATOM      5  HN  UNL d   1       0.323  -2.085   0.831  1.00  0.00     0.187 HD
ATOM      6  N   UNL d   1       0.579   0.014   0.562  0.00  0.00    -0.279 N 
ATOM      7  HN  UNL d   1       1.596   0.094   0.596  1.00  0.00     0.189 HD
ATOM      8  N   UNL d   1       0.027   2.351   0.281  0.00  0.00    -0.287 N 
ATOM      9  C   UNL d   1       1.242   2.962   0.239  0.00  0.00     0.326 C 
ATOM     10  N   UNL d   1       2.359   2.173   0.277  0.00  0.00    -0.309 N 
ATOM     11  O   UNL d   1       1.227   4.189   0.144  0.00  0.00    -0.247 OA
ATOM     12  H   UNL d   1      -0.759   2.978   0.203  0.00  0.00     0.172 HD
ATOM     13  H   UNL d   1       2.207   1.186   0.462  0.00  0.00     0.170 HD
ENDROOT
BRANCH  10  14
ATOM     14  C   UNL d   1       3.701   2.578   0.075  0.00  0.00     0.039 A 
ATOM     15  C   UNL d   1       4.077   3.884  -0.267  0.00  0.00     0.066 A 
ATOM     16  C   UNL d   1       5.413   4.203  -0.532  0.00  0.00     0.070 A 
ATOM     17  C   UNL d   1       6.388   3.214  -0.415  0.00  0.00     0.037 A 
ATOM     18  C   UNL d   1       6.034   1.914  -0.054  0.00  0.00     0.005 A 
ATOM     19  C   UNL d   1       4.694   1.597   0.182  0.00  0.00     0.030 A 
BRANCH  16  20
ATOM     20  O   UNL d   1       5.884   5.428  -0.923  0.00  0.00    -0.356 OA
ATOM     21  C   UNL d   1       4.917   6.445  -1.166  0.00  0.00     0.210 C 
ENDBRANCH  16  20
ENDBRANCH  10  14
BRANCH   3  22
ATOM     22  C   UNL d   1      -2.384  -2.191   0.724  0.00  0.00     0.044 A 
ATOM     23  C   UNL d   1      -3.629  -2.275  -0.138  0.00  0.00     0.012 A 
ATOM     24  C   UNL d   1      -3.766  -1.983   1.317  0.00  0.00     0.012 A 
ENDBRANCH   3  22
TORSDOF 3
