REMARK  3 active torsions:
REMARK  status: ('A' for Active; 'I' for Inactive)
REMARK    1  A    between atoms: N_6  and  C_1 
REMARK       I    between atoms: C_9  and  N_6 
REMARK    2  A    between atoms: C_10  and  C_9 
REMARK    3  A    between atoms: O_23  and  C_21 
ROOT
ATOM      1  C   UNL d   1      -3.118   0.848  -0.075  0.00  0.00     0.152 A 
ATOM      2  C   UNL d   1      -0.998   0.231  -0.057  0.00  0.00     0.058 A 
ATOM      3  N   UNL d   1      -1.879   1.302  -0.139  0.00  0.00    -0.335 N 
ATOM      4  HN  UNL d   1      -1.613   2.283  -0.233  1.00  0.00     0.168 HD
ATOM      5  C   UNL d   1      -1.594  -1.005   0.065  0.00  0.00     0.014 A 
ATOM      6  S   UNL d   1      -3.275  -0.854   0.043  0.00  0.00    -0.056 SA
ATOM      7  C   UNL d   1       0.462   0.299  -0.059  0.00  0.00    -0.002 A 
ATOM      8  C   UNL d   1       1.195  -0.907  -0.182  0.00  0.00    -0.043 A 
ATOM      9  C   UNL d   1       1.154   1.502   0.094  0.00  0.00     0.017 A 
ATOM     10  C   UNL d   1      -0.888  -2.300   0.236  0.00  0.00     0.053 C 
ATOM     11  C   UNL d   1       2.595  -0.878  -0.150  0.00  0.00     0.044 A 
ATOM     12  C   UNL d   1       0.488  -2.227  -0.432  0.00  0.00     0.045 C 
ATOM     13  C   UNL d   1       3.282   0.325   0.018  0.00  0.00     0.068 A 
ATOM     14  C   UNL d   1       2.560   1.514   0.136  0.00  0.00     0.037 A 
ENDROOT
BRANCH   1  15
ATOM     15  N   UNL d   1      -4.225   1.670  -0.110  0.00  0.00    -0.302 N 
ATOM     16  C   UNL d   1      -5.541   1.276   0.036  0.00  0.00     0.264 C 
ATOM     17  O   UNL d   1      -5.910   0.121   0.238  0.00  0.00    -0.267 OA
ATOM     18  H   UNL d   1      -4.014   2.652  -0.221  0.00  0.00     0.171 HD
BRANCH  16  19
ATOM     19  C   UNL d   1      -6.549   2.334  -0.048  0.00  0.00     0.072 A 
ATOM     20  S   UNL d   1      -6.181   3.978  -0.341  0.00  0.00    -0.097 SA
ATOM     21  C   UNL d   1      -7.834   4.429  -0.285  0.00  0.00     0.050 A 
ATOM     22  C   UNL d   1      -8.657   3.353  -0.045  0.00  0.00     0.009 A 
ATOM     23  C   UNL d   1      -7.915   2.148   0.092  0.00  0.00     0.025 A 
ENDBRANCH  16  19
ENDBRANCH   1  15
BRANCH  13  24
ATOM     24  O   UNL d   1       4.641   0.186   0.048  0.00  0.00    -0.356 OA
ATOM     25  C   UNL d   1       5.416   1.366   0.199  0.00  0.00     0.210 C 
ENDBRANCH  13  24
TORSDOF 3
