REMARK  3 active torsions:
REMARK  status: ('A' for Active; 'I' for Inactive)
REMARK    1  A    between atoms: C_2  and  C_1 
REMARK       I    between atoms: N_9  and  C_2 
REMARK    2  A    between atoms: C_23  and  C_5 
REMARK    3  A    between atoms: C_6  and  C_7 
REMARK       I    between atoms: C_7  and  N_11 
ROOT
ATOM      1  C   UNL d   1       0.350  -2.606  -0.239  0.00  0.00     0.258 C 
ATOM      2  C   UNL d   1      -4.137  -6.114  -0.036  0.00  0.00     0.251 C 
ATOM      3  N   UNL d   1      -0.749  -3.482  -0.320  0.00  0.00    -0.345 N 
ATOM      4  N   UNL d   1      -3.069  -5.215  -0.150  0.00  0.00    -0.347 N 
ATOM      5  O   UNL d   1       1.162  -2.700   0.677  0.00  0.00    -0.267 OA
ATOM      6  C   UNL d   1      -1.723  -3.535  -1.415  0.00  0.00     0.146 C 
ATOM      7  C   UNL d   1      -0.729  -4.673   0.541  0.00  0.00     0.146 C 
ATOM      8  C   UNL d   1      -3.117  -4.010  -0.980  0.00  0.00     0.145 C 
ATOM      9  C   UNL d   1      -2.127  -5.138   0.970  0.00  0.00     0.145 C 
ATOM     10  O   UNL d   1      -4.270  -6.814   0.970  0.00  0.00    -0.270 OA
ENDROOT
BRANCH   1  11
ATOM     11  C   UNL d   1       0.506  -1.560  -1.235  0.00  0.00     0.092 C 
ATOM     12  C   UNL d   1       0.814  -0.167  -1.046  0.00  0.00     0.083 C 
ATOM     13  N   UNL d   1       0.883   0.452  -2.240  0.00  0.00    -0.259 N 
ATOM     14  O   UNL d   1       0.762  -0.517  -3.197  0.00  0.00    -0.241 OA
ATOM     15  HN  UNL d   1       1.003   1.452  -2.401  1.00  0.00     0.195 HD
ATOM     16  C   UNL d   1       0.601  -1.725  -2.606  0.00  0.00     0.090 C 
ATOM     17  C   UNL d   1       0.618  -2.869  -3.537  0.00  0.00     0.080 C 
BRANCH  12  18
ATOM     18  C   UNL d   1       1.072   0.618   0.171  0.00  0.00    -0.006 A 
ATOM     19  C   UNL d   1       0.473   0.329   1.402  0.00  0.00     0.014 A 
ATOM     20  C   UNL d   1       0.758   1.108   2.533  0.00  0.00     0.001 A 
ATOM     21  C   UNL d   1       1.638   2.186   2.445  0.00  0.00     0.000 A 
ATOM     22  C   UNL d   1       2.238   2.491   1.229  0.00  0.00     0.001 A 
ATOM     23  C   UNL d   1       1.955   1.714   0.103  0.00  0.00     0.014 A 
ENDBRANCH  12  18
ENDBRANCH   1  11
BRANCH   2  24
ATOM     24  C   UNL d   1      -5.163  -6.166  -1.194  0.00  0.00     0.245 C 
ATOM     25  O   UNL d   1      -4.562  -6.303  -2.483  0.00  0.00    -0.331 OA
ATOM     26  C   UNL d   1      -4.255  -7.604  -2.776  0.00  0.00     0.103 A 
ATOM     27  C   UNL d   1      -3.336  -7.812  -3.803  0.00  0.00     0.040 A 
ATOM     28  C   UNL d   1      -4.815  -8.692  -2.107  0.00  0.00     0.102 A 
ATOM     29  C   UNL d   1      -2.947  -9.111  -4.136  0.00  0.00     0.003 A 
ATOM     30  C   UNL d   1      -3.488 -10.199  -3.450  0.00  0.00     0.003 A 
ATOM     31  C   UNL d   1      -4.425  -9.989  -2.437  0.00  0.00     0.039 A 
ATOM     32  O   UNL d   1      -5.740  -8.569  -1.108  0.00  0.00    -0.345 OA
ATOM     33  C   UNL d   1      -6.238  -7.233  -0.981  0.00  0.00     0.218 C 
ENDBRANCH   2  24
TORSDOF 3
