REMARK  6 active torsions:
REMARK  status: ('A' for Active; 'I' for Inactive)
REMARK    1  A    between atoms: C_6  and  C_1 
REMARK    2  A    between atoms: C_5  and  C_2 
REMARK    3  A    between atoms: N_3  and  N_12 
REMARK    4  A    between atoms: O_17  and  C_5 
REMARK    5  A    between atoms: C_9  and  N_7 
REMARK    6  A    between atoms: N_12  and  C_16 
ROOT
ATOM      1  N   UNL d   1      -1.384   1.194   4.367  0.00  0.00    -0.242 N 
ATOM      2  HN  UNL d   1      -1.514   0.334   3.834  1.00  0.00     0.208 HD
ATOM      3  N   UNL d   1      -1.482   1.316   5.603  0.00  0.00    -0.285 N 
ATOM      4  HN  UNL d   1      -1.365   2.193   6.111  1.00  0.00     0.188 HD
ENDROOT
BRANCH   1   5
ATOM      5  N   UNL d   1      -1.075   2.402   3.860  0.00  0.00    -0.286 N 
ATOM      6  H   UNL d   1      -0.668   3.043   4.534  0.00  0.00     0.188 HD
BRANCH   5   7
ATOM      7  C   UNL d   1      -0.485   2.419   2.580  0.00  0.00     0.050 A 
ATOM      8  C   UNL d   1      -0.730   1.408   1.636  0.00  0.00     0.047 A 
ATOM      9  C   UNL d   1      -0.147   1.439   0.358  0.00  0.00     0.050 A 
ATOM     10  C   UNL d   1       0.665   2.527   0.014  0.00  0.00     0.016 A 
ATOM     11  C   UNL d   1       0.884   3.559   0.925  0.00  0.00     0.003 A 
ATOM     12  C   UNL d   1       0.303   3.509   2.194  0.00  0.00     0.031 A 
BRANCH   9  13
ATOM     13  C   UNL d   1      -0.372   0.322  -0.629  0.00  0.00     0.417 C 
ATOM     14  F   UNL d   1      -1.154  -0.687  -0.152  0.00  0.00    -0.166 F 
ATOM     15  F   UNL d   1       0.794  -0.267  -1.019  0.00  0.00    -0.166 F 
ATOM     16  F   UNL d   1      -0.973   0.749  -1.774  0.00  0.00    -0.166 F 
ENDBRANCH   9  13
ENDBRANCH   5   7
ENDBRANCH   1   5
BRANCH   3  17
ATOM     17  C   UNL d   1      -1.780   0.069   6.207  0.00  0.00     0.065 A 
ATOM     18  C   UNL d   1      -1.228  -0.326   7.440  0.00  0.00     0.067 A 
ATOM     19  C   UNL d   1      -1.561  -1.591   7.974  0.00  0.00     0.020 A 
ATOM     20  C   UNL d   1      -2.430  -2.457   7.309  0.00  0.00     0.001 A 
ATOM     21  C   UNL d   1      -2.998  -2.066   6.106  0.00  0.00     0.002 A 
ATOM     22  C   UNL d   1      -2.686  -0.817   5.572  0.00  0.00     0.032 A 
BRANCH  18  23
ATOM     23  C   UNL d   1      -0.295   0.487   8.277  0.00  0.00     0.295 C 
ATOM     24  O   UNL d   1       0.089   0.113   9.376  0.00  0.00    -0.259 OA
BRANCH  23  25
ATOM     25  O   UNL d   1       0.069   1.657   7.697  0.00  0.00    -0.322 OA
ATOM     26  C   UNL d   1       0.961   2.445   8.486  0.00  0.00     0.213 C 
ENDBRANCH  23  25
ENDBRANCH  18  23
ENDBRANCH   3  17
TORSDOF 6
