REMARK  7 active torsions:
REMARK  status: ('A' for Active; 'I' for Inactive)
REMARK    1  A    between atoms: C_8  and  N_1 
REMARK    2  A    between atoms: C_3  and  C_2 
REMARK       I    between atoms: N_6  and  C_3 
REMARK    3  A    between atoms: C_4  and  C_7 
REMARK    4  A    between atoms: C_5  and  N_10 
REMARK    5  A    between atoms: N_11  and  C_5 
REMARK    6  A    between atoms: N_10  and  N_6 
REMARK    7  A    between atoms: C_17  and  N_11 
ROOT
ATOM      1  C   UNL d   1       2.217  -1.451   0.245  0.00  0.00     0.287 C 
ATOM      2  N   UNL d   1       3.384  -0.717   0.390  0.00  0.00    -0.262 N 
ATOM      3  O   UNL d   1       1.494  -1.300  -0.741  0.00  0.00    -0.264 OA
ATOM      4  H   UNL d   1       4.164  -1.119   0.892  0.00  0.00     0.190 HD
ENDROOT
BRANCH   2   5
ATOM      5  N   UNL d   1       3.718   0.327  -0.505  0.00  0.00    -0.273 N 
ATOM      6  H   UNL d   1       4.299   0.043  -1.289  0.00  0.00     0.189 HD
BRANCH   5   7
ATOM      7  C   UNL d   1       2.834   1.364  -0.788  0.00  0.00     0.191 C 
ATOM      8  S   UNL d   1       1.548   1.898   0.137  0.00  0.00    -0.039 SA
BRANCH   7   9
ATOM      9  N   UNL d   1       3.057   1.923  -2.026  0.00  0.00    -0.332 N 
ATOM     10  H   UNL d   1       2.224   2.274  -2.490  0.00  0.00     0.168 HD
BRANCH   9  11
ATOM     11  C   UNL d   1       4.271   2.474  -2.483  0.00  0.00     0.035 A 
ATOM     12  C   UNL d   1       5.271   2.902  -1.602  0.00  0.00     0.045 A 
ATOM     13  C   UNL d   1       6.378   3.622  -2.084  0.00  0.00     0.050 A 
ATOM     14  C   UNL d   1       6.507   3.829  -3.467  0.00  0.00     0.016 A 
ATOM     15  C   UNL d   1       5.531   3.363  -4.346  0.00  0.00     0.003 A 
ATOM     16  C   UNL d   1       4.402   2.713  -3.851  0.00  0.00     0.029 A 
BRANCH  13  17
ATOM     17  C   UNL d   1       7.381   4.238  -1.140  0.00  0.00     0.417 C 
ATOM     18  F   UNL d   1       7.137   3.966   0.172  0.00  0.00    -0.166 F 
ATOM     19  F   UNL d   1       8.653   3.818  -1.379  0.00  0.00    -0.166 F 
ATOM     20  F   UNL d   1       7.412   5.598  -1.237  0.00  0.00    -0.166 F 
ENDBRANCH  13  17
ENDBRANCH   9  11
ENDBRANCH   7   9
ENDBRANCH   5   7
ENDBRANCH   2   5
BRANCH   1  21
ATOM     21  C   UNL d   1       1.888  -2.449   1.272  0.00  0.00     0.109 C 
ATOM     22  N   UNL d   1       2.562  -2.881   2.422  0.00  0.00    -0.318 N 
ATOM     23  C   UNL d   1       1.902  -4.000   2.904  0.00  0.00     0.098 C 
ATOM     24  C   UNL d   1       0.755  -4.209   2.189  0.00  0.00     0.020 C 
ATOM     25  C   UNL d   1       0.737  -3.235   1.183  0.00  0.00     0.037 C 
BRANCH  22  26
ATOM     26  C   UNL d   1       3.736  -2.365   3.051  0.00  0.00     0.039 A 
ATOM     27  C   UNL d   1       3.950  -0.988   3.181  0.00  0.00     0.033 A 
ATOM     28  C   UNL d   1       5.157  -0.515   3.704  0.00  0.00     0.044 A 
ATOM     29  C   UNL d   1       6.110  -1.417   4.163  0.00  0.00     0.116 A 
ATOM     30  C   UNL d   1       5.875  -2.785   4.123  0.00  0.00     0.044 A 
ATOM     31  F   UNL d   1       7.270  -0.963   4.654  0.00  0.00    -0.206 F 
ATOM     32  C   UNL d   1       4.686  -3.264   3.568  0.00  0.00     0.033 A 
ENDBRANCH  22  26
ENDBRANCH   1  21
TORSDOF 7
