REMARK  4 active torsions:
REMARK  status: ('A' for Active; 'I' for Inactive)
REMARK    1  A    between atoms: C_9  and  C_3 
REMARK    2  A    between atoms: C_10  and  C_5 
REMARK    3  A    between atoms: O_21  and  C_15 
REMARK    4  A    between atoms: O_22  and  C_16 
ROOT
ATOM      1  N   UNL d   1      -0.464   1.542  -0.784  0.00  0.00    -0.358 N 
ATOM      2  HN  UNL d   1      -0.296   2.084  -1.632  1.00  0.00     0.166 HD
ATOM      3  C   UNL d   1      -1.594   1.677  -0.159  0.00  0.00     0.021 C 
ATOM      4  S   UNL d   1      -1.160  -1.601  -0.308  0.00  0.00    -0.118 SA
ATOM      5  C   UNL d   1      -2.378  -0.596   0.651  0.00  0.00     0.091 C 
ATOM      6  C   UNL d   1      -1.976   0.831   1.046  0.00  0.00     0.078 C 
ATOM      7  C   UNL d   1       0.535   0.666  -0.319  0.00  0.00     0.049 A 
ATOM      8  C   UNL d   1       0.369  -0.712  -0.082  0.00  0.00     0.028 A 
ATOM      9  C   UNL d   1       1.808   1.229  -0.142  0.00  0.00     0.031 A 
ATOM     10  C   UNL d   1       1.479  -1.488   0.294  0.00  0.00     0.021 A 
ATOM     11  C   UNL d   1       2.899   0.455   0.254  0.00  0.00     0.002 A 
ATOM     12  C   UNL d   1       2.736  -0.908   0.465  0.00  0.00     0.002 A 
ENDROOT
BRANCH   3  13
ATOM     13  C   UNL d   1      -2.549   2.722  -0.654  0.00  0.00    -0.013 A 
ATOM     14  C   UNL d   1      -2.570   3.032  -2.021  0.00  0.00     0.016 A 
ATOM     15  C   UNL d   1      -3.401   4.049  -2.512  0.00  0.00     0.037 A 
ATOM     16  C   UNL d   1      -4.208   4.776  -1.637  0.00  0.00     0.068 A 
ATOM     17  C   UNL d   1      -4.190   4.462  -0.276  0.00  0.00     0.037 A 
ATOM     18  C   UNL d   1      -3.365   3.447   0.218  0.00  0.00     0.016 A 
BRANCH  16  19
ATOM     19  O   UNL d   1      -5.039   5.809  -1.969  0.00  0.00    -0.356 OA
ATOM     20  C   UNL d   1      -5.039   6.232  -3.327  0.00  0.00     0.210 C 
ENDBRANCH  16  19
ENDBRANCH   3  13
BRANCH   5  21
ATOM     21  C   UNL d   1      -3.749  -0.615  -0.024  0.00  0.00    -0.043 A 
ATOM     22  C   UNL d   1      -3.887  -0.430  -1.408  0.00  0.00     0.011 A 
ATOM     23  C   UNL d   1      -5.145  -0.405  -2.013  0.00  0.00     0.037 A 
ATOM     24  C   UNL d   1      -6.295  -0.543  -1.243  0.00  0.00     0.068 A 
ATOM     25  C   UNL d   1      -6.173  -0.729   0.136  0.00  0.00     0.037 A 
ATOM     26  C   UNL d   1      -4.913  -0.763   0.743  0.00  0.00     0.011 A 
BRANCH  24  27
ATOM     27  O   UNL d   1      -7.579  -0.514  -1.719  0.00  0.00    -0.356 OA
ATOM     28  C   UNL d   1      -7.726  -0.258  -3.111  0.00  0.00     0.210 C 
ENDBRANCH  24  27
ENDBRANCH   5  21
TORSDOF 4
