REMARK  8 active torsions:
REMARK  status: ('A' for Active; 'I' for Inactive)
REMARK    1  A    between atoms: C_6  and  N_1 
REMARK    2  A    between atoms: C_11  and  C_4 
REMARK       I    between atoms: C_8  and  N_9 
REMARK    3  A    between atoms: C_12  and  C_8 
REMARK    4  A    between atoms: N_9  and  C_10 
REMARK    5  A    between atoms: O_22  and  C_11 
REMARK    6  A    between atoms: C_14  and  C_13 
REMARK    7  A    between atoms: O_21  and  C_14 
REMARK    8  A    between atoms: C_28  and  O_22 
ROOT
ATOM      1  C   UNL d   1      -0.715  -2.455   0.210  0.00  0.00     0.154 A 
ATOM      2  C   UNL d   1      -0.183  -3.344   1.163  0.00  0.00     0.081 A 
ATOM      3  N   UNL d   1      -1.464  -2.872  -0.856  0.00  0.00    -0.349 N 
ATOM      4  HN  UNL d   1      -1.850  -2.205  -1.525  1.00  0.00     0.167 HD
ATOM      5  C   UNL d   1      -0.476  -4.702   1.007  0.00  0.00     0.035 A 
ATOM      6  C   UNL d   1      -1.673  -4.198  -0.990  0.00  0.00     0.090 A 
ATOM      7  C   UNL d   1      -1.223  -5.138  -0.084  0.00  0.00     0.019 A 
ENDROOT
BRANCH   2   8
ATOM      8  N   UNL d   1       0.548  -2.882   2.282  0.00  0.00    -0.320 N 
ATOM      9  C   UNL d   1       1.554  -3.562   2.921  0.00  0.00     0.257 C 
ATOM     10  O   UNL d   1       1.976  -4.677   2.628  0.00  0.00    -0.267 OA
ATOM     11  H   UNL d   1       0.493  -1.875   2.449  0.00  0.00     0.169 HD
BRANCH   9  12
ATOM     12  C   UNL d   1       2.282  -2.801   3.971  0.00  0.00     0.049 A 
ATOM     13  C   UNL d   1       1.684  -2.204   5.087  0.00  0.00     0.053 A 
ATOM     14  C   UNL d   1       2.487  -1.565   6.051  0.00  0.00     0.019 A 
ATOM     15  C   UNL d   1       3.875  -1.548   5.916  0.00  0.00     0.001 A 
ATOM     16  C   UNL d   1       4.476  -2.149   4.813  0.00  0.00     0.001 A 
ATOM     17  C   UNL d   1       3.683  -2.775   3.845  0.00  0.00     0.018 A 
BRANCH  13  18
ATOM     18  C   UNL d   1       0.229  -2.182   5.299  0.00  0.00     0.177 C 
ATOM     19  O   UNL d   1      -0.566  -1.758   4.472  0.00  0.00    -0.646 OA
BRANCH  18  20
ATOM     20  O   UNL d   1      -0.134  -2.601   6.534  0.00  0.00    -0.773 OA
ATOM     21  H   UNL d   1       0.589  -2.951   7.087  0.00  0.00     0.167 HD
ENDBRANCH  18  20
ENDBRANCH  13  18
ENDBRANCH   9  12
ENDBRANCH   2   8
BRANCH   1  22
ATOM     22  N   UNL d   1      -0.393  -1.055   0.272  0.00  0.00    -0.241 N 
ATOM     23  N   UNL d   1       0.745  -0.627   0.891  0.00  0.00    -0.296 N 
ATOM     24  C   UNL d   1       0.881   0.648   0.523  0.00  0.00     0.041 C 
ATOM     25  HN  UNL d   1       1.358  -1.165   1.503  1.00  0.00     0.187 HD
ATOM     26  C   UNL d   1       2.155   1.355   0.827  0.00  0.00     0.071 C 
ATOM     27  C   UNL d   1      -0.281   1.136  -0.132  0.00  0.00     0.087 C 
ATOM     28  C   UNL d   1      -1.087   0.012  -0.285  0.00  0.00     0.050 C 
ATOM     29  C   UNL d   1      -2.445  -0.144  -0.877  0.00  0.00     0.071 C 
BRANCH  27  30
ATOM     30  C   UNL d   1      -0.562   2.488  -0.593  0.00  0.00     0.297 C 
ATOM     31  O   UNL d   1      -1.555   2.801  -1.238  0.00  0.00    -0.259 OA
BRANCH  30  32
ATOM     32  O   UNL d   1       0.439   3.357  -0.271  0.00  0.00    -0.318 OA
BRANCH  32  33
ATOM     33  C   UNL d   1       0.435   4.604  -0.976  0.00  0.00     0.174 C 
ATOM     34  C   UNL d   1       1.162   4.408  -2.294  0.00  0.00     0.034 C 
ENDBRANCH  32  33
ENDBRANCH  30  32
ENDBRANCH  27  30
ENDBRANCH   1  22
TORSDOF 8
