REMARK  1 active torsions:
REMARK  status: ('A' for Active; 'I' for Inactive)
REMARK    1  A    between atoms: C_9  and  C_5 
ROOT
ATOM      1  C   UNL d   1      -1.671  -0.334   1.861  0.00  0.00     0.129 A 
ATOM      2  C   UNL d   1      -1.460  -0.306   0.553  0.00  0.00     0.073 A 
ATOM      3  C   UNL d   1      -0.668  -1.239   2.430  0.00  0.00     0.307 A 
ATOM      4  O   UNL d   1       0.112  -1.728   1.423  0.00  0.00    -0.301 OA
ATOM      5  C   UNL d   1      -0.316  -1.163   0.173  0.00  0.00     0.212 A 
ATOM      6  O   UNL d   1      -0.533  -1.519   3.606  0.00  0.00    -0.258 OA
ATOM      7 CL   UNL d   1      -2.795   0.516   2.791  0.00  0.00    -0.076 Cl
ATOM      8 CL   UNL d   1      -2.280   0.658  -0.586  0.00  0.00    -0.084 Cl
ENDROOT
BRANCH   5   9
ATOM      9  C   UNL d   1      -0.618  -2.254  -0.835  0.00  0.00    -0.024 A 
ATOM     10  C   UNL d   1      -0.464  -1.989  -2.208  0.00  0.00     0.010 A 
ATOM     11  C   UNL d   1      -0.695  -2.983  -3.160  0.00  0.00     0.001 A 
ATOM     12  C   UNL d   1      -1.090  -4.255  -2.757  0.00  0.00     0.000 A 
ATOM     13  C   UNL d   1      -1.274  -4.528  -1.403  0.00  0.00     0.001 A 
ATOM     14  C   UNL d   1      -1.047  -3.534  -0.448  0.00  0.00     0.010 A 
ENDBRANCH   5   9
TORSDOF 1
