REMARK  3 active torsions:
REMARK  status: ('A' for Active; 'I' for Inactive)
REMARK    1  A    between atoms: C_8  and  C_1 
REMARK    2  A    between atoms: C_11  and  C_5 
REMARK    3  A    between atoms: N_10  and  C_11 
ROOT
ATOM      1  C   UNL d   1      -0.121  -1.113  -0.072  0.00  0.00     0.175 A 
ATOM      2  N   UNL d   1       1.128  -0.687  -0.082  0.00  0.00    -0.277 N 
ATOM      3  HN  UNL d   1       1.967  -1.267  -0.098  1.00  0.00     0.189 HD
ATOM      4  O   UNL d   1      -1.024  -0.078  -0.087  0.00  0.00    -0.276 OA
ATOM      5  C   UNL d   1      -0.192   1.012  -0.058  0.00  0.00     0.169 A 
ATOM      6  N   UNL d   1       1.084   0.686  -0.065  0.00  0.00    -0.280 N 
ATOM      7  HN  UNL d   1       1.879   1.325  -0.058  1.00  0.00     0.189 HD
ENDROOT
BRANCH   1   8
ATOM      8  C   UNL d   1      -0.654  -2.471  -0.035  0.00  0.00     0.028 A 
ATOM      9  C   UNL d   1       0.015  -3.520   0.669  0.00  0.00    -0.011 A 
ATOM     10  C   UNL d   1      -0.524  -4.832   0.611  0.00  0.00    -0.025 A 
ATOM     11  C   UNL d   1       1.188  -3.342   1.447  0.00  0.00     0.013 A 
ATOM     12  C   UNL d   1       0.118  -5.890   1.277  0.00  0.00     0.012 A 
ATOM     13  C   UNL d   1      -1.700  -5.076  -0.112  0.00  0.00     0.012 A 
ATOM     14  C   UNL d   1       1.280  -5.679   2.017  0.00  0.00     0.001 A 
ATOM     15  C   UNL d   1       1.812  -4.402   2.107  0.00  0.00     0.001 A 
ATOM     16  C   UNL d   1      -2.360  -4.045  -0.776  0.00  0.00     0.002 A 
ATOM     17  C   UNL d   1      -1.841  -2.754  -0.738  0.00  0.00     0.017 A 
ENDBRANCH   1   8
BRANCH   5  18
ATOM     18  C   UNL d   1      -0.801   2.373  -0.044  0.00  0.00     0.358 C 
BRANCH  18  19
ATOM     19  N   UNL d   1      -1.700   2.651   1.104  0.00  0.00     0.096 N 
ATOM     20  C   UNL d   1      -0.969   2.591   2.383  0.00  0.00     0.273 C 
ATOM     21  C   UNL d   1      -1.877   2.920   3.571  0.00  0.00     0.030 C 
ATOM     22  C   UNL d   1      -2.542   4.279   3.398  0.00  0.00     0.003 C 
ATOM     23  C   UNL d   1      -3.264   4.338   2.059  0.00  0.00     0.030 C 
ATOM     24  C   UNL d   1      -2.324   3.971   0.911  0.00  0.00     0.273 C 
ENDBRANCH  18  19
ENDBRANCH   5  18
TORSDOF 3
