REMARK  2 active torsions:
REMARK  status: ('A' for Active; 'I' for Inactive)
REMARK    1  A    between atoms: C_5  and  C_1 
REMARK       I    between atoms: N_2  and  C_5 
REMARK    2  A    between atoms: C_12  and  C_6 
ROOT
ATOM      1  N   UNL d   1       1.073   3.821   0.057  0.00  0.00    -0.231 N 
ATOM      2  N   UNL d   1      -0.099   4.105   0.698  0.00  0.00    -0.290 N 
ATOM      3  HN  UNL d   1      -0.732   3.448   1.153  1.00  0.00     0.187 HD
ATOM      4  C   UNL d   1       1.556   2.493  -0.084  0.00  0.00     0.278 C 
ATOM      5  C   UNL d   1      -0.236   5.433   0.600  0.00  0.00     0.067 A 
ATOM      6  C   UNL d   1       0.833   6.013  -0.119  0.00  0.00     0.051 A 
ATOM      7  C   UNL d   1       1.676   4.973  -0.413  0.00  0.00     0.122 A 
ATOM      8  O   UNL d   1       2.748   2.389  -0.374  0.00  0.00    -0.265 OA
ENDROOT
BRANCH   4   9
ATOM      9  C   UNL d   1       0.690   1.318   0.023  0.00  0.00     0.065 A 
ATOM     10  C   UNL d   1       1.099  -0.009  -0.015  0.00  0.00     0.065 A 
ATOM     11  O   UNL d   1       0.018  -0.842   0.020  0.00  0.00    -0.319 OA
ATOM     12  C   UNL d   1       2.405  -0.701  -0.104  0.00  0.00     0.077 C 
ATOM     13  C   UNL d   1      -1.093  -0.064   0.082  0.00  0.00     0.050 A 
ATOM     14  C   UNL d   1      -0.736   1.262   0.100  0.00  0.00     0.052 A 
ATOM     15  C   UNL d   1      -2.395  -0.754   0.100  0.00  0.00     0.076 C 
ENDBRANCH   4   9
BRANCH   5  16
ATOM     16  C   UNL d   1      -1.397   6.169   1.202  0.00  0.00     0.033 A 
ATOM     17  S   UNL d   1      -1.649   7.854   1.009  0.00  0.00    -0.100 SA
ATOM     18  C   UNL d   1      -3.060   7.820   1.974  0.00  0.00     0.050 A 
ATOM     19  C   UNL d   1      -3.336   6.554   2.436  0.00  0.00     0.008 A 
ATOM     20  C   UNL d   1      -2.381   5.595   1.979  0.00  0.00     0.021 A 
ENDBRANCH   5  16
TORSDOF 2
