REMARK  4 active torsions:
REMARK  status: ('A' for Active; 'I' for Inactive)
REMARK    1  A    between atoms: N_7  and  C_1 
REMARK    2  A    between atoms: C_14  and  N_2 
REMARK    3  A    between atoms: N_6  and  C_10 
REMARK       I    between atoms: C_8  and  N_7 
REMARK    4  A    between atoms: C_11  and  C_8 
ROOT
ATOM      1  C   UNL d   1      -0.360  -1.155   0.233  0.00  0.00     0.132 C 
ATOM      2  N   UNL d   1       0.938  -0.739  -0.056  0.00  0.00    -0.240 N 
ATOM      3  N   UNL d   1       0.990   0.608  -0.238  0.00  0.00    -0.297 N 
ATOM      4  HN  UNL d   1       1.758   1.156  -0.623  1.00  0.00     0.187 HD
ATOM      5  C   UNL d   1      -1.054  -0.011   0.556  0.00  0.00     0.076 C 
ATOM      6  C   UNL d   1      -0.194   1.051   0.202  0.00  0.00     0.026 C 
ATOM      7  C   UNL d   1      -0.486   2.505   0.230  0.00  0.00     0.070 C 
ENDROOT
BRANCH   1   8
ATOM      8  N   UNL d   1      -0.797  -2.469   0.134  0.00  0.00    -0.307 N 
ATOM      9  C   UNL d   1      -1.811  -2.960   0.927  0.00  0.00     0.257 C 
ATOM     10  O   UNL d   1      -2.334  -2.393   1.881  0.00  0.00    -0.267 OA
ATOM     11  H   UNL d   1      -0.251  -3.112  -0.429  0.00  0.00     0.170 HD
BRANCH   9  12
ATOM     12  C   UNL d   1      -2.226  -4.345   0.610  0.00  0.00     0.034 A 
ATOM     13  C   UNL d   1      -2.558  -4.695  -0.702  0.00  0.00     0.053 A 
ATOM     14  C   UNL d   1      -3.056  -5.980  -0.955  0.00  0.00     0.103 A 
ATOM     15  C   UNL d   1      -3.194  -6.915   0.082  0.00  0.00     0.036 A 
ATOM     16  C   UNL d   1      -2.837  -6.559   1.384  0.00  0.00     0.003 A 
ATOM     17  C   UNL d   1      -2.363  -5.272   1.651  0.00  0.00     0.017 A 
BRANCH  14  18
ATOM     18  N   UNL d   1      -3.470  -6.339  -2.317  0.00  0.00    -0.116 N 
ATOM     19  O   UNL d   1      -3.273  -5.506  -3.213  0.00  0.00    -0.532 OA
ATOM     20  O   UNL d   1      -3.989  -7.451  -2.488  0.00  0.00    -0.532 OA
ENDBRANCH  14  18
ENDBRANCH   9  12
ENDBRANCH   1   8
BRANCH   2  21
ATOM     21  C   UNL d   1       2.128  -1.524  -0.094  0.00  0.00     0.058 A 
ATOM     22  C   UNL d   1       3.279  -1.012  -0.706  0.00  0.00     0.031 A 
ATOM     23  C   UNL d   1       4.449  -1.775  -0.742  0.00  0.00     0.002 A 
ATOM     24  C   UNL d   1       4.484  -3.039  -0.155  0.00  0.00     0.000 A 
ATOM     25  C   UNL d   1       3.356  -3.538   0.490  0.00  0.00     0.002 A 
ATOM     26  C   UNL d   1       2.185  -2.780   0.531  0.00  0.00     0.031 A 
ENDBRANCH   2  21
TORSDOF 4
