REMARK  3 active torsions:
REMARK  status: ('A' for Active; 'I' for Inactive)
REMARK    1  A    between atoms: N_4  and  C_1 
REMARK    2  A    between atoms: N_2  and  N_4 
REMARK    3  A    between atoms: C_7  and  C_5 
ROOT
ATOM      1  N   UNL d   1       1.023  -2.110  -1.456  0.00  0.00    -0.302 N 
ATOM      2  HN  UNL d   1       0.474  -1.398  -0.973  1.00  0.00     0.186 HD
ATOM      3  C   UNL d   1       0.423  -3.071  -2.101  0.00  0.00     0.032 C 
ATOM      4  C   UNL d   1       1.121  -4.183  -2.867  0.00  0.00     0.070 C 
ENDROOT
BRANCH   1   5
ATOM      5  N   UNL d   1       2.386  -2.058  -1.427  0.00  0.00    -0.276 N 
ATOM      6  H   UNL d   1       2.957  -2.767  -1.867  0.00  0.00     0.189 HD
BRANCH   5   7
ATOM      7  C   UNL d   1       3.057  -1.058  -0.784  0.00  0.00     0.184 C 
ATOM      8  S   UNL d   1       4.714  -0.997  -0.742  0.00  0.00    -0.040 SA
ATOM      9  N   UNL d   1       2.290  -0.118  -0.187  0.00  0.00    -0.375 N 
ATOM     10  H   UNL d   1       1.288  -0.245  -0.227  0.00  0.00     0.158 HD
ATOM     11  H   UNL d   1       2.700   0.645   0.331  0.00  0.00     0.158 HD
ENDBRANCH   5   7
ENDBRANCH   1   5
BRANCH   3  12
ATOM     12  C   UNL d   1      -1.087  -3.100  -2.095  0.00  0.00    -0.013 A 
ATOM     13  C   UNL d   1      -1.797  -2.074  -1.451  0.00  0.00     0.015 A 
ATOM     14  C   UNL d   1      -3.196  -2.079  -1.428  0.00  0.00     0.020 A 
ATOM     15  C   UNL d   1      -3.896  -3.110  -2.050  0.00  0.00     0.011 A 
ATOM     16  C   UNL d   1      -3.209  -4.135  -2.694  0.00  0.00     0.020 A 
ATOM     17 BR   UNL d   1      -5.785  -3.122  -2.020  0.00  0.00    -0.051 Br
ATOM     18  C   UNL d   1      -1.810  -4.130  -2.716  0.00  0.00     0.015 A 
ENDBRANCH   3  12
TORSDOF 3
