REMARK  2 active torsions:
REMARK  status: ('A' for Active; 'I' for Inactive)
REMARK    1  A    between atoms: C6_14  and  C3_5 
REMARK    2  A    between atoms: O2_16  and  C6_14 
ROOT
ATOM      1  C1  <1> d   1       0.240  -1.149  -0.017  0.00  0.00     0.095 A 
ATOM      2  C2  <1> d   1       0.068  -2.574   0.013  0.00  0.00     0.080 A 
ATOM      3  N1  <1> d   1       1.432  -0.584   0.026  0.00  0.00    -0.344 N 
ATOM      4  H1  <1> d   1       2.318  -1.088   0.072  1.00  0.00     0.167 HD
ATOM      5  C3  <1> d   1       1.303   0.813  -0.002  0.00  0.00     0.114 A 
ATOM      6  N2  <1> d   1      -0.717  -4.899  -0.296  0.00  0.00    -0.269 N 
ATOM      7  H2  <1> d   1      -1.204  -5.763  -0.537  1.00  0.00     0.195 HD
ATOM      8  C4  <1> d   1       0.851  -3.559   0.608  0.00  0.00     0.043 A 
ATOM      9  S1  <1> d   1      -1.085  -0.047  -0.079  0.00  0.00    -0.080 SA
ATOM     10  N3  <1> d   1       0.388  -4.861   0.423  0.00  0.00    -0.298 N 
ATOM     11  H3  <1> d   1       0.850  -5.688   0.801  1.00  0.00     0.187 HD
ATOM     12  S2  <1> d   1      -1.232  -3.388  -0.771  0.00  0.00     0.006 SA
ATOM     13  C5  <1> d   1       0.002   1.272  -0.052  0.00  0.00     0.088 A 
ATOM     14  C7  <1> d   1       2.083  -3.405   1.423  0.00  0.00     0.071 C 
ENDROOT
BRANCH   5  15
ATOM     15  C6  <1> d   1       2.488   1.663   0.021  0.00  0.00     0.194 C 
ATOM     16  O1  <1> d   1       2.463   2.884   0.021  0.00  0.00    -0.645 OA
BRANCH  15  17
ATOM     17  O2  <1> d   1       3.638   0.941   0.044  0.00  0.00    -0.772 OA
ATOM     18  H2  <1> d   1       3.398  -0.011   0.029  0.00  0.00     0.167 HD
ENDBRANCH  15  17
ENDBRANCH   5  15
TORSDOF 2
