REMARK  2 active torsions:
REMARK  status: ('A' for Active; 'I' for Inactive)
REMARK    1  A    between atoms: C_4  and  C_1 
REMARK       I    between atoms: N_7  and  C_4 
REMARK       I    between atoms: C_6  and  N_9 
REMARK    2  A    between atoms: C_10  and  C_6 
ROOT
ATOM      1  C   UNL d   1       3.819  -0.172  -0.135  0.00  0.00     0.262 C 
ATOM      2  C   UNL d   1       6.964  -4.632   0.880  0.00  0.00     0.277 C 
ATOM      3  N   UNL d   1       4.722  -1.231  -0.011  0.00  0.00    -0.344 N 
ATOM      4  N   UNL d   1       5.949  -3.668   0.867  0.00  0.00    -0.343 N 
ATOM      5  O   UNL d   1       3.739   0.666   0.770  0.00  0.00    -0.267 OA
ATOM      6  C   UNL d   1       4.980  -2.314  -0.972  0.00  0.00     0.146 C 
ATOM      7  C   UNL d   1       5.676  -1.203   1.102  0.00  0.00     0.146 C 
ATOM      8  C   UNL d   1       4.980  -3.668  -0.240  0.00  0.00     0.146 C 
ATOM      9  C   UNL d   1       5.781  -2.558   1.817  0.00  0.00     0.146 C 
ATOM     10  O   UNL d   1       7.084  -5.408  -0.072  0.00  0.00    -0.265 OA
ENDROOT
BRANCH   1  11
ATOM     11  C   UNL d   1       3.036  -0.020  -1.343  0.00  0.00     0.096 A 
ATOM     12  S   UNL d   1       3.140   1.497  -2.134  0.00  0.00    -0.082 SA
ATOM     13  C   UNL d   1       2.021   1.044  -3.350  0.00  0.00     0.017 A 
ATOM     14  C   UNL d   1       1.566   1.849  -4.413  0.00  0.00     0.020 A 
ATOM     15  C   UNL d   1       1.580  -0.270  -3.175  0.00  0.00     0.004 A 
ATOM     16  C   UNL d   1       0.688   1.302  -5.349  0.00  0.00     0.001 A 
ATOM     17  C   UNL d   1       0.273  -0.016  -5.234  0.00  0.00     0.001 A 
ATOM     18  C   UNL d   1       0.697  -0.799  -4.155  0.00  0.00     0.014 A 
ATOM     19  C   UNL d   1       2.106  -0.835  -1.956  0.00  0.00     0.068 A 
ATOM     20 CL   UNL d   1       1.565  -2.357  -1.358  0.00  0.00    -0.082 Cl
ENDBRANCH   1  11
BRANCH   2  21
ATOM     21  C   UNL d   1       7.909  -4.690   1.986  0.00  0.00     0.142 A 
ATOM     22  O   UNL d   1       7.568  -4.286   3.250  0.00  0.00    -0.317 OA
ATOM     23  C   UNL d   1       8.661  -4.445   4.040  0.00  0.00     0.143 A 
ATOM     24  C   UNL d   1       9.696  -4.994   3.323  0.00  0.00     0.027 A 
ATOM     25  C   UNL d   1       9.204  -5.181   2.010  0.00  0.00     0.045 A 
ENDBRANCH   2  21
TORSDOF 2
