REMARK  4 active torsions:
REMARK  status: ('A' for Active; 'I' for Inactive)
REMARK    1  A    between atoms: C_4  and  N_1 
REMARK    2  A    between atoms: C_2  and  C_6 
REMARK    3  A    between atoms: N_12  and  C_5 
REMARK    4  A    between atoms: C_13  and  N_12 
ROOT
ATOM      1  C   UNL d   1       6.170  -1.950  -1.814  0.00  0.00     0.139 C 
ATOM      2  C   UNL d   1       5.227  -2.242  -2.835  0.00  0.00     0.112 C 
ATOM      3  C   UNL d   1       7.376  -2.709  -1.748  0.00  0.00     0.112 C 
ATOM      4  N   UNL d   1       4.446  -2.468  -3.660  0.00  0.00    -0.191 NA
ATOM      5  N   UNL d   1       8.359  -3.318  -1.673  0.00  0.00    -0.191 NA
ATOM      6  C   UNL d   1       5.951  -0.973  -0.916  0.00  0.00     0.122 C 
ENDROOT
BRANCH   6   7
ATOM      7  N   UNL d   1       4.867  -0.141  -0.752  0.00  0.00    -0.362 N 
ATOM      8  H   UNL d   1       4.005  -0.309  -1.272  0.00  0.00     0.165 HD
BRANCH   7   9
ATOM      9  C   UNL d   1       4.744   0.949   0.146  0.00  0.00     0.059 A 
ATOM     10  C   UNL d   1       3.465   1.298   0.672  0.00  0.00     0.057 A 
ATOM     11  C   UNL d   1       3.421   2.392   1.560  0.00  0.00     0.032 A 
ATOM     12  C   UNL d   1       4.562   3.123   1.908  0.00  0.00     0.018 A 
ATOM     13  C   UNL d   1       5.810   2.774   1.399  0.00  0.00     0.050 A 
ATOM     14  C   UNL d   1       5.891   1.675   0.536  0.00  0.00     0.048 A 
BRANCH  10  15
ATOM     15  N   UNL d   1       2.299   0.577   0.302  0.00  0.00    -0.374 N 
ATOM     16  C   UNL d   1       1.008   1.309   0.343  0.00  0.00     0.162 C 
ATOM     17  C   UNL d   1      -0.231   0.439   0.441  0.00  0.00    -0.034 A 
ATOM     18  C   UNL d   1      -1.469   1.044   0.722  0.00  0.00     0.009 A 
ATOM     19  C   UNL d   1      -0.177  -0.950   0.259  0.00  0.00    -0.049 A 
ATOM     20  C   UNL d   1      -2.636   0.284   0.778  0.00  0.00     0.001 A 
ATOM     21  C   UNL d   1      -2.584  -1.085   0.531  0.00  0.00     0.001 A 
ATOM     22  C   UNL d   1      -1.359  -1.702   0.270  0.00  0.00     0.008 A 
ATOM     23  C   UNL d   1       1.165  -1.598   0.055  0.00  0.00     0.059 C 
ATOM     24  C   UNL d   1       2.247  -0.810   0.812  0.00  0.00     0.128 C 
ENDBRANCH  10  15
BRANCH  13  25
ATOM     25  C   UNL d   1       7.028   3.583   1.762  0.00  0.00     0.417 C 
ATOM     26  F   UNL d   1       8.187   3.089   1.244  0.00  0.00    -0.166 F 
ATOM     27  F   UNL d   1       6.944   4.871   1.327  0.00  0.00    -0.166 F 
ATOM     28  F   UNL d   1       7.223   3.656   3.108  0.00  0.00    -0.166 F 
ENDBRANCH  13  25
ENDBRANCH   7   9
ENDBRANCH   6   7
TORSDOF 4
