REMARK  6 active torsions:
REMARK  status: ('A' for Active; 'I' for Inactive)
REMARK    1  A    between atoms: C_6  and  C_1 
REMARK    2  A    between atoms: C_2  and  C_8 
REMARK    3  A    between atoms: O_10  and  C_2 
REMARK    4  A    between atoms: O_12  and  C_3 
REMARK    5  A    between atoms: C_8  and  C_6 
REMARK    6  A    between atoms: O_13  and  C_9 
ROOT
ATOM      1  C   UNL d   1       1.485  -0.188   0.138  0.00  0.00    -0.022 A 
ATOM      2  C   UNL d   1       0.659  -1.320   0.067  0.00  0.00     0.074 A 
ATOM      3  C   UNL d   1       0.868   1.074   0.173  0.00  0.00     0.046 A 
ATOM      4  C   UNL d   1      -0.728  -1.187  -0.021  0.00  0.00     0.040 A 
ATOM      5  C   UNL d   1      -0.523   1.218   0.110  0.00  0.00     0.068 A 
ATOM      6  C   UNL d   1      -1.321   0.080   0.005  0.00  0.00     0.039 A 
ENDROOT
BRANCH   1   7
ATOM      7  C   UNL d   1       2.993  -0.270   0.208  0.00  0.00     0.052 C 
BRANCH   7   8
ATOM      8  C   UNL d   1       3.636  -0.971  -0.987  0.00  0.00     0.115 C 
BRANCH   8   9
ATOM      9  C   UNL d   1       5.135  -1.030  -0.834  0.00  0.00     0.139 C 
ATOM     10  O   UNL d   1       5.773  -0.550   0.090  0.00  0.00    -0.650 OA
BRANCH   9  11
ATOM     11  O   UNL d   1       5.729  -1.694  -1.853  0.00  0.00    -0.776 OA
ATOM     12  H   UNL d   1       5.097  -2.033  -2.516  0.00  0.00     0.167 HD
ENDBRANCH   9  11
ENDBRANCH   8   9
ENDBRANCH   7   8
ENDBRANCH   1   7
BRANCH   2  13
ATOM     13  O   UNL d   1       1.182  -2.581  -0.035  0.00  0.00    -0.355 OA
ATOM     14  C   UNL d   1       1.511  -3.122   1.244  0.00  0.00     0.210 C 
ENDBRANCH   2  13
BRANCH   5  15
ATOM     15  O   UNL d   1      -0.961   2.512   0.150  0.00  0.00    -0.356 OA
ATOM     16  C   UNL d   1      -2.367   2.722   0.126  0.00  0.00     0.210 C 
ENDBRANCH   5  15
TORSDOF 6
