REMARK  7 active torsions:
REMARK  status: ('A' for Active; 'I' for Inactive)
REMARK    1  A    between atoms: C_4  and  CA_1 
REMARK    2  A    between atoms: N_5  and  CA_1 
REMARK    3  A    between atoms: O_14  and  C_2 
REMARK    4  A    between atoms: C_8  and  C_3 
REMARK    5  A    between atoms: OXT_15  and  C_4 
REMARK       I    between atoms: C_9  and  N_5 
REMARK    6  A    between atoms: O_17  and  C_6 
REMARK    7  A    between atoms: O_16  and  C_7 
ROOT
ATOM      1  C   UNL d   1       2.073   4.790  -2.074  0.00  0.00     0.135 A 
ATOM      2  C   UNL d   1       0.968   4.830  -1.186  0.00  0.00     0.105 A 
ATOM      3  C   UNL d   1       2.570   3.532  -2.471  0.00  0.00     0.105 A 
ATOM      4  C   UNL d   1       0.951   2.397  -1.053  0.00  0.00    -0.028 A 
ATOM      5  C   UNL d   1       0.416   3.632  -0.698  0.00  0.00     0.051 A 
ATOM      6  C   UNL d   1       2.019   2.355  -1.936  0.00  0.00     0.051 A 
ENDROOT
BRANCH   4   7
ATOM      7  C   UNL d   1       0.392   1.174  -0.455  0.00  0.00     0.048 C 
ATOM      8  CA  UNL d   1      -0.709   0.522  -0.868  0.00  0.00     0.110 C 
BRANCH   8   9
ATOM      9  C   UNL d   1      -1.370  -0.500   0.008  0.00  0.00     0.193 C 
ATOM     10  O   UNL d   1      -2.552  -0.781  -0.155  0.00  0.00    -0.645 OA
BRANCH   9  11
ATOM     11  OXT UNL d   1      -0.610  -1.093   0.943  0.00  0.00    -0.772 OA
ATOM     12  HXT UNL d   1       0.350  -0.954   0.846  0.00  0.00     0.167 HD
ENDBRANCH   9  11
ENDBRANCH   8   9
BRANCH   8  13
ATOM     13  N   UNL d   1      -1.435   0.829  -2.012  0.00  0.00    -0.322 N 
ATOM     14  C   UNL d   1      -0.902   0.886  -3.284  0.00  0.00     0.218 C 
ATOM     15  O   UNL d   1       0.257   0.609  -3.579  0.00  0.00    -0.274 OA
ATOM     16  C   UNL d   1      -1.911   1.290  -4.327  0.00  0.00     0.117 C 
ATOM     17  H   UNL d   1      -2.403   0.488  -1.982  0.00  0.00     0.169 HD
ENDBRANCH   8  13
ENDBRANCH   4   7
BRANCH   2  18
ATOM     18  O   UNL d   1       0.378   6.033  -0.875  0.00  0.00    -0.353 OA
ATOM     19  C   UNL d   1      -0.192   6.121   0.433  0.00  0.00     0.210 C 
ENDBRANCH   2  18
BRANCH   3  20
ATOM     20  O   UNL d   1       3.538   3.227  -3.396  0.00  0.00    -0.353 OA
ATOM     21  C   UNL d   1       4.483   4.190  -3.816  0.00  0.00     0.210 C 
ENDBRANCH   3  20
BRANCH   1  22
ATOM     22  O   UNL d   1       2.689   5.882  -2.621  0.00  0.00    -0.351 OA
ATOM     23  C   UNL d   1       2.550   7.175  -2.046  0.00  0.00     0.210 C 
ENDBRANCH   1  22
TORSDOF 7
