REMARK  5 active torsions:
REMARK  status: ('A' for Active; 'I' for Inactive)
REMARK    1  A    between atoms: C_6  and  C_1 
REMARK    2  A    between atoms: C_3  and  C_2 
REMARK       I    between atoms: N_7  and  C_3 
REMARK    3  A    between atoms: C_8  and  N_7 
REMARK    4  A    between atoms: N_11  and  C_8 
REMARK    5  A    between atoms: C_13  and  N_11 
ROOT
ATOM      1  C   UNL d   1      -0.499  -4.780  -1.200  0.00  0.00     0.262 C 
ATOM      2  N   UNL d   1      -0.724  -3.609  -0.483  0.00  0.00    -0.300 N 
ATOM      3  O   UNL d   1      -0.732  -5.911  -0.805  0.00  0.00    -0.267 OA
ATOM      4  H   UNL d   1      -0.384  -2.759  -0.886  0.00  0.00     0.171 HD
ENDROOT
BRANCH   1   5
ATOM      5  C   UNL d   1       0.172  -4.647  -2.484  0.00  0.00     0.093 C 
ATOM      6  C   UNL d   1      -0.152  -4.051  -3.749  0.00  0.00     0.088 C 
ATOM      7  N   UNL d   1       0.762  -4.447  -4.660  0.00  0.00    -0.259 N 
ATOM      8  O   UNL d   1       1.726  -5.155  -4.001  0.00  0.00    -0.241 OA
ATOM      9  HN  UNL d   1       0.736  -4.253  -5.661  1.00  0.00     0.195 HD
ATOM     10  C   UNL d   1       1.393  -5.255  -2.699  0.00  0.00     0.090 C 
ATOM     11  C   UNL d   1       2.371  -5.946  -1.835  0.00  0.00     0.080 C 
BRANCH   6  12
ATOM     12  C   UNL d   1      -1.196  -3.107  -4.192  0.00  0.00     0.054 A 
ATOM     13  C   UNL d   1      -0.853  -2.170  -5.196  0.00  0.00     0.130 A 
ATOM     14  F   UNL d   1       0.355  -2.187  -5.784  0.00  0.00    -0.205 F 
ATOM     15  C   UNL d   1      -1.719  -1.164  -5.621  0.00  0.00     0.043 A 
ATOM     16  C   UNL d   1      -2.969  -1.044  -5.037  0.00  0.00     0.005 A 
ATOM     17  C   UNL d   1      -3.358  -1.975  -4.080  0.00  0.00     0.025 A 
ATOM     18  C   UNL d   1      -2.500  -3.019  -3.685  0.00  0.00     0.049 A 
ATOM     19 CL   UNL d   1      -3.203  -4.191  -2.631  0.00  0.00    -0.083 Cl
ENDBRANCH   6  12
ENDBRANCH   1   5
BRANCH   2  20
ATOM     20  C   UNL d   1      -1.333  -3.516   0.746  0.00  0.00     0.174 C 
ATOM     21  S   UNL d   1      -1.913  -4.765   1.703  0.00  0.00    -0.041 SA
BRANCH  20  22
ATOM     22  N   UNL d   1      -1.543  -2.298   1.295  0.00  0.00    -0.362 N 
ATOM     23  H   UNL d   1      -1.984  -2.429   2.203  0.00  0.00     0.162 HD
BRANCH  22  24
ATOM     24  C   UNL d   1      -1.204  -0.899   1.047  0.00  0.00     0.085 C 
ATOM     25  C   UNL d   1      -1.470  -0.381  -0.368  0.00  0.00     0.034 C 
ATOM     26  C   UNL d   1      -1.245   1.149  -0.486  0.00  0.00    -0.045 C 
ATOM     27  C   UNL d   1      -1.296   1.542  -1.973  0.00  0.00     0.015 C 
ATOM     28  C   UNL d   1      -2.361   1.930   0.241  0.00  0.00     0.015 C 
ATOM     29  C   UNL d   1       0.144   1.529   0.093  0.00  0.00     0.013 C 
ATOM     30  C   UNL d   1       0.377   0.992   1.515  0.00  0.00    -0.016 C 
ATOM     31  C   UNL d   1       0.199  -0.534   1.543  0.00  0.00     0.029 C 
ATOM     32  C   UNL d   1       1.743   1.412   2.051  0.00  0.00     0.010 C 
ENDBRANCH  22  24
ENDBRANCH  20  22
ENDBRANCH   2  20
TORSDOF 5
