REMARK  8 active torsions:
REMARK  status: ('A' for Active; 'I' for Inactive)
REMARK    1  A    between atoms: C_6  and  C_1 
REMARK    2  A    between atoms: C_9  and  C_2 
REMARK    3  A    between atoms: C_13  and  N_3 
REMARK    4  A    between atoms: N_7  and  C_15 
REMARK    5  A    between atoms: O_14  and  C_9 
REMARK    6  A    between atoms: N_10  and  O_14 
REMARK    7  A    between atoms: C_18  and  C_12 
REMARK    8  A    between atoms: N_29  and  C_12 
ROOT
ATOM      1  C   UNL d   1      -0.906  -2.670   0.085  0.00  0.00     0.158 C 
ATOM      2  C   UNL d   1      -0.392  -1.380   0.049  0.00  0.00     0.091 C 
ATOM      3  N   UNL d   1      -2.249  -2.568  -0.220  0.00  0.00    -0.251 N 
ATOM      4  N   UNL d   1      -2.534  -1.323  -0.698  0.00  0.00    -0.303 N 
ATOM      5  HN  UNL d   1      -3.397  -1.013  -1.144  1.00  0.00     0.186 HD
ATOM      6  C   UNL d   1      -1.444  -0.602  -0.457  0.00  0.00     0.127 C 
ENDROOT
BRANCH   2   7
ATOM      7  C   UNL d   1       0.935  -0.951   0.450  0.00  0.00     0.318 C 
ATOM      8  O   UNL d   1       1.639  -1.614   1.202  0.00  0.00    -0.257 OA
BRANCH   7   9
ATOM      9  O   UNL d   1       1.247   0.278  -0.078  0.00  0.00    -0.193 OA
BRANCH   9  10
ATOM     10  N   UNL d   1       2.069   0.978   0.822  0.00  0.00    -0.246 N 
ATOM     11  C   UNL d   1       2.420   2.135   0.349  0.00  0.00     0.109 C 
ATOM     12  HN  UNL d   1       2.355   0.620   1.734  1.00  0.00     0.196 HD
BRANCH  11  13
ATOM     13  C   UNL d   1       3.124   3.063   1.283  0.00  0.00     0.004 A 
ATOM     14  C   UNL d   1       3.837   2.549   2.376  0.00  0.00     0.016 A 
ATOM     15  C   UNL d   1       4.418   3.414   3.305  0.00  0.00     0.024 A 
ATOM     16  C   UNL d   1       4.281   4.792   3.148  0.00  0.00     0.034 A 
ATOM     17  C   UNL d   1       3.576   5.314   2.061  0.00  0.00     0.024 A 
ATOM     18 CL   UNL d   1       4.961   5.858   4.312  0.00  0.00    -0.084 Cl
ATOM     19  C   UNL d   1       2.999   4.450   1.126  0.00  0.00     0.016 A 
ENDBRANCH  11  13
BRANCH  11  20
ATOM     20  N   UNL d   1       2.162   2.550  -0.938  0.00  0.00    -0.286 NA
ATOM     21  H   UNL d   1       1.948   1.775  -1.558  0.00  0.00     0.125 HD
ATOM     22  H   UNL d   1       2.861   3.165  -1.342  0.00  0.00     0.125 HD
ENDBRANCH  11  20
ENDBRANCH   9  10
ENDBRANCH   7   9
ENDBRANCH   2   7
BRANCH   1  23
ATOM     23  C   UNL d   1      -0.199  -3.941   0.307  0.00  0.00     0.435 C 
ATOM     24  F   UNL d   1       1.086  -3.888  -0.122  0.00  0.00    -0.165 F 
ATOM     25  F   UNL d   1      -0.180  -4.292   1.613  0.00  0.00    -0.165 F 
ATOM     26  F   UNL d   1      -0.760  -4.971  -0.376  0.00  0.00    -0.165 F 
ENDBRANCH   1  23
BRANCH   3  27
ATOM     27  C   UNL d   1      -3.316  -3.512  -0.112  0.00  0.00     0.057 A 
ATOM     28  C   UNL d   1      -3.258  -4.611   0.755  0.00  0.00     0.034 A 
ATOM     29  C   UNL d   1      -4.305  -5.541   0.789  0.00  0.00     0.038 A 
ATOM     30  C   UNL d   1      -5.424  -5.362  -0.033  0.00  0.00     0.103 A 
ATOM     31  C   UNL d   1      -5.522  -4.237  -0.859  0.00  0.00     0.038 A 
ATOM     32  C   UNL d   1      -4.474  -3.311  -0.886  0.00  0.00     0.034 A 
BRANCH  30  33
ATOM     33  N   UNL d   1      -6.498  -6.362  -0.032  0.00  0.00    -0.116 N 
ATOM     34  O   UNL d   1      -7.459  -6.177  -0.792  0.00  0.00    -0.532 OA
ATOM     35  O   UNL d   1      -6.376  -7.337   0.723  0.00  0.00    -0.532 OA
ENDBRANCH  30  33
ENDBRANCH   3  27
TORSDOF 8
