REMARK  7 active torsions:
REMARK  status: ('A' for Active; 'I' for Inactive)
REMARK    1  A    between atoms: C_2  and  C_1 
REMARK    2  A    between atoms: N_5  and  C_3 
REMARK       I    between atoms: C_4  and  N_5 
REMARK       I    between atoms: N_14  and  C_4 
REMARK       I    between atoms: C_6  and  N_15 
REMARK    3  A    between atoms: O_7  and  C_6 
REMARK    4  A    between atoms: C_13  and  O_7 
REMARK    5  A    between atoms: C_19  and  N_14 
REMARK    6  A    between atoms: N_15  and  C_18 
REMARK    7  A    between atoms: C_18  and  C_19 
ROOT
ATOM      1  C   UNL d   1       2.426  -1.759  -2.389  0.00  0.00     0.320 C 
ATOM      2  N   UNL d   1       2.121  -2.990  -1.853  0.00  0.00    -0.308 N 
ATOM      3  O   UNL d   1       3.489  -1.158  -2.231  0.00  0.00    -0.247 OA
ATOM      4  N   UNL d   1       1.420  -1.262  -3.169  0.00  0.00    -0.341 N 
ATOM      5  H   UNL d   1       1.548  -3.562  -2.463  0.00  0.00     0.170 HD
ATOM      6  H   UNL d   1       0.564  -1.786  -3.303  0.00  0.00     0.164 HD
ENDROOT
BRANCH   2   7
ATOM      7  C   UNL d   1       2.971  -3.646  -0.931  0.00  0.00     0.051 A 
ATOM      8  C   UNL d   1       3.232  -5.022  -1.023  0.00  0.00     0.074 A 
ATOM      9  C   UNL d   1       4.116  -5.607  -0.091  0.00  0.00     0.018 A 
ATOM     10  C   UNL d   1       4.695  -4.852   0.929  0.00  0.00     0.001 A 
ATOM     11  C   UNL d   1       4.398  -3.500   1.038  0.00  0.00     0.002 A 
ATOM     12  C   UNL d   1       3.546  -2.902   0.112  0.00  0.00     0.030 A 
BRANCH   8  13
ATOM     13  C   UNL d   1       2.690  -5.901  -2.117  0.00  0.00     0.419 C 
ATOM     14  F   UNL d   1       1.797  -5.284  -2.947  0.00  0.00    -0.166 F 
ATOM     15  F   UNL d   1       2.036  -6.994  -1.632  0.00  0.00    -0.166 F 
ATOM     16  F   UNL d   1       3.670  -6.389  -2.930  0.00  0.00    -0.166 F 
ENDBRANCH   8  13
ENDBRANCH   2   7
BRANCH   4  17
ATOM     17  C   UNL d   1       1.596  -0.089  -3.998  0.00  0.00     0.144 C 
BRANCH  17  18
ATOM     18  C   UNL d   1       2.092  -0.454  -5.405  0.00  0.00     0.144 C 
BRANCH  18  19
ATOM     19  N   UNL d   1       1.255  -1.331  -6.220  0.00  0.00    -0.335 N 
ATOM     20  C   UNL d   1       0.010  -1.794  -5.934  0.00  0.00     0.361 C 
ATOM     21  O   UNL d   1      -0.633  -1.548  -4.927  0.00  0.00    -0.238 OA
ATOM     22  H   UNL d   1       1.610  -1.613  -7.124  0.00  0.00     0.164 HD
BRANCH  20  23
ATOM     23  O   UNL d   1      -0.408  -2.588  -6.946  0.00  0.00    -0.294 OA
BRANCH  23  24
ATOM     24  C   UNL d   1      -1.756  -3.139  -6.927  0.00  0.00     0.061 C 
ATOM     25  C   UNL d   1      -2.798  -2.010  -6.917  0.00  0.00     0.046 C 
ATOM     26  C   UNL d   1      -1.880  -3.946  -8.232  0.00  0.00     0.046 C 
ATOM     27  C   UNL d   1      -1.956  -4.098  -5.745  0.00  0.00     0.046 C 
ENDBRANCH  23  24
ENDBRANCH  20  23
ENDBRANCH  18  19
ENDBRANCH  17  18
ENDBRANCH   4  17
TORSDOF 7
