REMARK  7 active torsions:
REMARK  status: ('A' for Active; 'I' for Inactive)
REMARK    1  A    between atoms: C_3  and  C_1 
REMARK    2  A    between atoms: C_2  and  C_4 
REMARK    3  A    between atoms: C_7  and  C_6 
REMARK    4  A    between atoms: C_11  and  C_7 
REMARK    5  A    between atoms: C_8  and  N_14 
REMARK    6  A    between atoms: N_14  and  C_12 
REMARK    7  A    between atoms: O_26  and  C_23 
ROOT
ATOM      1  C   UNL d   1       0.870  -1.191  -1.163  0.00  0.00     0.050 A 
ATOM      2  C   UNL d   1       1.689  -2.821  -2.777  0.00  0.00     0.050 A 
ATOM      3  C   UNL d   1       1.902  -1.997  -1.665  0.00  0.00     0.032 A 
ATOM      4  C   UNL d   1      -0.387  -1.218  -1.798  0.00  0.00     0.045 A 
ATOM      5  C   UNL d   1       0.424  -2.828  -3.387  0.00  0.00     0.045 A 
ATOM      6  C   UNL d   1      -0.629  -2.036  -2.913  0.00  0.00     0.033 A 
ENDROOT
BRANCH   6   7
ATOM      7  N   UNL d   1      -1.927  -2.107  -3.453  0.00  0.00    -0.366 N 
ATOM      8  H   UNL d   1      -2.538  -1.324  -3.246  0.00  0.00     0.165 HD
BRANCH   7   9
ATOM      9  C   UNL d   1      -2.475  -3.145  -4.169  0.00  0.00     0.092 C 
ATOM     10  C   UNL d   1      -3.690  -3.190  -4.734  0.00  0.00     0.072 C 
BRANCH  10  11
ATOM     11  C   UNL d   1      -4.141  -4.444  -5.401  0.00  0.00     0.183 C 
ATOM     12  O   UNL d   1      -3.330  -5.306  -5.736  0.00  0.00    -0.288 OA
BRANCH  11  13
ATOM     13  C   UNL d   1      -5.604  -4.667  -5.639  0.00  0.00     0.014 A 
ATOM     14  C   UNL d   1      -6.603  -3.775  -5.229  0.00  0.00     0.018 A 
ATOM     15  C   UNL d   1      -7.959  -4.071  -5.436  0.00  0.00     0.037 A 
ATOM     16  C   UNL d   1      -8.334  -5.264  -6.048  0.00  0.00     0.068 A 
ATOM     17  C   UNL d   1      -7.346  -6.145  -6.486  0.00  0.00     0.037 A 
ATOM     18  C   UNL d   1      -5.993  -5.855  -6.279  0.00  0.00     0.018 A 
BRANCH  16  19
ATOM     19  O   UNL d   1      -9.622  -5.646  -6.304  0.00  0.00    -0.356 OA
ATOM     20  C   UNL d   1     -10.600  -5.176  -5.381  0.00  0.00     0.210 C 
ENDBRANCH  16  19
ENDBRANCH  11  13
ENDBRANCH  10  11
ENDBRANCH   7   9
ENDBRANCH   6   7
BRANCH   2  21
ATOM     21  C   UNL d   1       2.782  -3.708  -3.321  0.00  0.00     0.417 C 
ATOM     22  F   UNL d   1       3.942  -3.631  -2.611  0.00  0.00    -0.166 F 
ATOM     23  F   UNL d   1       2.432  -5.023  -3.320  0.00  0.00    -0.166 F 
ATOM     24  F   UNL d   1       3.110  -3.405  -4.606  0.00  0.00    -0.166 F 
ENDBRANCH   2  21
BRANCH   1  25
ATOM     25  C   UNL d   1       1.093  -0.321   0.052  0.00  0.00     0.417 C 
ATOM     26  F   UNL d   1       2.343  -0.440   0.582  0.00  0.00    -0.166 F 
ATOM     27  F   UNL d   1       0.232  -0.611   1.066  0.00  0.00    -0.166 F 
ATOM     28  F   UNL d   1       0.926   1.003  -0.216  0.00  0.00    -0.166 F 
ENDBRANCH   1  25
TORSDOF 7
