REMARK  3 active torsions:
REMARK  status: ('A' for Active; 'I' for Inactive)
REMARK    1  A    between atoms: N_8  and  C_1 
REMARK    2  A    between atoms: C_10  and  C_5 
REMARK    3  A    between atoms: C_13  and  N_8 
ROOT
ATOM      1  C   UNL d   1      -0.378   1.390  -0.057  0.00  0.00     0.133 A 
ATOM      2  N   UNL d   1      -1.728   1.285   0.039  0.00  0.00    -0.325 N 
ATOM      3  HN  UNL d   1      -2.312   2.121   0.050  1.00  0.00     0.169 HD
ATOM      4  C   UNL d   1       0.423   0.242  -0.070  0.00  0.00     0.100 A 
ATOM      5  C   UNL d   1      -2.287   0.059   0.119  0.00  0.00     0.134 A 
ATOM      6  N   UNL d   1      -1.576  -1.078   0.149  0.00  0.00    -0.343 N 
ATOM      7  HN  UNL d   1      -2.033  -1.985   0.246  1.00  0.00     0.167 HD
ATOM      8  C   UNL d   1      -0.233  -0.977   0.045  0.00  0.00     0.032 A 
ATOM      9 CL   UNL d   1       2.135   0.284  -0.338  0.00  0.00    -0.078 Cl
ATOM     10  C   UNL d   1       0.499  -2.291   0.040  0.00  0.00     0.070 C 
ENDROOT
BRANCH   1  11
ATOM     11  N   UNL d   1       0.150   2.701  -0.223  0.00  0.00    -0.336 N 
ATOM     12  C   UNL d   1       1.116   3.113   0.800  0.00  0.00     0.158 C 
BRANCH  11  13
ATOM     13  C   UNL d   1      -0.529   3.747  -0.911  0.00  0.00     0.035 A 
ATOM     14  C   UNL d   1      -0.433   5.105  -0.557  0.00  0.00     0.029 A 
ATOM     15  C   UNL d   1      -1.107   6.103  -1.273  0.00  0.00     0.002 A 
ATOM     16  C   UNL d   1      -1.886   5.770  -2.376  0.00  0.00     0.000 A 
ATOM     17  C   UNL d   1      -1.994   4.439  -2.758  0.00  0.00     0.002 A 
ATOM     18  C   UNL d   1      -1.323   3.447  -2.036  0.00  0.00     0.029 A 
ENDBRANCH  11  13
ENDBRANCH   1  11
BRANCH   5  19
ATOM     19  C   UNL d   1      -3.771  -0.031   0.104  0.00  0.00     0.076 A 
ATOM     20  N   UNL d   1      -4.326  -1.276   0.203  0.00  0.00    -0.363 N 
ATOM     21  C   UNL d   1      -5.671  -1.382   0.159  0.00  0.00     0.088 A 
ATOM     22  HN  UNL d   1      -3.739  -2.104   0.307  1.00  0.00     0.165 HD
ATOM     23  C   UNL d   1      -6.524  -0.303   0.022  0.00  0.00     0.017 A 
ATOM     24  C   UNL d   1      -5.964   0.963  -0.078  0.00  0.00     0.004 A 
ATOM     25  C   UNL d   1      -4.577   1.102  -0.037  0.00  0.00     0.033 A 
ENDBRANCH   5  19
TORSDOF 3
