REMARK  7 active torsions:
REMARK  status: ('A' for Active; 'I' for Inactive)
REMARK    1  A    between atoms: C1*_3  and  N_1 
REMARK    2  A    between atoms: C2*_11  and  O2*_30 
REMARK    3  A    between atoms: N_16  and  N_20 
REMARK    4  A    between atoms: C3*_18  and  O3*_32 
REMARK    5  A    between atoms: C4*_19  and  C5*_33 
REMARK    6  A    between atoms: N_31  and  C_23 
REMARK    7  A    between atoms: O5*_34  and  C5*_33 
ROOT
ATOM      1  N   UNL d   1       1.481   1.180  -0.153  0.00  0.00    -0.134 N 
ATOM      2  C   UNL d   1       2.335   0.112   0.079  0.00  0.00     0.703 C 
ATOM      3  C   UNL d   1       0.201   0.712  -0.021  0.00  0.00     0.158 A 
ATOM      4  N   UNL d   1       1.661  -1.019   0.155  0.00  0.00    -0.183 N 
ATOM      5  HN  UNL d   1       2.043  -1.962   0.225  1.00  0.00     0.184 HD
ATOM      6  C   UNL d   1       0.337  -0.657   0.121  0.00  0.00     0.132 A 
ATOM      7  N   UNL d   1       3.674   0.296   0.214  0.00  0.00    -0.131 N 
ATOM      8  N   UNL d   1      -0.944   1.411  -0.064  0.00  0.00    -0.336 N 
ATOM      9  HN  UNL d   1      -0.999   2.425  -0.167  1.00  0.00     0.168 HD
ATOM     10  C   UNL d   1      -0.850  -1.408   0.185  0.00  0.00     0.110 A 
ATOM     11  N   UNL d   1      -2.031  -0.751   0.146  0.00  0.00    -0.341 N 
ATOM     12  HN  UNL d   1      -2.914  -1.260   0.191  1.00  0.00     0.167 HD
ATOM     13  C   UNL d   1      -2.012   0.594   0.047  0.00  0.00     0.183 A 
ATOM     14  H   UNL d   1       3.949   0.918   0.987  0.00  0.00     0.205 HD
ENDROOT
BRANCH   1  15
ATOM     15  C1* UNL d   1       1.877   2.466  -0.690  0.00  0.00     0.279 C 
ATOM     16  C2* UNL d   1       1.164   3.722  -0.171  0.00  0.00     0.199 C 
ATOM     17  C3* UNL d   1       0.197   4.097  -1.285  0.00  0.00     0.182 C 
ATOM     18  C4* UNL d   1       0.839   3.509  -2.532  0.00  0.00     0.179 C 
ATOM     19  O4* UNL d   1       1.703   2.429  -2.127  0.00  0.00    -0.353 OA
BRANCH  16  20
ATOM     20  O2* UNL d   1       2.100   4.813   0.006  0.00  0.00    -0.388 OA
ATOM     21  H2* UNL d   1       2.680   4.854  -0.778  0.00  0.00     0.210 HD
ENDBRANCH  16  20
BRANCH  17  22
ATOM     22  O3* UNL d   1       0.041   5.510  -1.418  0.00  0.00    -0.390 OA
ATOM     23  H3* UNL d   1       0.685   5.925  -0.810  0.00  0.00     0.210 HD
ENDBRANCH  17  22
BRANCH  18  24
ATOM     24  C5* UNL d   1      -0.204   2.990  -3.527  0.00  0.00     0.198 C 
BRANCH  24  25
ATOM     25  O5* UNL d   1       0.419   2.568  -4.740  0.00  0.00    -0.398 OA
ATOM     26  H5* UNL d   1       1.322   2.277  -4.517  0.00  0.00     0.209 HD
ENDBRANCH  24  25
ENDBRANCH  18  24
ENDBRANCH   1  15
BRANCH   7  27
ATOM     27  N   UNL d   1       4.561  -0.689  -0.137  0.00  0.00    -0.277 N 
ATOM     28  C   UNL d   1       5.724  -0.742   0.449  0.00  0.00     0.185 C 
ATOM     29  C   UNL d   1       6.735  -1.754  -0.069  0.00  0.00     0.283 C 
ATOM     30  C   UNL d   1       6.157   0.183   1.569  0.00  0.00     0.283 C 
ATOM     31  N   UNL d   1       8.020  -1.544   0.365  0.00  0.00    -0.273 N 
ATOM     32  O   UNL d   1       6.442  -2.645  -0.843  0.00  0.00    -0.265 OA
ATOM     33  C   UNL d   1       8.445  -0.589   1.238  0.00  0.00     0.330 C 
ATOM     34  H   UNL d   1       8.735  -2.109  -0.073  0.00  0.00     0.173 HD
ATOM     35  N   UNL d   1       7.486   0.114   1.900  0.00  0.00    -0.273 N 
ATOM     36  O   UNL d   1       9.634  -0.352   1.403  0.00  0.00    -0.246 OA
ATOM     37  H   UNL d   1       7.820   0.801   2.563  0.00  0.00     0.173 HD
ATOM     38  O   UNL d   1       5.381   0.970   2.087  0.00  0.00    -0.265 OA
ATOM     39  HN  UNL d   1       4.313  -1.374  -0.851  1.00  0.00     0.188 HD
ENDBRANCH   7  27
BRANCH  10  40
ATOM     40  N   UNL d   1      -0.871  -2.796   0.257  0.00  0.00    -0.287 NA
ATOM     41  H   UNL d   1      -0.012  -3.213  -0.089  0.00  0.00     0.125 HD
ATOM     42  H   UNL d   1      -1.739  -3.169  -0.106  0.00  0.00     0.125 HD
ENDBRANCH  10  40
TORSDOF 7
