REMARK  3 active torsions:
REMARK  status: ('A' for Active; 'I' for Inactive)
REMARK    1  A    between atoms: N_4  and  C_1 
REMARK       I    between atoms: C_6  and  N_4 
REMARK    2  A    between atoms: C_11  and  C_5 
REMARK    3  A    between atoms: C_9  and  C_6 
ROOT
ATOM      1  C   UNL d   1       0.297  -1.206  -0.102  0.00  0.00     0.151 A 
ATOM      2  N   UNL d   1       1.418  -0.555  -0.259  0.00  0.00    -0.335 N 
ATOM      3  HN  UNL d   1       2.318  -0.989  -0.466  1.00  0.00     0.168 HD
ATOM      4  C   UNL d   1       1.213   0.808  -0.104  0.00  0.00     0.051 A 
ATOM      5  S   UNL d   1      -1.084  -0.260   0.215  0.00  0.00    -0.063 SA
ATOM      6  C   UNL d   1      -0.109   1.157   0.111  0.00  0.00     0.083 A 
ENDROOT
BRANCH   1   7
ATOM      7  N   UNL d   1       0.082  -2.559  -0.113  0.00  0.00    -0.303 N 
ATOM      8  C   UNL d   1       1.057  -3.427  -0.548  0.00  0.00     0.257 C 
ATOM      9  O   UNL d   1       2.102  -3.131  -1.119  0.00  0.00    -0.267 OA
ATOM     10  H   UNL d   1      -0.836  -2.880   0.152  0.00  0.00     0.171 HD
BRANCH   8  11
ATOM     11  C   UNL d   1       0.785  -4.875  -0.335  0.00  0.00     0.032 A 
ATOM     12  C   UNL d   1       1.295  -5.786  -1.272  0.00  0.00     0.018 A 
ATOM     13  C   UNL d   1       1.184  -7.161  -1.055  0.00  0.00     0.025 A 
ATOM     14  C   UNL d   1       0.569  -7.627   0.105  0.00  0.00     0.034 A 
ATOM     15  C   UNL d   1       0.042  -6.729   1.035  0.00  0.00     0.025 A 
ATOM     16 CL   UNL d   1       0.489  -9.318   0.408  0.00  0.00    -0.084 Cl
ATOM     17  C   UNL d   1       0.147  -5.350   0.818  0.00  0.00     0.018 A 
ENDBRANCH   8  11
ENDBRANCH   1   7
BRANCH   4  18
ATOM     18  C   UNL d   1       2.344   1.738  -0.143  0.00  0.00    -0.009 A 
ATOM     19  C   UNL d   1       3.626   1.240  -0.431  0.00  0.00     0.014 A 
ATOM     20  C   UNL d   1       4.745   2.078  -0.428  0.00  0.00     0.001 A 
ATOM     21  C   UNL d   1       4.599   3.432  -0.139  0.00  0.00     0.000 A 
ATOM     22  C   UNL d   1       3.335   3.946   0.144  0.00  0.00     0.001 A 
ATOM     23  C   UNL d   1       2.215   3.106   0.142  0.00  0.00     0.014 A 
ENDBRANCH   4  18
TORSDOF 3
