REMARK  2 active torsions:
REMARK  status: ('A' for Active; 'I' for Inactive)
REMARK    1  A    between atoms: C_8  and  C_2 
REMARK    2  A    between atoms: O_10  and  C_4 
ROOT
ATOM      1  C   UNL d   1       0.084   2.406  -0.070  0.00  0.00     0.257 A 
ATOM      2  C   UNL d   1      -1.411   2.442   0.043  0.00  0.00     0.048 A 
ATOM      3  N   UNL d   1       0.722   1.166  -0.056  0.00  0.00    -0.312 N 
ATOM      4  C   UNL d   1      -2.092   1.279  -0.012  0.00  0.00     0.090 A 
ATOM      5  C   UNL d   1      -1.396  -0.015  -0.060  0.00  0.00     0.025 A 
ATOM      6  C   UNL d   1       0.006  -0.051  -0.055  0.00  0.00     0.056 A 
ATOM      7  O   UNL d   1       0.714   3.461  -0.156  0.00  0.00    -0.267 OA
ATOM      8  C   UNL d   1       0.671  -1.284  -0.051  0.00  0.00    -0.030 A 
ATOM      9  C   UNL d   1       2.168   1.191  -0.078  0.00  0.00     0.133 A 
ATOM     10  C   UNL d   1      -2.121  -1.220  -0.064  0.00  0.00     0.016 A 
ATOM     11  C   UNL d   1       2.944  -0.113  -0.025  0.00  0.00     0.025 A 
ATOM     12  C   UNL d   1      -1.467  -2.446  -0.056  0.00  0.00     0.002 A 
ATOM     13  C   UNL d   1      -0.078  -2.476  -0.050  0.00  0.00     0.009 A 
ATOM     14  C   UNL d   1       2.159  -1.408  -0.060  0.00  0.00     0.042 A 
ENDROOT
BRANCH   2  15
ATOM     15  C   UNL d   1      -2.067   3.791   0.301  0.00  0.00     0.027 C 
ATOM     16  C   UNL d   1      -1.561   4.486   1.579  0.00  0.00     0.009 C 
ATOM     17  C   UNL d   1      -2.477   5.658   1.925  0.00  0.00     0.001 C 
ATOM     18  C   UNL d   1      -2.605   6.649   0.768  0.00  0.00     0.000 C 
ATOM     19  C   UNL d   1      -2.929   5.982  -0.572  0.00  0.00     0.001 C 
ATOM     20  C   UNL d   1      -2.027   4.780  -0.873  0.00  0.00     0.009 C 
ENDBRANCH   2  15
BRANCH   4  21
ATOM     21  O   UNL d   1      -3.469   1.181   0.030  0.00  0.00    -0.359 OA
ATOM     22  H   UNL d   1      -3.869   2.032  -0.201  0.00  0.00     0.217 HD
ENDBRANCH   4  21
TORSDOF 2
