REMARK  0 active torsions:
REMARK  status: ('A' for Active; 'I' for Inactive)
ROOT
ATOM      1  C   UNL d   1       2.603   0.004  -0.001  0.00  0.00     0.145 A 
ATOM      2  N   UNL d   1       1.663  -1.031  -0.001  0.00  0.00    -0.335 N 
ATOM      3  S   UNL d   1       1.770   1.575  -0.001  0.00  0.00    -0.058 SA
ATOM      4  C   UNL d   1       0.313  -0.592  -0.000  0.00  0.00     0.052 A 
ATOM      5  C   UNL d   1       0.186   0.796  -0.000  0.00  0.00     0.034 A 
ATOM      6  S   UNL d   1       4.267  -0.115  -0.001  0.00  0.00    -0.052 SA
ATOM      7  C   UNL d   1       1.970  -2.453  -0.002  0.00  0.00     0.158 C 
ATOM      8  C   UNL d   1      -0.822  -1.396   0.000  0.00  0.00     0.031 A 
ATOM      9  C   UNL d   1      -1.055   1.414   0.000  0.00  0.00     0.021 A 
ATOM     10  C   UNL d   1      -2.081  -0.785   0.001  0.00  0.00     0.002 A 
ATOM     11  C   UNL d   1      -2.197   0.612   0.001  0.00  0.00     0.002 A 
ENDROOT
TORSDOF 0
