REMARK  3 active torsions:
REMARK  status: ('A' for Active; 'I' for Inactive)
REMARK    1  A    between atoms: C_8  and  C_1 
REMARK    2  A    between atoms: N_7  and  C_3 
REMARK       I    between atoms: N_14  and  C_8 
REMARK    3  A    between atoms: C_10  and  N_14 
ROOT
ATOM      1  C   UNL d   1       1.811  -4.048   0.205  0.00  0.00    -0.009 C 
ATOM      2  C   UNL d   1       2.861  -4.062   1.126  0.00  0.00     0.118 C 
ATOM      3  C   UNL d   1       2.080  -3.694  -1.116  0.00  0.00    -0.038 C 
ATOM      4  C   UNL d   1       0.310  -3.922   0.457  0.00  0.00    -0.017 C 
ATOM      5  C   UNL d   1       4.092  -2.625  -0.336  0.00  0.00     0.044 C 
ATOM      6  C   UNL d   1       4.058  -3.363   0.865  0.00  0.00    -0.002 C 
ATOM      7  C   UNL d   1       0.875  -3.938  -1.986  0.00  0.00    -0.019 C 
ATOM      8  C   UNL d   1       3.215  -2.951  -1.385  0.00  0.00     0.038 C 
ATOM      9  C   UNL d   1      -0.202  -3.498  -0.968  0.00  0.00     0.027 C 
ATOM     10  C   UNL d   1       0.070  -2.748   1.436  0.00  0.00     0.020 C 
ATOM     11  C   UNL d   1      -0.431  -5.157   0.965  0.00  0.00     0.020 C 
ATOM     12  C   UNL d   1       5.160  -3.272   1.882  0.00  0.00     0.053 C 
ATOM     13  C   UNL d   1       0.830  -3.136  -3.289  0.00  0.00     0.020 C 
ATOM     14  C   UNL d   1       0.751  -5.435  -2.334  0.00  0.00     0.020 C 
ENDROOT
BRANCH   5  15
ATOM     15  N   UNL d   1       4.867  -1.436  -0.427  0.00  0.00    -0.322 N 
ATOM     16  C   UNL d   1       4.294  -0.255  -0.932  0.00  0.00     0.264 C 
ATOM     17  O   UNL d   1       3.164  -0.217  -1.417  0.00  0.00    -0.267 OA
ATOM     18  H   UNL d   1       5.603  -1.287   0.249  0.00  0.00     0.169 HD
BRANCH  16  19
ATOM     19  C   UNL d   1       5.082   0.961  -0.800  0.00  0.00     0.096 C 
ATOM     20  S   UNL d   1       6.785   0.927  -0.878  0.00  0.00    -0.082 SA
ATOM     21  C   UNL d   1       6.898   2.643  -0.981  0.00  0.00     0.017 A 
ATOM     22  C   UNL d   1       8.066   3.404  -1.181  0.00  0.00     0.020 A 
ATOM     23  C   UNL d   1       5.646   3.248  -0.845  0.00  0.00     0.004 A 
ATOM     24  C   UNL d   1       7.966   4.794  -1.265  0.00  0.00     0.001 A 
ATOM     25  C   UNL d   1       6.738   5.423  -1.125  0.00  0.00     0.001 A 
ATOM     26  C   UNL d   1       5.585   4.666  -0.904  0.00  0.00     0.014 A 
ATOM     27  C   UNL d   1       4.612   2.258  -0.696  0.00  0.00     0.068 C 
ATOM     28 CL   UNL d   1       2.966   2.713  -0.474  0.00  0.00    -0.082 Cl
ENDBRANCH  16  19
ENDBRANCH   5  15
BRANCH   2  29
ATOM     29  N   UNL d   1       2.688  -4.817   2.358  0.00  0.00    -0.114 N 
ATOM     30  O   UNL d   1       2.518  -6.037   2.246  0.00  0.00    -0.532 OA
ATOM     31  O   UNL d   1       2.749  -4.186   3.421  0.00  0.00    -0.532 OA
ENDBRANCH   2  29
TORSDOF 3
