REMARK  4 active torsions:
REMARK  status: ('A' for Active; 'I' for Inactive)
REMARK    1  A    between atoms: C_4  and  C_1 
REMARK    2  A    between atoms: O_10  and  N_2 
REMARK    3  A    between atoms: S_5  and  C_8 
REMARK    4  A    between atoms: C_9  and  S_5 
ROOT
ATOM      1  C   UNL d   1       0.171   1.130   0.577  0.00  0.00    -0.012 A 
ATOM      2  C   UNL d   1       0.602   2.460   0.469  0.00  0.00     0.015 A 
ATOM      3  C   UNL d   1      -1.027   0.863   1.254  0.00  0.00     0.015 A 
ATOM      4  C   UNL d   1      -1.351   3.231   1.688  0.00  0.00     0.005 A 
ATOM      5  C   UNL d   1      -0.158   3.502   1.014  0.00  0.00     0.020 A 
ATOM      6  C   UNL d   1      -1.782   1.908   1.804  0.00  0.00     0.020 A 
ENDROOT
BRANCH   4   7
ATOM      7  S   UNL d   1      -2.355   4.566   2.303  0.00  0.00    -0.091 SA
BRANCH   7   8
ATOM      8  C   UNL d   1      -1.895   4.699   4.024  0.00  0.00     0.005 A 
ATOM      9  C   UNL d   1      -0.594   4.487   4.490  0.00  0.00     0.019 A 
ATOM     10  C   UNL d   1      -0.280   4.679   5.838  0.00  0.00     0.001 A 
ATOM     11  C   UNL d   1      -1.264   5.091   6.734  0.00  0.00     0.000 A 
ATOM     12  C   UNL d   1      -2.564   5.306   6.284  0.00  0.00     0.001 A 
ATOM     13  C   UNL d   1      -2.877   5.112   4.936  0.00  0.00     0.019 A 
ENDBRANCH   7   8
ENDBRANCH   4   7
BRANCH   1  14
ATOM     14  C   UNL d   1       0.991   0.036  -0.051  0.00  0.00     0.038 C 
ATOM     15  N   UNL d   1       2.104   0.355  -0.647  0.00  0.00    -0.273 N 
ATOM     16  HN  UNL d   1       2.458   1.310  -0.713  1.00  0.00     0.193 HD
ATOM     17  C   UNL d   1       0.465  -1.385   0.049  0.00  0.00     0.071 C 
BRANCH  15  18
ATOM     18  O   UNL d   1       2.759  -0.754  -1.187  0.00  0.00    -0.290 OA
ATOM     19  H   UNL d   1       3.542  -0.354  -1.607  0.00  0.00     0.244 HD
ENDBRANCH  15  18
ENDBRANCH   1  14
TORSDOF 4
