REMARK  6 active torsions:
REMARK  status: ('A' for Active; 'I' for Inactive)
REMARK    1  A    between atoms: C_7  and  C_1 
REMARK    2  A    between atoms: C_11  and  N_2 
REMARK       I    between atoms: N_8  and  C_7 
REMARK    3  A    between atoms: N_10  and  N_8 
REMARK       I    between atoms: C_9  and  N_10 
REMARK    4  A    between atoms: C_15  and  C_9 
REMARK    5  A    between atoms: C_14  and  C_15 
REMARK    6  A    between atoms: O_19  and  C_18 
ROOT
ATOM      1  C   UNL d   1      -0.735   2.451  -0.251  0.00  0.00     0.273 C 
ATOM      2  N   UNL d   1      -0.015   3.608  -0.006  0.00  0.00    -0.263 N 
ATOM      3  O   UNL d   1      -0.217   1.467  -0.782  0.00  0.00    -0.266 OA
ATOM      4  H   UNL d   1      -0.395   4.382   0.520  0.00  0.00     0.190 HD
ENDROOT
BRANCH   1   5
ATOM      5  C   UNL d   1      -2.161   2.445   0.091  0.00  0.00     0.074 A 
ATOM      6  C   UNL d   1      -3.100   3.440   0.400  0.00  0.00     0.048 A 
ATOM      7  N   UNL d   1      -4.338   2.789   0.479  0.00  0.00    -0.260 N 
ATOM      8  C   UNL d   1      -2.939   4.922   0.464  0.00  0.00     0.071 C 
ATOM      9  N   UNL d   1      -4.226   1.468   0.207  0.00  0.00    -0.304 N 
ATOM     10  C   UNL d   1      -2.927   1.261   0.053  0.00  0.00     0.127 A 
ATOM     11  HN  UNL d   1      -4.977   0.781   0.137  1.00  0.00     0.186 HD
BRANCH   7  12
ATOM     12  C   UNL d   1      -5.653   3.278   0.770  0.00  0.00     0.056 A 
ATOM     13  C   UNL d   1      -6.748   2.658   0.141  0.00  0.00     0.031 A 
ATOM     14  C   UNL d   1      -8.058   3.057   0.425  0.00  0.00     0.002 A 
ATOM     15  C   UNL d   1      -8.280   4.057   1.363  0.00  0.00     0.000 A 
ATOM     16  C   UNL d   1      -7.204   4.663   2.010  0.00  0.00     0.002 A 
ATOM     17  C   UNL d   1      -5.887   4.284   1.710  0.00  0.00     0.031 A 
ENDBRANCH   7  12
ENDBRANCH   1   5
BRANCH   2  18
ATOM     18  N   UNL d   1       1.370   3.659  -0.331  0.00  0.00    -0.267 N 
ATOM     19  C   UNL d   1       2.267   2.869   0.383  0.00  0.00     0.240 C 
ATOM     20  O   UNL d   1       1.969   2.244   1.399  0.00  0.00    -0.272 OA
ATOM     21  H   UNL d   1       1.582   3.842  -1.311  0.00  0.00     0.190 HD
BRANCH  19  22
ATOM     22  C   UNL d   1       3.705   2.938  -0.129  0.00  0.00     0.143 C 
BRANCH  22  23
ATOM     23  C   UNL d   1       3.948   2.427  -1.533  0.00  0.00    -0.047 A 
ATOM     24  C   UNL d   1       3.247   1.323  -2.041  0.00  0.00     0.044 A 
ATOM     25  C   UNL d   1       3.478   0.866  -3.343  0.00  0.00     0.068 A 
ATOM     26  C   UNL d   1       4.478   1.454  -4.116  0.00  0.00     0.037 A 
ATOM     27  C   UNL d   1       5.219   2.519  -3.608  0.00  0.00     0.003 A 
ATOM     28  C   UNL d   1       4.953   3.004  -2.326  0.00  0.00     0.007 A 
BRANCH  25  29
ATOM     29  O   UNL d   1       2.792  -0.158  -3.938  0.00  0.00    -0.356 OA
ATOM     30  C   UNL d   1       1.469  -0.355  -3.443  0.00  0.00     0.210 C 
ENDBRANCH  25  29
ENDBRANCH  22  23
ENDBRANCH  19  22
ENDBRANCH   2  18
TORSDOF 6
