REMARK  3 active torsions:
REMARK  status: ('A' for Active; 'I' for Inactive)
REMARK    1  A    between atoms: C_2  and  C_1 
REMARK    2  A    between atoms: C_13  and  C_8 
REMARK    3  A    between atoms: C_14  and  C_10 
ROOT
ATOM      1  C   UNL d   1      -0.122  -1.105   0.042  0.00  0.00     0.056 A 
ATOM      2  S   UNL d   1       1.404  -0.335   0.121  0.00  0.00    -0.067 SA
ATOM      3  N   UNL d   1      -0.663   1.165  -0.077  0.00  0.00    -0.352 N 
ATOM      4  HN  UNL d   1      -1.263   1.986  -0.168  1.00  0.00     0.166 HD
ATOM      5  C   UNL d   1       0.650   1.206   0.029  0.00  0.00     0.085 A 
ATOM      6  C   UNL d   1      -1.121  -0.151  -0.049  0.00  0.00     0.025 A 
ATOM      7  C   UNL d   1      -2.592  -0.375  -0.107  0.00  0.00     0.070 C 
ENDROOT
BRANCH   1   8
ATOM      8  C   UNL d   1      -0.311  -2.592   0.059  0.00  0.00     0.059 A 
ATOM      9  N   UNL d   1      -1.558  -3.176  -0.099  0.00  0.00    -0.348 N 
ATOM     10  C   UNL d   1      -1.453  -4.494  -0.123  0.00  0.00     0.084 A 
ATOM     11  HN  UNL d   1      -2.434  -2.661  -0.186  1.00  0.00     0.166 HD
ATOM     12  S   UNL d   1       0.141  -5.089   0.162  0.00  0.00    -0.081 SA
ATOM     13  C   UNL d   1       0.728  -3.486   0.216  0.00  0.00     0.082 A 
BRANCH  10  14
ATOM     14  C   UNL d   1      -2.579  -5.417  -0.344  0.00  0.00    -0.002 A 
ATOM     15  C   UNL d   1      -2.404  -6.688  -0.922  0.00  0.00     0.016 A 
ATOM     16  C   UNL d   1      -3.493  -7.539  -1.136  0.00  0.00     0.024 A 
ATOM     17  C   UNL d   1      -4.773  -7.127  -0.778  0.00  0.00     0.034 A 
ATOM     18  C   UNL d   1      -4.973  -5.871  -0.212  0.00  0.00     0.024 A 
ATOM     19 CL   UNL d   1      -6.111  -8.174  -1.044  0.00  0.00    -0.084 Cl
ATOM     20  C   UNL d   1      -3.881  -5.020  -0.001  0.00  0.00     0.016 A 
ENDBRANCH  10  14
ENDBRANCH   1   8
BRANCH   5  21
ATOM     21  C   UNL d   1       1.455   2.439   0.023  0.00  0.00    -0.002 A 
ATOM     22  C   UNL d   1       0.985   3.568  -0.668  0.00  0.00     0.016 A 
ATOM     23  C   UNL d   1       1.732   4.749  -0.709  0.00  0.00     0.024 A 
ATOM     24  C   UNL d   1       2.955   4.820  -0.047  0.00  0.00     0.034 A 
ATOM     25  C   UNL d   1       3.434   3.720   0.658  0.00  0.00     0.024 A 
ATOM     26 CL   UNL d   1       3.879   6.269  -0.096  0.00  0.00    -0.084 Cl
ATOM     27  C   UNL d   1       2.688   2.538   0.696  0.00  0.00     0.016 A 
ENDBRANCH   5  21
TORSDOF 3
