REMARK  4 active torsions:
REMARK  status: ('A' for Active; 'I' for Inactive)
REMARK    1  A    between atoms: N_2  and  S_1 
REMARK    2  A    between atoms: C_5  and  S_1 
REMARK    3  A    between atoms: C_3  and  N_2 
REMARK    4  A    between atoms: C_17  and  C_14 
ROOT
ATOM      1  S   UNL d   1       1.095  -0.051  -0.170  0.00  0.00     0.259 S 
ATOM      2  O   UNL d   1       0.401  -0.990  -1.026  0.00  0.00    -0.201 OA
ATOM      3  O   UNL d   1       2.537   0.028  -0.125  0.00  0.00    -0.201 OA
ENDROOT
BRANCH   1   4
ATOM      4  N   UNL d   1       0.546  -0.312   1.384  0.00  0.00    -0.302 N 
ATOM      5  H   UNL d   1      -0.076  -1.118   1.501  0.00  0.00     0.173 HD
BRANCH   4   6
ATOM      6  C   UNL d   1       1.350   0.061   2.571  0.00  0.00     0.185 C 
ATOM      7  C   UNL d   1       0.551  -0.455   3.786  0.00  0.00     0.241 C 
ATOM      8  N   UNL d   1       1.034  -0.220   5.042  0.00  0.00    -0.359 N 
ATOM      9  O   UNL d   1      -0.500  -1.090   3.666  0.00  0.00    -0.271 OA
ATOM     10  C   UNL d   1       2.340   0.290   5.386  0.00  0.00     0.122 C 
ATOM     11  H   UNL d   1       0.455  -0.612   5.777  0.00  0.00     0.162 HD
ATOM     12  C   UNL d   1       2.510   1.760   5.032  0.00  0.00     0.020 C 
ATOM     13  C   UNL d   1       2.726   1.993   3.543  0.00  0.00     0.004 C 
ATOM     14  C   UNL d   1       1.551   1.574   2.664  0.00  0.00     0.035 C 
ENDBRANCH   4   6
ENDBRANCH   1   4
BRANCH   1  15
ATOM     15  C   UNL d   1       0.431   1.559  -0.520  0.00  0.00     0.079 A 
ATOM     16  C   UNL d   1       1.287   2.630  -0.791  0.00  0.00     0.026 A 
ATOM     17  C   UNL d   1       0.762   3.921  -0.874  0.00  0.00     0.009 A 
ATOM     18  C   UNL d   1      -0.615   4.141  -0.719  0.00  0.00    -0.058 A 
ATOM     19  C   UNL d   1      -1.465   3.047  -0.498  0.00  0.00     0.009 A 
ATOM     20  C   UNL d   1      -0.947   1.757  -0.398  0.00  0.00     0.026 A 
BRANCH  18  21
ATOM     21  C   UNL d   1      -1.173   5.542  -0.738  0.00  0.00     0.034 C 
ATOM     22  C   UNL d   1      -1.219   6.152   0.656  0.00  0.00     0.010 C 
ENDBRANCH  18  21
ENDBRANCH   1  15
TORSDOF 4
