REMARK  9 active torsions:
REMARK  status: ('A' for Active; 'I' for Inactive)
REMARK    1  A    between atoms: C_7  and  S_1 
REMARK    2  A    between atoms: C_9  and  S_1 
REMARK    3  A    between atoms: N_2  and  C_8 
REMARK    4  A    between atoms: C_3  and  O_11 
REMARK    5  A    between atoms: C_16  and  C_3 
REMARK    6  A    between atoms: O_11  and  N_4 
REMARK    7  A    between atoms: C_6  and  C_10 
REMARK    8  A    between atoms: N_24  and  C_6 
REMARK    9  A    between atoms: C_10  and  C_9 
ROOT
ATOM      1  N   UNL d   1      -0.556  -1.885   3.953  0.00  0.00    -0.246 N 
ATOM      2  HN  UNL d   1      -0.981  -2.284   4.791  1.00  0.00     0.196 HD
ATOM      3  C   UNL d   1       0.278  -2.525   3.196  0.00  0.00     0.096 C 
ENDROOT
BRANCH   3   4
ATOM      4  C   UNL d   1       0.677  -3.926   3.637  0.00  0.00     0.093 C 
BRANCH   4   5
ATOM      5  C   UNL d   1      -0.524  -4.854   3.690  0.00  0.00     0.153 C 
BRANCH   5   6
ATOM      6  S   UNL d   1      -0.080  -6.526   4.107  0.00  0.00     0.175 S 
ATOM      7  O   UNL d   1      -1.300  -7.292   4.277  0.00  0.00    -0.223 OA
ATOM      8  O   UNL d   1       0.933  -6.958   3.161  0.00  0.00    -0.223 OA
BRANCH   6   9
ATOM      9  C   UNL d   1       0.684  -6.438   5.712  0.00  0.00     0.059 A 
ATOM     10  C   UNL d   1      -0.073  -6.016   6.809  0.00  0.00     0.025 A 
ATOM     11  C   UNL d   1       0.524  -5.949   8.070  0.00  0.00     0.025 A 
ATOM     12  C   UNL d   1       1.862  -6.313   8.227  0.00  0.00     0.034 A 
ATOM     13  C   UNL d   1       2.610  -6.753   7.135  0.00  0.00     0.025 A 
ATOM     14 CL   UNL d   1       2.594  -6.226   9.782  0.00  0.00    -0.084 Cl
ATOM     15  C   UNL d   1       2.021  -6.821   5.870  0.00  0.00     0.025 A 
ENDBRANCH   6   9
ENDBRANCH   5   6
ENDBRANCH   4   5
ENDBRANCH   3   4
BRANCH   3  16
ATOM     16  N   UNL d   1       0.840  -2.036   2.048  0.00  0.00    -0.388 N 
ATOM     17  H   UNL d   1       0.379  -1.224   1.657  0.00  0.00     0.157 HD
ATOM     18  H   UNL d   1       1.188  -2.695   1.361  0.00  0.00     0.157 HD
ENDBRANCH   3  16
BRANCH   1  19
ATOM     19  O   UNL d   1      -0.814  -0.571   3.489  0.00  0.00    -0.193 OA
BRANCH  19  20
ATOM     20  C   UNL d   1      -1.673   0.043   4.362  0.00  0.00     0.315 C 
ATOM     21  O   UNL d   1      -2.204  -0.460   5.345  0.00  0.00    -0.257 OA
BRANCH  20  22
ATOM     22  C   UNL d   1      -1.921   1.470   3.996  0.00  0.00     0.041 A 
ATOM     23  C   UNL d   1      -2.780   2.208   4.832  0.00  0.00     0.020 A 
ATOM     24  C   UNL d   1      -3.068   3.551   4.574  0.00  0.00     0.037 A 
ATOM     25  C   UNL d   1      -2.492   4.175   3.461  0.00  0.00     0.102 A 
ATOM     26  C   UNL d   1      -1.633   3.454   2.613  0.00  0.00     0.037 A 
ATOM     27  C   UNL d   1      -1.349   2.105   2.883  0.00  0.00     0.020 A 
BRANCH  25  28
ATOM     28  N   UNL d   1      -2.791   5.586   3.184  0.00  0.00    -0.116 N 
ATOM     29  O   UNL d   1      -3.563   6.174   3.954  0.00  0.00    -0.532 OA
ATOM     30  O   UNL d   1      -2.254   6.103   2.195  0.00  0.00    -0.532 OA
ENDBRANCH  25  28
ENDBRANCH  20  22
ENDBRANCH  19  20
ENDBRANCH   1  19
TORSDOF 9
