REMARK  1 active torsions:
REMARK  status: ('A' for Active; 'I' for Inactive)
REMARK    1  A    between atoms: C_11  and  C_4 
ROOT
ATOM      1  C   UNL d   1      -0.197   0.095  -0.080  0.00  0.00     0.053 A 
ATOM      2  C   UNL d   1       0.307  -1.147  -0.236  0.00  0.00    -0.017 A 
ATOM      3  C   UNL d   1       2.600  -0.293  -0.107  0.00  0.00     0.124 A 
ATOM      4  C   UNL d   1       1.769  -1.353  -0.269  0.00  0.00     0.010 A 
ATOM      5  N   UNL d   1       0.653   1.157   0.078  0.00  0.00    -0.321 N 
ATOM      6  C   UNL d   1       2.018   1.065   0.090  0.00  0.00     0.267 A 
ATOM      7  C   UNL d   1      -1.665   0.319  -0.060  0.00  0.00    -0.003 A 
ATOM      8  C   UNL d   1       4.021  -0.387  -0.109  0.00  0.00     0.106 C 
ATOM      9  C   UNL d   1      -0.629  -2.331  -0.359  0.00  0.00     0.046 C 
ATOM     10  N   UNL d   1       5.177  -0.499  -0.109  0.00  0.00    -0.191 NA
ATOM     11  O   UNL d   1       2.709   2.066   0.253  0.00  0.00    -0.266 OA
ATOM     12  C   UNL d   1      -2.512  -0.775   0.213  0.00  0.00    -0.045 A 
ATOM     13  C   UNL d   1      -1.908  -2.132   0.463  0.00  0.00     0.044 C 
ATOM     14  C   UNL d   1      -2.247   1.572  -0.301  0.00  0.00     0.014 A 
ATOM     15  C   UNL d   1      -3.900  -0.594   0.297  0.00  0.00     0.008 A 
ATOM     16  C   UNL d   1      -3.633   1.742  -0.236  0.00  0.00     0.001 A 
ATOM     17  C   UNL d   1      -4.457   0.663   0.071  0.00  0.00     0.001 A 
ATOM     18  H   UNL d   1       0.290   2.086   0.244  0.00  0.00     0.169 HD
ENDROOT
BRANCH   4  19
ATOM     19  C   UNL d   1       2.365  -2.693  -0.490  0.00  0.00    -0.008 A 
ATOM     20  C   UNL d   1       2.628  -3.158  -1.778  0.00  0.00     0.100 A 
ATOM     21  N   UNL d   1       3.146  -4.378  -2.056  0.00  0.00    -0.374 N 
ATOM     22  C   UNL d   1       3.428  -5.173  -1.002  0.00  0.00     0.087 A 
ATOM     23  HN  UNL d   1       3.314  -4.682  -3.015  1.00  0.00     0.164 HD
ATOM     24  C   UNL d   1       3.204  -4.808   0.316  0.00  0.00     0.018 A 
ATOM     25  C   UNL d   1       2.661  -3.550   0.574  0.00  0.00     0.015 A 
ENDBRANCH   4  19
TORSDOF 1
