REMARK  4 active torsions:
REMARK  status: ('A' for Active; 'I' for Inactive)
REMARK    1  A    between atoms: C_4  and  C_1 
REMARK       I    between atoms: N_12  and  C_4 
REMARK    2  A    between atoms: S_15  and  C_8 
REMARK    3  A    between atoms: C_10  and  C_16 
REMARK    4  A    between atoms: C_16  and  N_12 
ROOT
ATOM      1  C   UNL d   1      -0.083   2.487  -0.085  0.00  0.00     0.256 C 
ATOM      2  N   UNL d   1      -1.108   3.407  -0.009  0.00  0.00    -0.352 N 
ATOM      3  O   UNL d   1      -0.330   1.284  -0.174  0.00  0.00    -0.267 OA
ATOM      4  H   UNL d   1      -0.940   4.378   0.198  0.00  0.00     0.163 HD
ENDROOT
BRANCH   1   5
ATOM      5  C   UNL d   1       1.286   2.973  -0.047  0.00  0.00     0.087 A 
ATOM      6  C   UNL d   1       2.384   2.122  -0.036  0.00  0.00     0.090 A 
ATOM      7  O   UNL d   1       3.529   2.844  -0.007  0.00  0.00    -0.242 OA
ATOM      8  C   UNL d   1       2.542   0.653  -0.041  0.00  0.00     0.080 C 
ATOM      9  N   UNL d   1       3.226   4.185   0.001  0.00  0.00    -0.265 N 
ATOM     10  C   UNL d   1       1.887   4.264  -0.023  0.00  0.00     0.047 A 
ATOM     11  HN  UNL d   1       3.886   4.962   0.021  1.00  0.00     0.194 HD
ATOM     12  C   UNL d   1       1.275   5.613  -0.024  0.00  0.00     0.071 C 
ENDBRANCH   1   5
BRANCH   2  13
ATOM     13  C   UNL d   1      -2.461   2.899   0.051  0.00  0.00     0.169 C 
BRANCH  13  14
ATOM     14  C   UNL d   1      -3.458   4.006   0.134  0.00  0.00     0.001 A 
ATOM     15  S   UNL d   1      -3.935   4.628   1.659  0.00  0.00    -0.086 SA
ATOM     16  C   UNL d   1      -5.133   5.627   0.962  0.00  0.00     0.041 A 
ATOM     17  C   UNL d   1      -5.131   5.537  -0.413  0.00  0.00     0.027 A 
ATOM     18  C   UNL d   1      -4.160   4.607  -0.892  0.00  0.00     0.018 A 
BRANCH  16  19
ATOM     19  S   UNL d   1      -6.177   6.638   1.947  0.00  0.00    -0.127 SA
ATOM     20  C   UNL d   1      -7.804   5.998   1.485  0.00  0.00     0.096 C 
ENDBRANCH  16  19
ENDBRANCH  13  14
ENDBRANCH   2  13
TORSDOF 4
