REMARK  3 active torsions:
REMARK  status: ('A' for Active; 'I' for Inactive)
REMARK    1  A    between atoms: C_8  and  C_1 
REMARK       I    between atoms: C_2  and  N_7 
REMARK       I    between atoms: N_16  and  C_2 
REMARK    2  A    between atoms: C_9  and  C_3 
REMARK    3  A    between atoms: N_7  and  C_17 
ROOT
ATOM      1  C   UNL d   1       1.057  -0.104  -0.062  0.00  0.00     0.055 C 
ATOM      2  C   UNL d   1       0.531  -1.213   0.505  0.00  0.00     0.035 C 
ATOM      3  C   UNL d   1       2.348  -0.153  -0.685  0.00  0.00     0.100 C 
ATOM      4  N   UNL d   1       3.401  -0.180  -1.178  0.00  0.00    -0.191 NA
ENDROOT
BRANCH   1   5
ATOM      5  C   UNL d   1       0.322   1.193  -0.044  0.00  0.00    -0.015 A 
ATOM      6  C   UNL d   1       1.015   2.415   0.003  0.00  0.00     0.015 A 
ATOM      7  C   UNL d   1       0.333   3.641  -0.029  0.00  0.00     0.030 A 
ATOM      8  C   UNL d   1      -1.062   3.682  -0.111  0.00  0.00     0.036 A 
ATOM      9  C   UNL d   1      -1.757   2.475  -0.161  0.00  0.00     0.030 A 
ATOM     10  C   UNL d   1      -1.076   1.249  -0.133  0.00  0.00     0.015 A 
BRANCH   8  11
ATOM     11  N   UNL d   1      -1.685   4.945  -0.139  0.00  0.00    -0.309 N 
ATOM     12  C   UNL d   1      -3.028   5.208  -0.209  0.00  0.00     0.318 C 
ATOM     13  O   UNL d   1      -3.955   4.413  -0.269  0.00  0.00    -0.247 OA
ATOM     14  N   UNL d   1      -3.299   6.544  -0.178  0.00  0.00    -0.352 N 
ATOM     15  H   UNL d   1      -2.666   7.181  -0.637  0.00  0.00     0.160 HD
ATOM     16  H   UNL d   1      -4.281   6.744  -0.325  0.00  0.00     0.160 HD
ATOM     17  H   UNL d   1      -1.087   5.752  -0.047  0.00  0.00     0.170 HD
ENDBRANCH   8  11
ENDBRANCH   1   5
BRANCH   2  18
ATOM     18  C   UNL d   1       1.190  -2.527   0.505  0.00  0.00    -0.033 A 
ATOM     19  C   UNL d   1       2.048  -2.885   1.551  0.00  0.00     0.037 A 
ATOM     20  C   UNL d   1       2.732  -4.106   1.516  0.00  0.00     0.056 A 
ATOM     21 CL   UNL d   1       3.789  -4.471   2.833  0.00  0.00    -0.083 Cl
ATOM     22  C   UNL d   1       2.557  -4.975   0.433  0.00  0.00     0.055 A 
ATOM     23  C   UNL d   1       1.685  -4.625  -0.603  0.00  0.00     0.026 A 
ATOM     24 CL   UNL d   1       3.388  -6.485   0.310  0.00  0.00    -0.083 Cl
ATOM     25  C   UNL d   1       1.003  -3.406  -0.567  0.00  0.00     0.013 A 
ENDBRANCH   2  18
TORSDOF 3
