REMARK  4 active torsions:
REMARK  status: ('A' for Active; 'I' for Inactive)
REMARK    1  A    between atoms: N_7  and  C_2 
REMARK       I    between atoms: C_4  and  N_6 
REMARK       I    between atoms: N_13  and  C_4 
REMARK    2  A    between atoms: C_10  and  O_22 
REMARK    3  A    between atoms: C_23  and  N_13 
REMARK    4  A    between atoms: O_22  and  C_27 
ROOT
ATOM      1  C   UNL d   1       2.658  -6.695  -0.830  0.00  0.00     0.323 C 
ATOM      2  N   UNL d   1       2.267  -5.453  -0.367  0.00  0.00    -0.332 N 
ATOM      3  N   UNL d   1       1.536  -2.712  -0.011  0.00  0.00    -0.265 NA
ATOM      4  N   UNL d   1       3.833  -7.192  -0.315  0.00  0.00    -0.309 N 
ATOM      5  O   UNL d   1       1.974  -7.299  -1.658  0.00  0.00    -0.247 OA
ATOM      6  C   UNL d   1       0.960  -4.947  -0.827  0.00  0.00     0.142 C 
ATOM      7  C   UNL d   1       2.873  -4.645   0.707  0.00  0.00     0.142 C 
ATOM      8  C   UNL d   1       2.896  -3.143   0.354  0.00  0.00     0.117 C 
ATOM      9  C   UNL d   1       1.021  -3.452  -1.181  0.00  0.00     0.117 C 
ATOM     10  H   UNL d   1       4.313  -6.637   0.369  0.00  0.00     0.170 HD
ENDROOT
BRANCH   4  11
ATOM     11  C   UNL d   1       4.442  -8.433  -0.601  0.00  0.00     0.036 A 
ATOM     12  C   UNL d   1       3.940  -9.367  -1.515  0.00  0.00     0.032 A 
ATOM     13  C   UNL d   1       4.574 -10.600  -1.710  0.00  0.00     0.039 A 
ATOM     14  C   UNL d   1       5.747 -10.904  -1.026  0.00  0.00     0.078 A 
ATOM     15  C   UNL d   1       6.252  -9.973  -0.116  0.00  0.00     0.039 A 
ATOM     16  C   UNL d   1       5.612  -8.748   0.093  0.00  0.00     0.032 A 
BRANCH  14  17
ATOM     17  O   UNL d   1       6.495 -12.035  -1.140  0.00  0.00    -0.255 OA
BRANCH  17  18
ATOM     18  C   UNL d   1       6.232 -12.947  -2.192  0.00  0.00     0.530 C 
ATOM     19  F   UNL d   1       5.856 -12.341  -3.338  0.00  0.00    -0.144 F 
ATOM     20  F   UNL d   1       7.372 -13.630  -2.449  0.00  0.00    -0.144 F 
ATOM     21  F   UNL d   1       5.285 -13.833  -1.820  0.00  0.00    -0.144 F 
ENDBRANCH  17  18
ENDBRANCH  14  17
ENDBRANCH   4  11
BRANCH   3  22
ATOM     22  C   UNL d   1       1.375  -1.328  -0.111  0.00  0.00     0.103 A 
ATOM     23  C   UNL d   1       0.127  -0.701   0.064  0.00  0.00     0.070 A 
ATOM     24  S   UNL d   1      -1.421  -1.391   0.384  0.00  0.00    -0.096 SA
ATOM     25  C   UNL d   1       0.046   0.688   0.028  0.00  0.00     0.060 A 
ATOM     26  C   UNL d   1      -2.175   0.133   0.436  0.00  0.00     0.059 A 
ATOM     27  C   UNL d   1      -1.289   1.174   0.244  0.00  0.00    -0.027 A 
ATOM     28  C   UNL d   1      -1.679   2.612   0.270  0.00  0.00     0.051 C 
ATOM     29  N   UNL d   1       1.133   1.474  -0.174  0.00  0.00    -0.351 N 
ATOM     30  C   UNL d   1       2.276   0.800  -0.309  0.00  0.00     0.182 A 
ATOM     31  HN  UNL d   1       1.081   2.492  -0.218  1.00  0.00     0.166 HD
ATOM     32  N   UNL d   1       2.453  -0.528  -0.281  0.00  0.00    -0.342 N 
ATOM     33  HN  UNL d   1       3.385  -0.929  -0.386  1.00  0.00     0.167 HD
ENDBRANCH   3  22
TORSDOF 4
