REMARK  3 active torsions:
REMARK  status: ('A' for Active; 'I' for Inactive)
REMARK       I    between atoms: N_2  and  C_1 
REMARK       I    between atoms: N_3  and  C_1 
REMARK    1  A    between atoms: C_5  and  N_3 
REMARK    2  A    between atoms: C_7  and  N_4 
REMARK    3  A    between atoms: O_16  and  C_14 
ROOT
ATOM      1  C   UNL d   1       1.003   0.057   0.015  0.00  0.00     0.323 C 
ATOM      2  N   UNL d   1       0.499   1.174   0.693  0.00  0.00    -0.331 N 
ATOM      3  N   UNL d   1       0.539  -1.148   0.526  0.00  0.00    -0.308 N 
ATOM      4  N   UNL d   1      -0.844   3.629   1.322  0.00  0.00    -0.376 N 
ATOM      5  O   UNL d   1       1.821   0.157  -0.889  0.00  0.00    -0.247 OA
ATOM      6  C   UNL d   1       1.032   2.468   0.212  0.00  0.00     0.147 C 
ATOM      7  C   UNL d   1      -0.894   1.194   1.162  0.00  0.00     0.147 C 
ATOM      8  C   UNL d   1       0.603   3.703   1.051  0.00  0.00     0.143 C 
ATOM      9  C   UNL d   1      -1.208   2.406   2.045  0.00  0.00     0.143 C 
ATOM     10  H   UNL d   1       0.322  -1.071   1.501  0.00  0.00     0.170 HD
ENDROOT
BRANCH   3  11
ATOM     11  C   UNL d   1       1.041  -2.395   0.078  0.00  0.00     0.043 A 
ATOM     12  C   UNL d   1       1.431  -3.383   1.009  0.00  0.00    -0.013 A 
ATOM     13  C   UNL d   1       2.100  -4.522   0.511  0.00  0.00     0.042 A 
ATOM     14  C   UNL d   1       1.251  -3.225   2.496  0.00  0.00     0.052 C 
ATOM     15 CL   UNL d   1       2.787  -5.705   1.574  0.00  0.00    -0.084 Cl
ATOM     16  C   UNL d   1       2.277  -4.723  -0.860  0.00  0.00     0.024 A 
ATOM     17  C   UNL d   1       1.787  -3.793  -1.768  0.00  0.00     0.004 A 
ATOM     18  C   UNL d   1       1.183  -2.631  -1.297  0.00  0.00     0.030 A 
ENDBRANCH   3  11
BRANCH   4  19
ATOM     19  C   UNL d   1      -1.651   4.755   1.402  0.00  0.00     0.064 A 
ATOM     20  C   UNL d   1      -1.764   5.739   0.394  0.00  0.00     0.094 A 
ATOM     21  C   UNL d   1      -2.738   6.754   0.484  0.00  0.00     0.039 A 
ATOM     22  C   UNL d   1      -3.599   6.834   1.575  0.00  0.00     0.003 A 
ATOM     23  C   UNL d   1      -3.450   5.936   2.618  0.00  0.00     0.002 A 
ATOM     24  C   UNL d   1      -2.483   4.928   2.529  0.00  0.00     0.032 A 
BRANCH  20  25
ATOM     25  O   UNL d   1      -0.947   5.891  -0.699  0.00  0.00    -0.354 OA
ATOM     26  C   UNL d   1      -0.867   4.784  -1.583  0.00  0.00     0.210 C 
ENDBRANCH  20  25
ENDBRANCH   4  19
TORSDOF 3
