REMARK  8 active torsions:
REMARK  status: ('A' for Active; 'I' for Inactive)
REMARK    1  A    between atoms: C_3  and  C_1 
REMARK    2  A    between atoms: C_4  and  C_1 
REMARK    3  A    between atoms: N_6  and  C_2 
REMARK    4  A    between atoms: O_13  and  C_3 
REMARK    5  A    between atoms: O_12  and  C_4 
REMARK    6  A    between atoms: C_7  and  N_6 
REMARK    7  A    between atoms: C_19  and  O_12 
REMARK    8  A    between atoms: C_18  and  O_13 
ROOT
ATOM      1  C   UNL d   1       1.033  -0.001   0.032  0.00  0.00     0.129 C 
ATOM      2  C   UNL d   1       0.325  -1.148   0.009  0.00  0.00     0.112 C 
ENDROOT
BRANCH   1   3
ATOM      3  C   UNL d   1       0.333   1.303   0.090  0.00  0.00     0.300 C 
ATOM      4  O   UNL d   1       0.794   2.354  -0.323  0.00  0.00    -0.259 OA
BRANCH   3   5
ATOM      5  O   UNL d   1      -0.849   1.163   0.749  0.00  0.00    -0.318 OA
BRANCH   5   6
ATOM      6  C   UNL d   1      -1.470   2.374   1.207  0.00  0.00     0.174 C 
ATOM      7  C   UNL d   1      -1.062   2.585   2.652  0.00  0.00     0.034 C 
ENDBRANCH   5   6
ENDBRANCH   3   5
ENDBRANCH   1   3
BRANCH   1   8
ATOM      8  C   UNL d   1       2.506  -0.077   0.107  0.00  0.00     0.300 C 
ATOM      9  O   UNL d   1       3.159  -1.067  -0.205  0.00  0.00    -0.259 OA
BRANCH   8  10
ATOM     10  O   UNL d   1       2.993   1.025   0.726  0.00  0.00    -0.318 OA
BRANCH  10  11
ATOM     11  C   UNL d   1       4.334   0.935   1.221  0.00  0.00     0.174 C 
ATOM     12  C   UNL d   1       4.266   0.480   2.667  0.00  0.00     0.034 C 
ENDBRANCH  10  11
ENDBRANCH   8  10
ENDBRANCH   1   8
BRANCH   2  13
ATOM     13  N   UNL d   1       0.786  -2.444  -0.011  0.00  0.00    -0.363 N 
ATOM     14  H   UNL d   1       1.794  -2.559  -0.177  0.00  0.00     0.165 HD
BRANCH  13  15
ATOM     15  C   UNL d   1       0.058  -3.648   0.094  0.00  0.00     0.055 A 
ATOM     16  C   UNL d   1       0.599  -4.852  -0.413  0.00  0.00     0.082 A 
ATOM     17  C   UNL d   1      -0.155  -6.035  -0.387  0.00  0.00     0.058 A 
ATOM     18 CL   UNL d   1       2.207  -4.836  -1.077  0.00  0.00    -0.080 Cl
ATOM     19 CL   UNL d   1       0.439  -7.532  -1.018  0.00  0.00    -0.082 Cl
ATOM     20  C   UNL d   1      -1.443  -6.034   0.152  0.00  0.00     0.026 A 
ATOM     21  C   UNL d   1      -1.980  -4.860   0.671  0.00  0.00     0.004 A 
ATOM     22  C   UNL d   1      -1.238  -3.679   0.635  0.00  0.00     0.031 A 
ENDBRANCH  13  15
ENDBRANCH   2  13
TORSDOF 8
