REMARK  4 active torsions:
REMARK  status: ('A' for Active; 'I' for Inactive)
REMARK    1  A    between atoms: C_2  and  C_1 
REMARK       I    between atoms: N_8  and  C_2 
REMARK    2  A    between atoms: O_9  and  C_3 
REMARK    3  A    between atoms: N_10  and  N_8 
REMARK    4  A    between atoms: C_11  and  O_9 
ROOT
ATOM      1  C   UNL d   1       0.184   1.404   0.005  0.00  0.00     0.107 A 
ATOM      2  C   UNL d   1       1.450   0.827  -0.048  0.00  0.00     0.091 A 
ATOM      3  S   UNL d   1      -1.028   0.169   0.169  0.00  0.00    -0.094 SA
ATOM      4  C   UNL d   1       1.391  -0.602  -0.004  0.00  0.00     0.045 A 
ATOM      5  C   UNL d   1       0.113  -1.088   0.114  0.00  0.00     0.053 A 
ENDROOT
BRANCH   1   6
ATOM      6  C   UNL d   1      -0.269   2.788  -0.095  0.00  0.00     0.275 C 
ATOM      7  O   UNL d   1       0.364   3.706  -0.620  0.00  0.00    -0.266 OA
ATOM      8  N   UNL d   1      -1.522   3.053   0.475  0.00  0.00    -0.289 N 
ATOM      9  H   UNL d   1      -2.090   2.270   0.796  0.00  0.00     0.183 HD
BRANCH   8  10
ATOM     10  N   UNL d   1      -2.110   4.334   0.364  0.00  0.00    -0.247 NA
ATOM     11  H   UNL d   1      -1.562   4.853  -0.337  0.00  0.00     0.143 HD
ATOM     12  H   UNL d   1      -1.933   4.837   1.238  0.00  0.00     0.143 HD
ENDBRANCH   8  10
ENDBRANCH   1   6
BRANCH   2  13
ATOM     13  O   UNL d   1       2.673   1.405  -0.183  0.00  0.00    -0.350 OA
BRANCH  13  14
ATOM     14  C   UNL d   1       2.848   2.716   0.340  0.00  0.00     0.171 C 
ATOM     15  C   UNL d   1       4.293   2.859   0.791  0.00  0.00     0.034 C 
ENDBRANCH  13  14
ENDBRANCH   2  13
TORSDOF 4
