REMARK  5 active torsions:
REMARK  status: ('A' for Active; 'I' for Inactive)
REMARK    1  A    between atoms: N_2  and  S_1 
REMARK    2  A    between atoms: C_6  and  S_1 
REMARK    3  A    between atoms: C_3  and  N_2 
REMARK    4  A    between atoms: C_5  and  O_10 
REMARK    5  A    between atoms: O_10  and  C_17 
ROOT
ATOM      1  S   UNL d   1       0.885  -0.172  -0.021  0.00  0.00     0.259 S 
ATOM      2  O   UNL d   1      -0.011  -0.629  -1.062  0.00  0.00    -0.201 OA
ATOM      3  O   UNL d   1       0.830  -0.704   1.326  0.00  0.00    -0.201 OA
ENDROOT
BRANCH   1   4
ATOM      4  N   UNL d   1       0.720   1.489   0.065  0.00  0.00    -0.302 N 
ATOM      5  H   UNL d   1      -0.058   1.857  -0.495  0.00  0.00     0.173 HD
BRANCH   4   6
ATOM      6  C   UNL d   1       0.924   2.185   1.360  0.00  0.00     0.185 C 
ATOM      7  C   UNL d   1       0.268   3.569   1.206  0.00  0.00     0.241 C 
ATOM      8  N   UNL d   1       0.369   4.463   2.233  0.00  0.00    -0.359 N 
ATOM      9  O   UNL d   1      -0.366   3.888   0.196  0.00  0.00    -0.271 OA
ATOM     10  C   UNL d   1       0.824   4.184   3.576  0.00  0.00     0.122 C 
ATOM     11  H   UNL d   1      -0.120   5.334   2.058  0.00  0.00     0.162 HD
ATOM     12  C   UNL d   1       2.320   3.914   3.657  0.00  0.00     0.020 C 
ATOM     13  C   UNL d   1       2.717   2.537   3.139  0.00  0.00     0.004 C 
ATOM     14  C   UNL d   1       2.417   2.320   1.659  0.00  0.00     0.035 C 
ENDBRANCH   4   6
ENDBRANCH   1   4
BRANCH   1  15
ATOM     15  C   UNL d   1       2.538  -0.352  -0.638  0.00  0.00     0.079 A 
ATOM     16  C   UNL d   1       3.538  -0.917   0.160  0.00  0.00     0.028 A 
ATOM     17  C   UNL d   1       4.840  -1.039  -0.339  0.00  0.00     0.038 A 
ATOM     18  C   UNL d   1       5.129  -0.645  -1.647  0.00  0.00     0.078 A 
ATOM     19  C   UNL d   1       4.123  -0.058  -2.426  0.00  0.00     0.038 A 
ATOM     20  C   UNL d   1       2.828   0.086  -1.930  0.00  0.00     0.028 A 
BRANCH  18  21
ATOM     21  O   UNL d   1       6.326  -0.771  -2.287  0.00  0.00    -0.255 OA
BRANCH  21  22
ATOM     22  C   UNL d   1       7.285  -1.678  -1.768  0.00  0.00     0.530 C 
ATOM     23  F   UNL d   1       6.725  -2.779  -1.222  0.00  0.00    -0.144 F 
ATOM     24  F   UNL d   1       8.082  -2.083  -2.782  0.00  0.00    -0.144 F 
ATOM     25  F   UNL d   1       8.052  -1.062  -0.844  0.00  0.00    -0.144 F 
ENDBRANCH  21  22
ENDBRANCH  18  21
ENDBRANCH   1  15
TORSDOF 5
