REMARK  4 active torsions:
REMARK  status: ('A' for Active; 'I' for Inactive)
REMARK    1  A    between atoms: N_2  and  S_1 
REMARK    2  A    between atoms: C_10  and  S_1 
REMARK    3  A    between atoms: C_3  and  N_8 
REMARK    4  A    between atoms: C_4  and  C_5 
ROOT
ATOM      1  N   UNL d   1       0.310   0.087  -1.407  0.00  0.00    -0.203 NA
ATOM      2  N   UNL d   1      -2.526   0.448  -1.565  0.00  0.00    -0.364 N 
ATOM      3  C   UNL d   1      -0.296   1.434  -1.694  0.00  0.00     0.127 C 
ATOM      4  C   UNL d   1      -0.619  -1.031  -1.796  0.00  0.00     0.127 C 
ATOM      5  C   UNL d   1      -1.704   1.560  -1.063  0.00  0.00     0.140 C 
ATOM      6  C   UNL d   1      -2.018  -0.872  -1.164  0.00  0.00     0.140 C 
ENDROOT
BRANCH   2   7
ATOM      7  C   UNL d   1      -3.870   0.615  -1.824  0.00  0.00     0.125 A 
ATOM      8  N   UNL d   1      -4.738  -0.267  -1.265  0.00  0.00    -0.350 N 
ATOM      9  C   UNL d   1      -6.061  -0.168  -1.556  0.00  0.00     0.106 A 
ATOM     10  HN  UNL d   1      -4.401  -0.993  -0.634  1.00  0.00     0.166 HD
ATOM     11  C   UNL d   1      -6.600   0.783  -2.405  0.00  0.00     0.065 A 
ATOM     12  C   UNL d   1      -5.713   1.681  -2.994  0.00  0.00     0.045 A 
ATOM     13  C   UNL d   1      -4.348   1.595  -2.720  0.00  0.00     0.078 A 
ATOM     14 CL   UNL d   1      -3.315   2.631  -3.649  0.00  0.00    -0.080 Cl
BRANCH  11  15
ATOM     15  C   UNL d   1      -8.067   0.808  -2.693  0.00  0.00     0.418 C 
ATOM     16  F   UNL d   1      -8.431   1.810  -3.542  0.00  0.00    -0.166 F 
ATOM     17  F   UNL d   1      -8.504  -0.344  -3.271  0.00  0.00    -0.166 F 
ATOM     18  F   UNL d   1      -8.819   0.978  -1.573  0.00  0.00    -0.166 F 
ENDBRANCH  11  15
ENDBRANCH   2   7
BRANCH   1  19
ATOM     19  S   UNL d   1       1.090  -0.074   0.095  0.00  0.00     0.243 S 
ATOM     20  O   UNL d   1       1.184  -1.475   0.426  0.00  0.00    -0.206 OA
ATOM     21  O   UNL d   1       0.525   0.892   1.012  0.00  0.00    -0.206 OA
BRANCH  19  22
ATOM     22  C   UNL d   1       2.743   0.456  -0.312  0.00  0.00     0.074 A 
ATOM     23  C   UNL d   1       3.297   1.584   0.300  0.00  0.00     0.026 A 
ATOM     24  C   UNL d   1       4.617   1.941   0.009  0.00  0.00     0.025 A 
ATOM     25  C   UNL d   1       5.368   1.172  -0.882  0.00  0.00     0.034 A 
ATOM     26  C   UNL d   1       4.813   0.045  -1.490  0.00  0.00     0.025 A 
ATOM     27 CL   UNL d   1       6.995   1.613  -1.228  0.00  0.00    -0.084 Cl
ATOM     28  C   UNL d   1       3.496  -0.318  -1.204  0.00  0.00     0.026 A 
ENDBRANCH  19  22
ENDBRANCH   1  19
TORSDOF 4
