REMARK  4 active torsions:
REMARK  status: ('A' for Active; 'I' for Inactive)
REMARK    1  A    between atoms: C_4  and  C_2 
REMARK    2  A    between atoms: C_11  and  C_2 
REMARK    3  A    between atoms: C_6  and  C_4 
REMARK    4  A    between atoms: C_8  and  C_6 
ROOT
ATOM      1  C   UNL d   1      -2.058   0.307   0.176  0.00  0.00     0.001 C 
ATOM      2  C   UNL d   1      -3.226   0.067  -0.460  0.00  0.00    -0.030 C 
ATOM      3  C   UNL d   1      -1.044  -0.785   0.335  0.00  0.00     0.189 C 
ATOM      4  C   UNL d   1       0.382  -0.377   0.215  0.00  0.00     0.021 A 
ATOM      5  C   UNL d   1      -1.592   1.621   0.753  0.00  0.00     0.048 C 
ATOM      6  O   UNL d   1      -1.352  -1.951   0.538  0.00  0.00    -0.287 OA
ATOM      7  C   UNL d   1       0.738   0.974   0.060  0.00  0.00    -0.044 A 
ATOM      8  C   UNL d   1      -0.309   2.059   0.044  0.00  0.00     0.044 C 
ATOM      9  C   UNL d   1       1.366  -1.373   0.212  0.00  0.00     0.016 A 
ATOM     10  C   UNL d   1       2.087   1.302  -0.134  0.00  0.00     0.008 A 
ATOM     11  C   UNL d   1       2.705  -1.032   0.030  0.00  0.00     0.001 A 
ATOM     12  C   UNL d   1       3.063   0.304  -0.148  0.00  0.00     0.001 A 
ENDROOT
BRANCH   2  13
ATOM     13  C   UNL d   1      -3.596  -1.220  -1.170  0.00  0.00     0.124 C 
BRANCH  13  14
ATOM     14  C   UNL d   1      -4.449  -2.191  -0.349  0.00  0.00     0.163 C 
ATOM     15  O   UNL d   1      -4.893  -1.930   0.766  0.00  0.00    -0.292 OA
BRANCH  14  16
ATOM     16  C   UNL d   1      -4.777  -3.516  -0.973  0.00  0.00     0.010 A 
ATOM     17  C   UNL d   1      -4.436  -3.826  -2.296  0.00  0.00     0.015 A 
ATOM     18  C   UNL d   1      -4.729  -5.087  -2.826  0.00  0.00     0.007 A 
ATOM     19  C   UNL d   1      -5.366  -6.057  -2.045  0.00  0.00    -0.062 A 
ATOM     20  C   UNL d   1      -5.738  -5.737  -0.736  0.00  0.00     0.007 A 
ATOM     21  C   UNL d   1      -5.613  -7.424  -2.611  0.00  0.00     0.048 C 
ATOM     22  C   UNL d   1      -5.447  -4.476  -0.204  0.00  0.00     0.015 A 
ENDBRANCH  14  16
ENDBRANCH  13  14
ENDBRANCH   2  13
BRANCH   2  23
ATOM     23  C   UNL d   1      -4.216   1.148  -0.626  0.00  0.00    -0.029 A 
ATOM     24  C   UNL d   1      -4.144   2.019  -1.721  0.00  0.00     0.012 A 
ATOM     25  C   UNL d   1      -5.072   3.052  -1.858  0.00  0.00     0.001 A 
ATOM     26  C   UNL d   1      -6.076   3.219  -0.904  0.00  0.00     0.000 A 
ATOM     27  C   UNL d   1      -6.154   2.354   0.186  0.00  0.00     0.001 A 
ATOM     28  C   UNL d   1      -5.226   1.322   0.327  0.00  0.00     0.012 A 
ENDBRANCH   2  23
TORSDOF 4
