REMARK  3 active torsions:
REMARK  status: ('A' for Active; 'I' for Inactive)
REMARK    1  A    between atoms: C_11  and  C_3 
REMARK       I    between atoms: C_9  and  N_8 
REMARK       I    between atoms: N_15  and  C_9 
REMARK    2  A    between atoms: C_10  and  C_14 
REMARK    3  A    between atoms: C_18  and  N_15 
ROOT
ATOM      1  S   UNL d   1      -2.029   0.645   0.762  0.00  0.00    -0.037 SA
ATOM      2  C   UNL d   1      -0.393   1.051   0.519  0.00  0.00     0.169 A 
ATOM      3  C   UNL d   1      -1.576  -0.986   0.477  0.00  0.00     0.074 A 
ATOM      4  N   UNL d   1      -0.282  -1.157   0.289  0.00  0.00    -0.296 N 
ATOM      5  HN  UNL d   1       0.153  -2.065   0.123  1.00  0.00     0.187 HD
ATOM      6  N   UNL d   1       0.418   0.036   0.341  0.00  0.00    -0.279 N 
ATOM      7  HN  UNL d   1       1.431   0.115   0.252  1.00  0.00     0.189 HD
ATOM      8  N   UNL d   1      -0.123   2.385   0.518  0.00  0.00    -0.287 N 
ATOM      9  C   UNL d   1       1.086   2.978   0.310  0.00  0.00     0.326 C 
ATOM     10  N   UNL d   1       2.188   2.171   0.250  0.00  0.00    -0.309 N 
ATOM     11  O   UNL d   1       1.089   4.206   0.219  0.00  0.00    -0.247 OA
ATOM     12  H   UNL d   1      -0.900   3.023   0.589  0.00  0.00     0.172 HD
ATOM     13  H   UNL d   1       2.031   1.188   0.452  0.00  0.00     0.170 HD
ENDROOT
BRANCH  10  14
ATOM     14  C   UNL d   1       3.526   2.560   0.024  0.00  0.00     0.037 A 
ATOM     15  C   UNL d   1       3.906   3.842  -0.387  0.00  0.00     0.045 A 
ATOM     16  C   UNL d   1       5.258   4.163  -0.606  0.00  0.00     0.050 A 
ATOM     17  C   UNL d   1       6.234   3.178  -0.398  0.00  0.00     0.016 A 
ATOM     18  C   UNL d   1       5.865   1.898   0.010  0.00  0.00     0.003 A 
ATOM     19  C   UNL d   1       4.518   1.590   0.212  0.00  0.00     0.029 A 
BRANCH  16  20
ATOM     20  C   UNL d   1       5.664   5.537  -1.078  0.00  0.00     0.417 C 
ATOM     21  F   UNL d   1       4.631   6.416  -1.188  0.00  0.00    -0.166 F 
ATOM     22  F   UNL d   1       6.568   6.128  -0.246  0.00  0.00    -0.166 F 
ATOM     23  F   UNL d   1       6.257   5.507  -2.305  0.00  0.00    -0.166 F 
ENDBRANCH  16  20
ENDBRANCH  10  14
BRANCH   3  24
ATOM     24  C   UNL d   1      -2.537  -2.175   0.393  0.00  0.00     0.044 A 
ATOM     25  C   UNL d   1      -3.607  -2.372   1.445  0.00  0.00     0.012 A 
ATOM     26  C   UNL d   1      -4.003  -1.950   0.071  0.00  0.00     0.012 A 
ENDBRANCH   3  24
TORSDOF 3
