REMARK  4 active torsions:
REMARK  status: ('A' for Active; 'I' for Inactive)
REMARK    1  A    between atoms: C_7  and  C_1 
REMARK    2  A    between atoms: N_8  and  C_2 
REMARK    3  A    between atoms: C_10  and  C_7 
REMARK    4  A    between atoms: C_11  and  N_8 
ROOT
ATOM      1  C   UNL d   1      -0.170  -1.096   0.102  0.00  0.00     0.081 A 
ATOM      2  C   UNL d   1       0.657   1.204   0.188  0.00  0.00     0.150 A 
ATOM      3  N   UNL d   1      -0.654   1.179   0.133  0.00  0.00    -0.339 N 
ATOM      4  HN  UNL d   1      -1.240   2.014   0.101  1.00  0.00     0.168 HD
ATOM      5  S   UNL d   1       1.376  -0.359   0.253  0.00  0.00    -0.048 SA
ATOM      6  C   UNL d   1      -1.144  -0.112   0.126  0.00  0.00     0.028 A 
ATOM      7  C   UNL d   1      -2.621  -0.281   0.099  0.00  0.00     0.070 C 
ENDROOT
BRANCH   1   8
ATOM      8  C   UNL d   1      -0.350  -2.536   0.056  0.00  0.00     0.201 C 
ATOM      9  O   UNL d   1      -1.340  -3.095   0.525  0.00  0.00    -0.286 OA
BRANCH   8  10
ATOM     10  C   UNL d   1       0.664  -3.410  -0.609  0.00  0.00     0.015 A 
ATOM     11  C   UNL d   1       1.352  -3.001  -1.760  0.00  0.00     0.015 A 
ATOM     12  C   UNL d   1       2.296  -3.844  -2.349  0.00  0.00     0.001 A 
ATOM     13  C   UNL d   1       2.534  -5.108  -1.813  0.00  0.00     0.000 A 
ATOM     14  C   UNL d   1       1.825  -5.536  -0.690  0.00  0.00     0.001 A 
ATOM     15  C   UNL d   1       0.890  -4.691  -0.089  0.00  0.00     0.015 A 
ENDBRANCH   8  10
ENDBRANCH   1   8
BRANCH   2  16
ATOM     16  N   UNL d   1       1.442   2.307   0.164  0.00  0.00    -0.337 N 
ATOM     17  H   UNL d   1       2.442   2.177   0.079  0.00  0.00     0.168 HD
BRANCH  16  18
ATOM     18  C   UNL d   1       1.014   3.646   0.186  0.00  0.00     0.034 A 
ATOM     19  C   UNL d   1      -0.237   4.042   0.679  0.00  0.00     0.029 A 
ATOM     20  C   UNL d   1      -0.660   5.369   0.614  0.00  0.00     0.002 A 
ATOM     21  C   UNL d   1       0.163   6.333   0.040  0.00  0.00     0.000 A 
ATOM     22  C   UNL d   1       1.407   5.964  -0.464  0.00  0.00     0.002 A 
ATOM     23  C   UNL d   1       1.829   4.632  -0.392  0.00  0.00     0.029 A 
ENDBRANCH  16  18
ENDBRANCH   2  16
TORSDOF 4
