REMARK  6 active torsions:
REMARK  status: ('A' for Active; 'I' for Inactive)
REMARK    1  A    between atoms: C_11  and  N_1 
REMARK    2  A    between atoms: N_7  and  C_15 
REMARK    3  A    between atoms: S_16  and  C_8 
REMARK    4  A    between atoms: C_14  and  C_11 
REMARK    5  A    between atoms: C_23  and  S_16 
REMARK    6  A    between atoms: C_24  and  C_23 
ROOT
ATOM      1  N   UNL d   1       1.437   1.093  -0.066  0.00  0.00    -0.254 N 
ATOM      2  N   UNL d   1       2.334   0.082  -0.003  0.00  0.00    -0.018 NA
ATOM      3  C   UNL d   1       0.156   0.613  -0.098  0.00  0.00     0.153 A 
ATOM      4  C   UNL d   1       0.316  -0.759  -0.047  0.00  0.00     0.125 A 
ATOM      5  N   UNL d   1       1.654  -1.060   0.006  0.00  0.00    -0.278 N 
ATOM      6  HN  UNL d   1       2.056  -1.996   0.046  1.00  0.00     0.184 HD
ATOM      7  C   UNL d   1      -0.854  -1.520  -0.036  0.00  0.00     0.102 A 
ATOM      8  N   UNL d   1      -1.004   1.292  -0.143  0.00  0.00    -0.336 N 
ATOM      9  HN  UNL d   1      -1.075   2.309  -0.165  1.00  0.00     0.168 HD
ATOM     10  N   UNL d   1      -2.057  -0.895  -0.104  0.00  0.00    -0.345 N 
ATOM     11  HN  UNL d   1      -2.928  -1.425  -0.115  1.00  0.00     0.167 HD
ATOM     12  C   UNL d   1      -2.060   0.456  -0.155  0.00  0.00     0.183 A 
ENDROOT
BRANCH   7  13
ATOM     13  S   UNL d   1      -0.739  -3.270   0.172  0.00  0.00    -0.105 SA
BRANCH  13  14
ATOM     14  C   UNL d   1      -2.265  -3.822  -0.650  0.00  0.00     0.119 C 
BRANCH  14  15
ATOM     15  C   UNL d   1      -2.376  -5.333  -0.595  0.00  0.00    -0.048 A 
ATOM     16  C   UNL d   1      -3.025  -5.958   0.483  0.00  0.00     0.010 A 
ATOM     17  C   UNL d   1      -3.096  -7.352   0.563  0.00  0.00     0.036 A 
ATOM     18  C   UNL d   1      -2.508  -8.131  -0.441  0.00  0.00     0.102 A 
ATOM     19  C   UNL d   1      -1.852  -7.524  -1.519  0.00  0.00     0.036 A 
ATOM     20  C   UNL d   1      -1.787  -6.130  -1.590  0.00  0.00     0.010 A 
BRANCH  18  21
ATOM     21  N   UNL d   1      -2.575  -9.595  -0.359  0.00  0.00    -0.116 N 
ATOM     22  O   UNL d   1      -2.048 -10.250  -1.270  0.00  0.00    -0.532 OA
ATOM     23  O   UNL d   1      -3.160 -10.094   0.614  0.00  0.00    -0.532 OA
ENDBRANCH  18  21
ENDBRANCH  14  15
ENDBRANCH  13  14
ENDBRANCH   7  13
BRANCH   1  24
ATOM     24  C   UNL d   1       1.883   2.471   0.033  0.00  0.00     0.189 C 
BRANCH  24  25
ATOM     25  C   UNL d   1       2.251   3.039  -1.317  0.00  0.00    -0.017 A 
ATOM     26  C   UNL d   1       1.364   3.805  -2.090  0.00  0.00     0.042 A 
ATOM     27 CL   UNL d   1      -0.202   4.256  -1.520  0.00  0.00    -0.084 Cl
ATOM     28  C   UNL d   1       1.733   4.253  -3.362  0.00  0.00     0.024 A 
ATOM     29  C   UNL d   1       2.994   3.958  -3.875  0.00  0.00     0.002 A 
ATOM     30  C   UNL d   1       3.896   3.223  -3.112  0.00  0.00     0.001 A 
ATOM     31  C   UNL d   1       3.528   2.765  -1.846  0.00  0.00     0.010 A 
ENDBRANCH  24  25
ENDBRANCH   1  24
TORSDOF 6
