REMARK  4 active torsions:
REMARK  status: ('A' for Active; 'I' for Inactive)
REMARK    1  A    between atoms: C_2  and  C_1 
REMARK    2  A    between atoms: C_3  and  C_1 
REMARK    3  A    between atoms: C_4  and  C_1 
REMARK       I    between atoms: N_5  and  C_2 
REMARK    4  A    between atoms: C_16  and  N_5 
ROOT
ATOM      1  C   UNL d   1       0.980  -0.046   0.245  0.00  0.00     0.044 C 
ENDROOT
BRANCH   1   2
ATOM      2  C   UNL d   1       0.131   1.175   0.485  0.00  0.00     0.257 C 
ATOM      3  N   UNL d   1      -0.791   1.400  -0.521  0.00  0.00    -0.323 N 
ATOM      4  H   UNL d   1      -1.025   0.615  -1.117  0.00  0.00     0.169 HD
ATOM      5  O   UNL d   1       0.370   1.917   1.431  0.00  0.00    -0.267 OA
BRANCH   3   6
ATOM      6  C   UNL d   1      -1.299   2.659  -0.920  0.00  0.00     0.035 A 
ATOM      7  C   UNL d   1      -0.824   3.879  -0.422  0.00  0.00     0.031 A 
ATOM      8  C   UNL d   1      -1.266   5.094  -0.964  0.00  0.00     0.026 A 
ATOM      9  C   UNL d   1      -2.200   5.095  -1.996  0.00  0.00     0.034 A 
ATOM     10  C   UNL d   1      -2.704   3.893  -2.482  0.00  0.00     0.026 A 
ATOM     11 CL   UNL d   1      -2.714   6.584  -2.689  0.00  0.00    -0.084 Cl
ATOM     12  C   UNL d   1      -2.251   2.679  -1.947  0.00  0.00     0.031 A 
ENDBRANCH   3   6
ENDBRANCH   1   2
BRANCH   1  13
ATOM     13  C   UNL d   1       0.523  -1.313   0.208  0.00  0.00     0.036 C 
ATOM     14  C   UNL d   1      -0.753  -1.812   0.582  0.00  0.00     0.005 A 
ATOM     15  S   UNL d   1      -1.290  -3.283  -0.151  0.00  0.00    -0.102 SA
ATOM     16  C   UNL d   1      -1.643  -1.412   1.563  0.00  0.00     0.019 A 
ATOM     17  C   UNL d   1      -2.597  -3.439   0.931  0.00  0.00     0.050 A 
ATOM     18  C   UNL d   1      -2.684  -2.365   1.785  0.00  0.00     0.008 A 
ENDBRANCH   1  13
BRANCH   1  19
ATOM     19  C   UNL d   1       2.395   0.198   0.060  0.00  0.00    -0.013 A 
ATOM     20  C   UNL d   1       2.913   1.205  -0.726  0.00  0.00     0.062 A 
ATOM     21  S   UNL d   1       4.627   1.192  -0.752  0.00  0.00    -0.113 SA
ATOM     22  C   UNL d   1       4.691  -0.144   0.314  0.00  0.00     0.050 A 
ATOM     23  C   UNL d   1       3.439  -0.578   0.679  0.00  0.00     0.020 A 
ENDBRANCH   1  19
TORSDOF 4
