REMARK  2 active torsions:
REMARK  status: ('A' for Active; 'I' for Inactive)
REMARK    1  A    between atoms: S_7  and  C_1 
REMARK    2  A    between atoms: C_11  and  S_7 
ROOT
ATOM      1  C   UNL d   1      -3.114   0.155   0.067  0.00  0.00     0.118 A 
ATOM      2  N   UNL d   1      -2.409   1.263   0.072  0.00  0.00    -0.344 N 
ATOM      3  HN  UNL d   1      -2.797   2.206   0.100  1.00  0.00     0.167 HD
ATOM      4  S   UNL d   1      -2.225  -1.306  -0.003  0.00  0.00    -0.063 SA
ATOM      5  C   UNL d   1      -0.755  -0.406  -0.007  0.00  0.00     0.035 A 
ATOM      6  C   UNL d   1      -1.061   0.957   0.031  0.00  0.00     0.050 A 
ATOM      7  C   UNL d   1       0.570  -0.872  -0.042  0.00  0.00     0.045 A 
ATOM      8  C   UNL d   1      -0.003   1.890   0.028  0.00  0.00     0.032 A 
ATOM      9  C   UNL d   1       1.596   0.077  -0.032  0.00  0.00     0.035 A 
ATOM     10  C   UNL d   1       1.322   1.440  -0.001  0.00  0.00     0.026 A 
ATOM     11 CL   UNL d   1       3.234  -0.456  -0.055  0.00  0.00    -0.084 Cl
ENDROOT
BRANCH   1  12
ATOM     12  S   UNL d   1      -4.866   0.199   0.088  0.00  0.00    -0.065 SA
BRANCH  12  13
ATOM     13  C   UNL d   1      -5.121   0.189   1.855  0.00  0.00     0.007 A 
ATOM     14  C   UNL d   1      -4.609   1.200   2.679  0.00  0.00     0.021 A 
ATOM     15  C   UNL d   1      -4.854   1.183   4.056  0.00  0.00     0.025 A 
ATOM     16  C   UNL d   1      -5.621   0.162   4.611  0.00  0.00     0.034 A 
ATOM     17  C   UNL d   1      -6.149  -0.841   3.801  0.00  0.00     0.025 A 
ATOM     18 CL   UNL d   1      -5.926   0.144   6.303  0.00  0.00    -0.084 Cl
ATOM     19  C   UNL d   1      -5.902  -0.825   2.425  0.00  0.00     0.021 A 
ENDBRANCH  12  13
ENDBRANCH   1  12
TORSDOF 2
