REMARK  1 active torsions:
REMARK  status: ('A' for Active; 'I' for Inactive)
REMARK    1  A    between atoms: C_18  and  C_10 
ROOT
ATOM      1  C   UNL d   1      -0.009  -1.319  -0.113  0.00  0.00     0.061 C 
ATOM      2  C   UNL d   1      -2.041   0.617   0.034  0.00  0.00     0.162 A 
ATOM      3  C   UNL d   1      -2.404  -0.675  -0.035  0.00  0.00     0.070 A 
ATOM      4  C   UNL d   1       0.284  -0.013  -0.030  0.00  0.00     0.103 C 
ATOM      5  C   UNL d   1      -3.839  -0.975  -0.173  0.00  0.00     0.258 A 
ATOM      6  C   UNL d   1       1.047  -2.322  -0.354  0.00  0.00     0.298 C 
ATOM      7  O   UNL d   1      -0.688   0.968   0.123  0.00  0.00    -0.291 OA
ATOM      8  N   UNL d   1      -2.936   1.661   0.041  0.00  0.00    -0.326 N 
ATOM      9  HN  UNL d   1      -2.618   2.629   0.088  1.00  0.00     0.169 HD
ATOM     10  C   UNL d   1      -1.427  -1.819   0.015  0.00  0.00     0.070 C 
ATOM     11  N   UNL d   1      -4.670   0.099  -0.097  0.00  0.00    -0.313 N 
ATOM     12  C   UNL d   1       1.678   0.431  -0.050  0.00  0.00     0.033 A 
ATOM     13  O   UNL d   1       2.357  -1.909  -0.185  0.00  0.00    -0.274 OA
ATOM     14  C   UNL d   1      -4.194   1.374  -0.014  0.00  0.00     0.081 A 
ATOM     15  C   UNL d   1       2.675  -0.544  -0.073  0.00  0.00     0.092 A 
ATOM     16  O   UNL d   1      -4.267  -2.109  -0.347  0.00  0.00    -0.267 OA
ATOM     17  O   UNL d   1       0.778  -3.478  -0.663  0.00  0.00    -0.259 OA
ATOM     18  C   UNL d   1       2.075   1.771  -0.008  0.00  0.00     0.017 A 
ATOM     19  C   UNL d   1      -5.236   2.456   0.006  0.00  0.00     0.089 C 
ATOM     20  C   UNL d   1       4.032  -0.226  -0.022  0.00  0.00     0.038 A 
ATOM     21  C   UNL d   1       3.436   2.108   0.022  0.00  0.00     0.001 A 
ATOM     22  C   UNL d   1       4.412   1.110   0.025  0.00  0.00     0.003 A 
ATOM     23  H   UNL d   1      -5.655  -0.098  -0.182  0.00  0.00     0.170 HD
ENDROOT
BRANCH  10  24
ATOM     24  C   UNL d   1      -1.605  -2.654   1.313  0.00  0.00     0.010 C 
ATOM     25  C   UNL d   1      -1.450  -1.870   2.615  0.00  0.00     0.006 C 
ENDBRANCH  10  24
TORSDOF 1
