REMARK  7 active torsions:
REMARK  status: ('A' for Active; 'I' for Inactive)
REMARK    1  A    between atoms: N_2  and  S_1 
REMARK    2  A    between atoms: C_9  and  S_1 
REMARK    3  A    between atoms: C_3  and  N_2 
REMARK    4  A    between atoms: C_7  and  C_3 
REMARK    5  A    between atoms: C_8  and  C_3 
REMARK    6  A    between atoms: C_4  and  C_8 
REMARK    7  A    between atoms: O_17  and  C_7 
ROOT
ATOM      1  C   UNL d   1       1.072  -2.409  -1.025  0.00  0.00     0.175 C 
ENDROOT
BRANCH   1   2
ATOM      2  N   UNL d   1       0.575  -1.559   0.105  0.00  0.00    -0.201 NA
ATOM      3  H   UNL d   1      -0.446  -1.566   0.157  0.00  0.00     0.141 HD
BRANCH   2   4
ATOM      4  S   UNL d   1       1.167   0.032   0.181  0.00  0.00     0.242 S 
ATOM      5  O   UNL d   1       2.450   0.100  -0.477  0.00  0.00    -0.206 OA
ATOM      6  O   UNL d   1       0.974   0.496   1.537  0.00  0.00    -0.206 OA
BRANCH   4   7
ATOM      7  C   UNL d   1      -0.007   0.902  -0.823  0.00  0.00     0.074 A 
ATOM      8  C   UNL d   1      -1.323   1.012  -0.368  0.00  0.00     0.025 A 
ATOM      9  C   UNL d   1      -2.269   1.657  -1.159  0.00  0.00     0.008 A 
ATOM     10  C   UNL d   1      -1.903   2.209  -2.394  0.00  0.00    -0.062 A 
ATOM     11  C   UNL d   1      -0.568   2.133  -2.817  0.00  0.00     0.008 A 
ATOM     12  C   UNL d   1      -2.948   2.865  -3.247  0.00  0.00     0.048 C 
ATOM     13  C   UNL d   1       0.384   1.479  -2.034  0.00  0.00     0.025 A 
ENDBRANCH   4   7
ENDBRANCH   2   4
ENDBRANCH   1   2
BRANCH   1  14
ATOM     14  C   UNL d   1       2.580  -2.624  -0.995  0.00  0.00     0.277 C 
ATOM     15  O   UNL d   1       3.253  -2.795  -2.009  0.00  0.00    -0.263 OA
BRANCH  14  16
ATOM     16  O   UNL d   1       3.054  -2.681   0.280  0.00  0.00    -0.325 OA
ATOM     17  C   UNL d   1       4.474  -2.746   0.412  0.00  0.00     0.213 C 
ENDBRANCH  14  16
ENDBRANCH   1  14
BRANCH   1  18
ATOM     18  C   UNL d   1       0.443  -3.814  -0.975  0.00  0.00     0.071 C 
BRANCH  18  19
ATOM     19  C   UNL d   1      -1.051  -3.832  -1.119  0.00  0.00    -0.028 A 
ATOM     20  C   UNL d   1      -1.767  -3.905  -2.298  0.00  0.00     0.096 A 
ATOM     21  N   UNL d   1      -3.102  -3.930  -1.991  0.00  0.00    -0.365 N 
ATOM     22  C   UNL d   1      -3.278  -3.852  -0.630  0.00  0.00     0.042 A 
ATOM     23  H   UNL d   1      -3.855  -4.002  -2.663  0.00  0.00     0.165 HD
ATOM     24  C   UNL d   1      -2.009  -3.811  -0.054  0.00  0.00    -0.002 A 
ATOM     25  C   UNL d   1      -4.455  -3.826   0.129  0.00  0.00     0.030 A 
ATOM     26  C   UNL d   1      -1.908  -3.755   1.351  0.00  0.00     0.014 A 
ATOM     27  C   UNL d   1      -3.073  -3.723   2.124  0.00  0.00     0.001 A 
ATOM     28  C   UNL d   1      -4.327  -3.754   1.520  0.00  0.00     0.002 A 
ENDBRANCH  18  19
ENDBRANCH   1  18
TORSDOF 7
