REMARK  3 active torsions:
REMARK  status: ('A' for Active; 'I' for Inactive)
REMARK    1  A    between atoms: C_2  and  C_1 
REMARK    2  A    between atoms: N_8  and  C_3 
REMARK    3  A    between atoms: N_10  and  N_8 
REMARK       I    between atoms: C_11  and  N_10 
ROOT
ATOM      1  C   UNL d   1       0.570  -1.186   0.877  0.00  0.00     0.065 A 
ATOM      2  C   UNL d   1      -0.249  -3.193   2.610  0.00  0.00     0.120 A 
ATOM      3  N   UNL d   1       0.308  -3.535   1.415  0.00  0.00    -0.353 N 
ATOM      4  HN  UNL d   1       0.416  -4.513   1.146  1.00  0.00     0.166 HD
ATOM      5  C   UNL d   1      -0.426  -1.850   2.973  0.00  0.00     0.074 A 
ATOM      6  C   UNL d   1      -0.013  -0.844   2.100  0.00  0.00     0.044 A 
ATOM      7  C   UNL d   1       0.715  -2.536   0.594  0.00  0.00     0.105 A 
ATOM      8 CL   UNL d   1      -1.156  -1.395   4.470  0.00  0.00    -0.081 Cl
ENDROOT
BRANCH   2   9
ATOM      9  N   UNL d   1      -0.758  -4.218   3.445  0.00  0.00    -0.186 NA
ATOM     10  H   UNL d   1      -0.510  -4.067   4.427  0.00  0.00     0.154 HD
BRANCH   9  11
ATOM     11  N   UNL d   1      -0.415  -5.508   3.009  0.00  0.00    -0.286 N 
ATOM     12  C   UNL d   1      -0.510  -6.533   3.924  0.00  0.00     0.228 C 
ATOM     13  O   UNL d   1      -0.624  -6.353   5.135  0.00  0.00    -0.273 OA
ATOM     14  C   UNL d   1      -0.458  -7.907   3.316  0.00  0.00     0.118 C 
ATOM     15  H   UNL d   1      -0.376  -5.633   2.000  0.00  0.00     0.184 HD
ENDBRANCH   9  11
ENDBRANCH   2   9
BRANCH   1  16
ATOM     16  C   UNL d   1       1.038  -0.163  -0.111  0.00  0.00     0.418 C 
ATOM     17  F   UNL d   1       0.663   1.106   0.207  0.00  0.00    -0.166 F 
ATOM     18  F   UNL d   1       0.557  -0.391  -1.364  0.00  0.00    -0.166 F 
ATOM     19  F   UNL d   1       2.392  -0.137  -0.228  0.00  0.00    -0.166 F 
ENDBRANCH   1  16
TORSDOF 3
