REMARK  6 active torsions:
REMARK  status: ('A' for Active; 'I' for Inactive)
REMARK    1  A    between atoms: N_6  and  C_1 
REMARK    2  A    between atoms: C_9  and  C_2 
REMARK    3  A    between atoms: C_8  and  C_12 
REMARK    4  A    between atoms: O_18  and  C_9 
REMARK    5  A    between atoms: O_19  and  C_11 
REMARK    6  A    between atoms: C_24  and  O_18 
ROOT
ATOM      1  C   UNL d   1       2.272  -0.041  -0.049  0.00  0.00     0.091 A 
ATOM      2  C   UNL d   1       1.401   1.062  -0.013  0.00  0.00     0.080 A 
ATOM      3  S   UNL d   1       1.369  -1.546  -0.047  0.00  0.00    -0.075 SA
ATOM      4  C   UNL d   1       0.048   0.622   0.087  0.00  0.00    -0.026 A 
ATOM      5  C   UNL d   1      -0.074  -0.735   0.090  0.00  0.00    -0.008 A 
ATOM      6  C   UNL d   1      -1.290   1.274   0.137  0.00  0.00     0.041 C 
ATOM      7  C   UNL d   1      -1.470  -1.222   0.151  0.00  0.00     0.047 C 
ATOM      8  C   UNL d   1      -2.248   0.085  -0.186  0.00  0.00     0.010 C 
ENDROOT
BRANCH   1   9
ATOM      9  N   UNL d   1       3.631  -0.038  -0.197  0.00  0.00    -0.359 N 
ATOM     10  C   UNL d   1       4.328  -0.905   0.467  0.00  0.00     0.103 C 
ATOM     11  HN  UNL d   1       4.087   0.632  -0.816  1.00  0.00     0.166 HD
BRANCH  10  12
ATOM     12  C   UNL d   1       5.803  -0.945   0.356  0.00  0.00     0.016 A 
ATOM     13  C   UNL d   1       6.521  -2.006   0.914  0.00  0.00     0.099 A 
ATOM     14  C   UNL d   1       7.917  -2.026   0.812  0.00  0.00     0.069 A 
ATOM     15 CL   UNL d   1       8.819  -3.331   1.491  0.00  0.00    -0.081 Cl
ATOM     16  C   UNL d   1       8.596  -0.997   0.162  0.00  0.00     0.050 A 
ATOM     17  C   UNL d   1       7.871   0.057  -0.391  0.00  0.00     0.036 A 
ATOM     18  C   UNL d   1       6.480   0.088  -0.303  0.00  0.00     0.039 A 
ATOM     19 CL   UNL d   1       8.704   1.335  -1.187  0.00  0.00    -0.084 Cl
BRANCH  13  20
ATOM     20  O   UNL d   1       5.854  -3.021   1.549  0.00  0.00    -0.358 OA
ATOM     21  H   UNL d   1       6.516  -3.676   1.846  0.00  0.00     0.217 HD
ENDBRANCH  13  20
ENDBRANCH  10  12
ENDBRANCH   1   9
BRANCH   2  22
ATOM     22  C   UNL d   1       1.793   2.469  -0.125  0.00  0.00     0.296 C 
ATOM     23  O   UNL d   1       0.971   3.377  -0.187  0.00  0.00    -0.259 OA
BRANCH  22  24
ATOM     24  O   UNL d   1       3.139   2.665  -0.226  0.00  0.00    -0.318 OA
BRANCH  24  25
ATOM     25  C   UNL d   1       3.552   3.928  -0.759  0.00  0.00     0.174 C 
ATOM     26  C   UNL d   1       3.579   3.823  -2.273  0.00  0.00     0.034 C 
ENDBRANCH  24  25
ENDBRANCH  22  24
ENDBRANCH   2  22
TORSDOF 6
