REMARK  7 active torsions:
REMARK  status: ('A' for Active; 'I' for Inactive)
REMARK    1  A    between atoms: N_2  and  C_1 
REMARK    2  A    between atoms: N_3  and  C_7 
REMARK    3  A    between atoms: N_5  and  O_10 
REMARK    4  A    between atoms: C_13  and  C_8 
REMARK    5  A    between atoms: C_18  and  C_8 
REMARK    6  A    between atoms: O_10  and  C_9 
REMARK    7  A    between atoms: C_19  and  C_13 
ROOT
ATOM      1  N   UNL d   1       3.174   1.932  -0.319  0.00  0.00    -0.263 N 
ATOM      2  HN  UNL d   1       3.636   1.024  -0.369  1.00  0.00     0.194 HD
ATOM      3  C   UNL d   1       3.806   3.050  -0.561  0.00  0.00     0.050 C 
ENDROOT
BRANCH   1   4
ATOM      4  O   UNL d   1       1.829   2.061   0.012  0.00  0.00    -0.235 OA
BRANCH   4   5
ATOM      5  C   UNL d   1       1.080   1.056  -0.553  0.00  0.00     0.132 A 
ATOM      6  C   UNL d   1      -0.129   0.686   0.043  0.00  0.00     0.141 A 
ATOM      7  C   UNL d   1      -0.972  -0.285  -0.504  0.00  0.00     0.075 A 
ATOM      8  C   UNL d   1      -0.600  -0.879  -1.713  0.00  0.00     0.105 A 
ATOM      9  C   UNL d   1       0.582  -0.493  -2.363  0.00  0.00     0.039 A 
ATOM     10  C   UNL d   1       1.414   0.471  -1.782  0.00  0.00     0.044 A 
BRANCH   6  11
ATOM     11  N   UNL d   1      -0.564   1.361   1.256  0.00  0.00    -0.113 N 
ATOM     12  O   UNL d   1      -1.635   1.981   1.175  0.00  0.00    -0.532 OA
ATOM     13  O   UNL d   1       0.130   1.231   2.272  0.00  0.00    -0.532 OA
ENDBRANCH   6  11
BRANCH   8  14
ATOM     14  N   UNL d   1      -1.458  -1.907  -2.317  0.00  0.00    -0.116 N 
ATOM     15  O   UNL d   1      -2.467  -2.251  -1.687  0.00  0.00    -0.532 OA
ATOM     16  O   UNL d   1      -1.118  -2.369  -3.414  0.00  0.00    -0.532 OA
ENDBRANCH   8  14
ENDBRANCH   4   5
ENDBRANCH   1   4
BRANCH   3  17
ATOM     17  C   UNL d   1       3.161   4.504  -0.670  0.00  0.00    -0.003 C 
ATOM     18  C   UNL d   1       1.615   4.557  -0.587  0.00  0.00     0.021 C 
ATOM     19  C   UNL d   1       3.626   5.414   0.489  0.00  0.00     0.021 C 
BRANCH  17  20
ATOM     20  C   UNL d   1       3.568   5.170  -2.021  0.00  0.00     0.010 C 
ATOM     21  C   UNL d   1       3.050   4.472  -3.275  0.00  0.00     0.006 C 
ENDBRANCH  17  20
ENDBRANCH   3  17
BRANCH   3  22
ATOM     22  C   UNL d   1       5.296   2.855  -0.839  0.00  0.00    -0.011 A 
ATOM     23  C   UNL d   1       5.695   1.691  -1.523  0.00  0.00     0.013 A 
ATOM     24  C   UNL d   1       7.045   1.437  -1.787  0.00  0.00     0.001 A 
ATOM     25  C   UNL d   1       8.022   2.336  -1.370  0.00  0.00     0.000 A 
ATOM     26  C   UNL d   1       7.645   3.477  -0.670  0.00  0.00     0.001 A 
ATOM     27  C   UNL d   1       6.294   3.723  -0.392  0.00  0.00     0.013 A 
ENDBRANCH   3  22
TORSDOF 7
