REMARK  5 active torsions:
REMARK  status: ('A' for Active; 'I' for Inactive)
REMARK    1  A    between atoms: C_4  and  N_1 
REMARK    2  A    between atoms: C_5  and  C_4 
REMARK    3  A    between atoms: C_7  and  C_5 
REMARK    4  A    between atoms: C_6  and  O_12 
REMARK    5  A    between atoms: O_12  and  C_16 
ROOT
ATOM      1  C   UNL d   1      -2.616   1.990   0.096  0.00  0.00     0.011 A 
ATOM      2  C   UNL d   1      -2.612   0.796   0.818  0.00  0.00     0.018 A 
ATOM      3  C   UNL d   1      -3.801   2.428  -0.500  0.00  0.00     0.018 A 
ATOM      4  C   UNL d   1      -4.943   0.429   0.288  0.00  0.00     0.074 A 
ATOM      5  C   UNL d   1      -3.768   0.016   0.913  0.00  0.00     0.038 A 
ATOM      6  C   UNL d   1      -4.953   1.637  -0.417  0.00  0.00     0.038 A 
ENDROOT
BRANCH   1   7
ATOM      7  C   UNL d   1      -1.385   2.812  -0.035  0.00  0.00     0.177 C 
ATOM      8  O   UNL d   1      -1.476   4.028   0.097  0.00  0.00    -0.291 OA
BRANCH   7   9
ATOM      9  C   UNL d   1      -0.064   2.097  -0.333  0.00  0.00     0.218 C 
BRANCH   9  10
ATOM     10  N   UNL d   1       0.773   1.944   0.843  0.00  0.00    -0.281 N 
ATOM     11  C   UNL d   1       0.979   0.747   1.464  0.00  0.00     0.227 C 
ATOM     12  C   UNL d   1       1.822   0.981   2.678  0.00  0.00     0.112 C 
ATOM     13  O   UNL d   1       0.544  -0.342   1.123  0.00  0.00    -0.273 OA
ATOM     14  C   UNL d   1       2.521   2.284   2.351  0.00  0.00     0.112 C 
ATOM     15  C   UNL d   1       1.673   2.880   1.262  0.00  0.00     0.227 C 
ATOM     16  O   UNL d   1       1.868   3.983   0.774  0.00  0.00    -0.273 OA
ENDBRANCH   9  10
ENDBRANCH   7   9
ENDBRANCH   1   7
BRANCH   4  17
ATOM     17  O   UNL d   1      -6.121  -0.262   0.264  0.00  0.00    -0.290 OA
BRANCH  17  18
ATOM     18  C   UNL d   1      -6.317  -1.219   1.292  0.00  0.00     0.505 C 
ATOM     19  F   UNL d   1      -6.369  -0.581   2.486  0.00  0.00    -0.184 F 
ATOM     20  F   UNL d   1      -7.538  -1.778   1.095  0.00  0.00    -0.184 F 
ENDBRANCH  17  18
ENDBRANCH   4  17
TORSDOF 5
