REMARK  3 active torsions:
REMARK  status: ('A' for Active; 'I' for Inactive)
REMARK    1  A    between atoms: C_4  and  N_1 
REMARK    2  A    between atoms: C_13  and  C_3 
REMARK    3  A    between atoms: C_15  and  C_13 
ROOT
ATOM      1  N   UNL d   1      -2.532   0.338  -0.290  0.00  0.00    -0.349 N 
ATOM      2  C   UNL d   1      -0.148   0.804  -0.003  0.00  0.00    -0.022 A 
ATOM      3  C   UNL d   1      -1.543   1.380   0.112  0.00  0.00     0.120 C 
ATOM      4  C   UNL d   1       0.103  -0.552  -0.088  0.00  0.00    -0.008 A 
ATOM      5  C   UNL d   1      -2.312  -1.025   0.243  0.00  0.00     0.131 C 
ATOM      6  S   UNL d   1       1.760  -0.926  -0.147  0.00  0.00    -0.106 SA
ATOM      7  C   UNL d   1      -0.954  -1.604  -0.182  0.00  0.00     0.066 C 
ATOM      8  C   UNL d   1       1.072   1.545  -0.084  0.00  0.00     0.017 A 
ATOM      9  C   UNL d   1       2.183   0.731  -0.130  0.00  0.00     0.051 A 
ENDROOT
BRANCH   1  10
ATOM     10  C   UNL d   1      -3.488   0.567  -1.252  0.00  0.00     0.170 C 
ATOM     11  S   UNL d   1      -3.244   1.417  -2.673  0.00  0.00    -0.041 SA
ATOM     12  N   UNL d   1      -4.737   0.059  -1.042  0.00  0.00    -0.371 N 
ATOM     13  C   UNL d   1      -5.370  -0.179   0.241  0.00  0.00     0.148 C 
ATOM     14  H   UNL d   1      -5.371   0.270  -1.805  0.00  0.00     0.161 HD
ENDBRANCH   1  10
BRANCH   3  15
ATOM     15  C   UNL d   1      -1.894   1.854   1.542  0.00  0.00     0.030 C 
BRANCH  15  16
ATOM     16  C   UNL d   1      -1.046   3.020   2.054  0.00  0.00    -0.002 C 
ATOM     17  C   UNL d   1      -1.488   3.453   3.442  0.00  0.00     0.005 C 
ENDBRANCH  15  16
ENDBRANCH   3  15
TORSDOF 3
