REMARK  5 active torsions:
REMARK  status: ('A' for Active; 'I' for Inactive)
REMARK    1  A    between atoms: N_3  and  N_1 
REMARK    2  A    between atoms: C_15  and  C_5 
REMARK    3  A    between atoms: C_16  and  C_6 
REMARK    4  A    between atoms: C_13  and  C_11 
REMARK    5  A    between atoms: C_14  and  C_12 
ROOT
ATOM      1  N   UNL d   1       0.933  -0.187   0.046  0.00  0.00    -0.311 N 
ATOM      2  HN  UNL d   1       0.382   0.381   0.690  1.00  0.00     0.186 HD
ATOM      3  C   UNL d   1       2.211  -0.379   0.150  0.00  0.00     0.118 C 
ENDROOT
BRANCH   1   4
ATOM      4  N   UNL d   1       0.413  -0.856  -1.056  0.00  0.00    -0.311 N 
ATOM      5  C   UNL d   1      -0.865  -0.657  -1.148  0.00  0.00     0.118 C 
ATOM      6  HN  UNL d   1       0.960  -1.425  -1.703  1.00  0.00     0.186 HD
BRANCH   5   7
ATOM      7  C   UNL d   1      -1.681  -1.297  -2.198  0.00  0.00    -0.019 A 
ATOM      8  C   UNL d   1      -1.109  -2.211  -3.082  0.00  0.00     0.013 A 
ATOM      9  C   UNL d   1      -1.897  -2.826  -4.056  0.00  0.00     0.008 A 
ATOM     10  C   UNL d   1      -3.267  -2.532  -4.165  0.00  0.00    -0.055 A 
ATOM     11  C   UNL d   1      -3.829  -1.613  -3.265  0.00  0.00     0.008 A 
ATOM     12  C   UNL d   1      -3.043  -0.999  -2.284  0.00  0.00     0.013 A 
BRANCH  10  13
ATOM     13  C   UNL d   1      -4.129  -3.185  -5.232  0.00  0.00     0.010 C 
ATOM     14  C   UNL d   1      -3.627  -2.848  -6.640  0.00  0.00     0.015 C 
ATOM     15  C   UNL d   1      -4.217  -4.702  -5.038  0.00  0.00     0.015 C 
ENDBRANCH  10  13
ENDBRANCH   5   7
ENDBRANCH   1   4
BRANCH   3  16
ATOM     16  C   UNL d   1       2.987   0.166   1.280  0.00  0.00    -0.019 A 
ATOM     17  C   UNL d   1       2.346   0.879   2.294  0.00  0.00     0.013 A 
ATOM     18  C   UNL d   1       3.075   1.338   3.391  0.00  0.00     0.008 A 
ATOM     19  C   UNL d   1       4.454   1.095   3.491  0.00  0.00    -0.055 A 
ATOM     20  C   UNL d   1       5.089   0.392   2.454  0.00  0.00     0.008 A 
ATOM     21  C   UNL d   1       4.361  -0.072   1.352  0.00  0.00     0.013 A 
BRANCH  19  22
ATOM     22  C   UNL d   1       5.247   1.559   4.701  0.00  0.00     0.010 C 
ATOM     23  C   UNL d   1       5.211   3.083   4.851  0.00  0.00     0.015 C 
ATOM     24  C   UNL d   1       4.756   0.878   5.983  0.00  0.00     0.015 C 
ENDBRANCH  19  22
ENDBRANCH   3  16
TORSDOF 5
