REMARK  6 active torsions:
REMARK  status: ('A' for Active; 'I' for Inactive)
REMARK    1  A    between atoms: C_4  and  C_1 
REMARK    2  A    between atoms: C_5  and  C_1 
REMARK    3  A    between atoms: C_2  and  C_3 
REMARK    4  A    between atoms: C_6  and  C_2 
REMARK    5  A    between atoms: C_7  and  S_11 
REMARK    6  A    between atoms: S_11  and  C_8 
ROOT
ATOM      1  S   UNL d   1      -0.157   1.784   3.696  0.00  0.00    -0.114 SA
ENDROOT
BRANCH   1   2
ATOM      2  C   UNL d   1       1.109   2.297   4.757  0.00  0.00     0.053 C 
ATOM      3  C   UNL d   1       1.184   3.578   5.141  0.00  0.00     0.062 C 
BRANCH   3   4
ATOM      4  C   UNL d   1       2.224   4.008   6.106  0.00  0.00     0.182 C 
ATOM      5  O   UNL d   1       2.747   3.227   6.890  0.00  0.00    -0.288 OA
BRANCH   4   6
ATOM      6  C   UNL d   1       2.584   5.451   6.116  0.00  0.00     0.014 A 
ATOM      7  C   UNL d   1       3.001   6.034   7.321  0.00  0.00     0.017 A 
ATOM      8  C   UNL d   1       3.390   7.376   7.352  0.00  0.00     0.025 A 
ATOM      9  C   UNL d   1       3.374   8.130   6.180  0.00  0.00     0.034 A 
ATOM     10  C   UNL d   1       2.965   7.557   4.976  0.00  0.00     0.025 A 
ATOM     11 CL   UNL d   1       3.880   9.774   6.211  0.00  0.00    -0.084 Cl
ATOM     12  C   UNL d   1       2.571   6.217   4.942  0.00  0.00     0.017 A 
ENDBRANCH   4   6
ENDBRANCH   3   4
ENDBRANCH   1   2
BRANCH   1  13
ATOM     13  C   UNL d   1       0.805   1.108   2.421  0.00  0.00     0.053 C 
ATOM     14  C   UNL d   1       0.188   0.588   1.351  0.00  0.00     0.062 C 
BRANCH  14  15
ATOM     15  C   UNL d   1       0.955  -0.028   0.239  0.00  0.00     0.182 C 
ATOM     16  O   UNL d   1       2.133   0.231   0.036  0.00  0.00    -0.288 OA
BRANCH  15  17
ATOM     17  C   UNL d   1       0.205  -0.955  -0.656  0.00  0.00     0.014 A 
ATOM     18  C   UNL d   1       0.584  -1.060  -2.000  0.00  0.00     0.017 A 
ATOM     19  C   UNL d   1      -0.111  -1.917  -2.861  0.00  0.00     0.025 A 
ATOM     20  C   UNL d   1      -1.174  -2.679  -2.376  0.00  0.00     0.034 A 
ATOM     21  C   UNL d   1      -1.543  -2.598  -1.035  0.00  0.00     0.025 A 
ATOM     22 CL   UNL d   1      -2.031  -3.729  -3.433  0.00  0.00    -0.084 Cl
ATOM     23  C   UNL d   1      -0.852  -1.742  -0.173  0.00  0.00     0.017 A 
ENDBRANCH  15  17
ENDBRANCH  14  15
ENDBRANCH   1  13
TORSDOF 6
