REMARK  4 active torsions:
REMARK  status: ('A' for Active; 'I' for Inactive)
REMARK    1  A    between atoms: C_3  and  C_1 
REMARK    2  A    between atoms: C_4  and  C_2 
REMARK       I    between atoms: N_7  and  C_3 
REMARK    3  A    between atoms: C_12  and  N_7 
REMARK    4  A    between atoms: N_21  and  C_8 
ROOT
ATOM      1  C   UNL d   1       1.695  -0.141   0.171  0.00  0.00     0.079 A 
ATOM      2  C   UNL d   1       0.716  -1.115   0.025  0.00  0.00     0.136 A 
ATOM      3  N   UNL d   1      -0.622  -0.788   0.002  0.00  0.00    -0.328 N 
ATOM      4  HN  UNL d   1      -1.326  -1.520  -0.097  1.00  0.00     0.168 HD
ATOM      5  C   UNL d   1      -0.994   0.482   0.109  0.00  0.00     0.155 A 
ATOM      6  N   UNL d   1      -0.145   1.474   0.305  0.00  0.00    -0.342 N 
ATOM      7  HN  UNL d   1      -0.460   2.435   0.437  1.00  0.00     0.167 HD
ATOM      8  C   UNL d   1       1.168   1.144   0.322  0.00  0.00     0.110 A 
ENDROOT
BRANCH   1   9
ATOM      9  C   UNL d   1       3.196  -0.186   0.156  0.00  0.00     0.259 C 
ATOM     10  N   UNL d   1       3.874  -1.383   0.042  0.00  0.00    -0.320 N 
ATOM     11  H   UNL d   1       3.359  -2.216  -0.204  0.00  0.00     0.169 HD
ATOM     12  O   UNL d   1       3.767   0.905   0.158  0.00  0.00    -0.267 OA
BRANCH  10  13
ATOM     13  C   UNL d   1       5.277  -1.516  -0.136  0.00  0.00     0.074 A 
ATOM     14  C   UNL d   1       6.243  -0.602   0.314  0.00  0.00     0.146 A 
ATOM     15  C   UNL d   1       7.587  -0.746  -0.026  0.00  0.00     0.086 A 
ATOM     16  F   UNL d   1       5.931   0.392   1.157  0.00  0.00    -0.204 F 
ATOM     17  C   UNL d   1       7.978  -1.829  -0.798  0.00  0.00     0.119 A 
ATOM     18  C   UNL d   1       7.058  -2.793  -1.192  0.00  0.00     0.044 A 
ATOM     19  F   UNL d   1       9.261  -1.957  -1.157  0.00  0.00    -0.206 F 
ATOM     20  C   UNL d   1       5.712  -2.646  -0.848  0.00  0.00     0.036 A 
ENDBRANCH  10  13
ENDBRANCH   1   9
BRANCH   2  21
ATOM     21  C   UNL d   1       0.924  -2.606  -0.085  0.00  0.00     0.433 C 
ATOM     22  F   UNL d   1       2.189  -3.012  -0.383  0.00  0.00    -0.165 F 
ATOM     23  F   UNL d   1       0.603  -3.261   1.066  0.00  0.00    -0.165 F 
ATOM     24  F   UNL d   1       0.158  -3.175  -1.062  0.00  0.00    -0.165 F 
ENDBRANCH   2  21
BRANCH   5  25
ATOM     25  N   UNL d   1      -2.334   0.766   0.027  0.00  0.00    -0.274 NA
ATOM     26  H   UNL d   1      -2.555   1.629   0.506  0.00  0.00     0.127 HD
ATOM     27  H   UNL d   1      -2.897  -0.046   0.235  0.00  0.00     0.127 HD
ENDBRANCH   5  25
TORSDOF 4
