REMARK  6 active torsions:
REMARK  status: ('A' for Active; 'I' for Inactive)
REMARK    1  A    between atoms: C_15  and  C_2 
REMARK       I    between atoms: C_3  and  N_5 
REMARK    2  A    between atoms: C_13  and  C_3 
REMARK    3  A    between atoms: O_17  and  C_4 
REMARK    4  A    between atoms: N_5  and  C_15 
REMARK    5  A    between atoms: O_18  and  C_6 
REMARK    6  A    between atoms: C_10  and  C_13 
ROOT
ATOM      1  C   UNL d   1       2.120   5.735  -0.051  0.00  0.00     0.141 C 
ENDROOT
BRANCH   1   2
ATOM      2  C   UNL d   1       1.953   7.236  -0.001  0.00  0.00    -0.047 A 
ATOM      3  C   UNL d   1       3.053   8.083  -0.223  0.00  0.00     0.047 A 
ATOM      4  C   UNL d   1       2.921   9.480  -0.181  0.00  0.00     0.102 A 
ATOM      5  C   UNL d   1       1.649  10.032   0.048  0.00  0.00     0.101 A 
ATOM      6  C   UNL d   1       0.559   9.187   0.290  0.00  0.00     0.040 A 
ATOM      7  C   UNL d   1       0.706   7.803   0.270  0.00  0.00     0.010 A 
BRANCH   4   8
ATOM      8  O   UNL d   1       3.975  10.341  -0.326  0.00  0.00    -0.353 OA
ATOM      9  C   UNL d   1       5.279   9.790  -0.461  0.00  0.00     0.210 C 
ENDBRANCH   4   8
BRANCH   5  10
ATOM     10  O   UNL d   1       1.329  11.365   0.121  0.00  0.00    -0.353 OA
ATOM     11  C   UNL d   1       2.063  12.240  -0.728  0.00  0.00     0.210 C 
ENDBRANCH   5  10
ENDBRANCH   1   2
BRANCH   1  12
ATOM     12  C   UNL d   1       2.386   5.038   1.273  0.00  0.00     0.222 C 
ATOM     13  N   UNL d   1       3.150   5.714   2.194  0.00  0.00    -0.356 N 
ATOM     14  H   UNL d   1       3.332   6.703   2.078  0.00  0.00     0.162 HD
ATOM     15  O   UNL d   1       2.008   3.882   1.465  0.00  0.00    -0.273 OA
BRANCH  13  16
ATOM     16  C   UNL d   1       3.490   5.090   3.451  0.00  0.00     0.168 C 
BRANCH  16  17
ATOM     17  C   UNL d   1       4.291   6.038   4.282  0.00  0.00     0.000 A 
ATOM     18  S   UNL d   1       5.999   6.086   4.143  0.00  0.00    -0.105 SA
ATOM     19  C   UNL d   1       6.131   7.271   5.369  0.00  0.00     0.050 A 
ATOM     20  C   UNL d   1       4.901   7.640   5.864  0.00  0.00     0.008 A 
ATOM     21  C   UNL d   1       3.837   6.933   5.232  0.00  0.00     0.017 A 
ENDBRANCH  16  17
ENDBRANCH  13  16
ENDBRANCH   1  12
TORSDOF 6
