REMARK  0 active torsions:
REMARK  status: ('A' for Active; 'I' for Inactive)
ROOT
ATOM      1  N   UNL d   1       0.723   1.365   0.801  0.00  0.00    -0.228 NA
ATOM      2  S   UNL d   1       1.280  -1.627   0.500  0.00  0.00    -0.118 SA
ATOM      3  C   UNL d   1       1.573   1.625  -0.270  0.00  0.00     0.203 C 
ATOM      4  C   UNL d   1       2.314  -0.767  -0.800  0.00  0.00     0.013 C 
ATOM      5  C   UNL d   1       2.738   0.651  -0.354  0.00  0.00     0.116 C 
ATOM      6  C   UNL d   1      -0.416   0.599   0.430  0.00  0.00     0.032 A 
ATOM      7  C   UNL d   1      -0.295  -0.796   0.311  0.00  0.00     0.022 A 
ATOM      8  O   UNL d   1       1.369   2.484  -1.119  0.00  0.00    -0.280 OA
ATOM      9  C   UNL d   1       1.599  -0.759  -2.163  0.00  0.00     0.027 C 
ATOM     10  C   UNL d   1       3.579  -1.636  -0.943  0.00  0.00     0.027 C 
ATOM     11  C   UNL d   1      -1.628   1.236   0.173  0.00  0.00     0.025 A 
ATOM     12  C   UNL d   1      -1.417  -1.552  -0.034  0.00  0.00     0.020 A 
ATOM     13  C   UNL d   1      -2.740   0.471  -0.180  0.00  0.00     0.002 A 
ATOM     14  C   UNL d   1      -2.637  -0.918  -0.280  0.00  0.00     0.001 A 
ATOM     15  H   UNL d   1       1.239   0.828   1.495  0.00  0.00     0.136 HD
ENDROOT
TORSDOF 0
