REMARK  4 active torsions:
REMARK  status: ('A' for Active; 'I' for Inactive)
REMARK    1  A    between atoms: C_3  and  C_1 
REMARK       I    between atoms: N_5  and  C_1 
REMARK    2  A    between atoms: S_6  and  C_2 
REMARK    3  A    between atoms: C_12  and  N_5 
REMARK    4  A    between atoms: C_9  and  S_6 
ROOT
ATOM      1  C   UNL d   1       1.763   0.056  -2.666  0.00  0.00     0.017 A 
ATOM      2  C   UNL d   1       0.177   1.013  -0.828  0.00  0.00     0.044 A 
ATOM      3  C   UNL d   1       0.678   0.873  -2.173  0.00  0.00     0.007 A 
ATOM      4  C   UNL d   1      -0.016   1.639  -3.160  0.00  0.00    -0.024 A 
ATOM      5  C   UNL d   1       2.143   0.094  -4.024  0.00  0.00     0.020 A 
ATOM      6  C   UNL d   1      -0.946   1.815  -0.533  0.00  0.00     0.018 A 
ATOM      7  C   UNL d   1       1.472   0.899  -4.934  0.00  0.00     0.002 A 
ATOM      8  C   UNL d   1      -1.613   2.497  -1.532  0.00  0.00     0.002 A 
ATOM      9  C   UNL d   1      -1.141   2.413  -2.833  0.00  0.00     0.012 A 
ATOM     10  C   UNL d   1       0.391   1.650  -4.502  0.00  0.00     0.012 A 
ENDROOT
BRANCH   1  11
ATOM     11  S   UNL d   1       2.576  -1.226  -1.700  0.00  0.00    -0.090 SA
BRANCH  11  12
ATOM     12  C   UNL d   1       4.295  -0.734  -1.607  0.00  0.00     0.005 A 
ATOM     13  C   UNL d   1       4.745   0.585  -1.733  0.00  0.00     0.019 A 
ATOM     14  C   UNL d   1       6.110   0.891  -1.593  0.00  0.00     0.001 A 
ATOM     15  C   UNL d   1       7.029  -0.114  -1.313  0.00  0.00     0.000 A 
ATOM     16  C   UNL d   1       6.593  -1.429  -1.181  0.00  0.00     0.001 A 
ATOM     17  C   UNL d   1       5.237  -1.736  -1.331  0.00  0.00     0.019 A 
ENDBRANCH  11  12
ENDBRANCH   1  11
BRANCH   2  18
ATOM     18  C   UNL d   1       0.837   0.462   0.390  0.00  0.00     0.252 C 
ATOM     19  N   UNL d   1      -0.010  -0.214   1.251  0.00  0.00    -0.353 N 
ATOM     20  H   UNL d   1      -0.958  -0.405   0.954  0.00  0.00     0.163 HD
ATOM     21  O   UNL d   1       2.011   0.709   0.627  0.00  0.00    -0.268 OA
BRANCH  19  22
ATOM     22  C   UNL d   1       0.441  -0.795   2.508  0.00  0.00     0.076 C 
ATOM     23  C   UNL d   1      -0.469  -0.355   3.654  0.00  0.00     0.032 C 
ATOM     24  C   UNL d   1       0.460  -2.314   2.390  0.00  0.00     0.032 C 
ENDBRANCH  19  22
ENDBRANCH   2  18
TORSDOF 4
