REMARK  8 active torsions:
REMARK  status: ('A' for Active; 'I' for Inactive)
REMARK       I    between atoms: N_5  and  C_1 
REMARK    1  A    between atoms: O_6  and  C_1 
REMARK    2  A    between atoms: N_2  and  O_6 
REMARK    3  A    between atoms: C_7  and  C_4 
REMARK    4  A    between atoms: N_10  and  C_4 
REMARK    5  A    between atoms: C_9  and  N_5 
REMARK    6  A    between atoms: C_13  and  C_7 
REMARK    7  A    between atoms: S_11  and  C_13 
REMARK    8  A    between atoms: C_12  and  S_11 
ROOT
ATOM      1  N   UNL d   1      -0.808   0.649  -0.939  0.00  0.00    -0.244 N 
ATOM      2  HN  UNL d   1       0.195   0.756  -0.789  1.00  0.00     0.196 HD
ATOM      3  C   UNL d   1      -1.479   1.050  -1.985  0.00  0.00     0.096 C 
ENDROOT
BRANCH   1   4
ATOM      4  O   UNL d   1      -1.727   0.038  -0.052  0.00  0.00    -0.179 OA
BRANCH   4   5
ATOM      5  C   UNL d   1      -1.180  -0.526   1.074  0.00  0.00     0.387 C 
ATOM      6  N   UNL d   1       0.167  -0.311   1.262  0.00  0.00    -0.301 N 
ATOM      7  H   UNL d   1       0.569   0.321   0.580  0.00  0.00     0.171 HD
ATOM      8  O   UNL d   1      -1.927  -1.136   1.834  0.00  0.00    -0.236 OA
BRANCH   6   9
ATOM      9  C   UNL d   1       0.950  -0.810   2.326  0.00  0.00     0.037 A 
ATOM     10  C   UNL d   1       0.501  -1.816   3.193  0.00  0.00     0.031 A 
ATOM     11  C   UNL d   1       1.305  -2.285   4.236  0.00  0.00     0.026 A 
ATOM     12  C   UNL d   1       2.572  -1.748   4.425  0.00  0.00     0.034 A 
ATOM     13  C   UNL d   1       3.040  -0.750   3.573  0.00  0.00     0.026 A 
ATOM     14 CL   UNL d   1       3.559  -2.325   5.710  0.00  0.00    -0.084 Cl
ATOM     15  C   UNL d   1       2.234  -0.289   2.519  0.00  0.00     0.031 A 
ENDBRANCH   6   9
ENDBRANCH   4   5
ENDBRANCH   1   4
BRANCH   3  16
ATOM     16  C   UNL d   1      -0.748   1.757  -3.111  0.00  0.00     0.088 C 
BRANCH  16  17
ATOM     17  C   UNL d   1       0.229   0.812  -3.794  0.00  0.00     0.087 C 
BRANCH  17  18
ATOM     18  S   UNL d   1       1.038   1.686  -5.183  0.00  0.00    -0.130 SA
BRANCH  18  19
ATOM     19  C   UNL d   1       2.087   0.383  -5.795  0.00  0.00     0.000 A 
ATOM     20  C   UNL d   1       1.967  -0.025  -7.128  0.00  0.00     0.020 A 
ATOM     21  C   UNL d   1       2.779  -1.048  -7.628  0.00  0.00     0.025 A 
ATOM     22  C   UNL d   1       3.719  -1.654  -6.797  0.00  0.00     0.034 A 
ATOM     23  C   UNL d   1       3.862  -1.240  -5.475  0.00  0.00     0.025 A 
ATOM     24 CL   UNL d   1       4.711  -2.920  -7.407  0.00  0.00    -0.084 Cl
ATOM     25  C   UNL d   1       3.051  -0.217  -4.977  0.00  0.00     0.020 A 
ENDBRANCH  18  19
ENDBRANCH  17  18
ENDBRANCH  16  17
ENDBRANCH   3  16
BRANCH   3  26
ATOM     26  N   UNL d   1      -2.836   0.889  -2.135  0.00  0.00    -0.388 N 
ATOM     27  H   UNL d   1      -3.319   0.648  -1.273  0.00  0.00     0.157 HD
ATOM     28  H   UNL d   1      -3.336   1.565  -2.701  0.00  0.00     0.157 HD
ENDBRANCH   3  26
TORSDOF 8
