REMARK  6 active torsions:
REMARK  status: ('A' for Active; 'I' for Inactive)
REMARK    1  A    between atoms: C_6  and  C_1 
REMARK       I    between atoms: N_12  and  C_6 
REMARK    2  A    between atoms: O_16  and  C_7 
REMARK    3  A    between atoms: O_18  and  C_8 
REMARK    4  A    between atoms: C_19  and  N_12 
REMARK    5  A    between atoms: C_14  and  C_21 
REMARK    6  A    between atoms: C_21  and  C_19 
ROOT
ATOM      1  C   UNL d   1       3.941   0.019   0.061  0.00  0.00     0.260 C 
ATOM      2  O   UNL d   1       4.599  -1.018   0.017  0.00  0.00    -0.267 OA
ATOM      3  N   UNL d   1       4.580   1.248   0.072  0.00  0.00    -0.356 N 
ATOM      4  H   UNL d   1       4.020   2.091   0.109  0.00  0.00     0.162 HD
ENDROOT
BRANCH   3   5
ATOM      5  C   UNL d   1       6.025   1.321   0.030  0.00  0.00     0.127 C 
BRANCH   5   6
ATOM      6  C   UNL d   1       6.563   2.750   0.050  0.00  0.00     0.058 C 
BRANCH   6   7
ATOM      7  C   UNL d   1       8.072   2.740   0.018  0.00  0.00    -0.054 A 
ATOM      8  C   UNL d   1       8.809   2.671   1.211  0.00  0.00     0.046 A 
ATOM      9  C   UNL d   1      10.210   2.555   1.202  0.00  0.00     0.102 A 
ATOM     10  C   UNL d   1      10.886   2.532  -0.029  0.00  0.00     0.101 A 
ATOM     11  C   UNL d   1      10.144   2.621  -1.216  0.00  0.00     0.040 A 
ATOM     12  C   UNL d   1       8.753   2.719  -1.199  0.00  0.00     0.010 A 
BRANCH   9  13
ATOM     13  O   UNL d   1      10.934   2.524   2.365  0.00  0.00    -0.353 OA
ATOM     14  C   UNL d   1      10.316   1.881   3.475  0.00  0.00     0.210 C 
ENDBRANCH   9  13
BRANCH  10  15
ATOM     15  O   UNL d   1      12.230   2.413  -0.268  0.00  0.00    -0.353 OA
ATOM     16  C   UNL d   1      13.107   2.232   0.832  0.00  0.00     0.210 C 
ENDBRANCH  10  15
ENDBRANCH   6   7
ENDBRANCH   5   6
ENDBRANCH   3   5
BRANCH   1  17
ATOM     17  C   UNL d   1       2.485   0.047   0.107  0.00  0.00     0.096 A 
ATOM     18  S   UNL d   1       1.631   1.531   0.167  0.00  0.00    -0.082 SA
ATOM     19  C   UNL d   1       0.097   0.761   0.203  0.00  0.00     0.017 A 
ATOM     20  C   UNL d   1      -1.161   1.392   0.260  0.00  0.00     0.020 A 
ATOM     21  C   UNL d   1       0.222  -0.629   0.168  0.00  0.00     0.004 A 
ATOM     22  C   UNL d   1      -2.314   0.605   0.283  0.00  0.00     0.001 A 
ATOM     23  C   UNL d   1      -2.223  -0.778   0.250  0.00  0.00     0.001 A 
ATOM     24  C   UNL d   1      -0.972  -1.398   0.193  0.00  0.00     0.014 A 
ATOM     25  C   UNL d   1       1.608  -1.023   0.112  0.00  0.00     0.068 A 
ATOM     26 CL   UNL d   1       2.052  -2.687   0.060  0.00  0.00    -0.082 Cl
ENDBRANCH   1  17
TORSDOF 6
