REMARK  7 active torsions:
REMARK  status: ('A' for Active; 'I' for Inactive)
REMARK    1  A    between atoms: C_2  and  C_1 
REMARK    2  A    between atoms: C_4  and  C_1 
REMARK    3  A    between atoms: S_3  and  C_4 
REMARK    4  A    between atoms: C_5  and  S_3 
REMARK    5  A    between atoms: C_12  and  C_4 
REMARK    6  A    between atoms: C_6  and  C_5 
REMARK    7  A    between atoms: C_10  and  C_11 
ROOT
ATOM      1  S   UNL d   1       1.714  -0.285  -4.312  0.00  0.00    -0.094 SA
ENDROOT
BRANCH   1   2
ATOM      2  C   UNL d   1       0.565  -1.530  -4.939  0.00  0.00     0.165 C 
BRANCH   2   3
ATOM      3  C   UNL d   1       1.249  -2.869  -5.124  0.00  0.00     0.250 C 
ATOM      4  O   UNL d   1       0.953  -3.805  -4.366  0.00  0.00    -0.287 OA
BRANCH   3   5
ATOM      5  C   UNL d   1       2.246  -3.017  -6.259  0.00  0.00     0.452 C 
ATOM      6  F   UNL d   1       2.663  -1.838  -6.797  0.00  0.00    -0.163 F 
ATOM      7  F   UNL d   1       3.384  -3.653  -5.856  0.00  0.00    -0.163 F 
ATOM      8  F   UNL d   1       1.745  -3.751  -7.289  0.00  0.00    -0.163 F 
ENDBRANCH   3   5
ENDBRANCH   2   3
BRANCH   2   9
ATOM      9  C   UNL d   1      -0.227  -1.160  -6.192  0.00  0.00    -0.036 A 
ATOM     10  C   UNL d   1       0.236  -0.263  -7.168  0.00  0.00     0.009 A 
ATOM     11  C   UNL d   1      -0.466  -0.079  -8.362  0.00  0.00     0.001 A 
ATOM     12  C   UNL d   1      -1.642  -0.783  -8.601  0.00  0.00     0.000 A 
ATOM     13  C   UNL d   1      -2.132  -1.657  -7.636  0.00  0.00     0.001 A 
ATOM     14  C   UNL d   1      -1.434  -1.842  -6.441  0.00  0.00     0.009 A 
ENDBRANCH   2   9
ENDBRANCH   1   2
BRANCH   1  15
ATOM     15  C   UNL d   1       2.368  -0.909  -2.811  0.00  0.00     0.074 C 
ATOM     16  N   UNL d   1       1.977  -2.001  -2.251  0.00  0.00    -0.393 N 
ATOM     17  H   UNL d   1       1.258  -2.527  -2.747  0.00  0.00     0.156 HD
ATOM     18  HN  UNL d   1       2.365  -2.321  -1.363  1.00  0.00     0.156 HD
BRANCH  15  19
ATOM     19  C   UNL d   1       3.403  -0.068  -2.129  0.00  0.00    -0.003 A 
ATOM     20  C   UNL d   1       3.522  -0.159  -0.739  0.00  0.00     0.015 A 
ATOM     21  C   UNL d   1       4.404   0.674  -0.042  0.00  0.00     0.009 A 
ATOM     22  C   UNL d   1       5.205   1.620  -0.708  0.00  0.00    -0.051 A 
ATOM     23  C   UNL d   1       5.129   1.648  -2.110  0.00  0.00     0.009 A 
ATOM     24  C   UNL d   1       4.243   0.817  -2.812  0.00  0.00     0.015 A 
BRANCH  22  25
ATOM     25  C   UNL d   1       6.072   2.604   0.099  0.00  0.00    -0.024 C 
ATOM     26  C   UNL d   1       6.885   3.584  -0.777  0.00  0.00     0.019 C 
ATOM     27  C   UNL d   1       5.153   3.457   1.002  0.00  0.00     0.019 C 
ATOM     28  C   UNL d   1       7.079   1.840   0.983  0.00  0.00     0.019 C 
ENDBRANCH  22  25
ENDBRANCH  15  19
ENDBRANCH   1  15
TORSDOF 7
