REMARK  4 active torsions:
REMARK  status: ('A' for Active; 'I' for Inactive)
REMARK    1  A    between atoms: C_4  and  C_1 
REMARK       I    between atoms: N_10  and  C_4 
REMARK       I    between atoms: C_9  and  N_11 
REMARK    2  A    between atoms: C_12  and  C_9 
REMARK    3  A    between atoms: N_11  and  N_10 
REMARK    4  A    between atoms: O_21  and  C_17 
ROOT
ATOM      1  C   UNL d   1       1.251  -0.882  -0.342  0.00  0.00     0.280 C 
ATOM      2  N   UNL d   1       2.336  -1.715  -0.109  0.00  0.00    -0.262 N 
ATOM      3  O   UNL d   1       0.171  -1.378  -0.678  0.00  0.00    -0.265 OA
ATOM      4  H   UNL d   1       3.247  -1.400   0.222  0.00  0.00     0.190 HD
ENDROOT
BRANCH   2   5
ATOM      5  N   UNL d   1       2.160  -3.099  -0.253  0.00  0.00    -0.263 N 
ATOM      6  C   UNL d   1       3.212  -3.934   0.068  0.00  0.00     0.270 C 
ATOM      7  O   UNL d   1       4.296  -3.488   0.444  0.00  0.00    -0.266 OA
ATOM      8  H   UNL d   1       1.273  -3.395  -0.649  0.00  0.00     0.190 HD
BRANCH   6   9
ATOM      9  C   UNL d   1       2.988  -5.409  -0.053  0.00  0.00     0.033 A 
ATOM     10  C   UNL d   1       1.725  -5.984  -0.259  0.00  0.00     0.020 A 
ATOM     11  C   UNL d   1       1.577  -7.379  -0.318  0.00  0.00     0.038 A 
ATOM     12  C   UNL d   1       2.685  -8.212  -0.167  0.00  0.00     0.068 A 
ATOM     13  C   UNL d   1       3.946  -7.644   0.013  0.00  0.00     0.038 A 
ATOM     14  C   UNL d   1       4.097  -6.255   0.079  0.00  0.00     0.020 A 
BRANCH  12  15
ATOM     15  O   UNL d   1       2.660  -9.578  -0.216  0.00  0.00    -0.356 OA
ATOM     16  C   UNL d   1       1.449 -10.193   0.214  0.00  0.00     0.210 C 
ENDBRANCH  12  15
ENDBRANCH   6   9
ENDBRANCH   2   5
BRANCH   1  17
ATOM     17  C   UNL d   1       1.458   0.540  -0.186  0.00  0.00     0.115 A 
ATOM     18  C   UNL d   1       0.564   1.600  -0.320  0.00  0.00     0.046 A 
ATOM     19  N   UNL d   1       1.125   2.859  -0.118  0.00  0.00    -0.298 N 
ATOM     20  C   UNL d   1      -0.886   1.565  -0.646  0.00  0.00     0.071 C 
ATOM     21  N   UNL d   1       2.412   2.789   0.168  0.00  0.00    -0.269 N 
ATOM     22  HN  UNL d   1       0.603   3.733  -0.183  1.00  0.00     0.187 HD
ATOM     23  S   UNL d   1       2.982   1.225   0.205  0.00  0.00     0.009 SA
ATOM     24  HN  UNL d   1       2.996   3.607   0.346  1.00  0.00     0.195 HD
ENDBRANCH   1  17
TORSDOF 4
