REMARK  8 active torsions:
REMARK  status: ('A' for Active; 'I' for Inactive)
REMARK    1  A    between atoms: N_7  and  S_1 
REMARK    2  A    between atoms: C_16  and  S_1 
REMARK    3  A    between atoms: C_2  and  C_9 
REMARK    4  A    between atoms: C_19  and  N_3 
REMARK    5  A    between atoms: C_27  and  C_4 
REMARK    6  A    between atoms: C_8  and  N_7 
REMARK       I    between atoms: C_9  and  N_15 
REMARK    7  A    between atoms: N_15  and  C_26 
REMARK    8  A    between atoms: C_34  and  C_27 
ROOT
ATOM      1  C   UNL d   1      -0.054   0.174   1.507  0.00  0.00     0.075 A 
ATOM      2  C   UNL d   1      -0.092   1.390   2.195  0.00  0.00     0.027 A 
ATOM      3  C   UNL d   1      -0.197  -1.025   2.191  0.00  0.00     0.027 A 
ATOM      4  C   UNL d   1      -0.456   0.194   4.282  0.00  0.00     0.035 A 
ATOM      5  C   UNL d   1      -0.398  -1.009   3.572  0.00  0.00     0.031 A 
ATOM      6  C   UNL d   1      -0.261   1.395   3.586  0.00  0.00     0.031 A 
ENDROOT
BRANCH   4   7
ATOM      7  N   UNL d   1      -0.739   0.278   5.670  0.00  0.00    -0.323 N 
ATOM      8  C   UNL d   1      -1.057  -0.785   6.502  0.00  0.00     0.259 C 
ATOM      9  O   UNL d   1      -1.080  -1.958   6.138  0.00  0.00    -0.267 OA
ATOM     10  H   UNL d   1      -0.757   1.204   6.058  0.00  0.00     0.169 HD
BRANCH   8  11
ATOM     11  C   UNL d   1      -1.349  -0.444   7.897  0.00  0.00     0.073 C 
ATOM     12  C   UNL d   1      -1.733  -1.339   8.909  0.00  0.00     0.051 C 
ATOM     13  N   UNL d   1      -1.691  -0.612  10.101  0.00  0.00    -0.260 N 
ATOM     14  N   UNL d   1      -1.456   0.707   9.854  0.00  0.00    -0.304 N 
ATOM     15  C   UNL d   1      -1.324   0.802   8.539  0.00  0.00     0.126 C 
ATOM     16  HN  UNL d   1      -1.395   1.462  10.537  1.00  0.00     0.186 HD
BRANCH  12  17
ATOM     17  C   UNL d   1      -1.991  -2.817   8.788  0.00  0.00     0.060 C 
BRANCH  17  18
ATOM     18  C   UNL d   1      -3.448  -3.183   8.458  0.00  0.00     0.002 C 
ATOM     19  C   UNL d   1      -4.020  -2.583   7.181  0.00  0.00     0.005 C 
ENDBRANCH  17  18
ENDBRANCH  12  17
BRANCH  13  20
ATOM     20  C   UNL d   1      -1.916  -0.977  11.463  0.00  0.00     0.056 A 
ATOM     21  C   UNL d   1      -1.314  -0.194  12.467  0.00  0.00     0.031 A 
ATOM     22  C   UNL d   1      -1.674  -0.349  13.806  0.00  0.00     0.002 A 
ATOM     23  C   UNL d   1      -2.652  -1.274  14.153  0.00  0.00     0.000 A 
ATOM     24  C   UNL d   1      -3.203  -2.100  13.176  0.00  0.00     0.002 A 
ATOM     25  C   UNL d   1      -2.814  -1.976  11.837  0.00  0.00     0.031 A 
ENDBRANCH  13  20
ENDBRANCH   8  11
ENDBRANCH   4   7
BRANCH   1  26
ATOM     26  S   UNL d   1       0.043   0.167  -0.267  0.00  0.00     0.248 S 
ATOM     27  O   UNL d   1      -0.463  -1.119  -0.715  0.00  0.00    -0.205 OA
ATOM     28  O   UNL d   1      -0.563   1.389  -0.747  0.00  0.00    -0.205 OA
BRANCH  26  29
ATOM     29  N   UNL d   1       1.687   0.134  -0.570  0.00  0.00    -0.151 NA
ATOM     30  H   UNL d   1       1.860  -0.379  -1.425  0.00  0.00     0.149 HD
BRANCH  29  31
ATOM     31  C   UNL d   1       2.265   1.400  -0.589  0.00  0.00     0.171 A 
ATOM     32  N   UNL d   1       2.677   1.898   0.578  0.00  0.00    -0.336 N 
ATOM     33  C   UNL d   1       3.128   3.166   0.542  0.00  0.00     0.009 A 
ATOM     34  HN  UNL d   1       2.652   1.354   1.440  1.00  0.00     0.168 HD
ATOM     35  C   UNL d   1       3.653   3.749   1.819  0.00  0.00     0.068 C 
ATOM     36  C   UNL d   1       3.101   3.927  -0.614  0.00  0.00     0.049 A 
ATOM     37  C   UNL d   1       2.622   3.310  -1.756  0.00  0.00     0.009 A 
ATOM     38  N   UNL d   1       2.231   2.022  -1.768  0.00  0.00    -0.336 N 
ATOM     39  C   UNL d   1       2.498   4.077  -3.037  0.00  0.00     0.068 C 
ATOM     40  HN  UNL d   1       1.930   1.553  -2.622  1.00  0.00     0.168 HD
ENDBRANCH  29  31
ENDBRANCH  26  29
ENDBRANCH   1  26
TORSDOF 8
