REMARK  4 active torsions:
REMARK  status: ('A' for Active; 'I' for Inactive)
REMARK    1  A    between atoms: C_5  and  C_2 
REMARK    2  A    between atoms: C_4  and  C_9 
REMARK    3  A    between atoms: O_10  and  C_5 
REMARK    4  A    between atoms: C_13  and  O_10 
ROOT
ATOM      1  S   UNL d   1      -1.759   1.913   0.530  0.00  0.00    -0.083 SA
ATOM      2  C   UNL d   1      -3.252   1.138   0.252  0.00  0.00     0.082 C 
ATOM      3  C   UNL d   1      -0.838   0.475   0.273  0.00  0.00     0.027 A 
ATOM      4  C   UNL d   1      -3.070  -0.221   0.087  0.00  0.00     0.038 C 
ATOM      5  C   UNL d   1      -1.689  -0.623   0.109  0.00  0.00    -0.017 A 
ATOM      6  C   UNL d   1       0.585   0.334   0.210  0.00  0.00    -0.008 A 
ATOM      7  C   UNL d   1      -1.107  -1.904  -0.052  0.00  0.00     0.014 A 
ATOM      8  C   UNL d   1       1.132  -0.956   0.021  0.00  0.00    -0.025 A 
ATOM      9  C   UNL d   1       0.283  -2.059  -0.084  0.00  0.00     0.013 A 
ATOM     10  C   UNL d   1       1.445   1.453   0.289  0.00  0.00     0.013 A 
ATOM     11  C   UNL d   1       2.527  -1.093  -0.077  0.00  0.00     0.012 A 
ATOM     12  C   UNL d   1       2.824   1.294   0.165  0.00  0.00     0.001 A 
ATOM     13  C   UNL d   1       3.364   0.024  -0.015  0.00  0.00     0.001 A 
ENDROOT
BRANCH   2  14
ATOM     14  C   UNL d   1      -4.503   1.879   0.177  0.00  0.00     0.305 C 
ATOM     15  O   UNL d   1      -5.576   1.407  -0.176  0.00  0.00    -0.258 OA
BRANCH  14  16
ATOM     16  O   UNL d   1      -4.303   3.214   0.553  0.00  0.00    -0.275 OA
BRANCH  16  17
ATOM     17  C   UNL d   1      -5.257   4.244   0.399  0.00  0.00     0.080 A 
ATOM     18  C   UNL d   1      -6.162   4.295  -0.660  0.00  0.00     0.053 A 
ATOM     19  C   UNL d   1      -6.996   5.415  -0.805  0.00  0.00     0.050 A 
ATOM     20  C   UNL d   1      -6.900   6.469   0.122  0.00  0.00     0.016 A 
ATOM     21  C   UNL d   1      -5.985   6.408   1.174  0.00  0.00     0.004 A 
ATOM     22  C   UNL d   1      -5.158   5.296   1.311  0.00  0.00     0.037 A 
BRANCH  19  23
ATOM     23  C   UNL d   1      -7.973   5.520  -1.951  0.00  0.00     0.417 C 
ATOM     24  F   UNL d   1      -7.983   4.430  -2.766  0.00  0.00    -0.166 F 
ATOM     25  F   UNL d   1      -9.257   5.686  -1.530  0.00  0.00    -0.166 F 
ATOM     26  F   UNL d   1      -7.706   6.585  -2.758  0.00  0.00    -0.166 F 
ENDBRANCH  19  23
ENDBRANCH  16  17
ENDBRANCH  14  16
ENDBRANCH   2  14
TORSDOF 4
