REMARK  1 active torsions:
REMARK  status: ('A' for Active; 'I' for Inactive)
REMARK    1  A    between atoms: C_11  and  C_5 
ROOT
ATOM      1  N   UNL d   1      -0.295  -0.666   0.030  0.00  0.00    -0.239 N 
ATOM      2  C   UNL d   1      -0.246   0.736   0.020  0.00  0.00     0.129 A 
ATOM      3  N   UNL d   1      -1.583  -1.110   0.032  0.00  0.00    -0.296 N 
ATOM      4  HN  UNL d   1      -1.905  -2.077   0.042  1.00  0.00     0.187 HD
ATOM      5  C   UNL d   1       0.893  -1.416   0.030  0.00  0.00     0.071 A 
ATOM      6  C   UNL d   1      -1.549   1.167   0.009  0.00  0.00     0.076 A 
ATOM      7  N   UNL d   1       0.933   1.430   0.016  0.00  0.00    -0.351 N 
ATOM      8  HN  UNL d   1       0.962   2.449   0.012  1.00  0.00     0.166 HD
ATOM      9  C   UNL d   1      -2.332  -0.003   0.017  0.00  0.00     0.026 A 
ATOM     10  C   UNL d   1       2.078  -0.776   0.025  0.00  0.00     0.049 A 
ATOM     11  C   UNL d   1       2.011   0.709   0.019  0.00  0.00     0.092 A 
ATOM     12  C   UNL d   1      -3.813  -0.087   0.009  0.00  0.00     0.070 C 
ENDROOT
BRANCH   5  13
ATOM     13  C   UNL d   1       0.892  -2.883   0.021  0.00  0.00     0.008 A 
ATOM     14  C   UNL d   1       0.913  -3.619   1.203  0.00  0.00     0.101 A 
ATOM     15  N   UNL d   1       0.986  -4.972   1.256  0.00  0.00    -0.374 N 
ATOM     16  C   UNL d   1       1.021  -5.623   0.073  0.00  0.00     0.087 A 
ATOM     17  HN  UNL d   1       1.014  -5.472   2.144  1.00  0.00     0.164 HD
ATOM     18  C   UNL d   1       0.995  -4.986  -1.157  0.00  0.00     0.018 A 
ATOM     19  C   UNL d   1       0.932  -3.595  -1.181  0.00  0.00     0.016 A 
ENDBRANCH   5  13
TORSDOF 1
