REMARK  4 active torsions:
REMARK  status: ('A' for Active; 'I' for Inactive)
REMARK    1  A    between atoms: C_7  and  C_1 
REMARK    2  A    between atoms: C_17  and  C_3 
REMARK    3  A    between atoms: C_11  and  C_10 
REMARK    4  A    between atoms: C_18  and  C_12 
ROOT
ATOM      1  C   UNL d   1       1.487   2.471   0.071  0.00  0.00     0.039 A 
ATOM      2  S   UNL d   1       1.389   3.711   1.248  0.00  0.00    -0.086 SA
ATOM      3  C   UNL d   1       2.482   4.733   0.415  0.00  0.00     0.022 A 
ATOM      4  C   UNL d   1       2.369   2.825  -0.932  0.00  0.00     0.023 A 
ATOM      5  C   UNL d   1       2.937   4.122  -0.738  0.00  0.00     0.021 A 
ENDROOT
BRANCH   1   6
ATOM      6  C   UNL d   1       0.728   1.245   0.160  0.00  0.00     0.092 A 
ATOM      7  S   UNL d   1      -0.408   0.924   1.405  0.00  0.00    -0.066 SA
ATOM      8  C   UNL d   1      -0.797  -0.581   0.697  0.00  0.00     0.074 A 
ATOM      9  C   UNL d   1       0.002  -0.776  -0.422  0.00  0.00     0.027 A 
ATOM     10  N   UNL d   1       0.853   0.280  -0.727  0.00  0.00    -0.352 N 
ATOM     11  C   UNL d   1       0.018  -1.965  -1.318  0.00  0.00     0.070 C 
ATOM     12  HN  UNL d   1       1.486   0.304  -1.526  1.00  0.00     0.166 HD
BRANCH   8  13
ATOM     13  C   UNL d   1      -1.796  -1.473   1.263  0.00  0.00     0.164 C 
ATOM     14  O   UNL d   1      -1.872  -2.660   0.939  0.00  0.00    -0.292 OA
ATOM     15  C   UNL d   1      -2.785  -0.945   2.283  0.00  0.00     0.097 C 
ENDBRANCH   8  13
ENDBRANCH   1   6
BRANCH   3  16
ATOM     16  C   UNL d   1       2.796   6.046   0.931  0.00  0.00     0.022 A 
ATOM     17  S   UNL d   1       3.281   7.328  -0.096  0.00  0.00    -0.086 SA
ATOM     18  C   UNL d   1       3.351   8.463   1.192  0.00  0.00     0.051 A 
ATOM     19  C   UNL d   1       3.048   7.855   2.396  0.00  0.00     0.024 A 
ATOM     20  C   UNL d   1       2.733   6.473   2.244  0.00  0.00     0.021 A 
BRANCH  18  21
ATOM     21  C   UNL d   1       3.695   9.850   0.888  0.00  0.00     0.162 C 
ATOM     22  O   UNL d   1       3.970  10.248  -0.246  0.00  0.00    -0.292 OA
ATOM     23  C   UNL d   1       3.719  10.853   2.016  0.00  0.00     0.097 C 
ENDBRANCH  18  21
ENDBRANCH   3  16
TORSDOF 4
