REMARK  4 active torsions:
REMARK  status: ('A' for Active; 'I' for Inactive)
REMARK    1  A    between atoms: C_10  and  C_1 
REMARK    2  A    between atoms: C_7  and  O_11 
REMARK    3  A    between atoms: C_12  and  C_7 
REMARK    4  A    between atoms: O_11  and  C_18 
ROOT
ATOM      1  C   UNL d   1       0.833  -0.709   0.288  0.00  0.00     0.095 A 
ATOM      2  C   UNL d   1       0.334  -0.059   1.396  0.00  0.00     0.155 A 
ATOM      3  N   UNL d   1      -1.065   0.208  -0.328  0.00  0.00    -0.021 NA
ATOM      4  N   UNL d   1      -0.049  -0.530  -0.755  0.00  0.00    -0.281 N 
ATOM      5  HN  UNL d   1       0.061  -0.903  -1.698  1.00  0.00     0.184 HD
ATOM      6  N   UNL d   1      -0.841   0.481   0.965  0.00  0.00    -0.273 N 
ATOM      7  C   UNL d   1       0.804   0.059   2.722  0.00  0.00     0.121 C 
ATOM      8  N   UNL d   1       1.173   0.189   3.811  0.00  0.00    -0.190 NA
ATOM      9  H   UNL d   1      -1.532   1.018   1.476  0.00  0.00     0.185 HD
ENDROOT
BRANCH   1  10
ATOM     10  C   UNL d   1       2.036  -1.521   0.164  0.00  0.00    -0.005 A 
ATOM     11  C   UNL d   1       2.059  -2.562  -0.780  0.00  0.00     0.016 A 
ATOM     12  C   UNL d   1       3.184  -3.385  -0.930  0.00  0.00     0.038 A 
ATOM     13  C   UNL d   1       4.299  -3.166  -0.131  0.00  0.00     0.079 A 
ATOM     14  C   UNL d   1       4.306  -2.124   0.797  0.00  0.00     0.038 A 
ATOM     15  C   UNL d   1       3.181  -1.303   0.943  0.00  0.00     0.016 A 
BRANCH  13  16
ATOM     16  O   UNL d   1       5.511  -3.885  -0.247  0.00  0.00    -0.275 OA
BRANCH  16  17
ATOM     17  C   UNL d   1       5.614  -5.182  -0.733  0.00  0.00     0.298 C 
ATOM     18  O   UNL d   1       4.701  -5.919  -1.069  0.00  0.00    -0.259 OA
BRANCH  17  19
ATOM     19  C   UNL d   1       7.051  -5.591  -0.762  0.00  0.00     0.040 A 
ATOM     20  C   UNL d   1       7.365  -6.888  -1.198  0.00  0.00     0.019 A 
ATOM     21  C   UNL d   1       8.691  -7.337  -1.192  0.00  0.00     0.025 A 
ATOM     22  C   UNL d   1       9.707  -6.490  -0.754  0.00  0.00     0.034 A 
ATOM     23  C   UNL d   1       9.413  -5.191  -0.344  0.00  0.00     0.025 A 
ATOM     24 CL   UNL d   1      11.332  -7.054  -0.704  0.00  0.00    -0.084 Cl
ATOM     25  C   UNL d   1       8.088  -4.740  -0.350  0.00  0.00     0.019 A 
ENDBRANCH  17  19
ENDBRANCH  16  17
ENDBRANCH  13  16
ENDBRANCH   1  10
TORSDOF 4
