REMARK  3 active torsions:
REMARK  status: ('A' for Active; 'I' for Inactive)
REMARK    1  A    between atoms: C_8  and  C_1 
REMARK    2  A    between atoms: C_2  and  N_10 
REMARK       I    between atoms: N_10  and  C_8 
REMARK    3  A    between atoms: C_15  and  C_11 
ROOT
ATOM      1  C   UNL d   1       4.138  -0.050  -0.622  0.00  0.00     0.265 C 
ATOM      2  N   UNL d   1       4.571  -1.239   0.078  0.00  0.00    -0.307 N 
ATOM      3  O   UNL d   1       3.222  -0.120  -1.426  0.00  0.00    -0.267 OA
ATOM      4  H   UNL d   1       5.316  -1.138   0.753  0.00  0.00     0.170 HD
ENDROOT
BRANCH   2   5
ATOM      5  C   UNL d   1       3.987  -2.491  -0.097  0.00  0.00     0.126 A 
ATOM      6  C   UNL d   1       3.011  -2.861  -0.989  0.00  0.00     0.082 A 
ATOM      7  C   UNL d   1       2.676  -4.208  -0.686  0.00  0.00     0.062 A 
ATOM      8  N   UNL d   1       3.485  -4.681   0.276  0.00  0.00    -0.296 N 
ATOM      9  N   UNL d   1       4.260  -3.635   0.614  0.00  0.00    -0.281 N 
ATOM     10  HN  UNL d   1       3.506  -5.624   0.665  1.00  0.00     0.187 HD
ATOM     11  C   UNL d   1       5.223  -3.788   1.677  0.00  0.00     0.179 C 
BRANCH   7  12
ATOM     12  C   UNL d   1       1.598  -4.999  -1.284  0.00  0.00    -0.008 A 
ATOM     13  C   UNL d   1       1.647  -6.398  -1.290  0.00  0.00     0.014 A 
ATOM     14  C   UNL d   1       0.607  -7.139  -1.862  0.00  0.00     0.001 A 
ATOM     15  C   UNL d   1      -0.491  -6.490  -2.424  0.00  0.00     0.000 A 
ATOM     16  C   UNL d   1      -0.555  -5.098  -2.417  0.00  0.00     0.001 A 
ATOM     17  C   UNL d   1       0.484  -4.359  -1.850  0.00  0.00     0.014 A 
ENDBRANCH   7  12
ENDBRANCH   2   5
BRANCH   1  18
ATOM     18  C   UNL d   1       4.866   1.156  -0.292  0.00  0.00     0.096 A 
ATOM     19  S   UNL d   1       6.039   1.178   0.950  0.00  0.00    -0.082 SA
ATOM     20  C   UNL d   1       6.433   2.829   0.674  0.00  0.00     0.017 A 
ATOM     21  C   UNL d   1       7.389   3.600   1.365  0.00  0.00     0.020 A 
ATOM     22  C   UNL d   1       5.676   3.366  -0.370  0.00  0.00     0.004 A 
ATOM     23  C   UNL d   1       7.611   4.920   0.965  0.00  0.00     0.001 A 
ATOM     24  C   UNL d   1       6.900   5.466  -0.092  0.00  0.00     0.001 A 
ATOM     25  C   UNL d   1       5.931   4.709  -0.752  0.00  0.00     0.014 A 
ATOM     26  C   UNL d   1       4.734   2.402  -0.873  0.00  0.00     0.068 A 
ATOM     27 CL   UNL d   1       3.605   2.818  -2.103  0.00  0.00    -0.082 Cl
ENDBRANCH   1  18
TORSDOF 3
