REMARK  3 active torsions:
REMARK  status: ('A' for Active; 'I' for Inactive)
REMARK    1  A    between atoms: C_13  and  N_3 
REMARK    2  A    between atoms: C_11  and  C_10 
REMARK    3  A    between atoms: O_18  and  C_11 
ROOT
ATOM      1  C   UNL d   1       0.480   0.532  -0.092  0.00  0.00     0.075 A 
ATOM      2  C   UNL d   1       0.908  -0.762  -0.059  0.00  0.00     0.093 A 
ATOM      3  N   UNL d   1       2.801   1.176  -0.050  0.00  0.00    -0.254 N 
ATOM      4  C   UNL d   1       1.453   1.596  -0.182  0.00  0.00     0.268 A 
ATOM      5  C   UNL d   1       3.206  -0.186   0.026  0.00  0.00     0.186 A 
ATOM      6  C   UNL d   1      -0.932   0.562  -0.040  0.00  0.00    -0.012 A 
ATOM      7  N   UNL d   1       2.212  -1.142  -0.044  0.00  0.00    -0.326 N 
ATOM      8  C   UNL d   1      -1.460  -0.706  -0.041  0.00  0.00    -0.007 A 
ATOM      9  S   UNL d   1      -0.310  -1.932  -0.035  0.00  0.00    -0.075 SA
ATOM     10  C   UNL d   1      -2.006   1.599  -0.026  0.00  0.00     0.119 C 
ATOM     11  S   UNL d   1       4.757  -0.800   0.265  0.00  0.00    -0.040 SA
ATOM     12  C   UNL d   1      -3.294   0.732   0.253  0.00  0.00     0.025 C 
ATOM     13  O   UNL d   1       1.064   2.738  -0.420  0.00  0.00    -0.267 OA
ATOM     14  C   UNL d   1      -2.937  -0.754  -0.057  0.00  0.00     0.048 C 
ATOM     15  H   UNL d   1       2.454  -2.124   0.030  0.00  0.00     0.169 HD
ENDROOT
BRANCH   3  16
ATOM     16  C   UNL d   1       3.769   2.235  -0.009  0.00  0.00     0.045 A 
ATOM     17  C   UNL d   1       3.656   3.248   0.955  0.00  0.00     0.030 A 
ATOM     18  C   UNL d   1       4.600   4.275   1.019  0.00  0.00     0.002 A 
ATOM     19  C   UNL d   1       5.651   4.313   0.107  0.00  0.00     0.000 A 
ATOM     20  C   UNL d   1       5.758   3.329  -0.873  0.00  0.00     0.002 A 
ATOM     21  C   UNL d   1       4.822   2.294  -0.933  0.00  0.00     0.030 A 
ENDBRANCH   3  16
BRANCH  10  22
ATOM     22  C   UNL d   1      -1.819   2.669   1.039  0.00  0.00     0.148 C 
ATOM     23  O   UNL d   1      -2.306   2.633   2.161  0.00  0.00    -0.649 OA
BRANCH  22  24
ATOM     24  O   UNL d   1      -1.059   3.715   0.643  0.00  0.00    -0.776 OA
ATOM     25  H   UNL d   1      -0.490   3.535  -0.144  0.00  0.00     0.167 HD
ENDBRANCH  22  24
ENDBRANCH  10  22
TORSDOF 3
