REMARK  5 active torsions:
REMARK  status: ('A' for Active; 'I' for Inactive)
REMARK    1  A    between atoms: C_6  and  N_1 
REMARK    2  A    between atoms: N_2  and  C_14 
REMARK    3  A    between atoms: C_15  and  N_4 
REMARK    4  A    between atoms: N_9  and  C_16 
REMARK    5  A    between atoms: C_10  and  N_9 
ROOT
ATOM      1  C   UNL d   1      -2.260  -2.656   6.355  0.00  0.00     0.048 A 
ATOM      2  C   UNL d   1      -3.485  -4.043   8.511  0.00  0.00     0.032 A 
ATOM      3  C   UNL d   1      -2.800  -3.936   6.176  0.00  0.00     0.033 A 
ATOM      4  C   UNL d   1      -2.339  -2.082   7.628  0.00  0.00     0.033 A 
ATOM      5  C   UNL d   1      -2.939  -2.767   8.694  0.00  0.00     0.032 A 
ATOM      6  C   UNL d   1      -3.405  -4.617   7.238  0.00  0.00     0.032 A 
ENDROOT
BRANCH   1   7
ATOM      7  N   UNL d   1      -1.557  -1.967   5.343  0.00  0.00    -0.300 N 
ATOM      8  N   UNL d   1      -2.031  -2.178   4.206  0.00  0.00    -0.300 N 
ATOM      9  HN  UNL d   1      -2.903  -2.680   4.039  1.00  0.00     0.187 HD
ATOM     10  HN  UNL d   1      -0.752  -1.366   5.520  1.00  0.00     0.187 HD
BRANCH   8  11
ATOM     11  C   UNL d   1      -1.225  -1.643   3.180  0.00  0.00     0.048 A 
ATOM     12  C   UNL d   1      -1.157  -2.346   1.968  0.00  0.00     0.033 A 
ATOM     13  C   UNL d   1      -0.384  -1.878   0.899  0.00  0.00     0.038 A 
ATOM     14  C   UNL d   1       0.330  -0.682   1.040  0.00  0.00     0.103 A 
ATOM     15  C   UNL d   1       0.268   0.043   2.236  0.00  0.00     0.038 A 
ATOM     16  C   UNL d   1      -0.512  -0.439   3.295  0.00  0.00     0.033 A 
BRANCH  14  17
ATOM     17  N   UNL d   1       1.145  -0.184  -0.076  0.00  0.00    -0.116 N 
ATOM     18  O   UNL d   1       1.756   0.882   0.090  0.00  0.00    -0.532 OA
ATOM     19  O   UNL d   1       1.174  -0.858  -1.114  0.00  0.00    -0.532 OA
ENDBRANCH  14  17
ENDBRANCH   8  11
ENDBRANCH   1   7
BRANCH   2  20
ATOM     20  N   UNL d   1      -4.056  -4.729   9.601  0.00  0.00    -0.356 N 
ATOM     21  H   UNL d   1      -3.960  -4.243  10.488  0.00  0.00     0.166 HD
BRANCH  20  22
ATOM     22  C   UNL d   1      -5.153  -5.617   9.616  0.00  0.00     0.034 A 
ATOM     23  C   UNL d   1      -6.174  -5.569   8.660  0.00  0.00     0.053 A 
ATOM     24  C   UNL d   1      -7.247  -6.458   8.728  0.00  0.00     0.036 A 
ATOM     25 CL   UNL d   1      -8.502  -6.367   7.554  0.00  0.00    -0.084 Cl
ATOM     26  C   UNL d   1      -7.316  -7.410   9.741  0.00  0.00     0.024 A 
ATOM     27  C   UNL d   1      -6.304  -7.472  10.697  0.00  0.00     0.004 A 
ATOM     28  C   UNL d   1      -5.232  -6.577  10.635  0.00  0.00     0.029 A 
ENDBRANCH  20  22
ENDBRANCH   2  20
TORSDOF 5
