REMARK  8 active torsions:
REMARK  status: ('A' for Active; 'I' for Inactive)
REMARK    1  A    between atoms: C_7  and  C_1 
REMARK    2  A    between atoms: C_10  and  C_2 
REMARK    3  A    between atoms: S_3  and  N_11 
REMARK    4  A    between atoms: C_9  and  S_3 
REMARK    5  A    between atoms: C_13  and  N_4 
REMARK    6  A    between atoms: O_28  and  C_10 
REMARK    7  A    between atoms: N_11  and  C_24 
REMARK    8  A    between atoms: C_32  and  O_28 
ROOT
ATOM      1  C   UNL d   1       2.004   1.577  -0.075  0.00  0.00     0.057 A 
ATOM      2  C   UNL d   1       4.205   3.299  -0.137  0.00  0.00     0.042 A 
ATOM      3  C   UNL d   1       2.806   1.651  -1.220  0.00  0.00     0.034 A 
ATOM      4  C   UNL d   1       2.249   2.450   0.995  0.00  0.00     0.034 A 
ATOM      5  C   UNL d   1       3.910   2.511  -1.247  0.00  0.00     0.032 A 
ATOM      6  C   UNL d   1       3.366   3.288   0.974  0.00  0.00     0.032 A 
ENDROOT
BRANCH   1   7
ATOM      7  N   UNL d   1       0.953   0.624   0.052  0.00  0.00    -0.251 N 
ATOM      8  C   UNL d   1       0.828  -0.646  -0.475  0.00  0.00     0.158 C 
ATOM      9  C   UNL d   1      -0.466  -1.064  -0.192  0.00  0.00     0.089 C 
ATOM     10  C   UNL d   1      -0.978  -0.060   0.644  0.00  0.00     0.127 C 
ATOM     11  N   UNL d   1      -0.108   0.925   0.849  0.00  0.00    -0.303 N 
ATOM     12  HN  UNL d   1      -0.214   1.730   1.467  1.00  0.00     0.186 HD
BRANCH   8  13
ATOM     13  C   UNL d   1       1.950  -1.391  -1.065  0.00  0.00     0.435 C 
ATOM     14  F   UNL d   1       1.778  -2.734  -0.984  0.00  0.00    -0.165 F 
ATOM     15  F   UNL d   1       2.140  -1.093  -2.371  0.00  0.00    -0.165 F 
ATOM     16  F   UNL d   1       3.119  -1.140  -0.420  0.00  0.00    -0.165 F 
ENDBRANCH   8  13
BRANCH   9  17
ATOM     17  C   UNL d   1      -1.119  -2.278  -0.631  0.00  0.00     0.297 C 
ATOM     18  O   UNL d   1      -0.799  -2.877  -1.646  0.00  0.00    -0.259 OA
BRANCH  17  19
ATOM     19  O   UNL d   1      -2.168  -2.598   0.176  0.00  0.00    -0.318 OA
BRANCH  19  20
ATOM     20  C   UNL d   1      -3.078  -3.579  -0.337  0.00  0.00     0.174 C 
ATOM     21  C   UNL d   1      -4.170  -2.845  -1.093  0.00  0.00     0.034 C 
ENDBRANCH  19  20
ENDBRANCH  17  19
ENDBRANCH   9  17
ENDBRANCH   1   7
BRANCH   2  22
ATOM     22  N   UNL d   1       5.431   3.998  -0.055  0.00  0.00    -0.281 N 
ATOM     23  H   UNL d   1       6.256   3.528   0.310  0.00  0.00     0.179 HD
BRANCH  22  24
ATOM     24  S   UNL d   1       5.676   5.449  -0.838  0.00  0.00     0.263 S 
ATOM     25  O   UNL d   1       7.061   5.811  -0.604  0.00  0.00    -0.200 OA
ATOM     26  O   UNL d   1       5.127   5.388  -2.171  0.00  0.00    -0.200 OA
BRANCH  24  27
ATOM     27  C   UNL d   1       4.677   6.551   0.134  0.00  0.00     0.081 A 
ATOM     28  C   UNL d   1       5.197   7.091   1.315  0.00  0.00     0.050 A 
ATOM     29  C   UNL d   1       4.405   7.941   2.089  0.00  0.00     0.057 A 
ATOM     30 CL   UNL d   1       5.088   8.561   3.550  0.00  0.00    -0.083 Cl
ATOM     31  C   UNL d   1       3.103   8.257   1.677  0.00  0.00     0.055 A 
ATOM     32  C   UNL d   1       2.600   7.725   0.482  0.00  0.00     0.027 A 
ATOM     33 CL   UNL d   1       2.065   9.284   2.596  0.00  0.00    -0.083 Cl
ATOM     34  C   UNL d   1       3.386   6.875  -0.295  0.00  0.00     0.027 A 
ENDBRANCH  24  27
ENDBRANCH  22  24
ENDBRANCH   2  22
TORSDOF 8
