REMARK  2 active torsions:
REMARK  status: ('A' for Active; 'I' for Inactive)
REMARK    1  A    between atoms: C_2  and  C_1 
REMARK       I    between atoms: N_6  and  C_2 
REMARK    2  A    between atoms: C_11  and  C_5 
ROOT
ATOM      1  C   UNL d   1      -0.122  -1.282   0.070  0.00  0.00     0.092 A 
ATOM      2  N   UNL d   1      -0.589   0.840  -0.611  0.00  0.00    -0.259 N 
ATOM      3  HN  UNL d   1      -0.671   1.687  -1.174  1.00  0.00     0.195 HD
ATOM      4  C   UNL d   1      -0.180  -0.368  -1.037  0.00  0.00     0.083 A 
ATOM      5  O   UNL d   1      -0.874   0.718   0.723  0.00  0.00    -0.241 OA
ATOM      6  C   UNL d   1      -0.637  -0.551   1.129  0.00  0.00     0.090 A 
ATOM      7  C   UNL d   1      -1.006  -0.840   2.529  0.00  0.00     0.080 C 
ENDROOT
BRANCH   1   8
ATOM      8  C   UNL d   1       0.238  -2.687   0.078  0.00  0.00     0.258 C 
ATOM      9  N   UNL d   1       1.079  -3.159   1.090  0.00  0.00    -0.344 N 
ATOM     10  C   UNL d   1       1.442  -4.579   1.080  0.00  0.00     0.156 C 
ATOM     11  C   UNL d   1       1.991  -2.320   1.875  0.00  0.00     0.156 C 
ATOM     12  C   UNL d   1       1.744  -5.125   2.494  0.00  0.00     0.291 C 
ATOM     13  N   UNL d   1       2.622  -4.282   3.335  0.00  0.00     0.087 N 
ATOM     14  C   UNL d   1       2.147  -2.886   3.300  0.00  0.00     0.291 C 
ATOM     15  C   UNL d   1       4.023  -4.380   2.934  0.00  0.00     0.310 C 
ATOM     16  O   UNL d   1      -0.195  -3.442  -0.794  0.00  0.00    -0.267 OA
ENDBRANCH   1   8
BRANCH   4  17
ATOM     17  C   UNL d   1       0.114  -0.570  -2.461  0.00  0.00    -0.006 A 
ATOM     18  C   UNL d   1       1.088  -1.472  -2.907  0.00  0.00     0.014 A 
ATOM     19  C   UNL d   1       1.324  -1.649  -4.276  0.00  0.00     0.001 A 
ATOM     20  C   UNL d   1       0.598  -0.919  -5.216  0.00  0.00     0.000 A 
ATOM     21  C   UNL d   1      -0.361  -0.005  -4.790  0.00  0.00     0.001 A 
ATOM     22  C   UNL d   1      -0.599   0.169  -3.424  0.00  0.00     0.014 A 
ENDBRANCH   4  17
TORSDOF 2
