REMARK  2 active torsions:
REMARK  status: ('A' for Active; 'I' for Inactive)
REMARK    1  A    between atoms: C_4  and  N_1 
REMARK    2  A    between atoms: C_14  and  C_5 
ROOT
ATOM      1  N   UNL d   1       0.006   0.859  -0.043  0.00  0.00    -0.252 N 
ATOM      2  C   UNL d   1      -1.124   0.091   0.152  0.00  0.00     0.240 C 
ATOM      3  C   UNL d   1       1.134   0.072  -0.140  0.00  0.00     0.232 C 
ATOM      4  C   UNL d   1      -0.752  -1.369   0.038  0.00  0.00     0.120 C 
ATOM      5  C   UNL d   1       0.764  -1.367   0.045  0.00  0.00     0.122 C 
ATOM      6  O   UNL d   1      -2.277   0.462   0.338  0.00  0.00    -0.272 OA
ATOM      7  O   UNL d   1       2.301   0.416  -0.272  0.00  0.00    -0.273 OA
ENDROOT
BRANCH   1   8
ATOM      8  C   UNL d   1       0.012   2.288  -0.128  0.00  0.00     0.048 A 
ATOM      9  C   UNL d   1      -1.039   3.063   0.389  0.00  0.00     0.054 A 
ATOM     10  C   UNL d   1      -1.024   4.459   0.294  0.00  0.00     0.037 A 
ATOM     11 CL   UNL d   1      -2.317   5.373   0.971  0.00  0.00    -0.084 Cl
ATOM     12  C   UNL d   1       0.024   5.120  -0.331  0.00  0.00     0.048 A 
ATOM     13  C   UNL d   1       1.067   4.369  -0.856  0.00  0.00     0.037 A 
ATOM     14  C   UNL d   1       1.069   2.974  -0.751  0.00  0.00     0.054 A 
ATOM     15 CL   UNL d   1       2.364   5.164  -1.661  0.00  0.00    -0.084 Cl
ENDBRANCH   1   8
BRANCH   4  16
ATOM     16  C   UNL d   1      -1.332  -2.034  -1.195  0.00  0.00    -0.045 A 
ATOM     17  C   UNL d   1      -1.039  -1.581  -2.492  0.00  0.00     0.008 A 
ATOM     18  C   UNL d   1      -1.552  -2.242  -3.609  0.00  0.00     0.001 A 
ATOM     19  C   UNL d   1      -2.367  -3.359  -3.446  0.00  0.00     0.000 A 
ATOM     20  C   UNL d   1      -2.679  -3.811  -2.167  0.00  0.00     0.001 A 
ATOM     21  C   UNL d   1      -2.166  -3.152  -1.048  0.00  0.00     0.008 A 
ENDBRANCH   4  16
TORSDOF 2
