REMARK  5 active torsions:
REMARK  status: ('A' for Active; 'I' for Inactive)
REMARK    1  A    between atoms: C_12  and  C_4 
REMARK    2  A    between atoms: C_11  and  C_7 
REMARK    3  A    between atoms: O_17  and  C_8 
REMARK    4  A    between atoms: O_19  and  C_9 
REMARK    5  A    between atoms: O_18  and  C_10 
ROOT
ATOM      1  N   UNL d   1      -0.405   1.809  -0.059  0.00  0.00    -0.302 N 
ATOM      2  N   UNL d   1      -0.071  -0.417  -0.144  0.00  0.00    -0.337 N 
ATOM      3  HN  UNL d   1      -0.257  -1.419  -0.179  1.00  0.00     0.167 HD
ATOM      4  C   UNL d   1      -0.941   0.551  -0.118  0.00  0.00     0.120 A 
ATOM      5  C   UNL d   1       1.156   0.210  -0.113  0.00  0.00     0.103 A 
ATOM      6  C   UNL d   1       0.956   1.685  -0.058  0.00  0.00     0.275 A 
ATOM      7  C   UNL d   1       2.332  -0.433  -0.093  0.00  0.00     0.046 C 
ATOM      8  O   UNL d   1       1.790   2.571   0.011  0.00  0.00    -0.265 OA
ATOM      9  C   UNL d   1      -1.015   3.110   0.105  0.00  0.00     0.161 C 
ENDROOT
BRANCH   7  10
ATOM     10  C   UNL d   1       3.633   0.230  -0.018  0.00  0.00    -0.028 A 
ATOM     11  C   UNL d   1       4.195   0.539   1.220  0.00  0.00     0.051 A 
ATOM     12  C   UNL d   1       5.427   1.213   1.308  0.00  0.00     0.105 A 
ATOM     13  C   UNL d   1       6.115   1.593   0.129  0.00  0.00     0.135 A 
ATOM     14  C   UNL d   1       5.514   1.316  -1.120  0.00  0.00     0.105 A 
ATOM     15  C   UNL d   1       4.292   0.627  -1.176  0.00  0.00     0.051 A 
BRANCH  12  16
ATOM     16  O   UNL d   1       5.925   1.593   2.533  0.00  0.00    -0.353 OA
ATOM     17  C   UNL d   1       5.647   0.712   3.619  0.00  0.00     0.210 C 
ENDBRANCH  12  16
BRANCH  13  18
ATOM     18  O   UNL d   1       7.326   2.230   0.085  0.00  0.00    -0.351 OA
ATOM     19  C   UNL d   1       8.163   2.293   1.229  0.00  0.00     0.210 C 
ENDBRANCH  13  18
BRANCH  14  20
ATOM     20  O   UNL d   1       5.939   1.647  -2.383  0.00  0.00    -0.353 OA
ATOM     21  C   UNL d   1       7.199   2.263  -2.585  0.00  0.00     0.210 C 
ENDBRANCH  14  20
ENDBRANCH   7  10
BRANCH   4  22
ATOM     22  C   UNL d   1      -2.397   0.294  -0.120  0.00  0.00     0.008 A 
ATOM     23  C   UNL d   1      -2.869  -0.837   0.562  0.00  0.00     0.015 A 
ATOM     24  C   UNL d   1      -4.237  -1.110   0.607  0.00  0.00     0.001 A 
ATOM     25  C   UNL d   1      -5.138  -0.260  -0.032  0.00  0.00     0.000 A 
ATOM     26  C   UNL d   1      -4.671   0.846  -0.741  0.00  0.00     0.001 A 
ATOM     27  C   UNL d   1      -3.301   1.111  -0.803  0.00  0.00     0.015 A 
ENDBRANCH   4  22
TORSDOF 5
