REMARK  3 active torsions:
REMARK  status: ('A' for Active; 'I' for Inactive)
REMARK    1  A    between atoms: C_2  and  C_1 
REMARK       I    between atoms: N_4  and  C_2 
REMARK    2  A    between atoms: C_5  and  C_3 
REMARK    3  A    between atoms: C_6  and  N_4 
ROOT
ATOM      1  C   UNL d   1       4.640   1.035   0.495  0.00  0.00     0.062 A 
ATOM      2  C   UNL d   1       5.939   1.135   1.011  0.00  0.00     0.068 A 
ATOM      3  C   UNL d   1       4.051   2.188  -0.024  0.00  0.00     0.107 A 
ATOM      4  N   UNL d   1       4.669   3.390  -0.121  0.00  0.00    -0.356 N 
ATOM      5  HN  UNL d   1       4.201   4.205  -0.518  1.00  0.00     0.166 HD
ATOM      6  C   UNL d   1       5.930   3.450   0.333  0.00  0.00     0.104 A 
ATOM      7  C   UNL d   1       6.597   2.377   0.899  0.00  0.00     0.059 A 
ATOM      8 CL   UNL d   1       6.685   4.979   0.178  0.00  0.00    -0.065 Cl
ENDROOT
BRANCH   1   9
ATOM      9  C   UNL d   1       3.801  -0.184   0.468  0.00  0.00     0.258 C 
ATOM     10  N   UNL d   1       4.416  -1.333   0.007  0.00  0.00    -0.322 N 
ATOM     11  H   UNL d   1       5.268  -1.218  -0.515  0.00  0.00     0.169 HD
ATOM     12  O   UNL d   1       2.616  -0.052   0.747  0.00  0.00    -0.267 OA
BRANCH  10  13
ATOM     13  C   UNL d   1       3.750  -2.581  -0.141  0.00  0.00     0.046 C 
ATOM     14  C   UNL d   1       3.998  -3.342  -1.306  0.00  0.00    -0.035 C 
ATOM     15  C   UNL d   1       3.245  -4.513  -1.533  0.00  0.00     0.009 C 
ATOM     16  C   UNL d   1       4.953  -2.953  -2.403  0.00  0.00     0.050 C 
ATOM     17  C   UNL d   1       2.309  -4.958  -0.608  0.00  0.00     0.001 C 
ATOM     18  C   UNL d   1       2.139  -4.259   0.582  0.00  0.00     0.009 C 
ATOM     19  C   UNL d   1       2.874  -3.088   0.847  0.00  0.00    -0.035 C 
ATOM     20  C   UNL d   1       2.714  -2.508   2.226  0.00  0.00     0.050 C 
ENDBRANCH  10  13
ENDBRANCH   1   9
BRANCH   2  21
ATOM     21  C   UNL d   1       6.676   0.035   1.719  0.00  0.00     0.418 C 
ATOM     22  F   UNL d   1       5.932  -1.041   2.077  0.00  0.00    -0.166 F 
ATOM     23  F   UNL d   1       7.691  -0.445   0.954  0.00  0.00    -0.166 F 
ATOM     24  F   UNL d   1       7.253   0.470   2.874  0.00  0.00    -0.166 F 
ENDBRANCH   2  21
TORSDOF 3
