REMARK  1 active torsions:
REMARK  status: ('A' for Active; 'I' for Inactive)
REMARK       I    between atoms: C_10  and  N_1 
REMARK    1  A    between atoms: C_16  and  C_10 
ROOT
ATOM      1  N   UNL d   1      -1.335  -1.774  -0.043  0.00  0.00    -0.265 N 
ATOM      2  C   UNL d   1      -0.126  -1.093  -0.098  0.00  0.00     0.143 A 
ATOM      3  C   UNL d   1      -0.386   0.270  -0.067  0.00  0.00     0.090 A 
ATOM      4  C   UNL d   1      -2.368  -0.817  -0.003  0.00  0.00     0.057 A 
ATOM      5  C   UNL d   1      -1.785   0.456  -0.027  0.00  0.00     0.025 A 
ATOM      6  N   UNL d   1       1.115  -1.626  -0.123  0.00  0.00    -0.338 N 
ATOM      7  HN  UNL d   1       1.290  -2.631  -0.154  1.00  0.00     0.167 HD
ATOM      8  N   UNL d   1       0.609   1.194  -0.071  0.00  0.00    -0.351 N 
ATOM      9  HN  UNL d   1       0.427   2.197  -0.071  1.00  0.00     0.166 HD
ATOM     10  C   UNL d   1      -1.541  -3.173  -0.013  0.00  0.00     0.233 C 
ATOM     11  C   UNL d   1       2.099  -0.711  -0.105  0.00  0.00     0.060 A 
ATOM     12  C   UNL d   1       1.849   0.684  -0.074  0.00  0.00     0.059 A 
ATOM     13  C   UNL d   1      -3.770  -0.972   0.014  0.00  0.00     0.034 A 
ATOM     14  C   UNL d   1      -2.612   1.598  -0.006  0.00  0.00     0.058 A 
ATOM     15  O   UNL d   1      -2.590  -3.605   0.459  0.00  0.00    -0.272 OA
ATOM     16  C   UNL d   1      -3.994   1.432   0.019  0.00  0.00     0.117 A 
ATOM     17  C   UNL d   1      -4.571   0.173   0.025  0.00  0.00     0.044 A 
ATOM     18  F   UNL d   1      -4.784   2.514   0.029  0.00  0.00    -0.206 F 
ATOM     19  C   UNL d   1       3.415  -1.158  -0.103  0.00  0.00     0.032 A 
ATOM     20  C   UNL d   1       2.928   1.559  -0.033  0.00  0.00     0.032 A 
ATOM     21  C   UNL d   1       4.490  -0.268  -0.056  0.00  0.00     0.002 A 
ATOM     22  C   UNL d   1       4.245   1.097  -0.019  0.00  0.00     0.002 A 
ENDROOT
BRANCH  10  23
ATOM     23  C   UNL d   1      -0.476  -4.056  -0.642  0.00  0.00     0.070 C 
ATOM     24  C   UNL d   1      -0.801  -5.532  -0.381  0.00  0.00     0.019 C 
ATOM     25  C   UNL d   1      -0.422  -3.820  -2.152  0.00  0.00     0.019 C 
ENDBRANCH  10  23
TORSDOF 1
