REMARK  2 active torsions:
REMARK  status: ('A' for Active; 'I' for Inactive)
REMARK       I    between atoms: C_11  and  N_10 
REMARK    1  A    between atoms: O_18  and  C_11 
REMARK    2  A    between atoms: C_19  and  O_18 
ROOT
ATOM      1  C   UNL d   1       0.696   0.488   0.029  0.00  0.00     0.043 A 
ATOM      2  C   UNL d   1       1.182  -0.797  -0.012  0.00  0.00     0.090 A 
ATOM      3  C   UNL d   1       1.695   1.546   0.075  0.00  0.00     0.116 A 
ATOM      4  N   UNL d   1       2.503  -1.153  -0.032  0.00  0.00    -0.327 N 
ATOM      5  N   UNL d   1       3.015   1.134   0.044  0.00  0.00    -0.323 N 
ATOM      6  C   UNL d   1      -1.221  -0.867   0.001  0.00  0.00     0.010 A 
ATOM      7  C   UNL d   1      -0.749   0.446   0.011  0.00  0.00    -0.026 A 
ATOM      8  C   UNL d   1       3.450  -0.169  -0.009  0.00  0.00     0.177 A 
ATOM      9  S   UNL d   1       0.035  -2.020  -0.037  0.00  0.00    -0.074 SA
ATOM     10  N   UNL d   1      -3.493  -0.125   0.307  0.00  0.00    -0.323 N 
ATOM     11  C   UNL d   1      -4.303  -0.063   1.423  0.00  0.00     0.363 C 
ATOM     12  C   UNL d   1      -2.666  -1.292  -0.006  0.00  0.00     0.174 C 
ATOM     13  C   UNL d   1      -1.735   1.591   0.033  0.00  0.00     0.060 C 
ATOM     14  S   UNL d   1       1.304   3.154   0.173  0.00  0.00    -0.059 SA
ATOM     15  S   UNL d   1       5.075  -0.530  -0.038  0.00  0.00    -0.040 SA
ATOM     16  C   UNL d   1      -3.139   1.115  -0.383  0.00  0.00     0.133 C 
ATOM     17  O   UNL d   1      -4.808   0.973   1.841  0.00  0.00    -0.238 OA
ATOM     18  H   UNL d   1       2.769  -2.130  -0.063  0.00  0.00     0.169 HD
ATOM     19  H   UNL d   1       3.722   1.855   0.072  0.00  0.00     0.169 HD
ENDROOT
BRANCH  11  20
ATOM     20  O   UNL d   1      -4.452  -1.273   2.022  0.00  0.00    -0.304 OA
BRANCH  20  21
ATOM     21  C   UNL d   1      -5.035  -1.256   3.332  0.00  0.00     0.176 C 
ATOM     22  C   UNL d   1      -3.925  -1.058   4.347  0.00  0.00     0.034 C 
ENDBRANCH  20  21
ENDBRANCH  11  20
TORSDOF 2
