REMARK  9 active torsions:
REMARK  status: ('A' for Active; 'I' for Inactive)
REMARK    1  A    between atoms: C_5  and  C_1 
REMARK    2  A    between atoms: C_6  and  C_1 
REMARK    3  A    between atoms: N_2  and  C_3 
REMARK    4  A    between atoms: N_7  and  C_4 
REMARK    5  A    between atoms: O_14  and  C_5 
REMARK    6  A    between atoms: O_13  and  C_6 
REMARK    7  A    between atoms: C_8  and  N_7 
REMARK    8  A    between atoms: C_18  and  O_13 
REMARK    9  A    between atoms: C_17  and  O_14 
ROOT
ATOM      1  C   UNL d   1       1.076  -0.226  -0.098  0.00  0.00     0.129 C 
ATOM      2  C   UNL d   1       0.457   0.526  -1.030  0.00  0.00     0.112 C 
ENDROOT
BRANCH   2   3
ATOM      3  N   UNL d   1       0.990   1.229  -2.092  0.00  0.00    -0.363 N 
ATOM      4  H   UNL d   1       0.553   2.148  -2.241  0.00  0.00     0.165 HD
BRANCH   3   5
ATOM      5  C   UNL d   1       1.316   0.643  -3.354  0.00  0.00     0.065 A 
ATOM      6  C   UNL d   1       1.839   1.407  -4.421  0.00  0.00     0.129 A 
ATOM      7  C   UNL d   1       2.254   0.805  -5.627  0.00  0.00     0.038 A 
ATOM      8  C   UNL d   1       2.154  -0.574  -5.786  0.00  0.00     0.003 A 
ATOM      9  C   UNL d   1       1.653  -1.350  -4.748  0.00  0.00     0.002 A 
ATOM     10  C   UNL d   1       1.248  -0.751  -3.548  0.00  0.00     0.032 A 
BRANCH   6  11
ATOM     11  N   UNL d   1       1.957   2.865  -4.317  0.00  0.00    -0.113 N 
ATOM     12  O   UNL d   1       1.199   3.454  -3.531  0.00  0.00    -0.532 OA
ATOM     13  O   UNL d   1       2.778   3.433  -5.058  0.00  0.00    -0.532 OA
ENDBRANCH   6  11
ENDBRANCH   3   5
ENDBRANCH   2   3
BRANCH   1  14
ATOM     14  C   UNL d   1       0.287  -1.038   0.865  0.00  0.00     0.300 C 
ATOM     15  O   UNL d   1       0.746  -1.987   1.486  0.00  0.00    -0.259 OA
BRANCH  14  16
ATOM     16  O   UNL d   1      -1.025  -0.678   0.876  0.00  0.00    -0.318 OA
BRANCH  16  17
ATOM     17  C   UNL d   1      -1.906  -1.598   1.539  0.00  0.00     0.174 C 
ATOM     18  C   UNL d   1      -2.302  -2.698   0.568  0.00  0.00     0.034 C 
ENDBRANCH  16  17
ENDBRANCH  14  16
ENDBRANCH   1  14
BRANCH   1  19
ATOM     19  C   UNL d   1       2.550  -0.353  -0.096  0.00  0.00     0.300 C 
ATOM     20  O   UNL d   1       3.261  -0.377  -1.089  0.00  0.00    -0.259 OA
BRANCH  19  21
ATOM     21  O   UNL d   1       3.000  -0.486   1.180  0.00  0.00    -0.318 OA
BRANCH  21  22
ATOM     22  C   UNL d   1       4.355  -0.946   1.296  0.00  0.00     0.174 C 
ATOM     23  C   UNL d   1       4.402  -2.444   1.060  0.00  0.00     0.034 C 
ENDBRANCH  21  22
ENDBRANCH  19  21
ENDBRANCH   1  19
TORSDOF 9
