REMARK  2 active torsions:
REMARK  status: ('A' for Active; 'I' for Inactive)
REMARK    1  A    between atoms: C_5  and  C_1 
REMARK    2  A    between atoms: O_10  and  C_5 
ROOT
ATOM      1  C   UNL d   1      -1.583   1.276  -0.098  0.00  0.00     0.076 A 
ATOM      2  C   UNL d   1      -0.233   0.833  -0.028  0.00  0.00     0.058 A 
ATOM      3  C   UNL d   1      -2.332   0.108  -0.072  0.00  0.00     0.161 A 
ATOM      4  C   UNL d   1      -0.270  -0.541   0.011  0.00  0.00     0.067 A 
ATOM      5  O   UNL d   1      -1.540  -0.997  -0.009  0.00  0.00    -0.325 OA
ATOM      6  C   UNL d   1       1.038   1.519   0.011  0.00  0.00     0.163 C 
ATOM      7  O   UNL d   1       1.090   2.741  -0.102  0.00  0.00    -0.292 OA
ATOM      8  C   UNL d   1       0.865  -1.488   0.084  0.00  0.00     0.066 C 
ATOM      9  C   UNL d   1       2.263   0.654   0.302  0.00  0.00     0.084 C 
ATOM     10  C   UNL d   1       2.148  -0.743  -0.336  0.00  0.00     0.014 C 
ENDROOT
BRANCH   1  11
ATOM     11  C   UNL d   1      -2.183   2.600  -0.166  0.00  0.00     0.179 C 
ATOM     12  O   UNL d   1      -3.396   2.768  -0.175  0.00  0.00    -0.646 OA
BRANCH  11  13
ATOM     13  O   UNL d   1      -1.334   3.654  -0.221  0.00  0.00    -0.773 OA
ATOM     14  H   UNL d   1      -0.374   3.434  -0.212  0.00  0.00     0.167 HD
ENDBRANCH  11  13
ENDBRANCH   1  11
TORSDOF 2
