REMARK  5 active torsions:
REMARK  status: ('A' for Active; 'I' for Inactive)
REMARK    1  A    between atoms: O_10  and  C_2 
REMARK    2  A    between atoms: C_12  and  O_10 
REMARK    3  A    between atoms: C_11  and  C_16 
REMARK    4  A    between atoms: C_16  and  C_12 
REMARK    5  A    between atoms: O_22  and  C_16 
ROOT
ATOM      1  C   UNL d   1       0.075  -0.695   0.575  0.00  0.00     0.036 A 
ATOM      2  C   UNL d   1       1.390  -1.343   0.459  0.00  0.00     0.151 C 
ATOM      3  N   UNL d   1       2.533  -0.756   0.490  0.00  0.00    -0.358 N 
ATOM      4  HN  UNL d   1       3.408  -1.277   0.435  1.00  0.00     0.162 HD
ATOM      5  C   UNL d   1       0.100   0.682   0.831  0.00  0.00     0.025 A 
ATOM      6  N   UNL d   1       1.302   1.343   1.086  0.00  0.00    -0.276 NA
ATOM      7  C   UNL d   1      -1.140  -1.384   0.451  0.00  0.00     0.019 A 
ATOM      8  C   UNL d   1      -1.116   1.355   1.004  0.00  0.00     0.048 A 
ATOM      9  C   UNL d   1       2.507   0.697   0.609  0.00  0.00     0.216 C 
ATOM     10  C   UNL d   1      -2.326   0.671   0.878  0.00  0.00     0.035 A 
ATOM     11  C   UNL d   1      -2.344  -0.695   0.601  0.00  0.00     0.025 A 
ATOM     12 CL   UNL d   1      -3.810   1.519   1.090  0.00  0.00    -0.084 Cl
ATOM     13  H   UNL d   1       1.276   2.339   0.888  0.00  0.00     0.129 HD
ENDROOT
BRANCH   2  14
ATOM     14  O   UNL d   1       1.274  -2.686   0.298  0.00  0.00    -0.332 OA
BRANCH  14  15
ATOM     15  C   UNL d   1       2.518  -3.418   0.160  0.00  0.00     0.214 C 
BRANCH  15  16
ATOM     16  C   UNL d   1       2.225  -4.921  -0.007  0.00  0.00     0.175 C 
BRANCH  16  17
ATOM     17  C   UNL d   1       1.471  -5.589   1.133  0.00  0.00    -0.028 A 
ATOM     18  C   UNL d   1       0.673  -6.718   0.879  0.00  0.00     0.010 A 
ATOM     19  C   UNL d   1      -0.072  -7.320   1.895  0.00  0.00     0.007 A 
ATOM     20  C   UNL d   1      -0.015  -6.827   3.200  0.00  0.00    -0.062 A 
ATOM     21  C   UNL d   1       0.827  -5.747   3.478  0.00  0.00     0.007 A 
ATOM     22  C   UNL d   1      -0.872  -7.434   4.269  0.00  0.00     0.048 C 
ATOM     23  C   UNL d   1       1.567  -5.141   2.458  0.00  0.00     0.010 A 
ENDBRANCH  16  17
BRANCH  16  24
ATOM     24  O   UNL d   1       1.486  -5.083  -1.229  0.00  0.00    -0.389 OA
ATOM     25  H   UNL d   1       0.597  -4.733  -1.039  0.00  0.00     0.210 HD
ENDBRANCH  16  24
ENDBRANCH  15  16
ENDBRANCH  14  15
ENDBRANCH   2  14
TORSDOF 5
