REMARK  3 active torsions:
REMARK  status: ('A' for Active; 'I' for Inactive)
REMARK    1  A    between atoms: C_8  and  C_1 
REMARK    2  A    between atoms: C_16  and  C_7 
REMARK    3  A    between atoms: C_10  and  C_15 
ROOT
ATOM      1  C   UNL d   1      -0.198  -1.174   0.144  0.00  0.00     0.153 A 
ATOM      2  O   UNL d   1      -1.171  -0.285   0.539  0.00  0.00    -0.276 OA
ATOM      3  N   UNL d   1       0.990  -0.611   0.038  0.00  0.00    -0.280 N 
ATOM      4  HN  UNL d   1       1.862  -1.073  -0.218  1.00  0.00     0.189 HD
ATOM      5  N   UNL d   1       0.823   0.718   0.341  0.00  0.00    -0.277 N 
ATOM      6  HN  UNL d   1       1.547   1.437   0.344  1.00  0.00     0.189 HD
ATOM      7  C   UNL d   1      -0.453   0.885   0.628  0.00  0.00     0.174 A 
ENDROOT
BRANCH   1   8
ATOM      8  C   UNL d   1      -0.578  -2.578  -0.224  0.00  0.00     0.134 C 
ATOM      9  C   UNL d   1      -1.047  -3.436   0.938  0.00  0.00    -0.008 A 
ATOM     10  C   UNL d   1      -1.998  -4.436   0.703  0.00  0.00     0.083 A 
ATOM     11  C   UNL d   1      -0.459  -3.362   2.214  0.00  0.00     0.011 A 
ATOM     12  C   UNL d   1      -2.352  -5.341   1.708  0.00  0.00     0.038 A 
ATOM     13  O   UNL d   1      -2.623  -4.625  -0.504  0.00  0.00    -0.310 OA
ATOM     14  C   UNL d   1      -1.766  -5.253   2.968  0.00  0.00     0.003 A 
ATOM     15  C   UNL d   1      -0.825  -4.258   3.223  0.00  0.00     0.001 A 
ATOM     16  C   UNL d   1      -2.446  -3.689  -1.492  0.00  0.00     0.083 A 
ATOM     17  C   UNL d   1      -1.514  -2.652  -1.418  0.00  0.00    -0.008 A 
ATOM     18  C   UNL d   1      -3.255  -3.844  -2.622  0.00  0.00     0.038 A 
ATOM     19  C   UNL d   1      -1.404  -1.771  -2.511  0.00  0.00     0.011 A 
ATOM     20  C   UNL d   1      -2.224  -1.916  -3.632  0.00  0.00     0.001 A 
ATOM     21  C   UNL d   1      -3.147  -2.956  -3.689  0.00  0.00     0.003 A 
ENDBRANCH   1   8
BRANCH   7  22
ATOM     22  C   UNL d   1      -1.166   2.114   0.952  0.00  0.00     0.017 A 
ATOM     23  C   UNL d   1      -0.548   3.354   0.710  0.00  0.00     0.032 A 
ATOM     24  C   UNL d   1      -1.194   4.566   1.000  0.00  0.00     0.048 A 
ATOM     25  C   UNL d   1      -2.481   4.529   1.557  0.00  0.00     0.016 A 
ATOM     26  C   UNL d   1      -3.105   3.306   1.805  0.00  0.00     0.002 A 
ATOM     27  C   UNL d   1      -2.453   2.108   1.501  0.00  0.00     0.016 A 
BRANCH  24  28
ATOM     28  C   UNL d   1      -0.534   5.895   0.718  0.00  0.00     0.417 C 
ATOM     29  F   UNL d   1       0.718   5.783   0.192  0.00  0.00    -0.166 F 
ATOM     30  F   UNL d   1      -1.243   6.649  -0.167  0.00  0.00    -0.166 F 
ATOM     31  F   UNL d   1      -0.401   6.660   1.837  0.00  0.00    -0.166 F 
ENDBRANCH  24  28
ENDBRANCH   7  22
TORSDOF 3
