REMARK  6 active torsions:
REMARK  status: ('A' for Active; 'I' for Inactive)
REMARK    1  A    between atoms: C_4  and  S_1 
REMARK    2  A    between atoms: C_5  and  S_1 
REMARK    3  A    between atoms: C_2  and  C_7 
REMARK    4  A    between atoms: C_3  and  C_6 
REMARK    5  A    between atoms: C_8  and  C_4 
REMARK       I    between atoms: N_9  and  C_8 
REMARK    6  A    between atoms: C_13  and  N_9 
ROOT
ATOM      1  S   UNL d   1       1.008  -0.021  -0.258  0.00  0.00     0.184 S 
ATOM      2  O   UNL d   1       0.709  -1.166   0.582  0.00  0.00    -0.222 OA
ATOM      3  O   UNL d   1       2.358   0.208  -0.734  0.00  0.00    -0.222 OA
ENDROOT
BRANCH   1   4
ATOM      4  C   UNL d   1       0.421   1.411   0.575  0.00  0.00     0.248 C 
BRANCH   4   5
ATOM      5  C   UNL d   1       1.332   1.837   1.686  0.00  0.00     0.236 C 
ATOM      6  N   UNL d   1       1.679   0.873   2.619  0.00  0.00    -0.324 N 
ATOM      7  H   UNL d   1       1.671  -0.102   2.326  0.00  0.00     0.169 HD
ATOM      8  O   UNL d   1       1.675   3.018   1.738  0.00  0.00    -0.272 OA
BRANCH   6   9
ATOM      9  C   UNL d   1       2.441   1.164   3.780  0.00  0.00     0.073 A 
ATOM     10  C   UNL d   1       2.315   2.355   4.510  0.00  0.00     0.143 A 
ATOM     11  F   UNL d   1       1.332   3.229   4.244  0.00  0.00    -0.204 F 
ATOM     12  C   UNL d   1       3.142   2.625   5.598  0.00  0.00     0.044 A 
ATOM     13  C   UNL d   1       4.101   1.693   5.988  0.00  0.00     0.003 A 
ATOM     14  C   UNL d   1       4.196   0.477   5.311  0.00  0.00     0.002 A 
ATOM     15  C   UNL d   1       3.358   0.204   4.222  0.00  0.00     0.033 A 
ENDBRANCH   6   9
ENDBRANCH   4   5
ENDBRANCH   1   4
BRANCH   1  16
ATOM     16  C   UNL d   1      -0.028  -0.106  -1.708  0.00  0.00     0.061 A 
ATOM     17  C   UNL d   1       0.159   0.850  -2.714  0.00  0.00     0.039 A 
ATOM     18  C   UNL d   1      -0.649   0.836  -3.859  0.00  0.00     0.050 A 
ATOM     19  C   UNL d   1      -1.629  -0.164  -3.983  0.00  0.00     0.032 A 
ATOM     20  C   UNL d   1      -1.804  -1.146  -2.988  0.00  0.00     0.050 A 
ATOM     21  C   UNL d   1      -0.993  -1.109  -1.841  0.00  0.00     0.039 A 
BRANCH  18  22
ATOM     22  C   UNL d   1      -0.491   1.882  -4.941  0.00  0.00     0.417 C 
ATOM     23  F   UNL d   1       0.535   2.745  -4.712  0.00  0.00    -0.166 F 
ATOM     24  F   UNL d   1      -0.263   1.337  -6.165  0.00  0.00    -0.166 F 
ATOM     25  F   UNL d   1      -1.606   2.652  -5.072  0.00  0.00    -0.166 F 
ENDBRANCH  18  22
BRANCH  20  26
ATOM     26  C   UNL d   1      -2.863  -2.212  -3.174  0.00  0.00     0.417 C 
ATOM     27  F   UNL d   1      -2.890  -3.131  -2.172  0.00  0.00    -0.166 F 
ATOM     28  F   UNL d   1      -4.116  -1.683  -3.235  0.00  0.00    -0.166 F 
ATOM     29  F   UNL d   1      -2.695  -2.913  -4.328  0.00  0.00    -0.166 F 
ENDBRANCH  20  26
ENDBRANCH   1  16
TORSDOF 6
