REMARK  5 active torsions:
REMARK  status: ('A' for Active; 'I' for Inactive)
REMARK    1  A    between atoms: C_2  and  S_1 
REMARK    2  A    between atoms: N_8  and  S_1 
REMARK    3  A    between atoms: C_3  and  C_7 
REMARK    4  A    between atoms: C_19  and  N_8 
REMARK       I    between atoms: C_16  and  N_17 
REMARK    5  A    between atoms: N_17  and  C_20 
ROOT
ATOM      1  S   UNL d   1       0.900  -0.014  -0.087  0.00  0.00     0.269 S 
ATOM      2  O   UNL d   1       0.247   1.149   0.473  0.00  0.00    -0.200 OA
ATOM      3  O   UNL d   1       2.339  -0.063  -0.258  0.00  0.00    -0.200 OA
ENDROOT
BRANCH   1   4
ATOM      4  C   UNL d   1       0.247  -0.152  -1.744  0.00  0.00     0.121 A 
ATOM      5  S   UNL d   1      -1.458  -0.209  -1.919  0.00  0.00    -0.074 SA
ATOM      6  C   UNL d   1      -1.350  -0.397  -3.616  0.00  0.00     0.033 A 
ATOM      7  C   UNL d   1      -0.042  -0.358  -4.049  0.00  0.00     0.023 A 
ATOM      8  C   UNL d   1       0.877  -0.189  -2.974  0.00  0.00     0.034 A 
BRANCH   6   9
ATOM      9  C   UNL d   1      -2.505  -0.582  -4.560  0.00  0.00     0.056 A 
ATOM     10  N   UNL d   1      -2.278  -0.823  -5.908  0.00  0.00    -0.353 N 
ATOM     11  C   UNL d   1      -3.421  -0.972  -6.542  0.00  0.00     0.047 A 
ATOM     12  HN  UNL d   1      -1.358  -0.876  -6.345  1.00  0.00     0.166 HD
ATOM     13  C   UNL d   1      -3.545  -1.272  -7.995  0.00  0.00     0.076 C 
ATOM     14  S   UNL d   1      -4.829  -0.791  -5.573  0.00  0.00    -0.087 SA
ATOM     15  C   UNL d   1      -3.834  -0.536  -4.197  0.00  0.00     0.082 A 
ENDBRANCH   6   9
ENDBRANCH   1   4
BRANCH   1  16
ATOM     16  N   UNL d   1       0.418  -1.334   0.856  0.00  0.00    -0.280 N 
ATOM     17  H   UNL d   1      -0.535  -1.209   1.195  0.00  0.00     0.179 HD
BRANCH  16  18
ATOM     18  C   UNL d   1       0.760  -2.645   0.421  0.00  0.00     0.042 A 
ATOM     19  C   UNL d   1       1.954  -3.234   0.831  0.00  0.00     0.032 A 
ATOM     20  C   UNL d   1       2.275  -4.536   0.413  0.00  0.00     0.032 A 
ATOM     21  C   UNL d   1       1.421  -5.244  -0.446  0.00  0.00     0.034 A 
ATOM     22  C   UNL d   1       0.234  -4.632  -0.849  0.00  0.00     0.032 A 
ATOM     23  C   UNL d   1      -0.100  -3.347  -0.414  0.00  0.00     0.032 A 
BRANCH  21  24
ATOM     24  N   UNL d   1       1.810  -6.540  -0.865  0.00  0.00    -0.328 N 
ATOM     25  C   UNL d   1       1.119  -7.366  -1.733  0.00  0.00     0.218 C 
ATOM     26  O   UNL d   1       0.040  -7.133  -2.270  0.00  0.00    -0.274 OA
ATOM     27  C   UNL d   1       1.815  -8.674  -2.022  0.00  0.00     0.117 C 
ATOM     28  H   UNL d   1       2.694  -6.875  -0.504  0.00  0.00     0.169 HD
ENDBRANCH  21  24
ENDBRANCH  16  18
ENDBRANCH   1  16
TORSDOF 5
