REMARK  15 active torsions:
REMARK  status: ('A' for Active; 'I' for Inactive)
REMARK    1  A    between atoms: C_4  and  C_1 
REMARK    2  A    between atoms: C_5  and  C_1 
REMARK    3  A    between atoms: C_2  and  C_6 
REMARK    4  A    between atoms: N_7  and  C_3 
REMARK    5  A    between atoms: O_25  and  C_4 
REMARK    6  A    between atoms: O_24  and  C_5 
REMARK    7  A    between atoms: C_8  and  N_7 
REMARK    8  A    between atoms: O_27  and  C_10 
REMARK    9  A    between atoms: N_22  and  C_11 
REMARK   10  A    between atoms: O_28  and  C_12 
REMARK   11  A    between atoms: C_29  and  N_22 
REMARK   12  A    between atoms: C_23  and  C_30 
REMARK   13  A    between atoms: C_31  and  O_24 
REMARK   14  A    between atoms: C_32  and  O_25 
REMARK   15  A    between atoms: C_30  and  C_29 
ROOT
ATOM      1  C   UNL d   1      -1.592   4.187  -2.621  0.00  0.00     0.050 A 
ATOM      2  C   UNL d   1       0.271   2.609  -2.404  0.00  0.00     0.054 A 
ATOM      3  C   UNL d   1      -0.880   3.230  -1.887  0.00  0.00     0.047 A 
ATOM      4  C   UNL d   1       0.733   2.963  -3.701  0.00  0.00     0.035 A 
ATOM      5  C   UNL d   1      -1.152   4.504  -3.906  0.00  0.00     0.018 A 
ATOM      6  C   UNL d   1      -0.012   3.897  -4.437  0.00  0.00     0.026 A 
ENDROOT
BRANCH   2   7
ATOM      7  N   UNL d   1       0.944   1.602  -1.682  0.00  0.00    -0.363 N 
ATOM      8  H   UNL d   1       1.920   1.471  -1.972  0.00  0.00     0.165 HD
BRANCH   7   9
ATOM      9  C   UNL d   1       0.471   0.816  -0.654  0.00  0.00     0.112 C 
ATOM     10  C   UNL d   1       1.117  -0.079   0.122  0.00  0.00     0.129 C 
BRANCH  10  11
ATOM     11  C   UNL d   1       0.330  -0.956   1.033  0.00  0.00     0.300 C 
ATOM     12  O   UNL d   1       0.701  -2.053   1.429  0.00  0.00    -0.259 OA
BRANCH  11  13
ATOM     13  O   UNL d   1      -0.904  -0.437   1.283  0.00  0.00    -0.318 OA
BRANCH  13  14
ATOM     14  C   UNL d   1      -1.868  -1.361   1.817  0.00  0.00     0.174 C 
ATOM     15  C   UNL d   1      -2.550  -2.073   0.661  0.00  0.00     0.034 C 
ENDBRANCH  13  14
ENDBRANCH  11  13
ENDBRANCH  10  11
BRANCH  10  16
ATOM     16  C   UNL d   1       2.567  -0.279  -0.109  0.00  0.00     0.300 C 
ATOM     17  O   UNL d   1       3.208   0.295  -0.984  0.00  0.00    -0.259 OA
BRANCH  16  18
ATOM     18  O   UNL d   1       3.078  -1.222   0.715  0.00  0.00    -0.318 OA
BRANCH  18  19
ATOM     19  C   UNL d   1       4.307  -1.814   0.277  0.00  0.00     0.174 C 
ATOM     20  C   UNL d   1       3.985  -2.906  -0.729  0.00  0.00     0.034 C 
ENDBRANCH  18  19
ENDBRANCH  16  18
ENDBRANCH  10  16
ENDBRANCH   7   9
ENDBRANCH   2   7
BRANCH   4  21
ATOM     21  N   UNL d   1       1.850   2.270  -4.250  0.00  0.00    -0.291 NA
ATOM     22  H   UNL d   1       1.542   1.329  -4.498  0.00  0.00     0.127 HD
BRANCH  21  23
ATOM     23  C   UNL d   1       2.550   2.940  -5.354  0.00  0.00     0.097 C 
BRANCH  23  24
ATOM     24  C   UNL d   1       3.680   2.088  -5.945  0.00  0.00     0.053 C 
BRANCH  24  25
ATOM     25  C   UNL d   1       4.470   2.920  -6.935  0.00  0.00    -0.054 A 
ATOM     26  C   UNL d   1       5.605   3.625  -6.505  0.00  0.00     0.046 A 
ATOM     27  C   UNL d   1       6.282   4.517  -7.352  0.00  0.00     0.102 A 
ATOM     28  C   UNL d   1       5.823   4.681  -8.671  0.00  0.00     0.101 A 
ATOM     29  C   UNL d   1       4.690   3.976  -9.100  0.00  0.00     0.040 A 
ATOM     30  C   UNL d   1       4.019   3.099  -8.246  0.00  0.00     0.010 A 
BRANCH  27  31
ATOM     31  O   UNL d   1       7.349   5.272  -6.944  0.00  0.00    -0.353 OA
ATOM     32  C   UNL d   1       7.739   5.197  -5.579  0.00  0.00     0.210 C 
ENDBRANCH  27  31
BRANCH  28  33
ATOM     33  O   UNL d   1       6.320   5.527  -9.630  0.00  0.00    -0.353 OA
ATOM     34  C   UNL d   1       7.710   5.821  -9.576  0.00  0.00     0.210 C 
ENDBRANCH  28  33
ENDBRANCH  24  25
ENDBRANCH  23  24
ENDBRANCH  21  23
ENDBRANCH   4  21
BRANCH   1  35
ATOM     35  C   UNL d   1      -2.809   4.864  -2.050  0.00  0.00     0.417 C 
ATOM     36  F   UNL d   1      -3.120   4.458  -0.786  0.00  0.00    -0.166 F 
ATOM     37  F   UNL d   1      -2.670   6.216  -1.984  0.00  0.00    -0.166 F 
ATOM     38  F   UNL d   1      -3.926   4.639  -2.797  0.00  0.00    -0.166 F 
ENDBRANCH   1  35
TORSDOF 15
