REMARK  6 active torsions:
REMARK  status: ('A' for Active; 'I' for Inactive)
REMARK       I    between atoms: C_4  and  N_8 
REMARK    1  A    between atoms: C_13  and  C_4 
REMARK    2  A    between atoms: C_6  and  C_14 
REMARK    3  A    between atoms: O_15  and  C_6 
REMARK    4  A    between atoms: C_12  and  C_7 
REMARK    5  A    between atoms: N_8  and  C_12 
REMARK    6  A    between atoms: C_14  and  C_13 
ROOT
ATOM      1  C   UNL d   1       2.349   0.486  -1.903  0.00  0.00     0.157 C 
ENDROOT
BRANCH   1   2
ATOM      2  N   UNL d   1       3.520  -0.250  -2.361  0.00  0.00    -0.359 N 
ATOM      3  C   UNL d   1       3.503  -1.611  -2.536  0.00  0.00     0.218 C 
ATOM      4  O   UNL d   1       2.519  -2.305  -2.297  0.00  0.00    -0.274 OA
ATOM      5  H   UNL d   1       4.394   0.259  -2.442  0.00  0.00     0.162 HD
BRANCH   3   6
ATOM      6  C   UNL d   1       4.809  -2.187  -3.036  0.00  0.00     0.113 C 
BRANCH   6   7
ATOM      7  C   UNL d   1       4.559  -3.450  -3.854  0.00  0.00     0.119 C 
BRANCH   7   8
ATOM      8  C   UNL d   1       5.849  -4.032  -4.366  0.00  0.00     0.139 C 
ATOM      9  O   UNL d   1       6.957  -3.567  -4.159  0.00  0.00    -0.650 OA
BRANCH   8  10
ATOM     10  O   UNL d   1       5.658  -5.149  -5.102  0.00  0.00    -0.776 OA
ATOM     11  H   UNL d   1       4.722  -5.413  -5.184  0.00  0.00     0.167 HD
ENDBRANCH   8  10
ENDBRANCH   7   8
ENDBRANCH   6   7
ENDBRANCH   3   6
ENDBRANCH   1   2
BRANCH   1  12
ATOM     12  C   UNL d   1       2.290   0.622  -0.368  0.00  0.00     0.171 C 
ATOM     13  O   UNL d   1       3.430   1.364   0.111  0.00  0.00    -0.339 OA
ATOM     14  C   UNL d   1       3.261   2.721   0.002  0.00  0.00     0.102 A 
ATOM     15  C   UNL d   1       2.030   3.322  -0.280  0.00  0.00     0.102 A 
ATOM     16  C   UNL d   1       4.401   3.506   0.158  0.00  0.00     0.039 A 
ATOM     17  C   UNL d   1       1.952   4.701  -0.467  0.00  0.00     0.039 A 
ATOM     18  O   UNL d   1       0.866   2.611  -0.425  0.00  0.00    -0.346 OA
ATOM     19  C   UNL d   1       3.099   5.485  -0.333  0.00  0.00     0.003 A 
ATOM     20  C   UNL d   1       4.320   4.889  -0.011  0.00  0.00     0.003 A 
ATOM     21  C   UNL d   1       0.999   1.288   0.108  0.00  0.00     0.209 C 
ENDBRANCH   1  12
TORSDOF 6
