REMARK  3 active torsions:
REMARK  status: ('A' for Active; 'I' for Inactive)
REMARK       I    between atoms: N_3  and  C_1 
REMARK       I    between atoms: N_13  and  C_1 
REMARK    1  A    between atoms: N_5  and  N_3 
REMARK    2  A    between atoms: C_7  and  C_9 
REMARK    3  A    between atoms: O_23  and  C_21 
ROOT
ATOM      1  C   UNL d   2       2.623   0.449   0.250  0.00  0.00     0.135 C 
ATOM      2  O   UNL d   2       1.728   0.920  -0.431  0.00  0.00    -0.650 OA
ATOM      3  C   UNL d   2       4.087   0.565  -0.039  0.00  0.00     0.125 C 
ENDROOT
BRANCH   1   4
ATOM      4  O   UNL d   2       2.369  -0.287   1.347  0.00  0.00    -0.777 OA
ATOM      5  H   UNL d   2       1.383  -0.297   1.454  0.00  0.00     0.167 HD
ENDBRANCH   1   4
TORSDOF 3
