REMARK  3 active torsions:
REMARK  status: ('A' for Active; 'I' for Inactive)
REMARK    1  A    between atoms: C_2  and  C_1 
REMARK       I    between atoms: N_4  and  C_2 
REMARK    2  A    between atoms: C_12  and  C_7 
REMARK    3  A    between atoms: O_19  and  C_7 
ROOT
ATOM      1  C   UNL d   1      -1.505  -2.831   0.124  0.00  0.00     0.256 C 
ATOM      2  N   UNL d   1      -2.682  -3.579   0.002  0.00  0.00    -0.348 N 
ATOM      3  C   UNL d   1      -3.820  -6.122  -0.868  0.00  0.00     0.088 C 
ATOM      4  C   UNL d   1      -3.522  -4.965  -1.846  0.00  0.00     0.063 C 
ATOM      5  C   UNL d   1      -2.909  -5.992   0.374  0.00  0.00     0.063 C 
ATOM      6  C   UNL d   1      -2.982  -4.603   0.997  0.00  0.00     0.129 C 
ATOM      7  C   UNL d   1      -3.560  -3.602  -1.164  0.00  0.00     0.129 C 
ATOM      8  O   UNL d   1      -0.642  -3.092   0.958  0.00  0.00    -0.267 OA
ENDROOT
BRANCH   1   9
ATOM      9  C   UNL d   1      -1.333  -1.620  -0.721  0.00  0.00     0.066 A 
ATOM     10  C   UNL d   1      -0.111  -1.284  -1.292  0.00  0.00     0.092 A 
ATOM     11  O   UNL d   1       1.048  -2.013  -1.213  0.00  0.00    -0.339 OA
ATOM     12  C   UNL d   1       0.035  -0.114  -2.023  0.00  0.00    -0.021 A 
ATOM     13  C   UNL d   1       2.042  -1.285  -1.986  0.00  0.00     0.064 C 
ATOM     14  C   UNL d   1       2.426  -2.153  -3.188  0.00  0.00     0.046 C 
ATOM     15  C   UNL d   1       3.264  -1.067  -1.091  0.00  0.00     0.046 C 
ATOM     16  C   UNL d   1       1.443   0.062  -2.442  0.00  0.00     0.079 C 
ATOM     17  C   UNL d   1      -1.030   0.749  -2.234  0.00  0.00     0.010 A 
ATOM     18  C   UNL d   1      -2.259   0.439  -1.659  0.00  0.00     0.002 A 
ATOM     19  C   UNL d   1      -2.401  -0.721  -0.881  0.00  0.00     0.020 A 
ENDBRANCH   1   9
BRANCH   3  20
ATOM     20  C   UNL d   1      -3.697  -7.464  -1.614  0.00  0.00    -0.024 A 
ATOM     21  C   UNL d   1      -2.797  -8.466  -1.210  0.00  0.00     0.012 A 
ATOM     22  C   UNL d   1      -2.643  -9.645  -1.946  0.00  0.00     0.024 A 
ATOM     23  C   UNL d   1      -3.401  -9.853  -3.092  0.00  0.00     0.034 A 
ATOM     24  C   UNL d   1      -4.323  -8.896  -3.503  0.00  0.00     0.024 A 
ATOM     25 CL   UNL d   1      -3.197 -11.294  -4.009  0.00  0.00    -0.084 Cl
ATOM     26  C   UNL d   1      -4.464  -7.710  -2.771  0.00  0.00     0.012 A 
ENDBRANCH   3  20
BRANCH   3  27
ATOM     27  O   UNL d   1      -5.174  -5.970  -0.409  0.00  0.00    -0.385 OA
ATOM     28  H   UNL d   1      -5.769  -6.432  -1.020  0.00  0.00     0.211 HD
ENDBRANCH   3  27
TORSDOF 3
