REMARK  10 active torsions:
REMARK  status: ('A' for Active; 'I' for Inactive)
REMARK    1  A    between atoms: C_5  and  C_1 
REMARK    2  A    between atoms: C_6  and  C_2 
REMARK    3  A    between atoms: C_7  and  C_2 
REMARK    4  A    between atoms: N_8  and  C_3 
REMARK    5  A    between atoms: C_4  and  N_8 
REMARK    6  A    between atoms: O_15  and  C_5 
REMARK    7  A    between atoms: O_17  and  C_6 
REMARK    8  A    between atoms: O_16  and  C_7 
REMARK    9  A    between atoms: C_19  and  O_16 
REMARK   10  A    between atoms: C_18  and  O_17 
ROOT
ATOM      1  C   UNL d   1       0.346   5.171  -0.259  0.00  0.00     0.129 C 
ATOM      2  C   UNL d   1       0.688   3.867  -0.323  0.00  0.00     0.112 C 
ENDROOT
BRANCH   2   3
ATOM      3  N   UNL d   1      -0.101   2.742  -0.222  0.00  0.00    -0.358 N 
ATOM      4  H   UNL d   1      -1.041   2.949   0.129  0.00  0.00     0.166 HD
BRANCH   3   5
ATOM      5  C   UNL d   1       0.245   1.424  -0.234  0.00  0.00     0.090 A 
ATOM      6  C   UNL d   1       1.306   0.717  -0.796  0.00  0.00     0.073 A 
ATOM      7  C   UNL d   1       1.245  -0.680  -0.431  0.00  0.00     0.028 A 
ATOM      8  C   UNL d   1       0.149  -0.999   0.330  0.00  0.00     0.053 A 
ATOM      9  S   UNL d   1      -0.827   0.361   0.613  0.00  0.00    -0.083 SA
BRANCH   6  10
ATOM     10  C   UNL d   1       2.382   1.221  -1.649  0.00  0.00     0.295 C 
ATOM     11  O   UNL d   1       3.483   0.680  -1.695  0.00  0.00    -0.259 OA
BRANCH  10  12
ATOM     12  O   UNL d   1       2.028   2.282  -2.428  0.00  0.00    -0.322 OA
ATOM     13  C   UNL d   1       3.080   2.787  -3.254  0.00  0.00     0.213 C 
ENDBRANCH  10  12
ENDBRANCH   6  10
ENDBRANCH   3   5
ENDBRANCH   2   3
BRANCH   1  14
ATOM     14  C   UNL d   1      -1.033   5.667  -0.044  0.00  0.00     0.300 C 
ATOM     15  O   UNL d   1      -1.402   6.806  -0.292  0.00  0.00    -0.259 OA
BRANCH  14  16
ATOM     16  O   UNL d   1      -1.799   4.710   0.547  0.00  0.00    -0.318 OA
BRANCH  16  17
ATOM     17  C   UNL d   1      -3.022   5.162   1.147  0.00  0.00     0.174 C 
ATOM     18  C   UNL d   1      -2.736   5.491   2.601  0.00  0.00     0.034 C 
ENDBRANCH  16  17
ENDBRANCH  14  16
ENDBRANCH   1  14
BRANCH   1  19
ATOM     19  C   UNL d   1       1.486   6.113  -0.331  0.00  0.00     0.300 C 
ATOM     20  O   UNL d   1       2.552   5.863  -0.879  0.00  0.00    -0.259 OA
BRANCH  19  21
ATOM     21  O   UNL d   1       1.233   7.190   0.451  0.00  0.00    -0.318 OA
BRANCH  21  22
ATOM     22  C   UNL d   1       2.368   7.965   0.856  0.00  0.00     0.174 C 
ATOM     23  C   UNL d   1       2.742   7.512   2.256  0.00  0.00     0.034 C 
ENDBRANCH  21  22
ENDBRANCH  19  21
ENDBRANCH   1  19
TORSDOF 10
