REMARK  2 active torsions:
REMARK  status: ('A' for Active; 'I' for Inactive)
REMARK    1  A    between atoms: C_7  and  N_1 
REMARK    2  A    between atoms: C_8  and  C_13 
ROOT
ATOM      1  N   UNL d   1       2.166  -0.675  -0.124  0.00  0.00    -0.254 N 
ATOM      2  C   UNL d   1       2.196   0.737  -0.118  0.00  0.00     0.187 A 
ATOM      3  C   UNL d   1       0.982  -1.444  -0.057  0.00  0.00     0.270 A 
ATOM      4  N   UNL d   1       0.921   1.400   0.004  0.00  0.00    -0.317 N 
ATOM      5  C   UNL d   1      -0.225  -0.682   0.051  0.00  0.00     0.095 A 
ATOM      6  C   UNL d   1      -0.234   0.675   0.080  0.00  0.00     0.139 A 
ATOM      7  N   UNL d   1      -2.381   0.023   0.235  0.00  0.00    -0.309 N 
ATOM      8  HN  UNL d   1      -3.398   0.041   0.313  1.00  0.00     0.186 HD
ATOM      9  N   UNL d   1      -1.535   1.070   0.183  0.00  0.00    -0.285 N 
ATOM     10  S   UNL d   1       3.511   1.764  -0.302  0.00  0.00    -0.040 SA
ATOM     11  C   UNL d   1      -1.578  -1.046   0.159  0.00  0.00     0.128 A 
ATOM     12  O   UNL d   1       0.934  -2.669  -0.065  0.00  0.00    -0.266 OA
ATOM     13  H   UNL d   1       0.913   2.416   0.003  0.00  0.00     0.170 HD
ATOM     14  H   UNL d   1      -1.926   2.006   0.225  0.00  0.00     0.188 HD
ENDROOT
BRANCH   1  15
ATOM     15  C   UNL d   1       3.389  -1.419  -0.231  0.00  0.00     0.045 A 
ATOM     16  C   UNL d   1       4.393  -1.296   0.741  0.00  0.00     0.046 A 
ATOM     17  C   UNL d   1       5.600  -2.007   0.622  0.00  0.00     0.050 A 
ATOM     18  C   UNL d   1       5.786  -2.849  -0.484  0.00  0.00     0.016 A 
ATOM     19  C   UNL d   1       4.783  -2.994  -1.441  0.00  0.00     0.003 A 
ATOM     20  C   UNL d   1       3.585  -2.292  -1.310  0.00  0.00     0.030 A 
BRANCH  17  21
ATOM     21  C   UNL d   1       6.687  -1.876   1.663  0.00  0.00     0.417 C 
ATOM     22  F   UNL d   1       6.355  -1.030   2.679  0.00  0.00    -0.166 F 
ATOM     23  F   UNL d   1       6.992  -3.065   2.250  0.00  0.00    -0.166 F 
ATOM     24  F   UNL d   1       7.849  -1.399   1.143  0.00  0.00    -0.166 F 
ENDBRANCH  17  21
ENDBRANCH   1  15
TORSDOF 2
