REMARK  4 active torsions:
REMARK  status: ('A' for Active; 'I' for Inactive)
REMARK    1  A    between atoms: C_2  and  C_1 
REMARK       I    between atoms: N_3  and  C_1 
REMARK    2  A    between atoms: C_5  and  N_3 
REMARK    3  A    between atoms: C_16  and  N_3 
REMARK    4  A    between atoms: C_4  and  C_6 
ROOT
ATOM      1  C   UNL d   1       0.975  -0.260   0.160  0.00  0.00     0.260 C 
ATOM      2  N   UNL d   1       0.339   0.801   0.844  0.00  0.00    -0.314 N 
ATOM      3  O   UNL d   1       0.356  -1.186  -0.363  0.00  0.00    -0.267 OA
ENDROOT
BRANCH   1   4
ATOM      4  C   UNL d   1       2.452  -0.358   0.047  0.00  0.00     0.062 A 
ATOM      5  C   UNL d   1       3.100  -0.578  -1.178  0.00  0.00     0.066 A 
ATOM      6  C   UNL d   1       4.504  -0.713  -1.173  0.00  0.00     0.034 A 
ATOM      7  C   UNL d   1       5.192  -0.631   0.022  0.00  0.00     0.088 A 
ATOM      8  N   UNL d   1       4.585  -0.453   1.209  0.00  0.00    -0.374 N 
ATOM      9  C   UNL d   1       3.233  -0.344   1.198  0.00  0.00     0.105 A 
ATOM     10  HN  UNL d   1       5.118  -0.402   2.078  1.00  0.00     0.164 HD
BRANCH   5  11
ATOM     11  C   UNL d   1       2.408  -0.694  -2.511  0.00  0.00     0.418 C 
ATOM     12  F   UNL d   1       1.126  -0.263  -2.573  0.00  0.00    -0.166 F 
ATOM     13  F   UNL d   1       3.061   0.047  -3.461  0.00  0.00    -0.166 F 
ATOM     14  F   UNL d   1       2.422  -1.970  -2.991  0.00  0.00    -0.166 F 
ENDBRANCH   5  11
ENDBRANCH   1   4
BRANCH   2  15
ATOM     15  C   UNL d   1       1.027   1.715   1.697  0.00  0.00     0.043 A 
ATOM     16  C   UNL d   1       1.943   2.671   1.199  0.00  0.00    -0.029 A 
ATOM     17  C   UNL d   1       2.671   3.463   2.122  0.00  0.00    -0.054 A 
ATOM     18  C   UNL d   1       2.145   2.875  -0.281  0.00  0.00     0.051 C 
ATOM     19  C   UNL d   1       3.707   4.474   1.705  0.00  0.00     0.049 C 
ATOM     20  C   UNL d   1       2.417   3.343   3.501  0.00  0.00     0.007 A 
ATOM     21  C   UNL d   1       1.481   2.437   3.977  0.00  0.00     0.003 A 
ATOM     22  C   UNL d   1       0.797   1.622   3.082  0.00  0.00     0.030 A 
ENDBRANCH   2  15
BRANCH   2  23
ATOM     23  C   UNL d   1      -1.123   0.684   0.978  0.00  0.00     0.128 C 
ATOM     24  C   UNL d   1      -1.880   1.970   1.308  0.00  0.00     0.027 C 
ENDBRANCH   2  23
TORSDOF 4
