REMARK  2 active torsions:
REMARK  status: ('A' for Active; 'I' for Inactive)
REMARK    1  A    between atoms: C_14  and  C_4 
REMARK    2  A    between atoms: C_9  and  C_15 
ROOT
ATOM      1  N   UNL d   1       0.704   0.214  -0.950  0.00  0.00    -0.317 N 
ATOM      2  HN  UNL d   1       1.303   0.420  -1.750  1.00  0.00     0.169 HD
ATOM      3  C   UNL d   1       0.191  -0.945  -0.586  0.00  0.00     0.208 A 
ATOM      4  C   UNL d   1       0.234   1.079   0.015  0.00  0.00     0.138 A 
ATOM      5  C   UNL d   1       0.393  -2.169  -1.288  0.00  0.00     0.153 A 
ATOM      6  N   UNL d   1      -0.531   0.488   0.945  0.00  0.00    -0.242 N 
ATOM      7  HN  UNL d   1      -0.983   0.917   1.753  1.00  0.00     0.196 HD
ATOM      8  O   UNL d   1      -0.564  -0.846   0.550  0.00  0.00    -0.215 OA
ATOM      9  N   UNL d   1       0.186  -4.363  -1.770  0.00  0.00    -0.272 N 
ATOM     10  HN  UNL d   1      -0.096  -5.342  -1.734  1.00  0.00     0.194 HD
ATOM     11  O   UNL d   1      -0.195  -3.346  -0.911  0.00  0.00    -0.234 OA
ATOM     12  C   UNL d   1       1.163  -2.417  -2.406  0.00  0.00     0.063 A 
ATOM     13  C   UNL d   1       1.001  -3.789  -2.656  0.00  0.00     0.117 A 
ENDROOT
BRANCH   4  14
ATOM     14  C   UNL d   1       0.537   2.506  -0.003  0.00  0.00     0.010 A 
ATOM     15  C   UNL d   1       1.316   3.054  -1.032  0.00  0.00     0.016 A 
ATOM     16  C   UNL d   1       1.592   4.426  -1.068  0.00  0.00     0.017 A 
ATOM     17  C   UNL d   1       1.095   5.279  -0.072  0.00  0.00     0.048 A 
ATOM     18  C   UNL d   1       0.323   4.731   0.962  0.00  0.00     0.017 A 
ATOM     19  C   UNL d   1       0.048   3.360   0.996  0.00  0.00     0.016 A 
BRANCH  17  20
ATOM     20  C   UNL d   1       1.373   6.762  -0.100  0.00  0.00     0.417 C 
ATOM     21  F   UNL d   1       2.143   7.154  -1.153  0.00  0.00    -0.166 F 
ATOM     22  F   UNL d   1       0.232   7.502  -0.177  0.00  0.00    -0.166 F 
ATOM     23  F   UNL d   1       2.022   7.191   1.017  0.00  0.00    -0.166 F 
ENDBRANCH  17  20
ENDBRANCH   4  14
TORSDOF 2
