REMARK  7 active torsions:
REMARK  status: ('A' for Active; 'I' for Inactive)
REMARK    1  A    between atoms: S_9  and  C_2 
REMARK    2  A    between atoms: C_11  and  S_9 
REMARK    3  A    between atoms: C_17  and  C_10 
REMARK    4  A    between atoms: C_15  and  C_11 
REMARK    5  A    between atoms: C_16  and  C_11 
REMARK    6  A    between atoms: O_20  and  C_15 
REMARK    7  A    between atoms: C_24  and  O_20 
ROOT
ATOM      1  N   UNL d   1       0.287  -0.720   0.038  0.00  0.00    -0.079 N 
ATOM      2  C   UNL d   1      -0.911  -1.436   0.170  0.00  0.00     0.114 A 
ATOM      3  C   UNL d   1       0.281   0.685   0.029  0.00  0.00     0.706 A 
ATOM      4  N   UNL d   1      -0.875   1.406   0.085  0.00  0.00    -0.189 N 
ATOM      5  HN  UNL d   1      -0.868   2.426   0.054  1.00  0.00     0.184 HD
ATOM      6  C   UNL d   1      -2.065  -0.758   0.283  0.00  0.00     0.070 A 
ATOM      7  N   UNL d   1       1.518   1.123  -0.047  0.00  0.00    -0.185 N 
ATOM      8  HN  UNL d   1       1.845   2.089  -0.065  1.00  0.00     0.185 HD
ATOM      9  C   UNL d   1      -1.989   0.735   0.179  0.00  0.00     0.062 A 
ATOM     10  N   UNL d   1       1.571  -1.158  -0.064  0.00  0.00    -0.274 N 
ATOM     11  HN  UNL d   1       1.920  -2.116  -0.106  1.00  0.00     0.189 HD
ATOM     12  C   UNL d   1       2.255  -0.016  -0.096  0.00  0.00     0.215 A 
ENDROOT
BRANCH   2  13
ATOM     13  S   UNL d   1      -0.972  -3.175   0.097  0.00  0.00    -0.087 SA
BRANCH  13  14
ATOM     14  C   UNL d   1       0.200  -3.770   1.374  0.00  0.00     0.222 C 
BRANCH  14  15
ATOM     15  C   UNL d   1      -0.234  -3.410   2.775  0.00  0.00     0.280 C 
ATOM     16  O   UNL d   1      -0.580  -4.223   3.628  0.00  0.00    -0.263 OA
BRANCH  15  17
ATOM     17  O   UNL d   1      -0.184  -2.063   2.988  0.00  0.00    -0.321 OA
BRANCH  17  18
ATOM     18  C   UNL d   1      -0.555  -1.637   4.309  0.00  0.00     0.174 C 
ATOM     19  C   UNL d   1      -2.066  -1.593   4.447  0.00  0.00     0.034 C 
ENDBRANCH  17  18
ENDBRANCH  15  17
ENDBRANCH  14  15
BRANCH  14  20
ATOM     20  C   UNL d   1       0.314  -5.286   1.232  0.00  0.00     0.146 C 
ATOM     21  O   UNL d   1       1.403  -5.825   1.012  0.00  0.00    -0.297 OA
ATOM     22  C   UNL d   1      -0.933  -6.137   1.362  0.00  0.00     0.092 C 
ENDBRANCH  14  20
ENDBRANCH  13  14
ENDBRANCH   2  13
BRANCH   9  23
ATOM     23  C   UNL d   1      -3.293   1.478   0.180  0.00  0.00    -0.009 A 
ATOM     24  C   UNL d   1      -4.489   0.881  -0.245  0.00  0.00     0.014 A 
ATOM     25  C   UNL d   1      -5.685   1.605  -0.244  0.00  0.00     0.001 A 
ATOM     26  C   UNL d   1      -5.693   2.937   0.163  0.00  0.00     0.000 A 
ATOM     27  C   UNL d   1      -4.507   3.548   0.565  0.00  0.00     0.001 A 
ATOM     28  C   UNL d   1      -3.312   2.823   0.572  0.00  0.00     0.014 A 
ENDBRANCH   9  23
TORSDOF 7
