REMARK  3 active torsions:
REMARK  status: ('A' for Active; 'I' for Inactive)
REMARK    1  A    between atoms: C_6  and  C_1 
REMARK    2  A    between atoms: C_8  and  C_3 
REMARK    3  A    between atoms: O_11  and  C_6 
ROOT
ATOM      1  C   UNL d   1       1.400   1.034   0.106  0.00  0.00     0.048 C 
ATOM      2  C   UNL d   1       1.301  -0.310   0.003  0.00  0.00     0.021 C 
ATOM      3  C   UNL d   1       0.180   1.908  -0.122  0.00  0.00     0.068 C 
ATOM      4  N   UNL d   1       0.072  -0.884  -0.248  0.00  0.00    -0.330 N 
ATOM      5  C   UNL d   1      -1.135  -0.241  -0.242  0.00  0.00     0.222 C 
ATOM      6  C   UNL d   1      -1.125   1.181   0.234  0.00  0.00     0.117 C 
ATOM      7  O   UNL d   1      -2.174  -0.846  -0.506  0.00  0.00    -0.273 OA
ATOM      8  C   UNL d   1       2.432  -1.307   0.062  0.00  0.00     0.069 C 
ATOM      9  H   UNL d   1       0.013  -1.880  -0.438  0.00  0.00     0.168 HD
ENDROOT
BRANCH   3  10
ATOM     10  C   UNL d   1       0.159   3.262   0.583  0.00  0.00    -0.049 A 
ATOM     11  C   UNL d   1       0.017   4.436  -0.177  0.00  0.00     0.008 A 
ATOM     12  C   UNL d   1      -0.075   5.681   0.445  0.00  0.00     0.001 A 
ATOM     13  C   UNL d   1      -0.031   5.771   1.833  0.00  0.00     0.000 A 
ATOM     14  C   UNL d   1       0.122   4.618   2.600  0.00  0.00     0.001 A 
ATOM     15  C   UNL d   1       0.223   3.370   1.981  0.00  0.00     0.008 A 
ENDBRANCH   3  10
BRANCH   1  16
ATOM     16  C   UNL d   1       2.715   1.661   0.403  0.00  0.00     0.291 C 
ATOM     17  O   UNL d   1       3.512   1.210   1.212  0.00  0.00    -0.260 OA
BRANCH  16  18
ATOM     18  O   UNL d   1       2.877   2.784  -0.336  0.00  0.00    -0.323 OA
ATOM     19  C   UNL d   1       4.011   3.592  -0.000  0.00  0.00     0.213 C 
ENDBRANCH  16  18
ENDBRANCH   1  16
TORSDOF 3
