REMARK  6 active torsions:
REMARK  status: ('A' for Active; 'I' for Inactive)
REMARK    1  A    between atoms: N_12  and  N_1 
REMARK    2  A    between atoms: C_13  and  C_6 
REMARK    3  A    between atoms: O_17  and  C_10 
REMARK    4  A    between atoms: C_14  and  N_12 
REMARK    5  A    between atoms: C_30  and  O_17 
REMARK    6  A    between atoms: O_28  and  C_19 
ROOT
ATOM      1  N   UNL d   1       1.997   1.514  -0.091  0.00  0.00    -0.234 N 
ATOM      2  N   UNL d   1       3.004  -0.481  -0.017  0.00  0.00    -0.324 N 
ATOM      3  HN  UNL d   1       3.710  -1.217  -0.019  1.00  0.00     0.169 HD
ATOM      4  C   UNL d   1       0.984   0.568  -0.108  0.00  0.00     0.114 A 
ATOM      5  C   UNL d   1       1.660  -0.637  -0.098  0.00  0.00     0.139 A 
ATOM      6  C   UNL d   1       3.211   0.819   0.066  0.00  0.00     0.139 C 
ATOM      7  N   UNL d   1       1.079  -1.843  -0.128  0.00  0.00    -0.320 N 
ATOM      8  HN  UNL d   1       1.622  -2.706  -0.150  1.00  0.00     0.169 HD
ATOM      9  C   UNL d   1      -0.441   0.576  -0.110  0.00  0.00     0.011 A 
ATOM     10  C   UNL d   1      -0.264  -1.845  -0.126  0.00  0.00     0.155 A 
ATOM     11  C   UNL d   1      -1.078  -0.694  -0.087  0.00  0.00     0.028 A 
ATOM     12  C   UNL d   1      -1.217   1.757  -0.112  0.00  0.00     0.015 A 
ATOM     13  C   UNL d   1      -2.491  -0.729  -0.040  0.00  0.00     0.017 A 
ATOM     14  C   UNL d   1      -2.610   1.686  -0.063  0.00  0.00     0.001 A 
ATOM     15  C   UNL d   1      -3.245   0.449  -0.019  0.00  0.00     0.001 A 
ENDROOT
BRANCH   1  16
ATOM     16  N   UNL d   1       1.769   2.902  -0.112  0.00  0.00    -0.292 N 
ATOM     17  H   UNL d   1       1.433   3.211   0.795  0.00  0.00     0.187 HD
BRANCH  16  18
ATOM     18  C   UNL d   1       2.601   3.857  -0.742  0.00  0.00     0.048 C 
ATOM     19  C   UNL d   1       3.369   3.563  -1.874  0.00  0.00     0.032 C 
ATOM     20  C   UNL d   1       4.343   4.463  -2.325  0.00  0.00     0.021 C 
ATOM     21  C   UNL d   1       4.503   5.689  -1.686  0.00  0.00     0.011 C 
ATOM     22  C   UNL d   1       3.662   6.048  -0.637  0.00  0.00     0.021 C 
ATOM     23 BR   UNL d   1       5.888   6.858  -2.220  0.00  0.00    -0.051 Br
ATOM     24  C   UNL d   1       2.703   5.141  -0.179  0.00  0.00     0.032 C 
ENDBRANCH  16  18
ENDBRANCH   1  16
BRANCH   6  25
ATOM     25  C   UNL d   1       4.566   1.376   0.201  0.00  0.00     0.010 A 
ATOM     26  C   UNL d   1       5.628   0.701  -0.420  0.00  0.00     0.018 A 
ATOM     27  C   UNL d   1       6.929   1.210  -0.375  0.00  0.00     0.037 A 
ATOM     28  C   UNL d   1       7.188   2.419   0.266  0.00  0.00     0.068 A 
ATOM     29  C   UNL d   1       6.153   3.073   0.930  0.00  0.00     0.037 A 
ATOM     30  C   UNL d   1       4.859   2.532   0.927  0.00  0.00     0.018 A 
BRANCH  28  31
ATOM     31  O   UNL d   1       8.492   2.829   0.251  0.00  0.00    -0.356 OA
ATOM     32  C   UNL d   1       8.695   4.237   0.203  0.00  0.00     0.210 C 
ENDBRANCH  28  31
ENDBRANCH   6  25
BRANCH  10  33
ATOM     33  O   UNL d   1      -0.884  -3.092  -0.132  0.00  0.00    -0.335 OA
BRANCH  33  34
ATOM     34  C   UNL d   1       0.000  -4.120  -0.606  0.00  0.00     0.173 C 
ATOM     35  C   UNL d   1      -0.662  -5.479  -0.477  0.00  0.00     0.034 C 
ENDBRANCH  33  34
ENDBRANCH  10  33
TORSDOF 6
