REMARK  3 active torsions:
REMARK  status: ('A' for Active; 'I' for Inactive)
REMARK       I    between atoms: C_6  and  N_1 
REMARK    1  A    between atoms: C_2  and  S_10 
REMARK    2  A    between atoms: C_11  and  C_6 
REMARK    3  A    between atoms: S_10  and  C_11 
ROOT
ATOM      1  N   UNL d   1      -1.015   1.469  -0.114  0.00  0.00    -0.317 N 
ATOM      2  C   UNL d   1      -1.127   2.708  -0.752  0.00  0.00     0.234 C 
ATOM      3  C   UNL d   1       0.167   0.696   0.100  0.00  0.00     0.043 C 
ATOM      4  C   UNL d   1       0.089  -0.713   0.053  0.00  0.00    -0.031 C 
ATOM      5  O   UNL d   1      -2.234   3.253  -0.878  0.00  0.00    -0.272 OA
ATOM      6  C   UNL d   1      -2.266   0.793   0.263  0.00  0.00     0.132 C 
ATOM      7  C   UNL d   1       1.407   1.271   0.399  0.00  0.00     0.030 C 
ATOM      8  C   UNL d   1      -2.388  -0.550  -0.432  0.00  0.00     0.025 C 
ATOM      9  C   UNL d   1      -1.229  -1.444  -0.025  0.00  0.00     0.042 C 
ATOM     10  C   UNL d   1       1.260  -1.486   0.142  0.00  0.00     0.009 C 
ATOM     11  C   UNL d   1       2.565   0.497   0.486  0.00  0.00     0.002 C 
ATOM     12  C   UNL d   1       2.500  -0.879   0.324  0.00  0.00     0.001 C 
ENDROOT
BRANCH   2  13
ATOM     13  C   UNL d   1       0.066   3.438  -1.349  0.00  0.00     0.186 C 
BRANCH  13  14
ATOM     14  S   UNL d   1       0.657   2.700  -2.896  0.00  0.00    -0.077 SA
BRANCH  14  15
ATOM     15  C   UNL d   1       1.826   3.921  -3.341  0.00  0.00     0.188 A 
ATOM     16  N   UNL d   1       2.275   4.831  -2.491  0.00  0.00    -0.329 N 
ATOM     17  C   UNL d   1       3.068   5.639  -3.260  0.00  0.00     0.068 A 
ATOM     18  HN  UNL d   1       2.076   4.911  -1.494  1.00  0.00     0.168 HD
ATOM     19  C   UNL d   1       3.777   6.804  -2.940  0.00  0.00     0.032 A 
ATOM     20  C   UNL d   1       3.104   5.165  -4.562  0.00  0.00     0.105 A 
ATOM     21  C   UNL d   1       4.475   7.459  -3.966  0.00  0.00     0.002 A 
ATOM     22  C   UNL d   1       4.486   6.948  -5.272  0.00  0.00     0.003 A 
ATOM     23  C   UNL d   1       3.803   5.769  -5.600  0.00  0.00     0.040 A 
ATOM     24  O   UNL d   1       2.320   4.048  -4.617  0.00  0.00    -0.285 OA
ENDBRANCH  14  15
ENDBRANCH  13  14
ENDBRANCH   2  13
TORSDOF 3
