REMARK  3 active torsions:
REMARK  status: ('A' for Active; 'I' for Inactive)
REMARK    1  A    between atoms: C_6  and  C_1 
REMARK       I    between atoms: N_8  and  C_6 
REMARK       I    between atoms: C_7  and  N_10 
REMARK    2  A    between atoms: C_13  and  C_7 
REMARK    3  A    between atoms: N_10  and  N_8 
ROOT
ATOM      1  C   UNL d   1      -3.095  -1.646   0.005  0.00  0.00     0.277 C 
ATOM      2  N   UNL d   1      -4.400  -1.200   0.107  0.00  0.00    -0.263 N 
ATOM      3  O   UNL d   1      -2.181  -0.842  -0.200  0.00  0.00    -0.265 OA
ATOM      4  H   UNL d   1      -5.197  -1.819   0.246  0.00  0.00     0.190 HD
ENDROOT
BRANCH   1   5
ATOM      5  C   UNL d   1      -2.865  -3.080   0.151  0.00  0.00     0.076 A 
ATOM      6  S   UNL d   1      -4.141  -4.184   0.473  0.00  0.00    -0.083 SA
ATOM      7  C   UNL d   1      -3.015  -5.519   0.505  0.00  0.00     0.023 A 
ATOM      8  C   UNL d   1      -3.115  -6.927   0.725  0.00  0.00     0.027 A 
ATOM      9  C   UNL d   1      -1.735  -5.108   0.263  0.00  0.00     0.023 A 
ATOM     10  C   UNL d   1      -1.879  -7.525   0.636  0.00  0.00     0.052 A 
ATOM     11  S   UNL d   1      -0.602  -6.435   0.287  0.00  0.00    -0.101 SA
ATOM     12  C   UNL d   1      -1.633  -3.702   0.055  0.00  0.00     0.044 A 
ENDBRANCH   1   5
BRANCH   2  13
ATOM     13  N   UNL d   1      -4.662   0.170  -0.037  0.00  0.00    -0.267 N 
ATOM     14  C   UNL d   1      -5.971   0.602  -0.006  0.00  0.00     0.243 C 
ATOM     15  O   UNL d   1      -6.899  -0.186   0.177  0.00  0.00    -0.271 OA
ATOM     16  H   UNL d   1      -3.858   0.770  -0.211  0.00  0.00     0.190 HD
BRANCH  14  17
ATOM     17  C   UNL d   1      -6.176   2.115  -0.224  0.00  0.00     0.032 C 
ATOM     18  C   UNL d   1      -5.662   2.517  -1.615  0.00  0.00     0.025 C 
ATOM     19  C   UNL d   1      -7.678   2.441  -0.139  0.00  0.00     0.025 C 
ATOM     20  C   UNL d   1      -5.437   2.920   0.855  0.00  0.00     0.025 C 
ENDBRANCH  14  17
ENDBRANCH   2  13
TORSDOF 3
