REMARK  3 active torsions:
REMARK  status: ('A' for Active; 'I' for Inactive)
REMARK    1  A    between atoms: C_11  and  N_3 
REMARK    2  A    between atoms: C_12  and  C_11 
REMARK    3  A    between atoms: C_14  and  C_12 
ROOT
ATOM      1  C   UNL d   1       0.681   0.396   0.052  0.00  0.00     0.073 A 
ATOM      2  C   UNL d   1       1.180  -0.878   0.235  0.00  0.00     0.091 A 
ATOM      3  N   UNL d   1       2.947   1.113   0.282  0.00  0.00    -0.302 N 
ATOM      4  C   UNL d   1       1.630   1.498   0.038  0.00  0.00     0.262 A 
ATOM      5  N   UNL d   1       2.478  -1.221   0.430  0.00  0.00    -0.346 N 
ATOM      6  HN  UNL d   1       2.784  -2.186   0.553  1.00  0.00     0.167 HD
ATOM      7  S   UNL d   1      -0.053  -2.056   0.215  0.00  0.00    -0.075 SA
ATOM      8  C   UNL d   1      -0.750   0.410  -0.048  0.00  0.00    -0.026 A 
ATOM      9  C   UNL d   1      -1.261  -0.874   0.026  0.00  0.00    -0.008 A 
ATOM     10  C   UNL d   1       3.294  -0.217   0.445  0.00  0.00     0.187 A 
ATOM     11  O   UNL d   1       1.291   2.666  -0.136  0.00  0.00    -0.267 OA
ATOM     12  C   UNL d   1      -1.641   1.615  -0.145  0.00  0.00     0.041 C 
ATOM     13  C   UNL d   1      -2.712  -1.229  -0.048  0.00  0.00     0.047 C 
ATOM     14  C   UNL d   1      -3.102   1.243  -0.458  0.00  0.00     0.005 C 
ATOM     15  C   UNL d   1      -3.567  -0.004   0.308  0.00  0.00     0.005 C 
ENDROOT
BRANCH   3  16
ATOM     16  C   UNL d   1       3.971   2.137   0.391  0.00  0.00     0.216 C 
BRANCH  16  17
ATOM     17  C   UNL d   1       4.691   2.381  -0.931  0.00  0.00     0.177 C 
ATOM     18  O   UNL d   1       4.587   1.622  -1.895  0.00  0.00    -0.291 OA
BRANCH  17  19
ATOM     19  C   UNL d   1       5.606   3.562  -1.021  0.00  0.00     0.011 A 
ATOM     20  C   UNL d   1       5.991   4.288   0.114  0.00  0.00     0.016 A 
ATOM     21  C   UNL d   1       6.836   5.396  -0.009  0.00  0.00     0.020 A 
ATOM     22  C   UNL d   1       7.303   5.777  -1.265  0.00  0.00     0.011 A 
ATOM     23  C   UNL d   1       6.946   5.052  -2.399  0.00  0.00     0.020 A 
ATOM     24 BR   UNL d   1       8.423   7.290  -1.425  0.00  0.00    -0.051 Br
ATOM     25  C   UNL d   1       6.101   3.942  -2.277  0.00  0.00     0.016 A 
ENDBRANCH  17  19
ENDBRANCH  16  17
ENDBRANCH   3  16
TORSDOF 3
