REMARK  5 active torsions:
REMARK  status: ('A' for Active; 'I' for Inactive)
REMARK    1  A    between atoms: C_2  and  C_1 
REMARK       I    between atoms: N_5  and  C_1 
REMARK    2  A    between atoms: O_8  and  C_3 
REMARK    3  A    between atoms: C_4  and  C_10 
REMARK    4  A    between atoms: C_11  and  N_5 
REMARK    5  A    between atoms: C_10  and  O_8 
ROOT
ATOM      1  C   UNL d   1       0.165  -0.667   1.049  0.00  0.00     0.083 A 
ATOM      2  C   UNL d   1      -0.712  -1.605   0.524  0.00  0.00     0.158 A 
ATOM      3  N   UNL d   1      -1.264  -2.594   1.268  0.00  0.00    -0.346 N 
ATOM      4  HN  UNL d   1      -1.897  -3.279   0.856  1.00  0.00     0.167 HD
ATOM      5  C   UNL d   1       0.505  -0.751   2.402  0.00  0.00     0.023 A 
ATOM      6  C   UNL d   1      -0.941  -2.633   2.581  0.00  0.00     0.090 A 
ATOM      7  C   UNL d   1      -0.059  -1.751   3.184  0.00  0.00     0.018 A 
ENDROOT
BRANCH   1   8
ATOM      8  C   UNL d   1       0.664   0.472   0.269  0.00  0.00     0.260 C 
ATOM      9  N   UNL d   1       2.042   0.515   0.129  0.00  0.00    -0.323 N 
ATOM     10  H   UNL d   1       2.551  -0.350   0.264  0.00  0.00     0.169 HD
ATOM     11  O   UNL d   1      -0.145   1.297  -0.136  0.00  0.00    -0.267 OA
BRANCH   9  12
ATOM     12  C   UNL d   1       2.790   1.648  -0.250  0.00  0.00     0.035 A 
ATOM     13  C   UNL d   1       2.272   2.947  -0.199  0.00  0.00     0.031 A 
ATOM     14  C   UNL d   1       3.071   4.047  -0.523  0.00  0.00     0.026 A 
ATOM     15  C   UNL d   1       4.391   3.851  -0.917  0.00  0.00     0.034 A 
ATOM     16  C   UNL d   1       4.921   2.565  -0.975  0.00  0.00     0.026 A 
ATOM     17 CL   UNL d   1       5.372   5.204  -1.322  0.00  0.00    -0.084 Cl
ATOM     18  C   UNL d   1       4.125   1.465  -0.629  0.00  0.00     0.031 A 
ENDBRANCH   9  12
ENDBRANCH   1   8
BRANCH   2  19
ATOM     19  O   UNL d   1      -0.997  -1.574  -0.823  0.00  0.00    -0.326 OA
BRANCH  19  20
ATOM     20  C   UNL d   1      -1.628  -2.775  -1.305  0.00  0.00     0.294 C 
BRANCH  20  21
ATOM     21  C   UNL d   1      -0.710  -3.997  -1.327  0.00  0.00     0.408 C 
ATOM     22  F   UNL d   1       0.569  -3.702  -0.994  0.00  0.00    -0.169 F 
ATOM     23  F   UNL d   1      -1.139  -4.974  -0.498  0.00  0.00    -0.169 F 
ATOM     24  F   UNL d   1      -0.670  -4.532  -2.575  0.00  0.00    -0.169 F 
ENDBRANCH  20  21
ENDBRANCH  19  20
ENDBRANCH   2  19
TORSDOF 5
