REMARK  2 active torsions:
REMARK  status: ('A' for Active; 'I' for Inactive)
REMARK    1  A    between atoms: C_10  and  N_2 
REMARK    2  A    between atoms: C_13  and  C_9 
ROOT
ATOM      1  C   UNL d   1      -0.230   0.664   0.066  0.00  0.00     0.068 A 
ATOM      2  N   UNL d   1       2.171   0.721   0.005  0.00  0.00    -0.229 N 
ATOM      3  C   UNL d   1      -0.126  -0.686  -0.007  0.00  0.00     0.094 A 
ATOM      4  C   UNL d   1       0.975   1.465   0.105  0.00  0.00     0.269 A 
ATOM      5  C   UNL d   1       2.235  -0.683  -0.117  0.00  0.00     0.335 A 
ATOM      6  N   UNL d   1       1.043  -1.369  -0.086  0.00  0.00    -0.301 N 
ATOM      7  C   UNL d   1      -1.603   1.055   0.068  0.00  0.00     0.039 A 
ATOM      8  S   UNL d   1      -1.578  -1.514  -0.005  0.00  0.00    -0.071 SA
ATOM      9  C   UNL d   1      -2.471  -0.029   0.019  0.00  0.00     0.018 A 
ATOM     10  O   UNL d   1       3.272  -1.343  -0.207  0.00  0.00    -0.246 OA
ATOM     11  O   UNL d   1       0.897   2.690   0.184  0.00  0.00    -0.266 OA
ATOM     12  H   UNL d   1       1.062  -2.378  -0.137  0.00  0.00     0.171 HD
ENDROOT
BRANCH   2  13
ATOM     13  C   UNL d   1       3.402   1.445   0.037  0.00  0.00     0.047 A 
ATOM     14  C   UNL d   1       4.348   1.289  -0.983  0.00  0.00     0.031 A 
ATOM     15  C   UNL d   1       5.539   2.018  -0.955  0.00  0.00     0.009 A 
ATOM     16  C   UNL d   1       5.820   2.881   0.110  0.00  0.00    -0.062 A 
ATOM     17  C   UNL d   1       4.882   3.023   1.138  0.00  0.00     0.009 A 
ATOM     18  C   UNL d   1       7.107   3.651   0.133  0.00  0.00     0.048 C 
ATOM     19  C   UNL d   1       3.675   2.322   1.093  0.00  0.00     0.031 A 
ENDBRANCH   2  13
BRANCH   9  20
ATOM     20  C   UNL d   1      -3.947  -0.034   0.010  0.00  0.00    -0.019 A 
ATOM     21  C   UNL d   1      -4.684  -1.054  -0.610  0.00  0.00     0.013 A 
ATOM     22  C   UNL d   1      -6.082  -1.038  -0.611  0.00  0.00     0.001 A 
ATOM     23  C   UNL d   1      -6.767   0.011  -0.002  0.00  0.00     0.000 A 
ATOM     24  C   UNL d   1      -6.054   1.040   0.609  0.00  0.00     0.001 A 
ATOM     25  C   UNL d   1      -4.656   1.018   0.615  0.00  0.00     0.013 A 
ENDBRANCH   9  20
TORSDOF 2
