REMARK  1 active torsions:
REMARK  status: ('A' for Active; 'I' for Inactive)
REMARK    1  A    between atoms: C_5  and  C_3 
ROOT
ATOM      1  C   UNL d   1      -1.180  -0.701   0.107  0.00  0.00     0.045 A 
ATOM      2  C   UNL d   1      -1.777   0.686   0.149  0.00  0.00     0.257 A 
ATOM      3  C   UNL d   1      -1.867  -1.854   0.061  0.00  0.00     0.030 C 
ATOM      4  N   UNL d   1      -0.687   1.541   0.130  0.00  0.00    -0.322 N 
ATOM      5  C   UNL d   1       0.278  -0.540   0.083  0.00  0.00     0.006 A 
ATOM      6  C   UNL d   1       0.512   0.839   0.089  0.00  0.00     0.046 A 
ATOM      7  O   UNL d   1      -2.943   1.017   0.203  0.00  0.00    -0.267 OA
ATOM      8  C   UNL d   1       1.340  -1.426   0.034  0.00  0.00     0.015 A 
ATOM      9  C   UNL d   1       1.778   1.384   0.049  0.00  0.00     0.030 A 
ATOM     10  C   UNL d   1       2.636  -0.896  -0.008  0.00  0.00     0.001 A 
ATOM     11  C   UNL d   1       2.853   0.495   0.000  0.00  0.00     0.002 A 
ATOM     12  H   UNL d   1      -0.790   2.544   0.147  0.00  0.00     0.169 HD
ENDROOT
BRANCH   3  13
ATOM     13  C   UNL d   1      -3.292  -1.946  -0.023  0.00  0.00    -0.017 A 
ATOM     14  C   UNL d   1      -4.101  -1.996   1.089  0.00  0.00     0.062 A 
ATOM     15  S   UNL d   1      -5.756  -1.984   0.672  0.00  0.00    -0.100 SA
ATOM     16  C   UNL d   1      -5.410  -1.914  -1.015  0.00  0.00     0.015 A 
ATOM     17  C   UNL d   1      -4.033  -1.941  -1.258  0.00  0.00    -0.008 A 
ATOM     18  C   UNL d   1      -6.342  -1.833  -2.069  0.00  0.00     0.019 A 
ATOM     19  C   UNL d   1      -3.596  -1.919  -2.608  0.00  0.00     0.013 A 
ATOM     20  C   UNL d   1      -4.518  -1.852  -3.656  0.00  0.00     0.001 A 
ATOM     21  C   UNL d   1      -5.877  -1.798  -3.386  0.00  0.00     0.001 A 
ENDBRANCH   3  13
TORSDOF 1
