REMARK  2 active torsions:
REMARK  status: ('A' for Active; 'I' for Inactive)
REMARK    1  A    between atoms: N_5  and  C_2 
REMARK       I    between atoms: C_9  and  N_5 
REMARK       I    between atoms: N_12  and  C_9 
REMARK    2  A    between atoms: C_15  and  N_12 
ROOT
ATOM      1  C   UNL d   1       2.183   0.685   1.086  0.00  0.00     0.085 A 
ATOM      2  C   UNL d   1       2.523  -0.636   0.856  0.00  0.00     0.095 A 
ATOM      3  C   UNL d   1       0.795   0.838   1.391  0.00  0.00     0.003 A 
ATOM      4  C   UNL d   1       3.087   1.825   1.051  0.00  0.00     0.302 A 
ATOM      5  O   UNL d   1       2.491   3.080   1.332  0.00  0.00    -0.274 OA
ATOM      6  S   UNL d   1       1.187  -1.669   1.032  0.00  0.00    -0.082 SA
ATOM      7  C   UNL d   1       0.140  -0.372   1.431  0.00  0.00     0.065 A 
ATOM      8  C   UNL d   1       0.224   2.144   1.639  0.00  0.00     0.010 A 
ATOM      9  C   UNL d   1       1.104   3.238   1.601  0.00  0.00     0.090 A 
ATOM     10  O   UNL d   1       4.285   1.728   0.804  0.00  0.00    -0.259 OA
ATOM     11  C   UNL d   1      -1.131   2.381   1.880  0.00  0.00     0.015 A 
ATOM     12  C   UNL d   1       0.655   4.543   1.806  0.00  0.00     0.038 A 
ATOM     13  C   UNL d   1      -1.591   3.689   2.073  0.00  0.00     0.001 A 
ATOM     14  C   UNL d   1      -0.701   4.766   2.038  0.00  0.00     0.003 A 
ENDROOT
BRANCH   2  15
ATOM     15  N   UNL d   1       3.793  -1.119   0.600  0.00  0.00    -0.302 N 
ATOM     16  C   UNL d   1       4.290  -2.371   0.376  0.00  0.00     0.325 C 
ATOM     17  N   UNL d   1       3.442  -3.336  -0.112  0.00  0.00    -0.309 N 
ATOM     18  O   UNL d   1       5.502  -2.525   0.530  0.00  0.00    -0.247 OA
ATOM     19  H   UNL d   1       2.660  -2.958  -0.631  0.00  0.00     0.170 HD
ATOM     20  H   UNL d   1       4.549  -0.441   0.708  0.00  0.00     0.171 HD
BRANCH  17  21
ATOM     21  C   UNL d   1       3.914  -4.610  -0.501  0.00  0.00     0.036 A 
ATOM     22  C   UNL d   1       4.823  -5.327   0.281  0.00  0.00     0.030 A 
ATOM     23  C   UNL d   1       5.390  -6.513  -0.196  0.00  0.00     0.009 A 
ATOM     24  C   UNL d   1       5.068  -6.988  -1.472  0.00  0.00    -0.062 A 
ATOM     25  C   UNL d   1       4.100  -6.307  -2.221  0.00  0.00     0.009 A 
ATOM     26  C   UNL d   1       5.812  -8.161  -2.041  0.00  0.00     0.048 C 
ATOM     27  C   UNL d   1       3.505  -5.139  -1.727  0.00  0.00     0.030 A 
ENDBRANCH  17  21
ENDBRANCH   2  15
TORSDOF 2
