REMARK  7 active torsions:
REMARK  status: ('A' for Active; 'I' for Inactive)
REMARK    1  A    between atoms: C_3  and  N_1 
REMARK    2  A    between atoms: C_5  and  N_1 
REMARK    3  A    between atoms: C_6  and  N_1 
REMARK    4  A    between atoms: C_2  and  C_3 
REMARK    5  A    between atoms: O_7  and  C_2 
REMARK    6  A    between atoms: C_8  and  C_5 
REMARK    7  A    between atoms: C_9  and  C_6 
ROOT
ATOM      1  N   UNL d   1       1.047   0.056   0.032  0.00  0.00     0.106 N 
ENDROOT
BRANCH   1   2
ATOM      2  C   UNL d   1       0.493   1.393  -0.337  0.00  0.00     0.382 C 
BRANCH   2   3
ATOM      3  C   UNL d   1      -1.018   1.435  -0.125  0.00  0.00     0.169 C 
ATOM      4  O   UNL d   1      -1.796   2.122  -0.766  0.00  0.00    -0.649 OA
BRANCH   3   5
ATOM      5  O   UNL d   1      -1.409   0.640   0.907  0.00  0.00    -0.775 OA
ATOM      6  H   UNL d   1      -0.606   0.174   1.235  0.00  0.00     0.167 HD
ENDBRANCH   3   5
ENDBRANCH   2   3
ENDBRANCH   1   2
BRANCH   1   7
ATOM      7  C   UNL d   1       0.559  -1.030  -0.877  0.00  0.00     0.312 C 
BRANCH   7   8
ATOM      8  C   UNL d   1       0.889  -0.888  -2.351  0.00  0.00    -0.030 A 
ATOM      9  C   UNL d   1       2.090  -1.398  -2.871  0.00  0.00     0.009 A 
ATOM     10  C   UNL d   1       2.441  -1.173  -4.203  0.00  0.00     0.001 A 
ATOM     11  C   UNL d   1       1.586  -0.456  -5.037  0.00  0.00     0.000 A 
ATOM     12  C   UNL d   1       0.370   0.016  -4.547  0.00  0.00     0.001 A 
ATOM     13  C   UNL d   1       0.019  -0.206  -3.214  0.00  0.00     0.009 A 
ENDBRANCH   7   8
ENDBRANCH   1   7
BRANCH   1  14
ATOM     14  C   UNL d   1       2.527   0.090  -0.007  0.00  0.00     0.312 C 
BRANCH  14  15
ATOM     15  C   UNL d   1       3.198   1.011   0.988  0.00  0.00    -0.030 A 
ATOM     16  C   UNL d   1       2.980   0.892   2.366  0.00  0.00     0.009 A 
ATOM     17  C   UNL d   1       3.690   1.695   3.263  0.00  0.00     0.001 A 
ATOM     18  C   UNL d   1       4.624   2.618   2.794  0.00  0.00     0.000 A 
ATOM     19  C   UNL d   1       4.844   2.751   1.426  0.00  0.00     0.001 A 
ATOM     20  C   UNL d   1       4.135   1.953   0.529  0.00  0.00     0.009 A 
ENDBRANCH  14  15
ENDBRANCH   1  14
TORSDOF 7
