REMARK  7 active torsions:
REMARK  status: ('A' for Active; 'I' for Inactive)
REMARK    1  A    between atoms: C_12  and  N_1 
REMARK    2  A    between atoms: C_9  and  C_4 
REMARK    3  A    between atoms: C_10  and  C_4 
REMARK    4  A    between atoms: N_6  and  N_13 
REMARK    5  A    between atoms: O_20  and  C_9 
REMARK    6  A    between atoms: O_19  and  C_10 
REMARK    7  A    between atoms: N_13  and  C_18 
ROOT
ATOM      1  C   UNL d   1       2.136  -1.451  -0.034  0.00  0.00     0.056 A 
ATOM      2  C   UNL d   1       2.300  -2.362  -1.085  0.00  0.00     0.034 A 
ATOM      3  C   UNL d   1       3.132  -1.355   0.943  0.00  0.00     0.034 A 
ATOM      4  C   UNL d   1       4.505  -2.985  -0.239  0.00  0.00     0.048 A 
ATOM      5  C   UNL d   1       4.295  -2.124   0.844  0.00  0.00     0.033 A 
ATOM      6  C   UNL d   1       3.490  -3.101  -1.197  0.00  0.00     0.033 A 
ENDROOT
BRANCH   4   7
ATOM      7  N   UNL d   1       5.649  -3.804  -0.331  0.00  0.00    -0.300 N 
ATOM      8  H   UNL d   1       6.093  -3.800  -1.258  0.00  0.00     0.187 HD
BRANCH   7   9
ATOM      9  N   UNL d   1       6.380  -4.007   0.798  0.00  0.00    -0.290 N 
ATOM     10  C   UNL d   1       7.505  -4.673   0.721  0.00  0.00     0.199 C 
ATOM     11  HN  UNL d   1       6.056  -3.644   1.694  1.00  0.00     0.187 HD
BRANCH  10  12
ATOM     12  C   UNL d   1       8.105  -5.149  -0.591  0.00  0.00     0.317 C 
ATOM     13  O   UNL d   1       7.957  -4.530  -1.634  0.00  0.00    -0.257 OA
BRANCH  12  14
ATOM     14  O   UNL d   1       8.773  -6.306  -0.419  0.00  0.00    -0.321 OA
ATOM     15  C   UNL d   1       9.434  -6.770  -1.599  0.00  0.00     0.213 C 
ENDBRANCH  12  14
ENDBRANCH  10  12
BRANCH  10  16
ATOM     16  C   UNL d   1       8.227  -4.941   2.031  0.00  0.00     0.317 C 
ATOM     17  O   UNL d   1       9.440  -4.947   2.119  0.00  0.00    -0.257 OA
BRANCH  16  18
ATOM     18  O   UNL d   1       7.335  -5.160   3.022  0.00  0.00    -0.321 OA
ATOM     19  C   UNL d   1       7.906  -5.379   4.311  0.00  0.00     0.213 C 
ENDBRANCH  16  18
ENDBRANCH  10  16
ENDBRANCH   7   9
ENDBRANCH   4   7
BRANCH   1  20
ATOM     20  N   UNL d   1       0.950  -0.668   0.055  0.00  0.00    -0.261 N 
ATOM     21  N   UNL d   1      -0.223  -1.158  -0.436  0.00  0.00    -0.298 N 
ATOM     22  C   UNL d   1      -1.162  -0.309   0.001  0.00  0.00     0.024 C 
ATOM     23  HN  UNL d   1      -0.357  -1.990  -1.011  1.00  0.00     0.187 HD
ATOM     24  C   UNL d   1      -2.606  -0.572  -0.215  0.00  0.00     0.070 C 
ATOM     25  C   UNL d   1      -0.594   0.812   0.628  0.00  0.00     0.052 C 
ATOM     26  C   UNL d   1       0.769   0.596   0.608  0.00  0.00     0.032 C 
ATOM     27  C   UNL d   1       1.839   1.545   1.006  0.00  0.00     0.070 C 
ENDBRANCH   1  20
TORSDOF 7
