REMARK  4 active torsions:
REMARK  status: ('A' for Active; 'I' for Inactive)
REMARK    1  A    between atoms: N_8  and  C_1 
REMARK       I    between atoms: C_5  and  N_8 
REMARK       I    between atoms: N_9  and  C_5 
REMARK    2  A    between atoms: C_10  and  N_9 
REMARK    3  A    between atoms: C_12  and  C_10 
REMARK    4  A    between atoms: C_13  and  C_10 
ROOT
ATOM      1  C   UNL d   1       1.482   2.971   0.523  0.00  0.00     0.321 C 
ATOM      2  N   UNL d   1       1.300   4.219   1.005  0.00  0.00    -0.305 N 
ATOM      3  N   UNL d   1       2.471   2.693  -0.360  0.00  0.00    -0.330 N 
ATOM      4  O   UNL d   1       0.768   2.091   1.018  0.00  0.00    -0.247 OA
ATOM      5  H   UNL d   1       0.687   4.166   1.809  0.00  0.00     0.171 HD
ATOM      6  H   UNL d   1       3.078   3.415  -0.692  0.00  0.00     0.165 HD
ENDROOT
BRANCH   3   7
ATOM      7  C   UNL d   1       2.808   1.296  -0.643  0.00  0.00     0.152 C 
BRANCH   7   8
ATOM      8  C   UNL d   1       2.168   0.800  -1.940  0.00  0.00    -0.031 A 
ATOM      9  C   UNL d   1       2.610   1.209  -3.207  0.00  0.00     0.009 A 
ATOM     10  C   UNL d   1       2.087   0.616  -4.362  0.00  0.00     0.001 A 
ATOM     11  C   UNL d   1       1.118  -0.383  -4.268  0.00  0.00     0.000 A 
ATOM     12  C   UNL d   1       0.649  -0.776  -3.018  0.00  0.00     0.001 A 
ATOM     13  C   UNL d   1       1.162  -0.182  -1.865  0.00  0.00     0.009 A 
ENDBRANCH   7   8
BRANCH   7  14
ATOM     14  C   UNL d   1       4.296   0.945  -0.501  0.00  0.00    -0.031 A 
ATOM     15  C   UNL d   1       5.226   1.798   0.113  0.00  0.00     0.009 A 
ATOM     16  C   UNL d   1       6.530   1.364   0.378  0.00  0.00     0.001 A 
ATOM     17  C   UNL d   1       6.926   0.070   0.044  0.00  0.00     0.000 A 
ATOM     18  C   UNL d   1       6.025  -0.790  -0.571  0.00  0.00     0.001 A 
ATOM     19  C   UNL d   1       4.726  -0.357  -0.838  0.00  0.00     0.009 A 
ENDBRANCH   7  14
ENDBRANCH   3   7
BRANCH   2  20
ATOM     20  C   UNL d   1       1.745   5.491   0.705  0.00  0.00     0.092 A 
ATOM     21  C   UNL d   1       2.322   6.054  -0.410  0.00  0.00     0.101 A 
ATOM     22  O   UNL d   1       2.566   7.375  -0.172  0.00  0.00    -0.240 OA
ATOM     23  C   UNL d   1       2.641   5.642  -1.790  0.00  0.00     0.081 C 
ATOM     24  N   UNL d   1       2.087   7.729   1.067  0.00  0.00    -0.263 N 
ATOM     25  C   UNL d   1       1.555   6.614   1.578  0.00  0.00     0.058 A 
ATOM     26  HN  UNL d   1       2.128   8.650   1.504  1.00  0.00     0.194 HD
ATOM     27  C   UNL d   1       0.871   6.663   2.894  0.00  0.00     0.072 C 
ENDBRANCH   2  20
TORSDOF 4
