REMARK  4 active torsions:
REMARK  status: ('A' for Active; 'I' for Inactive)
REMARK    1  A    between atoms: S_8  and  C_1 
REMARK    2  A    between atoms: C_3  and  C_2 
REMARK    3  A    between atoms: C_5  and  C_3 
REMARK    4  A    between atoms: C_4  and  S_8 
ROOT
ATOM      1  C   UNL d   1      -1.984   4.375   0.034  0.00  0.00     0.062 C 
ATOM      2  C   UNL d   1      -1.504   3.184  -0.355  0.00  0.00     0.054 C 
ENDROOT
BRANCH   1   3
ATOM      3  C   UNL d   1      -3.381   4.847  -0.128  0.00  0.00     0.182 C 
ATOM      4  O   UNL d   1      -3.581   6.043  -0.335  0.00  0.00    -0.288 OA
BRANCH   3   5
ATOM      5  C   UNL d   1      -4.532   3.921  -0.004  0.00  0.00     0.014 A 
ATOM      6  C   UNL d   1      -4.497   2.781   0.809  0.00  0.00     0.017 A 
ATOM      7  C   UNL d   1      -5.625   1.961   0.915  0.00  0.00     0.025 A 
ATOM      8  C   UNL d   1      -6.794   2.292   0.230  0.00  0.00     0.034 A 
ATOM      9  C   UNL d   1      -6.849   3.441  -0.557  0.00  0.00     0.025 A 
ATOM     10 CL   UNL d   1      -8.181   1.285   0.372  0.00  0.00    -0.084 Cl
ATOM     11  C   UNL d   1      -5.720   4.256  -0.671  0.00  0.00     0.017 A 
ENDBRANCH   3   5
ENDBRANCH   1   3
BRANCH   2  12
ATOM     12  S   UNL d   1       0.180   2.843  -0.140  0.00  0.00    -0.099 SA
BRANCH  12  13
ATOM     13  C   UNL d   1       0.617   1.886  -1.604  0.00  0.00     0.048 A 
ATOM     14  C   UNL d   1       0.362   2.316  -2.925  0.00  0.00     0.052 A 
ATOM     15 CL   UNL d   1      -0.515   3.760  -3.315  0.00  0.00    -0.083 Cl
ATOM     16  C   UNL d   1       0.856   1.602  -4.028  0.00  0.00     0.025 A 
ATOM     17  C   UNL d   1       1.633   0.464  -3.847  0.00  0.00     0.003 A 
ATOM     18  C   UNL d   1       1.900   0.018  -2.558  0.00  0.00     0.025 A 
ATOM     19  C   UNL d   1       1.394   0.713  -1.449  0.00  0.00     0.052 A 
ATOM     20 CL   UNL d   1       1.802   0.050   0.104  0.00  0.00    -0.083 Cl
ENDBRANCH  12  13
ENDBRANCH   2  12
TORSDOF 4
