REMARK  5 active torsions:
REMARK  status: ('A' for Active; 'I' for Inactive)
REMARK    1  A    between atoms: N_2  and  S_1 
REMARK    2  A    between atoms: C_5  and  S_1 
REMARK    3  A    between atoms: N_3  and  N_2 
REMARK    4  A    between atoms: C_19  and  C_13 
REMARK    5  A    between atoms: C_17  and  C_19 
ROOT
ATOM      1  N   UNL d   1      -0.572  -6.458   5.840  0.00  0.00    -0.197 NA
ATOM      2  C   UNL d   1      -0.220  -6.375   4.742  0.00  0.00     0.059 C 
ATOM      3  C   UNL d   1       0.253  -6.229   3.360  0.00  0.00     0.124 C 
ENDROOT
BRANCH   3   4
ATOM      4  C   UNL d   1       0.042  -4.806   2.833  0.00  0.00     0.024 C 
BRANCH   4   5
ATOM      5  C   UNL d   1       0.788  -3.708   3.623  0.00  0.00     0.034 C 
ATOM      6  C   UNL d   1       0.427  -2.321   3.071  0.00  0.00     0.008 C 
ATOM      7  N   UNL d   1       0.740  -1.845   1.902  0.00  0.00    -0.299 N 
ATOM      8  C   UNL d   1      -0.496  -1.450   3.925  0.00  0.00     0.054 C 
ATOM      9  HN  UNL d   1       0.398  -0.928   1.615  1.00  0.00     0.187 HD
ATOM     10  C   UNL d   1       0.162  -0.133   4.350  0.00  0.00     0.006 C 
ATOM     11  C   UNL d   1       0.273   0.022   5.877  0.00  0.00     0.000 C 
ATOM     12  C   UNL d   1       1.690   0.377   6.354  0.00  0.00     0.000 C 
ATOM     13  C   UNL d   1       2.235  -0.603   7.407  0.00  0.00     0.000 C 
ATOM     14  C   UNL d   1       3.544  -1.285   6.975  0.00  0.00     0.000 C 
ATOM     15  C   UNL d   1       3.481  -2.820   7.029  0.00  0.00     0.000 C 
ATOM     16  C   UNL d   1       3.871  -3.487   5.700  0.00  0.00     0.000 C 
ATOM     17  C   UNL d   1       2.759  -4.376   5.125  0.00  0.00     0.001 C 
ATOM     18  C   UNL d   1       2.309  -3.926   3.724  0.00  0.00     0.010 C 
BRANCH   7  19
ATOM     19  N   UNL d   1       1.561  -2.606   1.027  0.00  0.00    -0.223 N 
ATOM     20  H   UNL d   1       2.349  -3.181   1.321  0.00  0.00     0.200 HD
BRANCH  19  21
ATOM     21  S   UNL d   1       1.453  -2.395  -0.650  0.00  0.00     0.276 S 
ATOM     22  O   UNL d   1       0.069  -2.557  -1.046  0.00  0.00    -0.199 OA
ATOM     23  O   UNL d   1       2.495  -3.221  -1.227  0.00  0.00    -0.199 OA
BRANCH  21  24
ATOM     24  C   UNL d   1       1.913  -0.696  -0.869  0.00  0.00     0.081 A 
ATOM     25  C   UNL d   1       3.251  -0.364  -1.094  0.00  0.00     0.026 A 
ATOM     26  C   UNL d   1       3.595   0.961  -1.367  0.00  0.00     0.008 A 
ATOM     27  C   UNL d   1       2.607   1.954  -1.428  0.00  0.00    -0.062 A 
ATOM     28  C   UNL d   1       1.270   1.609  -1.193  0.00  0.00     0.008 A 
ATOM     29  C   UNL d   1       2.987   3.365  -1.774  0.00  0.00     0.048 C 
ATOM     30  C   UNL d   1       0.919   0.285  -0.917  0.00  0.00     0.026 A 
ENDBRANCH  21  24
ENDBRANCH  19  21
ENDBRANCH   7  19
ENDBRANCH   4   5
ENDBRANCH   3   4
TORSDOF 5
