REMARK  2 active torsions:
REMARK  status: ('A' for Active; 'I' for Inactive)
REMARK    1  A    between atoms: C_2  and  C_1 
REMARK    2  A    between atoms: N_4  and  C_3 
REMARK       I    between atoms: C_5  and  N_4 
ROOT
ATOM      1  C   UNL d   1       2.813   1.345   0.018  0.00  0.00     0.075 A 
ATOM      2  C   UNL d   1       3.651   0.234  -0.208  0.00  0.00     0.049 A 
ATOM      3  C   UNL d   1       1.416   1.150   0.123  0.00  0.00     0.036 A 
ATOM      4  C   UNL d   1       3.070  -1.042  -0.278  0.00  0.00     0.031 A 
ATOM      5  C   UNL d   1       0.864  -0.125   0.030  0.00  0.00     0.007 A 
ATOM      6  C   UNL d   1       1.689  -1.224  -0.161  0.00  0.00     0.020 A 
ATOM      7  I   UNL d   1      -1.191  -0.383   0.173  0.00  0.00    -0.045 I 
ENDROOT
BRANCH   2   8
ATOM      8  N   UNL d   1       5.051   0.407  -0.324  0.00  0.00    -0.327 N 
ATOM      9  C   UNL d   1       5.960  -0.511  -0.824  0.00  0.00     0.218 C 
ATOM     10  O   UNL d   1       5.695  -1.573  -1.380  0.00  0.00    -0.274 OA
ATOM     11  C   UNL d   1       7.391  -0.059  -0.676  0.00  0.00     0.117 C 
ATOM     12  H   UNL d   1       5.425   1.329  -0.118  0.00  0.00     0.169 HD
ENDBRANCH   2   8
BRANCH   1  13
ATOM     13  C   UNL d   1       3.312   2.764   0.109  0.00  0.00     0.419 C 
ATOM     14  F   UNL d   1       4.673   2.873   0.153  0.00  0.00    -0.166 F 
ATOM     15  F   UNL d   1       2.916   3.525  -0.947  0.00  0.00    -0.166 F 
ATOM     16  F   UNL d   1       2.861   3.407   1.223  0.00  0.00    -0.166 F 
ENDBRANCH   1  13
TORSDOF 2
