REMARK  4 active torsions:
REMARK  status: ('A' for Active; 'I' for Inactive)
REMARK    1  A    between atoms: C_8  and  C_1 
REMARK    2  A    between atoms: C_7  and  C_4 
REMARK    3  A    between atoms: O_15  and  C_8 
REMARK    4  A    between atoms: C_18  and  O_15 
ROOT
ATOM      1  C   UNL d   1       1.290   0.786   0.007  0.00  0.00     0.115 A 
ATOM      2  N   UNL d   1       1.396  -0.607  -0.001  0.00  0.00    -0.343 N 
ATOM      3  HN  UNL d   1       2.277  -1.119  -0.053  1.00  0.00     0.167 HD
ATOM      4  C   UNL d   1       0.204  -1.173   0.068  0.00  0.00     0.103 A 
ATOM      5  S   UNL d   1      -1.106  -0.056   0.192  0.00  0.00    -0.079 SA
ATOM      6  C   UNL d   1      -0.007   1.251   0.120  0.00  0.00     0.087 A 
ENDROOT
BRANCH   4   7
ATOM      7  C   UNL d   1      -0.031  -2.622   0.032  0.00  0.00     0.081 A 
ATOM      8  N   UNL d   1      -1.318  -3.066   0.024  0.00  0.00    -0.361 N 
ATOM      9  C   UNL d   1      -1.481  -4.408  -0.028  0.00  0.00     0.105 A 
ATOM     10  HN  UNL d   1      -2.112  -2.425   0.056  1.00  0.00     0.165 HD
ATOM     11  C   UNL d   1      -0.412  -5.288  -0.070  0.00  0.00     0.104 A 
ATOM     12  N   UNL d   1       0.871  -4.865  -0.064  0.00  0.00    -0.372 N 
ATOM     13  C   UNL d   1       1.034  -3.517  -0.014  0.00  0.00     0.120 A 
ATOM     14  HN  UNL d   1       1.659  -5.511  -0.094  1.00  0.00     0.164 HD
ENDBRANCH   4   7
BRANCH   1  15
ATOM     15  C   UNL d   1       2.450   1.665  -0.148  0.00  0.00     0.310 C 
ATOM     16  O   UNL d   1       2.361   2.887  -0.216  0.00  0.00    -0.258 OA
BRANCH  15  17
ATOM     17  O   UNL d   1       3.614   0.964  -0.277  0.00  0.00    -0.317 OA
BRANCH  17  18
ATOM     18  C   UNL d   1       4.744   1.710  -0.742  0.00  0.00     0.175 C 
ATOM     19  C   UNL d   1       4.755   1.673  -2.259  0.00  0.00     0.034 C 
ENDBRANCH  17  18
ENDBRANCH  15  17
ENDBRANCH   1  15
TORSDOF 4
