REMARK  7 active torsions:
REMARK  status: ('A' for Active; 'I' for Inactive)
REMARK    1  A    between atoms: C_3  and  C_1 
REMARK    2  A    between atoms: C_4  and  C_1 
REMARK    3  A    between atoms: N_9  and  C_2 
REMARK    4  A    between atoms: S_10  and  C_2 
REMARK       I    between atoms: N_12  and  C_3 
REMARK    5  A    between atoms: N_5  and  C_4 
REMARK    6  A    between atoms: C_14  and  N_9 
REMARK    7  A    between atoms: C_11  and  C_14 
ROOT
ATOM      1  C   UNL d   1       0.993   0.097  -0.022  0.00  0.00     0.121 C 
ATOM      2  C   UNL d   1       0.280  -0.896  -0.622  0.00  0.00     0.070 C 
ENDROOT
BRANCH   1   3
ATOM      3  C   UNL d   1       0.319   1.241   0.664  0.00  0.00     0.261 C 
ATOM      4  O   UNL d   1      -0.891   1.450   0.584  0.00  0.00    -0.267 OA
ATOM      5  N   UNL d   1       1.092   2.069   1.421  0.00  0.00    -0.365 N 
ATOM      6  H   UNL d   1       2.093   1.985   1.557  0.00  0.00     0.159 HD
ATOM      7  H   UNL d   1       0.626   2.832   1.895  0.00  0.00     0.159 HD
ENDBRANCH   1   3
BRANCH   1   8
ATOM      8  C   UNL d   1       2.513   0.097  -0.022  0.00  0.00    -0.029 C 
BRANCH   8   9
ATOM      9  N   UNL d   1       3.774   0.097  -0.022  0.00  0.00    -0.365 N 
ATOM     10  HN2 UNL d   1       2.754   0.097  -0.022  1.00  0.00     0.165 HD
ATOM     11  HN1 UNL d   1       4.794   0.097  -0.022  1.00  0.00     0.165 HD
ENDBRANCH   8   9
ENDBRANCH   1   8
BRANCH   2  12
ATOM     12  N   UNL d   1      -1.120  -0.908  -0.692  0.00  0.00    -0.283 NA
ATOM     13  H   UNL d   1      -1.476   0.048  -0.556  0.00  0.00     0.128 HD
BRANCH  12  14
ATOM     14  C   UNL d   1      -1.890  -1.759   0.209  0.00  0.00     0.119 C 
BRANCH  14  15
ATOM     15  C   UNL d   1      -3.124  -2.210  -0.508  0.00  0.00    -0.022 C 
ATOM     16  C   UNL d   1      -4.120  -1.413  -0.918  0.00  0.00     0.008 C 
ENDBRANCH  14  15
ENDBRANCH  12  14
ENDBRANCH   2  12
BRANCH   2  17
ATOM     17  S   UNL d   1       1.207  -2.231  -1.362  0.00  0.00    -0.121 SA
ATOM     18  C   UNL d   1      -0.012  -3.028  -2.427  0.00  0.00     0.097 C 
ENDBRANCH   2  17
TORSDOF 7
