REMARK  1 active torsions:
REMARK  status: ('A' for Active; 'I' for Inactive)
REMARK    1  A    between atoms: C_12  and  C_2 
ROOT
ATOM      1  N   UNL d   1      -0.064   0.671   0.016  0.00  0.00    -0.214 N 
ATOM      2  C   UNL d   1      -1.230   1.431   0.004  0.00  0.00     0.154 A 
ATOM      3  C   UNL d   1      -0.501  -0.626   0.064  0.00  0.00     0.182 A 
ATOM      4  N   UNL d   1      -2.270   0.612   0.066  0.00  0.00    -0.281 N 
ATOM      5  HN  UNL d   1      -3.249   0.896   0.091  1.00  0.00     0.188 HD
ATOM      6  N   UNL d   1       1.207   1.163   0.020  0.00  0.00    -0.298 N 
ATOM      7  HN  UNL d   1       1.376   2.169   0.023  1.00  0.00     0.187 HD
ATOM      8  N   UNL d   1      -1.809  -0.681   0.091  0.00  0.00    -0.277 N 
ATOM      9  HN  UNL d   1      -2.379  -1.526   0.125  1.00  0.00     0.189 HD
ATOM     10  S   UNL d   1       0.566  -1.966   0.131  0.00  0.00    -0.085 SA
ATOM     11  C   UNL d   1       2.197   0.326   0.020  0.00  0.00     0.010 A 
ATOM     12  C   UNL d   1       2.167  -1.184  -0.013  0.00  0.00     0.136 A 
ATOM     13  C   UNL d   1       3.580   0.948   0.019  0.00  0.00     0.066 C 
ENDROOT
BRANCH   2  14
ATOM     14  C   UNL d   1      -1.299   2.897  -0.012  0.00  0.00     0.011 A 
ATOM     15  C   UNL d   1      -0.347   3.684  -0.677  0.00  0.00     0.015 A 
ATOM     16  C   UNL d   1      -0.426   5.080  -0.652  0.00  0.00     0.001 A 
ATOM     17  C   UNL d   1      -1.466   5.706   0.028  0.00  0.00     0.000 A 
ATOM     18  C   UNL d   1      -2.434   4.940   0.672  0.00  0.00     0.001 A 
ATOM     19  C   UNL d   1      -2.353   3.544   0.647  0.00  0.00     0.015 A 
ENDBRANCH   2  14
TORSDOF 1
