REMARK  4 active torsions:
REMARK  status: ('A' for Active; 'I' for Inactive)
REMARK    1  A    between atoms: C_6  and  N_2 
REMARK    2  A    between atoms: C_5  and  C_9 
REMARK    3  A    between atoms: C_18  and  C_8 
REMARK    4  A    between atoms: C_19  and  C_8 
ROOT
ATOM      1  C   UNL d   1       0.395   1.440   0.190  0.00  0.00     0.179 C 
ATOM      2  N   UNL d   1      -0.973   1.098   0.099  0.00  0.00    -0.300 N 
ATOM      3  N   UNL d   1       1.299   0.416   0.082  0.00  0.00    -0.354 N 
ATOM      4  C   UNL d   1      -1.337  -0.246   0.112  0.00  0.00     0.098 C 
ATOM      5  C   UNL d   1      -0.445  -1.241   0.092  0.00  0.00     0.021 C 
ATOM      6  C   UNL d   1       1.030  -1.010   0.002  0.00  0.00     0.051 C 
ATOM      7  S   UNL d   1       1.101   2.934   0.515  0.00  0.00    -0.040 SA
ATOM      8  H   UNL d   1       2.266   0.707   0.161  0.00  0.00     0.163 HD
ENDROOT
BRANCH   2   9
ATOM      9  C   UNL d   1      -2.017   2.098   0.003  0.00  0.00     0.042 A 
ATOM     10  C   UNL d   1      -1.854   3.255  -0.773  0.00  0.00     0.046 A 
ATOM     11  C   UNL d   1      -2.857   4.235  -0.864  0.00  0.00     0.050 A 
ATOM     12  C   UNL d   1      -4.078   4.019  -0.213  0.00  0.00     0.016 A 
ATOM     13  C   UNL d   1      -4.281   2.855   0.524  0.00  0.00     0.003 A 
ATOM     14  C   UNL d   1      -3.258   1.909   0.635  0.00  0.00     0.030 A 
BRANCH  11  15
ATOM     15  C   UNL d   1      -2.629   5.506  -1.643  0.00  0.00     0.417 C 
ATOM     16  F   UNL d   1      -1.387   5.600  -2.195  0.00  0.00    -0.166 F 
ATOM     17  F   UNL d   1      -3.505   5.645  -2.677  0.00  0.00    -0.166 F 
ATOM     18  F   UNL d   1      -2.781   6.621  -0.876  0.00  0.00    -0.166 F 
ENDBRANCH  11  15
ENDBRANCH   2   9
BRANCH   6  19
ATOM     19  C   UNL d   1       1.571  -1.556  -1.346  0.00  0.00     0.031 C 
ATOM     20  C   UNL d   1       0.934  -0.938  -2.591  0.00  0.00     0.008 C 
ENDBRANCH   6  19
BRANCH   6  21
ATOM     21  C   UNL d   1       1.763  -1.723   1.169  0.00  0.00     0.031 C 
ATOM     22  C   UNL d   1       1.363  -1.244   2.564  0.00  0.00     0.008 C 
ENDBRANCH   6  21
TORSDOF 4
