REMARK  5 active torsions:
REMARK  status: ('A' for Active; 'I' for Inactive)
REMARK    1  A    between atoms: C_10  and  C_4 
REMARK    2  A    between atoms: C_11  and  C_8 
REMARK    3  A    between atoms: O_12  and  C_13 
REMARK    4  A    between atoms: C_14  and  O_12 
REMARK    5  A    between atoms: C_19  and  C_14 
ROOT
ATOM      1  N   UNL d   1      -1.327  -0.315   0.444  0.00  0.00    -0.336 N 
ATOM      2  HN  UNL d   1      -2.141  -0.598  -0.101  1.00  0.00     0.168 HD
ATOM      3  C   UNL d   1      -0.963   1.012   0.555  0.00  0.00     0.104 C 
ATOM      4  C   UNL d   1      -0.590  -1.190   1.062  0.00  0.00     0.131 C 
ATOM      5  C   UNL d   1       0.298   1.412   1.299  0.00  0.00     0.286 C 
ATOM      6  N   UNL d   1       1.085   0.356   1.698  0.00  0.00    -0.263 N 
ATOM      7  N   UNL d   1       0.530  -0.916   1.834  0.00  0.00    -0.282 N 
ATOM      8  C   UNL d   1      -1.748   1.930  -0.046  0.00  0.00     0.046 C 
ATOM      9  O   UNL d   1       0.652   2.558   1.555  0.00  0.00    -0.264 OA
ATOM     10  H   UNL d   1       1.834   0.605   2.336  0.00  0.00     0.190 HD
ATOM     11  H   UNL d   1       1.226  -1.661   1.856  0.00  0.00     0.188 HD
ENDROOT
BRANCH   8  12
ATOM     12  C   UNL d   1      -1.524   3.373  -0.107  0.00  0.00    -0.034 A 
ATOM     13  C   UNL d   1      -0.794   3.927  -1.163  0.00  0.00     0.014 A 
ATOM     14  C   UNL d   1      -0.478   5.288  -1.159  0.00  0.00     0.037 A 
ATOM     15  C   UNL d   1      -0.879   6.097  -0.096  0.00  0.00     0.069 A 
ATOM     16  C   UNL d   1      -1.680   5.560   0.916  0.00  0.00     0.037 A 
ATOM     17  C   UNL d   1      -1.992   4.200   0.917  0.00  0.00     0.014 A 
BRANCH  15  18
ATOM     18  O   UNL d   1      -0.427   7.391  -0.127  0.00  0.00    -0.347 OA
BRANCH  18  19
ATOM     19  C   UNL d   1      -0.330   8.011   1.157  0.00  0.00     0.214 C 
BRANCH  19  20
ATOM     20  C   UNL d   1       0.662   9.144   1.109  0.00  0.00    -0.034 A 
ATOM     21  C   UNL d   1       0.243  10.455   0.852  0.00  0.00     0.009 A 
ATOM     22  C   UNL d   1       1.164  11.503   0.862  0.00  0.00     0.001 A 
ATOM     23  C   UNL d   1       2.511  11.249   1.119  0.00  0.00     0.000 A 
ATOM     24  C   UNL d   1       2.942   9.945   1.353  0.00  0.00     0.001 A 
ATOM     25  C   UNL d   1       2.023   8.895   1.342  0.00  0.00     0.009 A 
ENDBRANCH  19  20
ENDBRANCH  18  19
ENDBRANCH  15  18
ENDBRANCH   8  12
BRANCH   4  26
ATOM     26  C   UNL d   1      -0.983  -2.633   0.924  0.00  0.00     0.009 A 
ATOM     27  C   UNL d   1      -1.634  -3.069  -0.237  0.00  0.00     0.015 A 
ATOM     28  C   UNL d   1      -1.970  -4.415  -0.385  0.00  0.00     0.001 A 
ATOM     29  C   UNL d   1      -1.666  -5.327   0.626  0.00  0.00     0.000 A 
ATOM     30  C   UNL d   1      -1.032  -4.894   1.791  0.00  0.00     0.001 A 
ATOM     31  C   UNL d   1      -0.692  -3.550   1.943  0.00  0.00     0.015 A 
ENDBRANCH   4  26
TORSDOF 5
