REMARK  6 active torsions:
REMARK  status: ('A' for Active; 'I' for Inactive)
REMARK    1  A    between atoms: C_5  and  C_1 
REMARK    2  A    between atoms: C_2  and  C_8 
REMARK       I    between atoms: C_3  and  N_4 
REMARK    3  A    between atoms: C_9  and  C_3 
REMARK    4  A    between atoms: N_4  and  C_25 
REMARK    5  A    between atoms: C_10  and  O_13 
REMARK    6  A    between atoms: O_13  and  C_14 
ROOT
ATOM      1  N   UNL d   1      -1.189  -2.552  -4.942  0.00  0.00    -0.344 N 
ATOM      2  HN  UNL d   1      -0.746  -2.348  -5.837  1.00  0.00     0.167 HD
ATOM      3  C   UNL d   1      -1.547  -1.567  -4.087  0.00  0.00     0.148 A 
ATOM      4  C   UNL d   1      -2.026  -4.183  -3.334  0.00  0.00     0.050 A 
ATOM      5  C   UNL d   1      -1.448  -3.825  -4.551  0.00  0.00     0.119 A 
ATOM      6  C   UNL d   1      -2.115  -1.812  -2.849  0.00  0.00     0.059 A 
ATOM      7  C   UNL d   1      -2.351  -3.135  -2.471  0.00  0.00     0.035 A 
ENDROOT
BRANCH   4   8
ATOM      8  N   UNL d   1      -2.270  -5.556  -3.061  0.00  0.00    -0.322 N 
ATOM      9  C   UNL d   1      -2.777  -6.058  -1.876  0.00  0.00     0.256 C 
ATOM     10  O   UNL d   1      -2.989  -5.412  -0.853  0.00  0.00    -0.267 OA
ATOM     11  H   UNL d   1      -2.010  -6.213  -3.783  0.00  0.00     0.169 HD
BRANCH   9  12
ATOM     12  C   UNL d   1      -3.095  -7.514  -1.831  0.00  0.00     0.032 A 
ATOM     13  C   UNL d   1      -3.053  -8.139  -0.576  0.00  0.00     0.018 A 
ATOM     14  C   UNL d   1      -3.531  -9.439  -0.410  0.00  0.00     0.017 A 
ATOM     15  C   UNL d   1      -4.071 -10.138  -1.497  0.00  0.00     0.048 A 
ATOM     16  C   UNL d   1      -4.052  -9.534  -2.767  0.00  0.00     0.017 A 
ATOM     17  C   UNL d   1      -3.569  -8.227  -2.938  0.00  0.00     0.018 A 
BRANCH  15  18
ATOM     18  C   UNL d   1      -4.727 -11.485  -1.298  0.00  0.00     0.417 C 
ATOM     19  F   UNL d   1      -4.701 -11.920  -0.007  0.00  0.00    -0.166 F 
ATOM     20  F   UNL d   1      -6.041 -11.473  -1.658  0.00  0.00    -0.166 F 
ATOM     21  F   UNL d   1      -4.145 -12.468  -2.038  0.00  0.00    -0.166 F 
ENDBRANCH  15  18
ENDBRANCH   9  12
ENDBRANCH   4   8
BRANCH   3  22
ATOM     22  O   UNL d   1      -1.324  -0.229  -4.400  0.00  0.00    -0.294 OA
BRANCH  22  23
ATOM     23  C   UNL d   1      -1.080   0.119  -5.708  0.00  0.00     0.078 A 
ATOM     24  C   UNL d   1      -1.773  -0.422  -6.793  0.00  0.00     0.053 A 
ATOM     25  C   UNL d   1      -1.470  -0.027  -8.103  0.00  0.00     0.050 A 
ATOM     26  C   UNL d   1      -0.511   0.977  -8.305  0.00  0.00     0.016 A 
ATOM     27  C   UNL d   1       0.143   1.561  -7.218  0.00  0.00     0.004 A 
ATOM     28  C   UNL d   1      -0.141   1.129  -5.922  0.00  0.00     0.037 A 
BRANCH  25  29
ATOM     29  C   UNL d   1      -2.145  -0.688  -9.277  0.00  0.00     0.417 C 
ATOM     30  F   UNL d   1      -3.036  -1.658  -8.925  0.00  0.00    -0.166 F 
ATOM     31  F   UNL d   1      -1.256  -1.291 -10.116  0.00  0.00    -0.166 F 
ATOM     32  F   UNL d   1      -2.842   0.195 -10.044  0.00  0.00    -0.166 F 
ENDBRANCH  25  29
ENDBRANCH  22  23
ENDBRANCH   3  22
TORSDOF 6
