REMARK  6 active torsions:
REMARK  status: ('A' for Active; 'I' for Inactive)
REMARK    1  A    between atoms: C_3  and  N_1 
REMARK    2  A    between atoms: C_2  and  C_7 
REMARK       I    between atoms: N_4  and  C_2 
REMARK    3  A    between atoms: C_15  and  N_4 
REMARK    4  A    between atoms: C_8  and  C_15 
REMARK    5  A    between atoms: O_16  and  C_8 
REMARK    6  A    between atoms: C_17  and  O_16 
ROOT
ATOM      1  C   UNL d   1      -2.314   4.440   1.534  0.00  0.00     0.252 C 
ATOM      2  N   UNL d   1      -3.449   4.216   2.278  0.00  0.00    -0.348 N 
ATOM      3  O   UNL d   1      -1.991   5.565   1.173  0.00  0.00    -0.268 OA
ATOM      4  H   UNL d   1      -3.709   3.302   2.620  0.00  0.00     0.163 HD
ENDROOT
BRANCH   1   5
ATOM      5  C   UNL d   1      -1.463   3.263   1.170  0.00  0.00     0.032 A 
ATOM      6  C   UNL d   1      -1.759   1.942   1.538  0.00  0.00     0.019 A 
ATOM      7  C   UNL d   1      -0.920   0.891   1.144  0.00  0.00     0.037 A 
ATOM      8  C   UNL d   1       0.222   1.159   0.377  0.00  0.00     0.102 A 
ATOM      9  C   UNL d   1       0.534   2.471   0.008  0.00  0.00     0.037 A 
ATOM     10  C   UNL d   1      -0.308   3.514   0.407  0.00  0.00     0.019 A 
BRANCH   8  11
ATOM     11  N   UNL d   1       1.092   0.054  -0.048  0.00  0.00    -0.116 N 
ATOM     12  O   UNL d   1       2.083   0.333  -0.738  0.00  0.00    -0.532 OA
ATOM     13  O   UNL d   1       0.781  -1.091   0.309  0.00  0.00    -0.532 OA
ENDBRANCH   8  11
ENDBRANCH   1   5
BRANCH   2  14
ATOM     14  C   UNL d   1      -4.294   5.327   2.700  0.00  0.00     0.233 C 
BRANCH  14  15
ATOM     15  C   UNL d   1      -5.412   4.899   3.641  0.00  0.00     0.276 C 
ATOM     16  O   UNL d   1      -6.210   5.671   4.156  0.00  0.00    -0.263 OA
BRANCH  15  17
ATOM     17  O   UNL d   1      -5.351   3.554   3.885  0.00  0.00    -0.321 OA
BRANCH  17  18
ATOM     18  C   UNL d   1      -6.066   3.106   5.044  0.00  0.00     0.174 C 
ATOM     19  C   UNL d   1      -5.137   3.230   6.236  0.00  0.00     0.034 C 
ENDBRANCH  17  18
ENDBRANCH  15  17
ENDBRANCH  14  15
ENDBRANCH   2  14
TORSDOF 6
