REMARK  2 active torsions:
REMARK  status: ('A' for Active; 'I' for Inactive)
REMARK    1  A    between atoms: C_5  and  C_1 
REMARK    2  A    between atoms: O_15  and  C_8 
ROOT
ATOM      1  C   UNL d   1      -1.885  -0.398   0.001  0.00  0.00     0.137 A 
ATOM      2  N   UNL d   1      -1.875   0.847  -0.567  0.00  0.00    -0.311 N 
ATOM      3  N   UNL d   1      -0.745  -0.745   0.543  0.00  0.00    -0.282 N 
ATOM      4  HN  UNL d   1      -0.528  -1.608   1.042  1.00  0.00     0.188 HD
ATOM      5  C   UNL d   1      -0.584   1.299  -0.402  0.00  0.00     0.194 A 
ATOM      6  N   UNL d   1       0.087   0.304   0.291  0.00  0.00    -0.274 N 
ATOM      7  S   UNL d   1       0.119   2.719  -0.888  0.00  0.00    -0.039 SA
ATOM      8  C   UNL d   1      -2.966   1.651  -1.097  0.00  0.00     0.160 C 
ATOM      9  H   UNL d   1       1.060   0.313   0.572  0.00  0.00     0.189 HD
ENDROOT
BRANCH   1  10
ATOM     10  C   UNL d   1      -3.058  -1.289   0.046  0.00  0.00     0.044 A 
ATOM     11  C   UNL d   1      -3.259  -2.120   1.160  0.00  0.00     0.079 A 
ATOM     12  C   UNL d   1      -4.367  -2.963   1.231  0.00  0.00     0.039 A 
ATOM     13  C   UNL d   1      -5.283  -2.993   0.179  0.00  0.00     0.026 A 
ATOM     14  C   UNL d   1      -5.066  -2.201  -0.947  0.00  0.00     0.035 A 
ATOM     15  C   UNL d   1      -3.947  -1.371  -1.030  0.00  0.00     0.042 A 
ATOM     16 CL   UNL d   1      -6.193  -2.237  -2.247  0.00  0.00    -0.084 Cl
BRANCH  11  17
ATOM     17  O   UNL d   1      -2.402  -2.161   2.228  0.00  0.00    -0.360 OA
ATOM     18  H   UNL d   1      -1.572  -1.705   1.971  0.00  0.00     0.217 HD
ENDBRANCH  11  17
ENDBRANCH   1  10
TORSDOF 2
