REMARK  4 active torsions:
REMARK  status: ('A' for Active; 'I' for Inactive)
REMARK    1  A    between atoms: S_10  and  C_2 
REMARK    2  A    between atoms: C_7  and  C_13 
REMARK       I    between atoms: N_12  and  C_7 
REMARK    3  A    between atoms: C_13  and  S_10 
REMARK    4  A    between atoms: N_14  and  N_12 
ROOT
ATOM      1  S   UNL d   1       1.726  -0.833  -0.043  0.00  0.00    -0.045 SA
ATOM      2  C   UNL d   1       2.117   0.836   0.006  0.00  0.00     0.115 A 
ATOM      3  N   UNL d   1       1.106   1.683   0.050  0.00  0.00    -0.343 N 
ATOM      4  HN  UNL d   1       1.182   2.699   0.096  1.00  0.00     0.167 HD
ATOM      5  C   UNL d   1       0.075  -0.425  -0.011  0.00  0.00     0.103 A 
ATOM      6  C   UNL d   1      -0.078   0.959   0.025  0.00  0.00     0.067 A 
ATOM      7  N   UNL d   1      -0.903  -1.354  -0.025  0.00  0.00    -0.358 N 
ATOM      8  HN  UNL d   1      -0.722  -2.358  -0.045  1.00  0.00     0.166 HD
ATOM      9  C   UNL d   1      -1.394   1.454   0.037  0.00  0.00     0.034 A 
ATOM     10  C   UNL d   1      -2.145  -0.824  -0.010  0.00  0.00     0.089 A 
ATOM     11  C   UNL d   1      -2.442   0.532   0.017  0.00  0.00     0.019 A 
ENDROOT
BRANCH   2  12
ATOM     12  S   UNL d   1       3.781   1.383  -0.000  0.00  0.00    -0.095 SA
BRANCH  12  13
ATOM     13  C   UNL d   1       3.645   2.958   0.883  0.00  0.00     0.185 C 
BRANCH  13  14
ATOM     14  C   UNL d   1       3.165   2.739   2.304  0.00  0.00     0.241 C 
ATOM     15  O   UNL d   1       3.889   2.318   3.206  0.00  0.00    -0.271 OA
ATOM     16  N   UNL d   1       1.822   3.049   2.498  0.00  0.00    -0.293 N 
ATOM     17  H   UNL d   1       1.218   3.139   1.677  0.00  0.00     0.183 HD
BRANCH  16  18
ATOM     18  N   UNL d   1       1.229   2.793   3.755  0.00  0.00    -0.247 NA
ATOM     19  H   UNL d   1       1.999   2.724   4.437  0.00  0.00     0.143 HD
ATOM     20  H   UNL d   1       0.840   1.847   3.733  0.00  0.00     0.143 HD
ENDBRANCH  16  18
ENDBRANCH  13  14
ENDBRANCH  12  13
ENDBRANCH   2  12
TORSDOF 4
