REMARK  1 active torsions:
REMARK  status: ('A' for Active; 'I' for Inactive)
REMARK    1  A    between atoms: C_8  and  C_4 
ROOT
ATOM      1  C   UNL d   1       0.225  -0.522  -0.054  0.00  0.00     0.147 A 
ATOM      2  N   UNL d   1       1.296  -1.259  -0.120  0.00  0.00    -0.335 N 
ATOM      3  HN  UNL d   1       1.357  -2.275  -0.183  1.00  0.00     0.168 HD
ATOM      4  C   UNL d   1       2.339  -0.338  -0.082  0.00  0.00     0.060 A 
ATOM      5  N   UNL d   1       0.506   0.799   0.020  0.00  0.00    -0.335 N 
ATOM      6  C   UNL d   1       1.848   0.960   0.008  0.00  0.00     0.123 A 
ATOM      7  S   UNL d   1      -1.460  -0.851  -0.068  0.00  0.00    -0.092 SA
ATOM      8  C   UNL d   1      -0.602   1.716   0.141  0.00  0.00     0.141 C 
ATOM      9  C   UNL d   1      -1.858   0.936  -0.261  0.00  0.00     0.102 C 
ENDROOT
BRANCH   4  10
ATOM     10  C   UNL d   1       3.744  -0.724  -0.134  0.00  0.00    -0.008 A 
ATOM     11  C   UNL d   1       4.087  -2.081  -0.218  0.00  0.00     0.014 A 
ATOM     12  C   UNL d   1       5.426  -2.480  -0.275  0.00  0.00     0.001 A 
ATOM     13  C   UNL d   1       6.439  -1.526  -0.249  0.00  0.00     0.000 A 
ATOM     14  C   UNL d   1       6.116  -0.174  -0.163  0.00  0.00     0.001 A 
ATOM     15  C   UNL d   1       4.777   0.224  -0.106  0.00  0.00     0.014 A 
ENDBRANCH   4  10
TORSDOF 1
