REMARK  3 active torsions:
REMARK  status: ('A' for Active; 'I' for Inactive)
REMARK    1  A    between atoms: C_6  and  N_1 
REMARK    2  A    between atoms: C_8  and  N_3 
REMARK    3  A    between atoms: C_10  and  C_6 
ROOT
ATOM      1  N   UNL d   1      -0.409   1.013   0.065  0.00  0.00    -0.293 N 
ATOM      2  C   UNL d   1       0.879   0.576   0.209  0.00  0.00     0.150 C 
ATOM      3  N   UNL d   1       1.907   1.319  -0.059  0.00  0.00    -0.335 N 
ATOM      4  HN  UNL d   1       1.746   2.298  -0.298  1.00  0.00     0.168 HD
ATOM      5  C   UNL d   1      -1.350   0.020  -0.135  0.00  0.00     0.235 C 
ATOM      6  S   UNL d   1       0.876  -1.087   0.743  0.00  0.00    -0.084 SA
ATOM      7  C   UNL d   1      -0.781  -1.355   0.098  0.00  0.00     0.185 C 
ATOM      8  O   UNL d   1      -2.482   0.183  -0.572  0.00  0.00    -0.272 OA
ENDROOT
BRANCH   1   9
ATOM      9  C   UNL d   1      -0.759   2.412  -0.148  0.00  0.00     0.174 C 
BRANCH   9  10
ATOM     10  C   UNL d   1      -1.006   3.165   1.151  0.00  0.00    -0.018 A 
ATOM     11  C   UNL d   1      -2.264   3.257   1.773  0.00  0.00     0.042 A 
ATOM     12 CL   UNL d   1      -3.676   2.499   1.137  0.00  0.00    -0.084 Cl
ATOM     13  C   UNL d   1      -2.433   4.005   2.946  0.00  0.00     0.024 A 
ATOM     14  C   UNL d   1      -1.353   4.670   3.520  0.00  0.00     0.002 A 
ATOM     15  C   UNL d   1      -0.098   4.578   2.930  0.00  0.00     0.001 A 
ATOM     16  C   UNL d   1       0.074   3.830   1.762  0.00  0.00     0.010 A 
ENDBRANCH   9  10
ENDBRANCH   1   9
BRANCH   3  17
ATOM     17  C   UNL d   1       3.241   0.846  -0.039  0.00  0.00     0.057 A 
ATOM     18  C   UNL d   1       3.618  -0.313  -0.738  0.00  0.00     0.057 A 
ATOM     19  C   UNL d   1       4.939  -0.777  -0.731  0.00  0.00     0.058 A 
ATOM     20 CL   UNL d   1       5.267  -2.270  -1.536  0.00  0.00    -0.082 Cl
ATOM     21  C   UNL d   1       5.931  -0.037  -0.087  0.00  0.00     0.057 A 
ATOM     22  C   UNL d   1       5.596   1.157   0.550  0.00  0.00     0.051 A 
ATOM     23 CL   UNL d   1       7.585  -0.534  -0.060  0.00  0.00    -0.082 Cl
ATOM     24  C   UNL d   1       4.264   1.591   0.576  0.00  0.00     0.062 A 
ATOM     25 CL   UNL d   1       3.934   3.093   1.365  0.00  0.00    -0.082 Cl
ENDBRANCH   3  17
TORSDOF 3
