REMARK  8 active torsions:
REMARK  status: ('A' for Active; 'I' for Inactive)
REMARK    1  A    between atoms: C_6  and  C_1 
REMARK       I    between atoms: C_3  and  N_7 
REMARK    2  A    between atoms: C_11  and  C_3 
REMARK    3  A    between atoms: C_4  and  C_11 
REMARK    4  A    between atoms: C_13  and  C_4 
REMARK    5  A    between atoms: C_5  and  C_13 
REMARK    6  A    between atoms: O_19  and  C_5 
REMARK    7  A    between atoms: N_7  and  C_17 
REMARK    8  A    between atoms: C_17  and  C_18 
ROOT
ATOM      1  C   UNL d   1      -0.118   8.721  -1.385  0.00  0.00     0.218 C 
ATOM      2  N   UNL d   1       0.797   9.239  -2.281  0.00  0.00    -0.357 N 
ATOM      3  O   UNL d   1      -0.168   7.519  -1.129  0.00  0.00    -0.274 OA
ATOM      4  H   UNL d   1       0.712  10.209  -2.560  0.00  0.00     0.162 HD
ENDROOT
BRANCH   1   5
ATOM      5  C   UNL d   1      -1.056   9.752  -0.760  0.00  0.00     0.112 C 
BRANCH   5   6
ATOM      6  C   UNL d   1      -2.130   9.194   0.237  0.00  0.00    -0.023 C 
ATOM      7  C   UNL d   1      -3.076   8.168  -0.460  0.00  0.00     0.010 C 
ATOM      8  C   UNL d   1      -3.955   8.785  -1.545  0.00  0.00     0.001 C 
ATOM      9  C   UNL d   1      -4.829   9.887  -0.967  0.00  0.00     0.000 C 
ATOM     10  C   UNL d   1      -4.003  10.944  -0.246  0.00  0.00     0.001 C 
ATOM     11  C   UNL d   1      -3.033  10.347   0.778  0.00  0.00     0.010 C 
BRANCH   6  12
ATOM     12  C   UNL d   1      -1.469   8.469   1.453  0.00  0.00     0.119 C 
BRANCH  12  13
ATOM     13  C   UNL d   1      -0.483   9.275   2.276  0.00  0.00     0.140 C 
ATOM     14  O   UNL d   1      -0.229  10.461   2.142  0.00  0.00    -0.650 OA
BRANCH  13  15
ATOM     15  O   UNL d   1       0.102   8.526   3.243  0.00  0.00    -0.776 OA
ATOM     16  H   UNL d   1      -0.176   7.590   3.230  0.00  0.00     0.167 HD
ENDBRANCH  13  15
ENDBRANCH  12  13
ENDBRANCH   6  12
ENDBRANCH   5   6
ENDBRANCH   1   5
BRANCH   2  17
ATOM     17  C   UNL d   1       1.522   8.342  -3.161  0.00  0.00     0.161 C 
BRANCH  17  18
ATOM     18  C   UNL d   1       2.880   8.820  -3.616  0.00  0.00    -0.040 A 
ATOM     19  C   UNL d   1       3.645   9.758  -2.916  0.00  0.00     0.010 A 
ATOM     20  C   UNL d   1       4.900  10.162  -3.400  0.00  0.00     0.013 A 
ATOM     21  C   UNL d   1       5.431   9.633  -4.587  0.00  0.00    -0.019 A 
ATOM     22  C   UNL d   1       4.697   8.635  -5.240  0.00  0.00     0.013 A 
ATOM     23  C   UNL d   1       3.442   8.238  -4.764  0.00  0.00     0.010 A 
BRANCH  21  24
ATOM     24  C   UNL d   1       6.700  10.151  -5.132  0.00  0.00     0.015 A 
ATOM     25  S   UNL d   1       6.904  10.333  -6.834  0.00  0.00    -0.101 SA
ATOM     26  C   UNL d   1       8.446  11.040  -6.657  0.00  0.00     0.050 A 
ATOM     27  C   UNL d   1       8.822  11.131  -5.337  0.00  0.00     0.008 A 
ATOM     28  C   UNL d   1       7.822  10.611  -4.461  0.00  0.00     0.020 A 
ENDBRANCH  21  24
ENDBRANCH  17  18
ENDBRANCH   2  17
TORSDOF 8
