REMARK  9 active torsions:
REMARK  status: ('A' for Active; 'I' for Inactive)
REMARK    1  A    between atoms: C_7  and  N_1 
REMARK       I    between atoms: C_2  and  N_4 
REMARK    2  A    between atoms: C_15  and  C_2 
REMARK       I    between atoms: C_3  and  N_6 
REMARK    3  A    between atoms: C_8  and  C_3 
REMARK    4  A    between atoms: N_4  and  C_8 
REMARK       I    between atoms: N_11  and  C_5 
REMARK       I    between atoms: N_20  and  C_5 
REMARK    5  A    between atoms: N_6  and  C_19 
REMARK    6  A    between atoms: C_23  and  C_8 
REMARK    7  A    between atoms: N_16  and  C_26 
REMARK    8  A    between atoms: C_27  and  C_23 
REMARK    9  A    between atoms: C_26  and  C_27 
ROOT
ATOM      1  C   UNL d   1      -0.379  -2.121   5.954  0.00  0.00     0.177 C 
ENDROOT
BRANCH   1   2
ATOM      2  N   UNL d   1      -0.697  -1.098   6.954  0.00  0.00    -0.344 N 
ATOM      3  C   UNL d   1      -1.222   0.122   6.585  0.00  0.00     0.252 C 
ATOM      4  O   UNL d   1      -1.415   0.413   5.406  0.00  0.00    -0.268 OA
ATOM      5  H   UNL d   1      -0.465  -1.283   7.921  0.00  0.00     0.163 HD
BRANCH   3   6
ATOM      6  C   UNL d   1      -1.590   1.074   7.665  0.00  0.00     0.032 A 
ATOM      7  C   UNL d   1      -1.701   2.431   7.334  0.00  0.00     0.017 A 
ATOM      8  C   UNL d   1      -2.097   3.360   8.297  0.00  0.00     0.001 A 
ATOM      9  C   UNL d   1      -2.388   2.937   9.592  0.00  0.00     0.000 A 
ATOM     10  C   UNL d   1      -2.287   1.587   9.927  0.00  0.00     0.001 A 
ATOM     11  C   UNL d   1      -1.893   0.653   8.966  0.00  0.00     0.017 A 
ENDBRANCH   3   6
ENDBRANCH   1   2
BRANCH   1  12
ATOM     12  C   UNL d   1      -1.689  -2.803   5.475  0.00  0.00     0.245 C 
ATOM     13  N   UNL d   1      -2.452  -1.993   4.651  0.00  0.00    -0.325 N 
ATOM     14  H   UNL d   1      -2.159  -1.011   4.601  0.00  0.00     0.169 HD
ATOM     15  O   UNL d   1      -1.981  -3.946   5.820  0.00  0.00    -0.271 OA
BRANCH  13  16
ATOM     16  C   UNL d   1      -3.615  -2.342   3.937  0.00  0.00     0.034 A 
ATOM     17  C   UNL d   1      -4.118  -3.643   3.875  0.00  0.00     0.032 A 
ATOM     18  C   UNL d   1      -5.253  -3.936   3.113  0.00  0.00     0.038 A 
ATOM     19  C   UNL d   1      -5.892  -2.913   2.404  0.00  0.00     0.103 A 
ATOM     20  C   UNL d   1      -5.406  -1.601   2.464  0.00  0.00     0.038 A 
ATOM     21  C   UNL d   1      -4.268  -1.323   3.231  0.00  0.00     0.032 A 
BRANCH  19  22
ATOM     22  N   UNL d   1      -7.069  -3.225   1.585  0.00  0.00    -0.116 N 
ATOM     23  O   UNL d   1      -7.624  -2.287   0.993  0.00  0.00    -0.532 OA
ATOM     24  O   UNL d   1      -7.437  -4.405   1.528  0.00  0.00    -0.532 OA
ENDBRANCH  19  22
ENDBRANCH  13  16
ENDBRANCH   1  12
BRANCH   1  25
ATOM     25  C   UNL d   1       0.613  -3.148   6.530  0.00  0.00     0.036 C 
BRANCH  25  26
ATOM     26  C   UNL d   1       1.090  -4.218   5.533  0.00  0.00     0.022 C 
BRANCH  26  27
ATOM     27  C   UNL d   1       1.740  -3.632   4.282  0.00  0.00     0.122 C 
BRANCH  27  28
ATOM     28  N   UNL d   1       2.104  -4.678   3.357  0.00  0.00    -0.367 N 
ATOM     29  C   UNL d   1       2.703  -4.489   2.166  0.00  0.00     0.143 C 
ATOM     30  N   UNL d   1       3.095  -3.383   1.653  0.00  0.00    -0.376 N 
ATOM     31  N   UNL d   1       2.887  -5.635   1.483  0.00  0.00    -0.274 NA
ATOM     32  H   UNL d   1       2.895  -2.619   2.297  0.00  0.00     0.158 HD
ATOM     33  HN  UNL d   1       3.539  -3.282   0.740  1.00  0.00     0.158 HD
ATOM     34  H   UNL d   1       2.075  -6.231   1.446  0.00  0.00     0.127 HD
ATOM     35  H   UNL d   1       3.212  -5.411   0.547  0.00  0.00     0.127 HD
ATOM     36  H   UNL d   1       1.859  -5.628   3.605  0.00  0.00     0.162 HD
ENDBRANCH  27  28
ENDBRANCH  26  27
ENDBRANCH  25  26
ENDBRANCH   1  25
TORSDOF 9
