REMARK  6 active torsions:
REMARK  status: ('A' for Active; 'I' for Inactive)
REMARK    1  A    between atoms: N_3  and  C_1 
REMARK    2  A    between atoms: C_2  and  N_3 
REMARK    3  A    between atoms: N_10  and  C_2 
REMARK    4  A    between atoms: C_15  and  N_10 
REMARK    5  A    between atoms: O_13  and  C_16 
REMARK    6  A    between atoms: C_16  and  C_15 
ROOT
ATOM      1  N   UNL d   1       2.690  -0.369  -0.299  0.00  0.00    -0.332 N 
ATOM      2  H   UNL d   1       2.836  -1.161  -0.927  0.00  0.00     0.168 HD
ENDROOT
BRANCH   1   3
ATOM      3  C   UNL d   1       3.829  -0.101   0.415  0.00  0.00     0.172 C 
ATOM      4  S   UNL d   1       3.956   0.231   2.048  0.00  0.00    -0.041 SA
BRANCH   3   5
ATOM      5  N   UNL d   1       4.982  -0.157  -0.330  0.00  0.00    -0.365 N 
ATOM      6  H   UNL d   1       5.827   0.052   0.188  0.00  0.00     0.161 HD
BRANCH   5   7
ATOM      7  C   UNL d   1       5.061  -0.228  -1.788  0.00  0.00     0.148 C 
BRANCH   7   8
ATOM      8  C   UNL d   1       4.963  -1.661  -2.327  0.00  0.00     0.183 C 
BRANCH   8   9
ATOM      9  O   UNL d   1       3.672  -2.216  -2.079  0.00  0.00    -0.399 OA
ATOM     10  H   UNL d   1       3.697  -3.135  -2.407  0.00  0.00     0.209 HD
ENDBRANCH   8   9
ENDBRANCH   7   8
ENDBRANCH   5   7
ENDBRANCH   3   5
ENDBRANCH   1   3
BRANCH   1  11
ATOM     11  C   UNL d   1       1.343  -0.132   0.050  0.00  0.00     0.046 A 
ATOM     12  C   UNL d   1       0.852   1.181   0.205  0.00  0.00    -0.034 A 
ATOM     13  C   UNL d   1      -0.543   1.381   0.255  0.00  0.00     0.015 A 
ATOM     14  C   UNL d   1       1.693   2.428   0.132  0.00  0.00     0.050 C 
ATOM     15  C   UNL d   1      -1.441   0.316   0.148  0.00  0.00    -0.061 A 
ATOM     16  C   UNL d   1      -0.940  -0.980   0.051  0.00  0.00     0.015 A 
ATOM     17  C   UNL d   1      -2.916   0.583   0.085  0.00  0.00     0.048 C 
ATOM     18  C   UNL d   1       0.444  -1.220   0.010  0.00  0.00    -0.034 A 
ATOM     19  C   UNL d   1       0.884  -2.660  -0.052  0.00  0.00     0.050 C 
ENDBRANCH   1  11
TORSDOF 6
