REMARK  8 active torsions:
REMARK  status: ('A' for Active; 'I' for Inactive)
REMARK    1  A    between atoms: C_7  and  N_1 
REMARK    2  A    between atoms: C_2  and  C_4 
REMARK    3  A    between atoms: C_3  and  C_6 
REMARK    4  A    between atoms: C_5  and  C_4 
REMARK    5  A    between atoms: O_12  and  C_4 
REMARK    6  A    between atoms: O_9  and  C_8 
REMARK    7  A    between atoms: C_14  and  O_9 
REMARK    8  A    between atoms: C_19  and  C_14 
ROOT
ATOM      1  C   UNL d   1       1.499  -0.587   1.175  0.00  0.00     0.190 C 
ENDROOT
BRANCH   1   2
ATOM      2  C   UNL d   1       0.635  -0.222   0.002  0.00  0.00     0.295 A 
ATOM      3  N   UNL d   1      -0.357   0.881   0.109  0.00  0.00     0.114 N 
ATOM      4  C   UNL d   1      -0.857  -0.506   0.048  0.00  0.00     0.293 A 
BRANCH   3   5
ATOM      5  C   UNL d   1      -0.405   1.695  -1.123  0.00  0.00     0.224 C 
ATOM      6  C   UNL d   1       0.865   2.562  -1.252  0.00  0.00     0.036 C 
ATOM      7  C   UNL d   1       0.930   3.729  -0.276  0.00  0.00     0.002 C 
ATOM      8  C   UNL d   1      -0.296   4.616  -0.420  0.00  0.00     0.000 C 
ATOM      9  C   UNL d   1      -1.574   3.813  -0.211  0.00  0.00     0.002 C 
ATOM     10  C   UNL d   1      -1.653   2.601  -1.143  0.00  0.00     0.036 C 
ENDBRANCH   3   5
BRANCH   4  11
ATOM     11  C   UNL d   1      -1.615  -1.056  -1.139  0.00  0.00    -0.023 A 
ATOM     12  C   UNL d   1      -0.984  -1.726  -2.209  0.00  0.00     0.011 A 
ATOM     13  C   UNL d   1      -1.715  -2.235  -3.286  0.00  0.00     0.024 A 
ATOM     14  C   UNL d   1      -3.098  -2.111  -3.303  0.00  0.00     0.034 A 
ATOM     15  C   UNL d   1      -3.758  -1.485  -2.252  0.00  0.00     0.024 A 
ATOM     16 CL   UNL d   1      -3.999  -2.747  -4.623  0.00  0.00    -0.084 Cl
ATOM     17  C   UNL d   1      -3.020  -0.961  -1.185  0.00  0.00     0.011 A 
ENDBRANCH   4  11
ENDBRANCH   1   2
BRANCH   1  18
ATOM     18  C   UNL d   1       2.229  -1.915   0.983  0.00  0.00     0.006 A 
ATOM     19  C   UNL d   1       3.257  -2.114   0.039  0.00  0.00     0.078 A 
ATOM     20  C   UNL d   1       3.959  -3.325   0.026  0.00  0.00     0.037 A 
ATOM     21  C   UNL d   1       3.616  -4.366   0.887  0.00  0.00     0.003 A 
ATOM     22  C   UNL d   1       2.571  -4.202   1.783  0.00  0.00     0.001 A 
ATOM     23  C   UNL d   1       1.889  -2.986   1.835  0.00  0.00     0.012 A 
BRANCH  19  24
ATOM     24  O   UNL d   1       3.525  -1.086  -0.832  0.00  0.00    -0.346 OA
BRANCH  24  25
ATOM     25  C   UNL d   1       4.367  -1.384  -1.959  0.00  0.00     0.214 C 
BRANCH  25  26
ATOM     26  C   UNL d   1       4.174  -0.401  -3.092  0.00  0.00    -0.034 A 
ATOM     27  C   UNL d   1       3.793   0.925  -2.868  0.00  0.00     0.009 A 
ATOM     28  C   UNL d   1       3.580   1.797  -3.938  0.00  0.00     0.001 A 
ATOM     29  C   UNL d   1       3.786   1.363  -5.246  0.00  0.00     0.000 A 
ATOM     30  C   UNL d   1       4.224   0.063  -5.483  0.00  0.00     0.001 A 
ATOM     31  C   UNL d   1       4.419  -0.813  -4.412  0.00  0.00     0.009 A 
ENDBRANCH  25  26
ENDBRANCH  24  25
ENDBRANCH  19  24
ENDBRANCH   1  18
BRANCH   1  32
ATOM     32  O   UNL d   1       2.428   0.468   1.443  0.00  0.00    -0.389 OA
ATOM     33  H   UNL d   1       3.217   0.055   1.829  0.00  0.00     0.210 HD
ENDBRANCH   1  32
TORSDOF 8
