REMARK  1 active torsions:
REMARK  status: ('A' for Active; 'I' for Inactive)
REMARK    1  A    between atoms: C_13  and  C_6 
ROOT
ATOM      1  C   UNL d   1       2.050   1.411   0.054  0.00  0.00     0.030 C 
ATOM      2  N   UNL d   1       0.962   1.459  -0.630  0.00  0.00    -0.357 N 
ATOM      3  HN  UNL d   1       0.938   2.174  -1.357  1.00  0.00     0.166 HD
ATOM      4  C   UNL d   1       2.539   0.426   1.052  0.00  0.00     0.079 C 
ATOM      5  S   UNL d   1       0.612  -1.572   1.139  0.00  0.00    -0.117 SA
ATOM      6  C   UNL d   1       2.266  -1.020   0.703  0.00  0.00     0.097 C 
ATOM      7  C   UNL d   1       2.924   2.589   0.108  0.00  0.00     0.020 A 
ATOM      8  C   UNL d   1      -0.200   0.673  -0.521  0.00  0.00     0.049 A 
ATOM      9  C   UNL d   1       2.126   1.080   2.362  0.00  0.00     0.188 C 
ATOM     10  C   UNL d   1      -0.459  -0.541   0.146  0.00  0.00     0.028 A 
ATOM     11  O   UNL d   1       2.842   2.337   2.553  0.00  0.00    -0.349 OA
ATOM     12  C   UNL d   1       3.298   2.965   1.411  0.00  0.00     0.081 A 
ATOM     13  C   UNL d   1       3.487   3.170  -1.021  0.00  0.00     0.016 A 
ATOM     14  C   UNL d   1      -1.303   1.321  -1.129  0.00  0.00     0.031 A 
ATOM     15  C   UNL d   1      -1.782  -1.056   0.141  0.00  0.00     0.021 A 
ATOM     16  C   UNL d   1       4.253   3.959   1.578  0.00  0.00     0.037 A 
ATOM     17  C   UNL d   1       4.475   4.139  -0.839  0.00  0.00     0.001 A 
ATOM     18  C   UNL d   1      -2.605   0.818  -1.095  0.00  0.00     0.002 A 
ATOM     19  C   UNL d   1      -2.844  -0.387  -0.464  0.00  0.00     0.002 A 
ATOM     20  C   UNL d   1       4.854   4.531   0.453  0.00  0.00     0.003 A 
ENDROOT
BRANCH   6  21
ATOM     21  C   UNL d   1       3.389  -1.829   1.374  0.00  0.00    -0.043 A 
ATOM     22  C   UNL d   1       4.635  -1.920   0.713  0.00  0.00     0.008 A 
ATOM     23  C   UNL d   1       5.768  -2.401   1.377  0.00  0.00     0.001 A 
ATOM     24  C   UNL d   1       5.670  -2.824   2.700  0.00  0.00     0.000 A 
ATOM     25  C   UNL d   1       4.441  -2.784   3.354  0.00  0.00     0.001 A 
ATOM     26  C   UNL d   1       3.313  -2.287   2.698  0.00  0.00     0.008 A 
ENDBRANCH   6  21
TORSDOF 1
