REMARK  10 active torsions:
REMARK  status: ('A' for Active; 'I' for Inactive)
REMARK    1  A    between atoms: C_9  and  C_3 
REMARK    2  A    between atoms: C_18  and  C_6 
REMARK    3  A    between atoms: C_8  and  N_11 
REMARK    4  A    between atoms: N_15  and  C_8 
REMARK    5  A    between atoms: C_10  and  C_19 
REMARK       I    between atoms: N_13  and  C_10 
REMARK    6  A    between atoms: N_11  and  N_13 
REMARK    7  A    between atoms: C_24  and  N_15 
REMARK    8  A    between atoms: C_19  and  C_18 
REMARK    9  A    between atoms: C_26  and  C_24 
REMARK   10  A    between atoms: C_25  and  C_26 
ROOT
ATOM      1  C   UNL d   1       3.082  -3.756   0.139  0.00  0.00     0.236 C 
ATOM      2  N   UNL d   1       2.375  -4.927   0.323  0.00  0.00    -0.268 N 
ATOM      3  O   UNL d   1       2.553  -2.688  -0.162  0.00  0.00    -0.272 OA
ATOM      4  H   UNL d   1       2.842  -5.824   0.425  0.00  0.00     0.190 HD
ENDROOT
BRANCH   1   5
ATOM      5  C   UNL d   1       4.584  -3.911   0.264  0.00  0.00     0.112 C 
BRANCH   5   6
ATOM      6  C   UNL d   1       5.170  -2.963   1.301  0.00  0.00     0.096 C 
BRANCH   6   7
ATOM      7  C   UNL d   1       4.747  -3.292   2.683  0.00  0.00     0.148 A 
ATOM      8  N   UNL d   1       3.940  -4.230   3.119  0.00  0.00    -0.323 N 
ATOM      9  C   UNL d   1       3.910  -3.993   4.479  0.00  0.00     0.137 A 
ATOM     10  HN  UNL d   1       3.456  -4.952   2.586  1.00  0.00     0.169 HD
ATOM     11  N   UNL d   1       4.704  -2.984   4.876  0.00  0.00    -0.242 N 
ATOM     12  O   UNL d   1       5.258  -2.516   3.678  0.00  0.00    -0.223 OA
ATOM     13  HN  UNL d   1       4.864  -2.640   5.823  1.00  0.00     0.196 HD
BRANCH   9  14
ATOM     14  C   UNL d   1       3.066  -4.770   5.382  0.00  0.00     0.010 A 
ATOM     15  C   UNL d   1       2.225  -5.761   4.863  0.00  0.00     0.017 A 
ATOM     16  C   UNL d   1       1.377  -6.503   5.691  0.00  0.00     0.025 A 
ATOM     17  C   UNL d   1       1.378  -6.265   7.060  0.00  0.00     0.034 A 
ATOM     18  C   UNL d   1       2.214  -5.291   7.602  0.00  0.00     0.025 A 
ATOM     19 CL   UNL d   1       0.345  -7.180   8.087  0.00  0.00    -0.084 Cl
ATOM     20  C   UNL d   1       3.053  -4.542   6.766  0.00  0.00     0.017 A 
ENDBRANCH   9  14
ENDBRANCH   6   7
ENDBRANCH   5   6
ENDBRANCH   1   5
BRANCH   2  21
ATOM     21  N   UNL d   1       1.045  -4.968  -0.109  0.00  0.00    -0.274 N 
ATOM     22  H   UNL d   1       0.690  -4.093  -0.499  0.00  0.00     0.189 HD
BRANCH  21  23
ATOM     23  C   UNL d   1       0.134  -5.848   0.419  0.00  0.00     0.186 C 
ATOM     24  S   UNL d   1       0.317  -6.793   1.776  0.00  0.00    -0.040 SA
BRANCH  23  25
ATOM     25  N   UNL d   1      -0.991  -6.045  -0.337  0.00  0.00    -0.366 N 
ATOM     26  H   UNL d   1      -1.623  -6.723   0.077  0.00  0.00     0.161 HD
BRANCH  25  27
ATOM     27  C   UNL d   1      -0.979  -5.996  -1.794  0.00  0.00     0.126 C 
BRANCH  27  28
ATOM     28  C   UNL d   1       0.040  -6.973  -2.400  0.00  0.00     0.058 C 
BRANCH  28  29
ATOM     29  C   UNL d   1       0.070  -6.884  -3.900  0.00  0.00    -0.057 A 
ATOM     30  C   UNL d   1       0.891  -5.945  -4.537  0.00  0.00     0.007 A 
ATOM     31  C   UNL d   1       0.899  -5.843  -5.927  0.00  0.00     0.001 A 
ATOM     32  C   UNL d   1       0.085  -6.677  -6.692  0.00  0.00     0.000 A 
ATOM     33  C   UNL d   1      -0.736  -7.613  -6.064  0.00  0.00     0.001 A 
ATOM     34  C   UNL d   1      -0.746  -7.717  -4.675  0.00  0.00     0.007 A 
ENDBRANCH  28  29
ENDBRANCH  27  28
ENDBRANCH  25  27
ENDBRANCH  23  25
ENDBRANCH  21  23
ENDBRANCH   2  21
TORSDOF 10
