REMARK  2 active torsions:
REMARK  status: ('A' for Active; 'I' for Inactive)
REMARK    1  A    between atoms: C_2  and  N_1 
REMARK       I    between atoms: C_3  and  N_1 
REMARK    2  A    between atoms: C_8  and  C_5 
ROOT
ATOM      1  C   UNL d   1       0.412  -0.178   1.321  0.00  0.00     0.041 A 
ATOM      2  C   UNL d   1       0.774   0.487   2.509  0.00  0.00    -0.032 A 
ATOM      3  C   UNL d   1      -0.751  -0.961   1.278  0.00  0.00     0.030 A 
ATOM      4  C   UNL d   1      -0.067   0.357   3.629  0.00  0.00     0.009 A 
ATOM      5  C   UNL d   1      -1.566  -1.082   2.402  0.00  0.00     0.002 A 
ATOM      6  C   UNL d   1      -1.223  -0.425   3.577  0.00  0.00     0.001 A 
ENDROOT
BRANCH   1   7
ATOM      7  N   UNL d   1       1.259  -0.118   0.204  0.00  0.00    -0.327 N 
ATOM      8  C   UNL d   1       0.939   0.024  -1.115  0.00  0.00     0.218 C 
ATOM      9  O   UNL d   1       1.814  -0.139  -1.971  0.00  0.00    -0.274 OA
ATOM     10  C   UNL d   1      -0.440   0.487  -1.503  0.00  0.00     0.117 C 
ATOM     11  H   UNL d   1       2.257  -0.148   0.371  0.00  0.00     0.169 HD
ENDBRANCH   1   7
BRANCH   2  12
ATOM     12  C   UNL d   1       1.927   1.470   2.569  0.00  0.00     0.036 C 
ATOM     13  C   UNL d   1       2.934   1.198   3.676  0.00  0.00     0.010 C 
ENDBRANCH   2  12
TORSDOF 2
