REMARK  6 active torsions:
REMARK  status: ('A' for Active; 'I' for Inactive)
REMARK    1  A    between atoms: C_13  and  N_1 
REMARK    2  A    between atoms: C_2  and  N_17 
REMARK    3  A    between atoms: C_3  and  C_5 
REMARK    4  A    between atoms: C_4  and  C_14 
REMARK    5  A    between atoms: C_16  and  C_6 
REMARK    6  A    between atoms: N_17  and  N_11 
ROOT
ATOM      1  N   UNL d   1       2.197  -2.761  -0.543  0.00  0.00    -0.326 N 
ATOM      2  HN  UNL d   1       1.325  -3.226  -0.797  1.00  0.00     0.180 HD
ATOM      3  C   UNL d   1       2.236  -1.575  -0.029  0.00  0.00     0.131 C 
ENDROOT
BRANCH   1   4
ATOM      4  N   UNL d   1       3.420  -3.336  -0.717  0.00  0.00    -0.203 NA
ATOM      5  H   UNL d   1       3.714  -3.905   0.087  0.00  0.00     0.153 HD
BRANCH   4   6
ATOM      6  C   UNL d   1       3.530  -4.148  -1.893  0.00  0.00     0.071 A 
ATOM      7  C   UNL d   1       3.044  -3.762  -3.162  0.00  0.00     0.059 A 
ATOM      8  C   UNL d   1       3.219  -4.587  -4.282  0.00  0.00     0.042 A 
ATOM      9 CL   UNL d   1       2.264  -2.244  -3.471  0.00  0.00    -0.082 Cl
ATOM     10  C   UNL d   1       3.913  -5.799  -4.189  0.00  0.00     0.051 A 
ATOM     11  C   UNL d   1       4.435  -6.176  -2.946  0.00  0.00     0.042 A 
ATOM     12  C   UNL d   1       4.252  -5.360  -1.823  0.00  0.00     0.059 A 
ATOM     13 CL   UNL d   1       4.929  -5.896  -0.321  0.00  0.00    -0.082 Cl
BRANCH  10  14
ATOM     14  C   UNL d   1       4.126  -6.670  -5.401  0.00  0.00     0.417 C 
ATOM     15  F   UNL d   1       3.507  -6.204  -6.520  0.00  0.00    -0.166 F 
ATOM     16  F   UNL d   1       5.443  -6.787  -5.723  0.00  0.00    -0.166 F 
ATOM     17  F   UNL d   1       3.668  -7.937  -5.217  0.00  0.00    -0.166 F 
ENDBRANCH  10  14
ENDBRANCH   4   6
ENDBRANCH   1   4
BRANCH   3  18
ATOM     18  C   UNL d   1       1.051  -0.763   0.109  0.00  0.00     0.055 C 
ATOM     19  N   UNL d   1      -0.288  -1.159   0.066  0.00  0.00    -0.321 N 
ATOM     20  C   UNL d   1      -1.052  -0.007  -0.067  0.00  0.00     0.097 C 
ATOM     21  C   UNL d   1      -0.243   1.098   0.035  0.00  0.00     0.020 C 
ATOM     22  C   UNL d   1       1.074   0.625   0.174  0.00  0.00     0.033 C 
BRANCH  19  23
ATOM     23  C   UNL d   1      -0.851  -2.468   0.189  0.00  0.00     0.039 A 
ATOM     24  C   UNL d   1      -0.209  -3.459   0.941  0.00  0.00     0.031 A 
ATOM     25  C   UNL d   1      -0.777  -4.731   1.071  0.00  0.00     0.018 A 
ATOM     26  C   UNL d   1      -2.010  -5.029   0.475  0.00  0.00     0.048 A 
ATOM     27  C   UNL d   1      -2.660  -4.030  -0.261  0.00  0.00     0.018 A 
ATOM     28  C   UNL d   1      -2.090  -2.760  -0.400  0.00  0.00     0.031 A 
BRANCH  26  29
ATOM     29  C   UNL d   1      -2.611  -6.403   0.638  0.00  0.00     0.417 C 
ATOM     30  F   UNL d   1      -3.839  -6.535   0.063  0.00  0.00    -0.166 F 
ATOM     31  F   UNL d   1      -1.837  -7.381   0.090  0.00  0.00    -0.166 F 
ATOM     32  F   UNL d   1      -2.775  -6.747   1.946  0.00  0.00    -0.166 F 
ENDBRANCH  26  29
ENDBRANCH  19  23
ENDBRANCH   3  18
TORSDOF 6
