REMARK  6 active torsions:
REMARK  status: ('A' for Active; 'I' for Inactive)
REMARK    1  A    between atoms: C_3  and  C_1 
REMARK    2  A    between atoms: C_2  and  C_4 
REMARK       I    between atoms: N_16  and  C_3 
REMARK       I    between atoms: C_4  and  N_15 
REMARK    3  A    between atoms: C_22  and  C_9 
REMARK    4  A    between atoms: C_21  and  C_10 
REMARK    5  A    between atoms: N_15  and  C_18 
REMARK    6  A    between atoms: C_17  and  N_16 
ROOT
ATOM      1  C   UNL d   1      -1.832  -3.400  -0.577  0.00  0.00     0.107 C 
ATOM      2  C   UNL d   1      -2.427  -4.838  -0.795  0.00  0.00     0.107 C 
ATOM      3  C   UNL d   1      -2.138  -5.298  -2.239  0.00  0.00     0.027 C 
ATOM      4  C   UNL d   1      -2.288  -2.418  -1.669  0.00  0.00     0.027 C 
ATOM      5  C   UNL d   1      -2.029  -2.928  -3.079  0.00  0.00     0.002 C 
ATOM      6  C   UNL d   1      -2.633  -4.310  -3.292  0.00  0.00     0.002 C 
ENDROOT
BRANCH   1   7
ATOM      7  N   UNL d   1      -0.363  -3.372  -0.412  0.00  0.00    -0.350 N 
ATOM      8  C   UNL d   1       0.184  -3.323   0.854  0.00  0.00     0.257 C 
ATOM      9  O   UNL d   1      -0.536  -3.250   1.846  0.00  0.00    -0.267 OA
ATOM     10  H   UNL d   1       0.238  -3.560  -1.206  0.00  0.00     0.163 HD
BRANCH   8  11
ATOM     11  C   UNL d   1       1.620  -3.473   1.004  0.00  0.00     0.092 A 
ATOM     12  C   UNL d   1       2.790  -2.961   0.344  0.00  0.00     0.083 A 
ATOM     13  N   UNL d   1       3.895  -3.454   0.941  0.00  0.00    -0.259 N 
ATOM     14  O   UNL d   1       3.490  -4.209   1.998  0.00  0.00    -0.241 OA
ATOM     15  HN  UNL d   1       4.859  -3.291   0.651  1.00  0.00     0.195 HD
ATOM     16  C   UNL d   1       2.144  -4.215   2.053  0.00  0.00     0.090 A 
ATOM     17  C   UNL d   1       1.557  -4.981   3.171  0.00  0.00     0.080 C 
BRANCH  12  18
ATOM     18  C   UNL d   1       3.006  -1.987  -0.740  0.00  0.00    -0.006 A 
ATOM     19  C   UNL d   1       4.246  -1.993  -1.418  0.00  0.00     0.014 A 
ATOM     20  C   UNL d   1       4.590  -0.990  -2.329  0.00  0.00     0.001 A 
ATOM     21  C   UNL d   1       3.691   0.035  -2.590  0.00  0.00     0.000 A 
ATOM     22  C   UNL d   1       2.451   0.043  -1.950  0.00  0.00     0.001 A 
ATOM     23  C   UNL d   1       2.108  -0.959  -1.029  0.00  0.00     0.014 A 
ENDBRANCH  12  18
ENDBRANCH   8  11
ENDBRANCH   1   7
BRANCH   2  24
ATOM     24  N   UNL d   1      -3.854  -4.854  -0.372  0.00  0.00    -0.350 N 
ATOM     25  C   UNL d   1      -4.869  -5.648  -0.871  0.00  0.00     0.257 C 
ATOM     26  O   UNL d   1      -4.730  -6.436  -1.799  0.00  0.00    -0.267 OA
ATOM     27  H   UNL d   1      -4.056  -4.386   0.503  0.00  0.00     0.163 HD
BRANCH  25  28
ATOM     28  C   UNL d   1      -6.173  -5.434  -0.274  0.00  0.00     0.092 A 
ATOM     29  C   UNL d   1      -7.402  -5.130  -0.953  0.00  0.00     0.083 A 
ATOM     30  N   UNL d   1      -8.422  -5.079  -0.085  0.00  0.00    -0.259 N 
ATOM     31  O   UNL d   1      -7.890  -5.349   1.154  0.00  0.00    -0.241 OA
ATOM     32  HN  UNL d   1      -9.399  -4.880  -0.300  1.00  0.00     0.195 HD
ATOM     33  C   UNL d   1      -6.553  -5.568   1.047  0.00  0.00     0.090 A 
ATOM     34  C   UNL d   1      -5.896  -5.940   2.311  0.00  0.00     0.080 C 
BRANCH  29  35
ATOM     35  C   UNL d   1      -7.624  -4.864  -2.373  0.00  0.00    -0.006 A 
ATOM     36  C   UNL d   1      -6.745  -4.041  -3.089  0.00  0.00     0.014 A 
ATOM     37  C   UNL d   1      -6.947  -3.799  -4.451  0.00  0.00     0.001 A 
ATOM     38  C   UNL d   1      -8.041  -4.362  -5.103  0.00  0.00     0.000 A 
ATOM     39  C   UNL d   1      -8.938  -5.161  -4.396  0.00  0.00     0.001 A 
ATOM     40  C   UNL d   1      -8.732  -5.409  -3.035  0.00  0.00     0.014 A 
ENDBRANCH  29  35
ENDBRANCH  25  28
ENDBRANCH   2  24
TORSDOF 6
