REMARK  0 active torsions:
REMARK  status: ('A' for Active; 'I' for Inactive)
ROOT
ATOM      1  C   UNL d   1       1.103  -0.947  -0.002  0.00  0.00     0.137 A 
ATOM      2  N   UNL d   1       0.715   0.399  -0.001  0.00  0.00    -0.261 N 
ATOM      3  C   UNL d   1       2.407  -1.282  -0.001  0.00  0.00     0.095 A 
ATOM      4  C   UNL d   1       1.584   1.466  -0.001  0.00  0.00     0.254 A 
ATOM      5  N   UNL d   1      -0.022  -1.750  -0.002  0.00  0.00    -0.339 N 
ATOM      6  C   UNL d   1       3.416  -0.218  -0.001  0.00  0.00    -0.032 A 
ATOM      7  C   UNL d   1       3.026   1.073  -0.001  0.00  0.00     0.083 A 
ATOM      8  C   UNL d   1      -0.701   0.437  -0.001  0.00  0.00     0.071 A 
ATOM      9  C   UNL d   1      -1.136  -0.910  -0.000  0.00  0.00     0.061 A 
ATOM     10  C   UNL d   1       2.773  -2.658  -0.001  0.00  0.00     0.104 C 
ATOM     11  N   UNL d   1       3.052  -3.784   0.000  0.00  0.00    -0.191 NA
ATOM     12  O   UNL d   1       1.291   2.657  -0.001  0.00  0.00    -0.268 OA
ATOM     13  C   UNL d   1       4.884  -0.555   0.001  0.00  0.00     0.050 C 
ATOM     14  C   UNL d   1      -1.594   1.487  -0.000  0.00  0.00     0.032 A 
ATOM     15  C   UNL d   1      -2.472  -1.234   0.000  0.00  0.00     0.032 A 
ATOM     16  C   UNL d   1      -2.957   1.163   0.000  0.00  0.00     0.002 A 
ATOM     17  C   UNL d   1      -3.390  -0.180   0.000  0.00  0.00     0.002 A 
ATOM     18  H   UNL d   1      -0.028  -2.755   0.002  0.00  0.00     0.167 HD
ENDROOT
TORSDOF 0
