REMARK  3 active torsions:
REMARK  status: ('A' for Active; 'I' for Inactive)
REMARK    1  A    between atoms: N_6  and  C_2 
REMARK    2  A    between atoms: C_10  and  C_3 
REMARK       I    between atoms: C_9  and  N_6 
REMARK    3  A    between atoms: C_14  and  C_9 
ROOT
ATOM      1  S   UNL d   1       1.109  -0.171   0.135  0.00  0.00    -0.037 SA
ATOM      2  C   UNL d   1       0.076   1.172  -0.038  0.00  0.00     0.168 A 
ATOM      3  C   UNL d   1      -0.285  -1.165   0.082  0.00  0.00     0.074 A 
ATOM      4  N   UNL d   1      -1.411  -0.496  -0.059  0.00  0.00    -0.296 N 
ATOM      5  HN  UNL d   1      -2.331  -0.933  -0.115  1.00  0.00     0.187 HD
ATOM      6  N   UNL d   1      -1.200   0.866  -0.120  0.00  0.00    -0.279 N 
ATOM      7  HN  UNL d   1      -1.946   1.554  -0.219  1.00  0.00     0.189 HD
ENDROOT
BRANCH   2   8
ATOM      8  N   UNL d   1       0.504   2.478  -0.057  0.00  0.00    -0.302 N 
ATOM      9  C   UNL d   1       1.806   2.920  -0.060  0.00  0.00     0.257 C 
ATOM     10  O   UNL d   1       2.818   2.231  -0.117  0.00  0.00    -0.267 OA
ATOM     11  H   UNL d   1      -0.255   3.138  -0.151  0.00  0.00     0.171 HD
BRANCH   9  12
ATOM     12  C   UNL d   1       1.964   4.406  -0.031  0.00  0.00     0.032 A 
ATOM     13  C   UNL d   1       1.072   5.237   0.662  0.00  0.00     0.017 A 
ATOM     14  C   UNL d   1       1.272   6.620   0.677  0.00  0.00     0.001 A 
ATOM     15  C   UNL d   1       2.362   7.178   0.008  0.00  0.00     0.000 A 
ATOM     16  C   UNL d   1       3.258   6.355  -0.674  0.00  0.00     0.001 A 
ATOM     17  C   UNL d   1       3.063   4.973  -0.690  0.00  0.00     0.017 A 
ENDBRANCH   9  12
ENDBRANCH   2   8
BRANCH   3  18
ATOM     18  C   UNL d   1      -0.321  -2.691   0.191  0.00  0.00     0.044 A 
ATOM     19  C   UNL d   1       0.651  -3.411   1.104  0.00  0.00     0.012 A 
ATOM     20  C   UNL d   1       0.804  -3.534  -0.374  0.00  0.00     0.012 A 
ENDBRANCH   3  18
TORSDOF 3
