REMARK  4 active torsions:
REMARK  status: ('A' for Active; 'I' for Inactive)
REMARK    1  A    between atoms: C_8  and  C_1 
REMARK    2  A    between atoms: O_17  and  C_7 
REMARK    3  A    between atoms: C_10  and  C_8 
REMARK    4  A    between atoms: O_18  and  C_11 
ROOT
ATOM      1  C   UNL d   1       3.655   3.398  -1.863  0.00  0.00     0.123 A 
ATOM      2  C   UNL d   1       2.413   2.720  -1.940  0.00  0.00     0.076 A 
ATOM      3  C   UNL d   1       1.255   3.237  -1.313  0.00  0.00    -0.032 A 
ATOM      4  C   UNL d   1       3.687   4.679  -1.274  0.00  0.00     0.103 A 
ATOM      5  C   UNL d   1       1.316   4.511  -0.738  0.00  0.00     0.012 A 
ATOM      6  C   UNL d   1       2.508   5.226  -0.746  0.00  0.00     0.040 A 
ATOM      7 CL   UNL d   1       2.226   1.283  -2.913  0.00  0.00    -0.081 Cl
ENDROOT
BRANCH   3   8
ATOM      8  C   UNL d   1      -0.033   2.451  -1.175  0.00  0.00     0.065 C 
BRANCH   8   9
ATOM      9  C   UNL d   1      -0.143   1.665   0.146  0.00  0.00     0.189 C 
ATOM     10  C   UNL d   1       0.968   0.681   0.317  0.00  0.00     0.275 C 
ATOM     11  O   UNL d   1       0.768  -0.538  -0.191  0.00  0.00    -0.283 OA
ATOM     12  O   UNL d   1       2.054   0.996   0.791  0.00  0.00    -0.264 OA
ATOM     13  C   UNL d   1      -0.523  -1.123  -0.072  0.00  0.00     0.175 C 
ATOM     14  O   UNL d   1      -1.636  -0.231  -0.093  0.00  0.00    -0.283 OA
ATOM     15  C   UNL d   1      -0.579  -1.934   1.225  0.00  0.00     0.079 C 
ATOM     16  C   UNL d   1      -0.687  -2.055  -1.272  0.00  0.00     0.079 C 
ATOM     17  C   UNL d   1      -1.501   1.066   0.204  0.00  0.00     0.275 C 
ATOM     18  O   UNL d   1      -2.493   1.760   0.418  0.00  0.00    -0.264 OA
ENDBRANCH   8   9
ENDBRANCH   3   8
BRANCH   1  19
ATOM     19  O   UNL d   1       4.818   2.915  -2.409  0.00  0.00    -0.351 OA
ATOM     20  C   UNL d   1       5.128   1.545  -2.152  0.00  0.00     0.210 C 
ENDBRANCH   1  19
BRANCH   4  21
ATOM     21  O   UNL d   1       4.740   5.544  -1.131  0.00  0.00    -0.353 OA
ATOM     22  C   UNL d   1       6.045   5.127  -1.494  0.00  0.00     0.210 C 
ENDBRANCH   4  21
TORSDOF 4
