REMARK  3 active torsions:
REMARK  status: ('A' for Active; 'I' for Inactive)
REMARK    1  A    between atoms: C_10  and  N_1 
REMARK    2  A    between atoms: C_7  and  C_2 
REMARK    3  A    between atoms: N_9  and  C_8 
ROOT
ATOM      1  N   UNL d   1       0.030  -0.866   1.025  0.00  0.00    -0.225 N 
ATOM      2  C   UNL d   1       1.076  -0.759   0.111  0.00  0.00     0.139 A 
ATOM      3  N   UNL d   1      -0.724   0.019  -0.780  0.00  0.00    -0.007 NA
ATOM      4  N   UNL d   1      -1.101  -0.445   0.399  0.00  0.00     0.001 NA
ATOM      5  N   UNL d   1       0.613  -0.171  -0.977  0.00  0.00    -0.270 N 
ATOM      6  HN  UNL d   1       1.150   0.090  -1.804  1.00  0.00     0.185 HD
ENDROOT
BRANCH   1   7
ATOM      7  C   UNL d   1      -0.019  -1.278   2.387  0.00  0.00     0.056 A 
ATOM      8  C   UNL d   1       1.124  -1.298   3.200  0.00  0.00     0.034 A 
ATOM      9  C   UNL d   1       1.021  -1.662   4.547  0.00  0.00     0.044 A 
ATOM     10  C   UNL d   1      -0.214  -2.018   5.075  0.00  0.00     0.116 A 
ATOM     11  C   UNL d   1      -1.355  -2.010   4.286  0.00  0.00     0.044 A 
ATOM     12  F   UNL d   1      -0.304  -2.363   6.366  0.00  0.00    -0.206 F 
ATOM     13  C   UNL d   1      -1.263  -1.629   2.945  0.00  0.00     0.034 A 
ENDBRANCH   1   7
BRANCH   2  14
ATOM     14  C   UNL d   1       2.353  -1.320   0.330  0.00  0.00     0.068 C 
ATOM     15  C   UNL d   1       2.614  -2.571  -0.077  0.00  0.00     0.089 C 
BRANCH  15  16
ATOM     16  N   UNL d   1       3.792  -3.285   0.002  0.00  0.00    -0.390 N 
ATOM     17  C   UNL d   1       5.059  -2.800   0.546  0.00  0.00     0.122 C 
ATOM     18  C   UNL d   1       6.107  -3.467  -0.333  0.00  0.00     0.021 C 
ATOM     19  C   UNL d   1       5.498  -4.829  -0.614  0.00  0.00     0.021 C 
ATOM     20  C   UNL d   1       4.002  -4.548  -0.722  0.00  0.00     0.122 C 
ENDBRANCH  15  16
ENDBRANCH   2  14
TORSDOF 3
