REMARK  5 active torsions:
REMARK  status: ('A' for Active; 'I' for Inactive)
REMARK    1  A    between atoms: C_7  and  N_1 
REMARK    2  A    between atoms: C_4  and  C_2 
REMARK       I    between atoms: N_8  and  C_4 
REMARK    3  A    between atoms: C_9  and  C_7 
REMARK    4  A    between atoms: C_16  and  N_8 
REMARK    5  A    between atoms: C_18  and  C_16 
ROOT
ATOM      1  N   UNL d   1       0.021  -0.977   0.190  0.00  0.00    -0.345 N 
ATOM      2  C   UNL d   1      -1.447   0.769  -0.243  0.00  0.00     0.104 C 
ATOM      3  C   UNL d   1       0.815   0.152   0.146  0.00  0.00     0.221 C 
ATOM      4  C   UNL d   1      -1.389  -0.673   0.214  0.00  0.00     0.140 C 
ATOM      5  C   UNL d   1      -0.092   1.358   0.147  0.00  0.00     0.118 C 
ATOM      6  O   UNL d   1       2.033   0.185   0.101  0.00  0.00    -0.273 OA
ENDROOT
BRANCH   2   7
ATOM      7  C   UNL d   1      -1.744   0.891  -1.732  0.00  0.00     0.224 C 
ATOM      8  N   UNL d   1      -0.739   0.538  -2.606  0.00  0.00    -0.356 N 
ATOM      9  H   UNL d   1      -0.023  -0.106  -2.291  0.00  0.00     0.162 HD
ATOM     10  O   UNL d   1      -2.846   1.280  -2.116  0.00  0.00    -0.273 OA
BRANCH   8  11
ATOM     11  C   UNL d   1      -0.974   0.601  -4.033  0.00  0.00     0.161 C 
BRANCH  11  12
ATOM     12  C   UNL d   1       0.281   0.689  -4.872  0.00  0.00    -0.040 A 
ATOM     13  C   UNL d   1       0.244   0.210  -6.195  0.00  0.00     0.012 A 
ATOM     14  C   UNL d   1       1.344   0.362  -7.043  0.00  0.00     0.043 A 
ATOM     15  C   UNL d   1       2.485   0.998  -6.576  0.00  0.00     0.116 A 
ATOM     16  C   UNL d   1       2.548   1.484  -5.276  0.00  0.00     0.043 A 
ATOM     17  F   UNL d   1       3.534   1.158  -7.394  0.00  0.00    -0.206 F 
ATOM     18  C   UNL d   1       1.445   1.338  -4.427  0.00  0.00     0.012 A 
ENDBRANCH  11  12
ENDBRANCH   8  11
ENDBRANCH   2   7
BRANCH   1  19
ATOM     19  C   UNL d   1       0.524  -2.337   0.194  0.00  0.00     0.190 C 
BRANCH  19  20
ATOM     20  C   UNL d   1       0.336  -2.909  -1.161  0.00  0.00     0.070 A 
ATOM     21  O   UNL d   1      -0.836  -3.573  -1.390  0.00  0.00    -0.325 OA
ATOM     22  C   UNL d   1      -0.823  -3.967  -2.688  0.00  0.00     0.142 A 
ATOM     23  C   UNL d   1       0.342  -3.571  -3.300  0.00  0.00     0.027 A 
ATOM     24  C   UNL d   1       1.094  -2.888  -2.313  0.00  0.00     0.036 A 
ENDBRANCH  19  20
ENDBRANCH   1  19
TORSDOF 5
