REMARK  3 active torsions:
REMARK  status: ('A' for Active; 'I' for Inactive)
REMARK    1  A    between atoms: N_7  and  C_1 
REMARK    2  A    between atoms: N_6  and  C_12 
REMARK       I    between atoms: C_9  and  N_7 
REMARK    3  A    between atoms: C_12  and  C_9 
ROOT
ATOM      1  C   UNL d   1       3.791   1.091   1.812  0.00  0.00     0.098 A 
ATOM      2  C   UNL d   1       3.174   1.821   2.830  0.00  0.00     0.085 A 
ATOM      3  S   UNL d   1       5.282   1.824   1.345  0.00  0.00    -0.075 SA
ATOM      4  C   UNL d   1       4.011   2.877   3.280  0.00  0.00    -0.021 A 
ATOM      5  C   UNL d   1       5.172   2.946   2.565  0.00  0.00    -0.007 A 
ATOM      6  C   UNL d   1       1.902   1.490   3.402  0.00  0.00     0.103 C 
ATOM      7  N   UNL d   1       0.876   1.209   3.858  0.00  0.00    -0.191 NA
ATOM      8  C   UNL d   1       3.997   3.909   4.352  0.00  0.00     0.042 C 
ATOM      9  C   UNL d   1       6.132   3.973   3.023  0.00  0.00     0.047 C 
ATOM     10  C   UNL d   1       5.483   4.403   4.372  0.00  0.00     0.010 C 
ENDROOT
BRANCH   1  11
ATOM     11  N   UNL d   1       3.364  -0.089   1.198  0.00  0.00    -0.319 N 
ATOM     12  C   UNL d   1       4.138  -0.882   0.356  0.00  0.00     0.235 C 
ATOM     13  O   UNL d   1       5.252  -0.613  -0.093  0.00  0.00    -0.272 OA
ATOM     14  H   UNL d   1       2.452  -0.458   1.457  0.00  0.00     0.169 HD
BRANCH  12  15
ATOM     15  C   UNL d   1       3.514  -2.243   0.021  0.00  0.00     0.198 C 
BRANCH  15  16
ATOM     16  N   UNL d   1       2.344  -2.154  -0.875  0.00  0.00    -0.274 NA
ATOM     17  C   UNL d   1       2.041  -3.410  -1.481  0.00  0.00     0.017 A 
ATOM     18  C   UNL d   1       1.743  -3.308  -2.841  0.00  0.00    -0.036 A 
ATOM     19  C   UNL d   1       2.017  -4.656  -0.870  0.00  0.00     0.024 A 
ATOM     20  C   UNL d   1       1.434  -4.418  -3.616  0.00  0.00     0.009 A 
ATOM     21  C   UNL d   1       1.809  -1.889  -3.271  0.00  0.00     0.055 C 
ATOM     22  C   UNL d   1       1.431  -5.670  -3.005  0.00  0.00     0.001 A 
ATOM     23  C   UNL d   1       1.718  -5.789  -1.639  0.00  0.00     0.002 A 
ATOM     24  C   UNL d   1       2.458  -1.236  -2.041  0.00  0.00     0.101 C 
ENDBRANCH  15  16
ENDBRANCH  12  15
ENDBRANCH   1  11
TORSDOF 3
