REMARK  7 active torsions:
REMARK  status: ('A' for Active; 'I' for Inactive)
REMARK    1  A    between atoms: C_9  and  N_1 
REMARK    2  A    between atoms: S_10  and  C_2 
REMARK    3  A    between atoms: C_7  and  C_11 
REMARK    4  A    between atoms: C_13  and  S_10 
REMARK    5  A    between atoms: C_11  and  C_13 
REMARK    6  A    between atoms: O_18  and  C_11 
REMARK    7  A    between atoms: C_22  and  C_14 
ROOT
ATOM      1  N   UNL d   1       2.364  -0.722   0.068  0.00  0.00    -0.257 N 
ATOM      2  C   UNL d   1       2.303   0.665  -0.021  0.00  0.00     0.154 A 
ATOM      3  C   UNL d   1       1.212  -1.486   0.268  0.00  0.00     0.266 A 
ATOM      4  N   UNL d   1       1.193   1.340  -0.006  0.00  0.00    -0.335 N 
ATOM      5  HN  UNL d   1       1.202   2.359  -0.045  1.00  0.00     0.168 HD
ATOM      6  C   UNL d   1      -0.064  -0.745   0.221  0.00  0.00     0.059 A 
ATOM      7  C   UNL d   1      -0.009   0.642   0.065  0.00  0.00     0.049 A 
ATOM      8  O   UNL d   1       1.180  -2.695   0.464  0.00  0.00    -0.267 OA
ATOM      9  C   UNL d   1      -1.291  -1.413   0.282  0.00  0.00     0.019 A 
ATOM     10  C   UNL d   1      -1.210   1.354  -0.036  0.00  0.00     0.030 A 
ATOM     11  C   UNL d   1      -2.475  -0.694   0.177  0.00  0.00     0.001 A 
ATOM     12  C   UNL d   1      -2.437   0.694   0.009  0.00  0.00     0.002 A 
ENDROOT
BRANCH   2  13
ATOM     13  S   UNL d   1       3.797   1.576  -0.165  0.00  0.00    -0.090 SA
BRANCH  13  14
ATOM     14  C   UNL d   1       3.206   3.248  -0.540  0.00  0.00     0.123 C 
BRANCH  14  15
ATOM     15  C   UNL d   1       2.651   4.084   0.617  0.00  0.00     0.235 C 
BRANCH  15  16
ATOM     16  C   UNL d   1       3.603   4.196   1.819  0.00  0.00     0.413 C 
ATOM     17  F   UNL d   1       4.892   3.960   1.502  0.00  0.00    -0.168 F 
ATOM     18  F   UNL d   1       3.554   5.461   2.315  0.00  0.00    -0.168 F 
ATOM     19  F   UNL d   1       3.250   3.362   2.821  0.00  0.00    -0.168 F 
ENDBRANCH  15  16
BRANCH  15  20
ATOM     20  O   UNL d   1       2.296   5.379   0.062  0.00  0.00    -0.386 OA
ATOM     21  H   UNL d   1       2.840   6.056   0.512  0.00  0.00     0.210 HD
ENDBRANCH  15  20
ENDBRANCH  14  15
ENDBRANCH  13  14
ENDBRANCH   2  13
BRANCH   1  22
ATOM     22  C   UNL d   1       3.589  -1.438  -0.058  0.00  0.00     0.051 A 
ATOM     23  C   UNL d   1       3.942  -2.078  -1.268  0.00  0.00    -0.031 A 
ATOM     24  C   UNL d   1       5.187  -2.727  -1.338  0.00  0.00     0.009 A 
ATOM     25  C   UNL d   1       6.039  -2.775  -0.234  0.00  0.00     0.001 A 
ATOM     26  C   UNL d   1       5.669  -2.170   0.963  0.00  0.00     0.002 A 
ATOM     27  C   UNL d   1       4.448  -1.502   1.053  0.00  0.00     0.031 A 
BRANCH  23  28
ATOM     28  C   UNL d   1       3.064  -2.046  -2.501  0.00  0.00     0.036 C 
ATOM     29  C   UNL d   1       2.694  -3.434  -3.012  0.00  0.00     0.010 C 
ENDBRANCH  23  28
ENDBRANCH   1  22
TORSDOF 7
