REMARK  5 active torsions:
REMARK  status: ('A' for Active; 'I' for Inactive)
REMARK    1  A    between atoms: C_9  and  C_1 
REMARK    2  A    between atoms: N_14  and  C_3 
REMARK    3  A    between atoms: C_12  and  C_6 
REMARK       I    between atoms: N_17  and  C_9 
REMARK    4  A    between atoms: C_19  and  C_10 
REMARK    5  A    between atoms: N_21  and  N_17 
ROOT
ATOM      1  C   UNL d   1       2.357   0.139  -0.007  0.00  0.00     0.173 A 
ATOM      2  C   UNL d   1       0.229   0.912   0.029  0.00  0.00     0.058 A 
ATOM      3  C   UNL d   1       1.600   1.292  -0.041  0.00  0.00     0.081 A 
ATOM      4  C   UNL d   1       0.241  -0.481   0.030  0.00  0.00     0.162 A 
ATOM      5  O   UNL d   1       1.522  -0.947   0.036  0.00  0.00    -0.285 OA
ATOM      6  C   UNL d   1      -1.038   1.529   0.065  0.00  0.00     0.017 A 
ATOM      7  N   UNL d   1      -0.815  -1.313   0.015  0.00  0.00    -0.335 N 
ATOM      8  HN  UNL d   1      -0.718  -2.329   0.030  1.00  0.00     0.168 HD
ATOM      9  C   UNL d   1      -2.017  -0.695  -0.020  0.00  0.00     0.045 A 
ATOM     10  C   UNL d   1      -2.163   0.693   0.026  0.00  0.00     0.045 A 
ENDROOT
BRANCH   1  11
ATOM     11  C   UNL d   1       3.788  -0.072  -0.023  0.00  0.00     0.291 C 
ATOM     12  O   UNL d   1       4.624   0.830  -0.083  0.00  0.00    -0.264 OA
ATOM     13  N   UNL d   1       4.168  -1.414   0.041  0.00  0.00    -0.288 N 
ATOM     14  H   UNL d   1       3.445  -2.117   0.189  0.00  0.00     0.183 HD
BRANCH  13  15
ATOM     15  N   UNL d   1       5.534  -1.772   0.114  0.00  0.00    -0.247 NA
ATOM     16  H   UNL d   1       6.070  -0.896   0.188  0.00  0.00     0.143 HD
ATOM     17  H   UNL d   1       5.806  -2.158  -0.793  0.00  0.00     0.143 HD
ENDBRANCH  13  15
ENDBRANCH   1  11
BRANCH   3  18
ATOM     18  N   UNL d   1       2.087   2.545  -0.141  0.00  0.00    -0.396 N 
ATOM     19  H   UNL d   1       1.488   3.346   0.058  0.00  0.00     0.156 HD
ATOM     20  H   UNL d   1       3.082   2.737  -0.021  0.00  0.00     0.156 HD
ENDBRANCH   3  18
BRANCH   6  21
ATOM     21  C   UNL d   1      -1.187   2.973   0.133  0.00  0.00     0.086 A 
ATOM     22  O   UNL d   1      -0.264   3.652   0.877  0.00  0.00    -0.322 OA
ATOM     23  C   UNL d   1      -0.605   4.965   0.851  0.00  0.00     0.142 A 
ATOM     24  C   UNL d   1      -1.745   5.148   0.107  0.00  0.00     0.027 A 
ATOM     25  C   UNL d   1      -2.128   3.863  -0.348  0.00  0.00     0.040 A 
ENDBRANCH   6  21
BRANCH   9  26
ATOM     26  C   UNL d   1      -3.193  -1.588  -0.127  0.00  0.00    -0.009 A 
ATOM     27  C   UNL d   1      -3.225  -2.830   0.532  0.00  0.00     0.013 A 
ATOM     28  C   UNL d   1      -4.333  -3.679   0.430  0.00  0.00     0.001 A 
ATOM     29  C   UNL d   1      -5.432  -3.306  -0.339  0.00  0.00     0.000 A 
ATOM     30  C   UNL d   1      -5.423  -2.086  -1.007  0.00  0.00     0.001 A 
ATOM     31  C   UNL d   1      -4.316  -1.240  -0.903  0.00  0.00     0.013 A 
ENDBRANCH   9  26
TORSDOF 5
