REMARK  4 active torsions:
REMARK  status: ('A' for Active; 'I' for Inactive)
REMARK    1  A    between atoms: C_8  and  C_1 
REMARK    2  A    between atoms: C_7  and  C_3 
REMARK    3  A    between atoms: O_15  and  C_8 
REMARK    4  A    between atoms: C_19  and  O_15 
ROOT
ATOM      1  C   UNL d   1      -0.175  -1.114   0.027  0.00  0.00     0.104 A 
ATOM      2  S   UNL d   1       1.367  -0.359   0.032  0.00  0.00    -0.062 SA
ATOM      3  C   UNL d   1       0.625   1.191   0.043  0.00  0.00     0.103 A 
ATOM      4  N   UNL d   1      -0.695   1.163   0.066  0.00  0.00    -0.351 N 
ATOM      5  HN  UNL d   1      -1.289   1.992   0.089  1.00  0.00     0.166 HD
ATOM      6  C   UNL d   1      -1.164  -0.142   0.052  0.00  0.00     0.029 A 
ATOM      7  C   UNL d   1      -2.641  -0.333   0.033  0.00  0.00     0.070 C 
ENDROOT
BRANCH   3   8
ATOM      8  C   UNL d   1       1.424   2.422   0.023  0.00  0.00     0.081 A 
ATOM      9  N   UNL d   1       2.780   2.313  -0.006  0.00  0.00    -0.361 N 
ATOM     10  C   UNL d   1       3.466   3.480  -0.030  0.00  0.00     0.105 A 
ATOM     11  HN  UNL d   1       3.251   1.408  -0.011  1.00  0.00     0.165 HD
ATOM     12  C   UNL d   1       2.838   4.713  -0.023  0.00  0.00     0.104 A 
ATOM     13  N   UNL d   1       1.492   4.839   0.005  0.00  0.00    -0.372 N 
ATOM     14  C   UNL d   1       0.806   3.668   0.027  0.00  0.00     0.120 A 
ATOM     15  HN  UNL d   1       1.027   5.747   0.009  1.00  0.00     0.164 HD
ENDBRANCH   3   8
BRANCH   1  16
ATOM     16  C   UNL d   1      -0.251  -2.556  -0.056  0.00  0.00     0.302 C 
ATOM     17  O   UNL d   1       0.692  -3.326  -0.190  0.00  0.00    -0.259 OA
BRANCH  16  18
ATOM     18  O   UNL d   1      -1.557  -2.948  -0.056  0.00  0.00    -0.317 OA
BRANCH  18  19
ATOM     19  C   UNL d   1      -1.818  -4.253  -0.588  0.00  0.00     0.174 C 
ATOM     20  C   UNL d   1      -1.987  -4.118  -2.090  0.00  0.00     0.034 C 
ENDBRANCH  18  19
ENDBRANCH  16  18
ENDBRANCH   1  16
TORSDOF 4
