REMARK  6 active torsions:
REMARK  status: ('A' for Active; 'I' for Inactive)
REMARK    1  A    between atoms: C_4  and  C_1 
REMARK    2  A    between atoms: C_2  and  C_3 
REMARK    3  A    between atoms: C_5  and  N_12 
REMARK    4  A    between atoms: N_20  and  C_5 
REMARK    5  A    between atoms: N_12  and  N_7 
REMARK    6  A    between atoms: C_21  and  C_13 
ROOT
ATOM      1  C   UNL d   1       1.028   3.692   0.114  0.00  0.00     0.049 A 
ATOM      2  C   UNL d   1       0.566   1.290   0.221  0.00  0.00     0.049 A 
ATOM      3  C   UNL d   1       1.417   2.362  -0.110  0.00  0.00     0.032 A 
ATOM      4  C   UNL d   1      -0.697   1.562   0.779  0.00  0.00     0.029 A 
ATOM      5  C   UNL d   1      -0.233   3.939   0.670  0.00  0.00     0.029 A 
ATOM      6  C   UNL d   1      -1.089   2.883   1.007  0.00  0.00    -0.018 A 
ENDROOT
BRANCH   6   7
ATOM      7  C   UNL d   1      -2.396   3.176   1.634  0.00  0.00     0.118 C 
ATOM      8  N   UNL d   1      -2.703   4.400   1.908  0.00  0.00    -0.309 N 
ATOM      9  HN  UNL d   1      -2.063   5.162   1.684  1.00  0.00     0.186 HD
BRANCH   8  10
ATOM     10  N   UNL d   1      -3.898   4.650   2.502  0.00  0.00    -0.277 N 
ATOM     11  H   UNL d   1      -4.515   3.875   2.708  0.00  0.00     0.189 HD
BRANCH  10  12
ATOM     12  C   UNL d   1      -4.250   5.955   2.847  0.00  0.00     0.186 C 
ATOM     13  S   UNL d   1      -3.277   7.295   2.569  0.00  0.00    -0.040 SA
BRANCH  12  14
ATOM     14  N   UNL d   1      -5.499   6.001   3.443  0.00  0.00    -0.370 N 
ATOM     15  C   UNL d   1      -6.191   7.184   3.924  0.00  0.00     0.148 C 
ATOM     16  H   UNL d   1      -5.989   5.129   3.568  0.00  0.00     0.161 HD
ENDBRANCH  12  14
ENDBRANCH  10  12
ENDBRANCH   8  10
ENDBRANCH   6   7
BRANCH   1  17
ATOM     17  C   UNL d   1       1.938   4.853  -0.216  0.00  0.00     0.417 C 
ATOM     18  F   UNL d   1       3.151   4.463  -0.697  0.00  0.00    -0.166 F 
ATOM     19  F   UNL d   1       1.409   5.678  -1.161  0.00  0.00    -0.166 F 
ATOM     20  F   UNL d   1       2.200   5.633   0.867  0.00  0.00    -0.166 F 
ENDBRANCH   1  17
BRANCH   2  21
ATOM     21  C   UNL d   1       1.000  -0.141   0.001  0.00  0.00     0.417 C 
ATOM     22  F   UNL d   1       2.252  -0.257  -0.522  0.00  0.00    -0.166 F 
ATOM     23  F   UNL d   1       0.173  -0.808  -0.850  0.00  0.00    -0.166 F 
ATOM     24  F   UNL d   1       1.008  -0.859   1.157  0.00  0.00    -0.166 F 
ENDBRANCH   2  21
TORSDOF 6
