REMARK  4 active torsions:
REMARK  status: ('A' for Active; 'I' for Inactive)
REMARK    1  A    between atoms: C_4  and  C_1 
REMARK    2  A    between atoms: N_2  and  C_5 
REMARK    3  A    between atoms: C_8  and  C_6 
REMARK    4  A    between atoms: O_17  and  C_10 
ROOT
ATOM      1  C   UNL d   1       0.448   1.461  -0.060  0.00  0.00     0.050 A 
ATOM      2  C   UNL d   1      -1.192   3.184  -0.682  0.00  0.00     0.054 A 
ATOM      3  C   UNL d   1      -0.849   1.841  -0.453  0.00  0.00     0.047 A 
ATOM      4  C   UNL d   1      -0.196   4.162  -0.484  0.00  0.00     0.060 A 
ATOM      5  C   UNL d   1       1.428   2.451   0.076  0.00  0.00     0.018 A 
ATOM      6  C   UNL d   1       1.108   3.792  -0.134  0.00  0.00     0.027 A 
ATOM      7 CL   UNL d   1      -0.518   5.859  -0.599  0.00  0.00    -0.082 Cl
ENDROOT
BRANCH   2   8
ATOM      8  N   UNL d   1      -2.548   3.436  -0.998  0.00  0.00    -0.364 N 
ATOM      9  C   UNL d   1      -2.825   4.209  -2.003  0.00  0.00     0.102 C 
ATOM     10  HN  UNL d   1      -3.296   3.016  -0.446  1.00  0.00     0.165 HD
BRANCH   9  11
ATOM     11  C   UNL d   1      -4.220   4.519  -2.377  0.00  0.00     0.012 A 
ATOM     12  C   UNL d   1      -5.302   3.776  -1.894  0.00  0.00     0.077 A 
ATOM     13  C   UNL d   1      -6.601   4.072  -2.307  0.00  0.00     0.037 A 
ATOM     14  C   UNL d   1      -6.824   5.131  -3.189  0.00  0.00     0.003 A 
ATOM     15  C   UNL d   1      -5.751   5.889  -3.660  0.00  0.00     0.001 A 
ATOM     16  C   UNL d   1      -4.447   5.582  -3.260  0.00  0.00     0.015 A 
BRANCH  12  17
ATOM     17  O   UNL d   1      -5.156   2.734  -1.019  0.00  0.00    -0.360 OA
ATOM     18  H   UNL d   1      -4.210   2.726  -0.744  0.00  0.00     0.217 HD
ENDBRANCH  12  17
ENDBRANCH   9  11
ENDBRANCH   2   8
BRANCH   1  19
ATOM     19  C   UNL d   1       0.786   0.023   0.249  0.00  0.00     0.417 C 
ATOM     20  F   UNL d   1      -0.258  -0.835   0.088  0.00  0.00    -0.166 F 
ATOM     21  F   UNL d   1       1.209  -0.141   1.534  0.00  0.00    -0.166 F 
ATOM     22  F   UNL d   1       1.790  -0.456  -0.536  0.00  0.00    -0.166 F 
ENDBRANCH   1  19
TORSDOF 4
