REMARK  4 active torsions:
REMARK  status: ('A' for Active; 'I' for Inactive)
REMARK    1  A    between atoms: C_14  and  N_1 
REMARK    2  A    between atoms: C_2  and  N_9 
REMARK    3  A    between atoms: C_11  and  C_5 
REMARK       I    between atoms: N_9  and  C_12 
REMARK       I    between atoms: N_19  and  C_11 
REMARK    4  A    between atoms: C_12  and  C_14 
ROOT
ATOM      1  N   UNL d   1       3.161   2.439   0.175  0.00  0.00    -0.319 N 
ATOM      2  C   UNL d   1       3.863   1.367  -0.355  0.00  0.00     0.241 C 
ATOM      3  O   UNL d   1       5.053   1.383  -0.666  0.00  0.00    -0.271 OA
ATOM      4  H   UNL d   1       2.356   2.246   0.771  0.00  0.00     0.169 HD
ENDROOT
BRANCH   2   5
ATOM      5  C   UNL d   1       3.102   0.037  -0.352  0.00  0.00     0.238 C 
BRANCH   5   6
ATOM      6  N   UNL d   1       1.715   0.187  -0.751  0.00  0.00    -0.271 N 
ATOM      7  C   UNL d   1       0.690   0.430   0.116  0.00  0.00     0.262 A 
ATOM      8  C   UNL d   1      -0.522   0.548  -0.692  0.00  0.00     0.048 A 
ATOM      9  O   UNL d   1       0.748   0.556   1.323  0.00  0.00    -0.267 OA
ATOM     10  C   UNL d   1      -1.818   0.854  -0.327  0.00  0.00     0.018 A 
ATOM     11  C   UNL d   1      -0.166   0.326  -2.010  0.00  0.00     0.048 A 
ATOM     12  C   UNL d   1      -2.770   0.921  -1.350  0.00  0.00     0.001 A 
ATOM     13  C   UNL d   1      -2.410   0.671  -2.692  0.00  0.00     0.001 A 
ATOM     14  C   UNL d   1      -1.089   0.367  -3.035  0.00  0.00     0.018 A 
ATOM     15  C   UNL d   1       1.279   0.099  -2.044  0.00  0.00     0.262 A 
ATOM     16  O   UNL d   1       1.914  -0.116  -3.057  0.00  0.00    -0.267 OA
ENDBRANCH   5   6
ENDBRANCH   2   5
BRANCH   1  17
ATOM     17  C   UNL d   1       3.482   3.783   0.011  0.00  0.00     0.092 C 
ATOM     18  C   UNL d   1       2.915   4.867   0.670  0.00  0.00     0.072 C 
ATOM     19  C   UNL d   1       3.311   6.122   0.054  0.00  0.00    -0.037 C 
ATOM     20  C   UNL d   1       2.735   7.476   0.325  0.00  0.00     0.050 C 
ATOM     21  C   UNL d   1       4.290   5.913  -0.899  0.00  0.00     0.059 C 
ATOM     22  S   UNL d   1       4.625   4.266  -1.148  0.00  0.00    -0.083 SA
BRANCH  18  23
ATOM     23  C   UNL d   1       2.007   4.687   1.796  0.00  0.00     0.252 C 
ATOM     24  O   UNL d   1       1.201   3.766   1.868  0.00  0.00    -0.268 OA
ATOM     25  N   UNL d   1       2.180   5.564   2.829  0.00  0.00    -0.366 N 
ATOM     26  H   UNL d   1       3.010   6.141   2.882  0.00  0.00     0.159 HD
ATOM     27  H   UNL d   1       1.690   5.361   3.689  0.00  0.00     0.159 HD
ENDBRANCH  18  23
ENDBRANCH   1  17
TORSDOF 4
