REMARK  6 active torsions:
REMARK  status: ('A' for Active; 'I' for Inactive)
REMARK    1  A    between atoms: C_12  and  N_1 
REMARK    2  A    between atoms: S_3  and  C_13 
REMARK    3  A    between atoms: N_7  and  S_3 
REMARK    4  A    between atoms: C_11  and  C_5 
REMARK    5  A    between atoms: C_8  and  N_7 
REMARK    6  A    between atoms: C_25  and  C_11 
ROOT
ATOM      1  C   UNL d   1       0.639  -2.581  -0.098  0.00  0.00     0.044 A 
ATOM      2  C   UNL d   1       1.527  -5.239  -0.108  0.00  0.00     0.075 A 
ATOM      3  C   UNL d   1       0.680  -4.786  -1.124  0.00  0.00     0.027 A 
ATOM      4  C   UNL d   1       1.907  -4.387   0.929  0.00  0.00     0.027 A 
ATOM      5  C   UNL d   1       0.229  -3.463  -1.108  0.00  0.00     0.031 A 
ATOM      6  C   UNL d   1       1.473  -3.059   0.925  0.00  0.00     0.031 A 
ENDROOT
BRANCH   1   7
ATOM      7  N   UNL d   1       0.177  -1.232  -0.092  0.00  0.00    -0.262 N 
ATOM      8  C   UNL d   1       1.011  -0.127  -0.014  0.00  0.00     0.153 A 
ATOM      9  S   UNL d   1       0.046   1.348  -0.026  0.00  0.00    -0.054 SA
ATOM     10  S   UNL d   1       2.684  -0.046  -0.007  0.00  0.00    -0.052 SA
ATOM     11  C   UNL d   1      -1.445   0.490  -0.097  0.00  0.00     0.077 A 
ATOM     12  C   UNL d   1      -1.186  -0.979  -0.200  0.00  0.00     0.271 A 
ATOM     13  O   UNL d   1      -2.075  -1.814  -0.335  0.00  0.00    -0.266 OA
BRANCH  11  14
ATOM     14  C   UNL d   1      -2.633   1.115  -0.009  0.00  0.00     0.036 C 
BRANCH  14  15
ATOM     15  C   UNL d   1      -3.918   0.424   0.070  0.00  0.00    -0.035 A 
ATOM     16  C   UNL d   1      -4.438   0.082   1.324  0.00  0.00     0.012 A 
ATOM     17  C   UNL d   1      -5.619  -0.654   1.418  0.00  0.00     0.007 A 
ATOM     18  C   UNL d   1      -6.298  -1.054   0.261  0.00  0.00    -0.062 A 
ATOM     19  C   UNL d   1      -5.790  -0.685  -0.991  0.00  0.00     0.007 A 
ATOM     20  C   UNL d   1      -7.527  -1.906   0.377  0.00  0.00     0.048 C 
ATOM     21  C   UNL d   1      -4.608   0.054  -1.087  0.00  0.00     0.012 A 
ENDBRANCH  14  15
ENDBRANCH  11  14
ENDBRANCH   1   7
BRANCH   2  22
ATOM     22  S   UNL d   1       1.992  -6.951  -0.068  0.00  0.00     0.247 S 
ATOM     23  O   UNL d   1       2.284  -7.293   1.310  0.00  0.00    -0.205 OA
ATOM     24  O   UNL d   1       1.020  -7.714  -0.813  0.00  0.00    -0.205 OA
BRANCH  22  25
ATOM     25  N   UNL d   1       3.483  -6.982  -0.852  0.00  0.00    -0.160 NA
ATOM     26  H   UNL d   1       4.064  -7.648  -0.354  0.00  0.00     0.148 HD
BRANCH  25  27
ATOM     27  C   UNL d   1       3.368  -7.261  -2.232  0.00  0.00     0.136 A 
ATOM     28  N   UNL d   1       3.130  -6.301  -3.090  0.00  0.00    -0.350 N 
ATOM     29  C   UNL d   1       3.212  -6.813  -4.372  0.00  0.00     0.097 A 
ATOM     30  HN  UNL d   1       2.919  -5.332  -2.852  1.00  0.00     0.166 HD
ATOM     31  C   UNL d   1       3.462  -8.167  -4.458  0.00  0.00     0.069 A 
ATOM     32  S   UNL d   1       3.704  -8.804  -2.884  0.00  0.00    -0.070 SA
ENDBRANCH  25  27
ENDBRANCH  22  25
ENDBRANCH   2  22
TORSDOF 6
