REMARK  3 active torsions:
REMARK  status: ('A' for Active; 'I' for Inactive)
REMARK    1  A    between atoms: C_3  and  N_1 
REMARK    2  A    between atoms: C_5  and  C_4 
REMARK    3  A    between atoms: O_12  and  C_8 
ROOT
ATOM      1  N   UNL d   1       0.914   0.284  -0.000  0.00  0.00    -0.365 N 
ATOM      2  HN  UNL d   1       1.170   1.175  -0.426  1.00  0.00     0.165 HD
ATOM      3  C   UNL d   1       1.190  -0.838  -0.588  0.00  0.00     0.102 C 
ENDROOT
BRANCH   1   4
ATOM      4  C   UNL d   1       0.247   0.242   1.244  0.00  0.00     0.038 A 
ATOM      5  C   UNL d   1       0.646   1.098   2.285  0.00  0.00    -0.035 A 
ATOM      6  C   UNL d   1      -0.039   1.060   3.514  0.00  0.00     0.009 A 
ATOM      7  C   UNL d   1       1.785   2.070   2.147  0.00  0.00     0.050 C 
ATOM      8  C   UNL d   1      -1.112   0.191   3.710  0.00  0.00     0.007 A 
ATOM      9  C   UNL d   1      -1.530  -0.651   2.679  0.00  0.00    -0.060 A 
ATOM     10  C   UNL d   1      -0.860  -0.601   1.450  0.00  0.00     0.036 A 
ATOM     11  C   UNL d   1      -2.690  -1.579   2.886  0.00  0.00     0.048 C 
ENDBRANCH   1   4
BRANCH   3  12
ATOM     12  C   UNL d   1       1.865  -0.876  -1.901  0.00  0.00     0.012 A 
ATOM     13  C   UNL d   1       2.416   0.270  -2.486  0.00  0.00     0.077 A 
ATOM     14  C   UNL d   1       3.058   0.189  -3.719  0.00  0.00     0.037 A 
ATOM     15  C   UNL d   1       3.139  -1.037  -4.382  0.00  0.00     0.003 A 
ATOM     16  C   UNL d   1       2.581  -2.181  -3.808  0.00  0.00     0.001 A 
ATOM     17  C   UNL d   1       1.948  -2.105  -2.566  0.00  0.00     0.015 A 
BRANCH  13  18
ATOM     18  O   UNL d   1       2.361   1.503  -1.896  0.00  0.00    -0.360 OA
ATOM     19  H   UNL d   1       1.816   1.405  -1.082  0.00  0.00     0.217 HD
ENDBRANCH  13  18
ENDBRANCH   3  12
TORSDOF 3
