REMARK  7 active torsions:
REMARK  status: ('A' for Active; 'I' for Inactive)
REMARK    1  A    between atoms: C_4  and  C_1 
REMARK       I    between atoms: N_8  and  C_4 
REMARK    2  A    between atoms: C_6  and  C_10 
REMARK    3  A    between atoms: C_9  and  N_8 
REMARK    4  A    between atoms: N_20  and  C_12 
REMARK    5  A    between atoms: C_22  and  N_20 
REMARK    6  A    between atoms: C_25  and  C_22 
REMARK    7  A    between atoms: C_24  and  C_25 
ROOT
ATOM      1  C   UNL d   1       4.031  -2.456  -0.204  0.00  0.00     0.057 A 
ATOM      2  C   UNL d   1       2.445  -3.952  -1.280  0.00  0.00     0.050 A 
ATOM      3  C   UNL d   1       3.016  -2.682  -1.141  0.00  0.00     0.047 A 
ATOM      4  C   UNL d   1       4.485  -3.493   0.648  0.00  0.00     0.035 A 
ATOM      5  C   UNL d   1       2.848  -4.970  -0.404  0.00  0.00     0.018 A 
ATOM      6  C   UNL d   1       3.836  -4.731   0.557  0.00  0.00     0.026 A 
ENDROOT
BRANCH   1   7
ATOM      7  N   UNL d   1       4.531  -1.142  -0.099  0.00  0.00    -0.321 N 
ATOM      8  C   UNL d   1       5.835  -0.802  -0.433  0.00  0.00     0.264 C 
ATOM      9  O   UNL d   1       6.646  -1.642  -0.836  0.00  0.00    -0.267 OA
ATOM     10  H   UNL d   1       3.849  -0.395  -0.190  0.00  0.00     0.169 HD
BRANCH   8  11
ATOM     11  C   UNL d   1       6.149   0.622  -0.322  0.00  0.00     0.096 A 
ATOM     12  S   UNL d   1       7.540   1.216  -1.129  0.00  0.00    -0.082 SA
ATOM     13  C   UNL d   1       7.316   2.818  -0.554  0.00  0.00     0.017 A 
ATOM     14  C   UNL d   1       8.141   3.933  -0.808  0.00  0.00     0.020 A 
ATOM     15  C   UNL d   1       6.170   2.919   0.236  0.00  0.00     0.004 A 
ATOM     16  C   UNL d   1       7.792   5.174  -0.267  0.00  0.00     0.001 A 
ATOM     17  C   UNL d   1       6.648   5.309   0.502  0.00  0.00     0.001 A 
ATOM     18  C   UNL d   1       5.841   4.197   0.762  0.00  0.00     0.014 A 
ATOM     19  C   UNL d   1       5.525   1.638   0.381  0.00  0.00     0.068 A 
ATOM     20 CL   UNL d   1       4.138   1.464   1.391  0.00  0.00    -0.082 Cl
ENDBRANCH   8  11
ENDBRANCH   1   7
BRANCH   4  21
ATOM     21  N   UNL d   1       5.411  -3.210   1.674  0.00  0.00    -0.291 NA
ATOM     22  H   UNL d   1       5.979  -2.415   1.382  0.00  0.00     0.127 HD
BRANCH  21  23
ATOM     23  C   UNL d   1       6.248  -4.318   2.149  0.00  0.00     0.097 C 
BRANCH  23  24
ATOM     24  C   UNL d   1       7.514  -3.769   2.818  0.00  0.00     0.053 C 
BRANCH  24  25
ATOM     25  C   UNL d   1       8.422  -4.877   3.284  0.00  0.00    -0.057 A 
ATOM     26  C   UNL d   1       9.347  -5.455   2.400  0.00  0.00     0.007 A 
ATOM     27  C   UNL d   1      10.173  -6.495   2.823  0.00  0.00     0.001 A 
ATOM     28  C   UNL d   1      10.085  -6.967   4.131  0.00  0.00     0.000 A 
ATOM     29  C   UNL d   1       9.167  -6.402   5.014  0.00  0.00     0.001 A 
ATOM     30  C   UNL d   1       8.336  -5.362   4.596  0.00  0.00     0.007 A 
ENDBRANCH  24  25
ENDBRANCH  23  24
ENDBRANCH  21  23
ENDBRANCH   4  21
BRANCH   2  31
ATOM     31  C   UNL d   1       1.411  -4.229  -2.339  0.00  0.00     0.417 C 
ATOM     32  F   UNL d   1       1.174  -3.170  -3.158  0.00  0.00    -0.166 F 
ATOM     33  F   UNL d   1       1.763  -5.262  -3.156  0.00  0.00    -0.166 F 
ATOM     34  F   UNL d   1       0.202  -4.570  -1.809  0.00  0.00    -0.166 F 
ENDBRANCH   2  31
TORSDOF 7
