REMARK  6 active torsions:
REMARK  status: ('A' for Active; 'I' for Inactive)
REMARK    1  A    between atoms: C_3  and  C_1 
REMARK    2  A    between atoms: C_11  and  C_2 
REMARK    3  A    between atoms: O_10  and  C_3 
REMARK    4  A    between atoms: C_13  and  C_4 
REMARK    5  A    between atoms: N_17  and  C_4 
REMARK    6  A    between atoms: N_7  and  O_10 
ROOT
ATOM      1  C   UNL d   1      -2.181  -4.002   1.679  0.00  0.00     0.125 C 
ATOM      2  N   UNL d   1      -1.949  -2.802   1.224  0.00  0.00    -0.244 N 
ATOM      3  HN  UNL d   1      -2.533  -1.988   1.415  1.00  0.00     0.196 HD
ENDROOT
BRANCH   2   4
ATOM      4  O   UNL d   1      -0.784  -2.781   0.433  0.00  0.00    -0.193 OA
BRANCH   4   5
ATOM      5  C   UNL d   1      -0.478  -1.550  -0.133  0.00  0.00     0.319 C 
ATOM      6  O   UNL d   1       0.572  -1.437  -0.765  0.00  0.00    -0.257 OA
BRANCH   5   7
ATOM      7  C   UNL d   1      -1.403  -0.434  -0.006  0.00  0.00     0.091 A 
ATOM      8  C   UNL d   1      -1.107   0.925   0.038  0.00  0.00     0.101 A 
ATOM      9  O   UNL d   1      -2.287   1.622   0.075  0.00  0.00    -0.241 OA
ATOM     10  N   UNL d   1      -3.356   0.757   0.065  0.00  0.00    -0.271 N 
ATOM     11  C   UNL d   1      -2.817  -0.457  -0.005  0.00  0.00     0.134 A 
ATOM     12  HN  UNL d   1      -4.347   0.995   0.102  1.00  0.00     0.194 HD
BRANCH   8  13
ATOM     13  C   UNL d   1       0.132   1.803   0.018  0.00  0.00     0.001 C 
ATOM     14  C   UNL d   1       0.533   2.080  -1.442  0.00  0.00     0.021 C 
ATOM     15  C   UNL d   1      -0.160   3.159   0.708  0.00  0.00     0.021 C 
ATOM     16  C   UNL d   1       1.318   1.178   0.770  0.00  0.00     0.021 C 
ENDBRANCH   8  13
ENDBRANCH   5   7
ENDBRANCH   4   5
ENDBRANCH   2   4
BRANCH   1  17
ATOM     17  C   UNL d   1      -3.431  -4.243   2.493  0.00  0.00     0.072 A 
ATOM     18  N   UNL d   1      -3.540  -5.489   3.031  0.00  0.00    -0.363 N 
ATOM     19  C   UNL d   1      -4.663  -5.737   3.742  0.00  0.00     0.088 A 
ATOM     20  HN  UNL d   1      -2.815  -6.196   2.905  1.00  0.00     0.165 HD
ATOM     21  C   UNL d   1      -5.671  -4.806   3.947  0.00  0.00     0.017 A 
ATOM     22  C   UNL d   1      -5.527  -3.539   3.391  0.00  0.00     0.004 A 
ATOM     23  C   UNL d   1      -4.386  -3.247   2.650  0.00  0.00     0.033 A 
ENDBRANCH   1  17
BRANCH   1  24
ATOM     24  N   UNL d   1      -1.349  -5.082   1.470  0.00  0.00    -0.285 NA
ATOM     25  H   UNL d   1      -0.380  -4.849   1.293  0.00  0.00     0.125 HD
ATOM     26  H   UNL d   1      -1.491  -5.843   2.131  0.00  0.00     0.125 HD
ENDBRANCH   1  24
TORSDOF 6
