REMARK  1 active torsions:
REMARK  status: ('A' for Active; 'I' for Inactive)
REMARK    1  A    between atoms: C_9  and  C_4 
ROOT
ATOM      1  N   UNL d   1       0.918   0.496  -0.057  0.00  0.00    -0.322 N 
ATOM      2  C   UNL d   1       1.730  -0.613  -0.136  0.00  0.00     0.044 A 
ATOM      3  N   UNL d   1      -0.321  -2.034  -0.065  0.00  0.00    -0.374 N 
ATOM      4  C   UNL d   1       1.107  -1.954  -0.351  0.00  0.00     0.165 C 
ATOM      5  C   UNL d   1      -0.494   0.420  -0.057  0.00  0.00     0.065 A 
ATOM      6  C   UNL d   1      -1.069  -0.860   0.009  0.00  0.00     0.056 A 
ATOM      7  C   UNL d   1       1.720   1.612   0.044  0.00  0.00     0.097 A 
ATOM      8  C   UNL d   1       3.047  -0.198  -0.067  0.00  0.00     0.029 A 
ATOM      9  C   UNL d   1       3.038   1.208   0.055  0.00  0.00     0.020 A 
ATOM     10  C   UNL d   1      -1.291   1.572  -0.068  0.00  0.00     0.032 A 
ATOM     11  C   UNL d   1      -2.465  -0.956   0.075  0.00  0.00     0.031 A 
ATOM     12  C   UNL d   1      -2.680   1.450  -0.015  0.00  0.00     0.002 A 
ATOM     13  C   UNL d   1      -3.266   0.189   0.064  0.00  0.00     0.002 A 
ATOM     14  H   UNL d   1      -0.595  -2.749   0.600  0.00  0.00     0.160 HD
ENDROOT
BRANCH   4  15
ATOM     15  C   UNL d   1       1.818  -3.088   0.380  0.00  0.00    -0.030 A 
ATOM     16  C   UNL d   1       2.017  -3.056   1.772  0.00  0.00     0.011 A 
ATOM     17  C   UNL d   1       2.658  -4.111   2.425  0.00  0.00     0.024 A 
ATOM     18  C   UNL d   1       3.099  -5.213   1.694  0.00  0.00     0.034 A 
ATOM     19  C   UNL d   1       2.903  -5.269   0.316  0.00  0.00     0.024 A 
ATOM     20 CL   UNL d   1       3.888  -6.514   2.497  0.00  0.00    -0.084 Cl
ATOM     21  C   UNL d   1       2.263  -4.213  -0.337  0.00  0.00     0.011 A 
ENDBRANCH   4  15
TORSDOF 1
