REMARK  5 active torsions:
REMARK  status: ('A' for Active; 'I' for Inactive)
REMARK    1  A    between atoms: C_3  and  C_1 
REMARK    2  A    between atoms: N_2  and  C_4 
REMARK    3  A    between atoms: C_7  and  C_21 
REMARK       I    between atoms: N_11  and  C_7 
REMARK    4  A    between atoms: C_21  and  N_9 
REMARK    5  A    between atoms: C_16  and  N_11 
ROOT
ATOM      1  N   UNL d   1      -1.125  -5.089   0.422  0.00  0.00    -0.364 N 
ATOM      2  N   UNL d   1      -1.916  -7.900   0.773  0.00  0.00     0.100 N 
ATOM      3  C   UNL d   1      -0.544  -5.843   1.532  0.00  0.00     0.154 C 
ATOM      4  C   UNL d   1      -2.526  -5.431   0.177  0.00  0.00     0.154 C 
ATOM      5  C   UNL d   1      -2.622  -6.949  -0.137  0.00  0.00     0.293 C 
ATOM      6  C   UNL d   1      -0.575  -7.342   1.127  0.00  0.00     0.293 C 
ENDROOT
BRANCH   2   7
ATOM      7  C   UNL d   1      -2.672  -8.173   2.018  0.00  0.00     0.375 C 
BRANCH   7   8
ATOM      8  C   UNL d   1      -3.861  -9.128   1.827  0.00  0.00     0.250 C 
ATOM      9  N   UNL d   1      -3.922  -9.745   0.588  0.00  0.00    -0.326 N 
ATOM     10  H   UNL d   1      -3.149  -9.513  -0.026  0.00  0.00     0.169 HD
ATOM     11  O   UNL d   1      -4.652  -9.291   2.753  0.00  0.00    -0.271 OA
BRANCH   9  12
ATOM     12  C   UNL d   1      -4.953 -10.575   0.096  0.00  0.00     0.037 A 
ATOM     13  C   UNL d   1      -6.037 -10.999   0.872  0.00  0.00     0.069 A 
ATOM     14  C   UNL d   1      -7.010 -11.777   0.277  0.00  0.00     0.107 A 
ATOM     15  O   UNL d   1      -8.123 -12.261   0.892  0.00  0.00    -0.323 OA
ATOM     16  C   UNL d   1      -6.942 -12.141  -1.046  0.00  0.00     0.105 A 
ATOM     17  C   UNL d   1      -8.748 -12.970  -0.195  0.00  0.00     0.352 A 
ATOM     18  O   UNL d   1      -8.005 -12.895  -1.431  0.00  0.00    -0.323 OA
ATOM     19  C   UNL d   1      -5.890 -11.751  -1.843  0.00  0.00     0.042 A 
ATOM     20  C   UNL d   1      -4.883 -10.964  -1.260  0.00  0.00     0.032 A 
ENDBRANCH   9  12
ENDBRANCH   7   8
ENDBRANCH   2   7
BRANCH   1  21
ATOM     21  C   UNL d   1      -0.719  -3.776   0.253  0.00  0.00     0.103 A 
ATOM     22  C   UNL d   1      -0.773  -3.215  -1.024  0.00  0.00     0.049 A 
ATOM     23  C   UNL d   1      -0.191  -1.972  -1.267  0.00  0.00     0.021 A 
ATOM     24  C   UNL d   1       0.419  -1.284  -0.221  0.00  0.00     0.063 A 
ATOM     25  C   UNL d   1       0.393  -1.885   1.026  0.00  0.00     0.106 A 
ATOM     26  N   UNL d   1      -0.147  -3.106   1.275  0.00  0.00    -0.352 N 
ATOM     27  HN  UNL d   1      -0.120  -3.507   2.212  1.00  0.00     0.166 HD
BRANCH  24  28
ATOM     28  C   UNL d   1       1.127   0.015  -0.445  0.00  0.00     0.418 C 
ATOM     29  F   UNL d   1       1.514   0.634   0.706  0.00  0.00    -0.166 F 
ATOM     30  F   UNL d   1       0.364   0.921  -1.116  0.00  0.00    -0.166 F 
ATOM     31  F   UNL d   1       2.260  -0.135  -1.183  0.00  0.00    -0.166 F 
ENDBRANCH  24  28
ENDBRANCH   1  21
TORSDOF 5
