REMARK  2 active torsions:
REMARK  status: ('A' for Active; 'I' for Inactive)
REMARK    1  A    between atoms: N_15  and  C_4 
REMARK    2  A    between atoms: C_13  and  C_6 
ROOT
ATOM      1  C   UNL d   1       0.737  -0.283   0.077  0.00  0.00     0.096 A 
ATOM      2  C   UNL d   1       1.320   0.921   0.072  0.00  0.00    -0.007 A 
ATOM      3  C   UNL d   1       3.548  -0.317  -0.230  0.00  0.00     0.080 C 
ATOM      4  C   UNL d   1       2.817  -1.463  -0.163  0.00  0.00     0.138 C 
ATOM      5  O   UNL d   1       1.438  -1.468   0.049  0.00  0.00    -0.297 OA
ATOM      6  C   UNL d   1       2.843   1.035   0.006  0.00  0.00     0.100 C 
ATOM      7  C   UNL d   1      -0.720  -0.372   0.089  0.00  0.00     0.035 A 
ATOM      8  C   UNL d   1       0.503   2.188   0.134  0.00  0.00     0.214 A 
ATOM      9  C   UNL d   1       4.980  -0.351  -0.587  0.00  0.00     0.100 C 
ATOM     10  O   UNL d   1      -0.924   2.057   0.100  0.00  0.00    -0.346 OA
ATOM     11  C   UNL d   1      -1.470   0.808   0.071  0.00  0.00     0.082 A 
ATOM     12  N   UNL d   1       6.100  -0.393  -0.886  0.00  0.00    -0.191 NA
ATOM     13  C   UNL d   1      -1.393  -1.602   0.077  0.00  0.00     0.059 A 
ATOM     14  C   UNL d   1      -2.867   0.764   0.015  0.00  0.00     0.041 A 
ATOM     15  C   UNL d   1      -2.783  -1.634   0.030  0.00  0.00     0.117 A 
ATOM     16  C   UNL d   1      -3.527  -0.463  -0.008  0.00  0.00     0.045 A 
ATOM     17  F   UNL d   1      -3.414  -2.816   0.011  0.00  0.00    -0.206 F 
ENDROOT
BRANCH   4  18
ATOM     18  N   UNL d   1       3.329  -2.729  -0.324  0.00  0.00    -0.282 NA
ATOM     19  H   UNL d   1       4.202  -2.794  -0.842  0.00  0.00     0.126 HD
ATOM     20  H   UNL d   1       2.631  -3.403  -0.623  0.00  0.00     0.126 HD
ENDBRANCH   4  18
BRANCH   6  21
ATOM     21  C   UNL d   1       3.279   2.081  -1.018  0.00  0.00    -0.044 A 
ATOM     22  C   UNL d   1       4.038   3.189  -0.603  0.00  0.00     0.010 A 
ATOM     23  C   UNL d   1       4.374   4.196  -1.509  0.00  0.00     0.024 A 
ATOM     24  C   UNL d   1       3.961   4.102  -2.836  0.00  0.00     0.034 A 
ATOM     25  C   UNL d   1       3.237   2.995  -3.272  0.00  0.00     0.024 A 
ATOM     26 CL   UNL d   1       4.328   5.372  -3.936  0.00  0.00    -0.084 Cl
ATOM     27  C   UNL d   1       2.904   1.983  -2.370  0.00  0.00     0.010 A 
ENDBRANCH   6  21
TORSDOF 2
