REMARK  5 active torsions:
REMARK  status: ('A' for Active; 'I' for Inactive)
REMARK    1  A    between atoms: C_4  and  C_1 
REMARK    2  A    between atoms: C_2  and  C_3 
REMARK       I    between atoms: N_5  and  C_4 
REMARK    3  A    between atoms: C_8  and  N_5 
REMARK    4  A    between atoms: C_6  and  C_8 
REMARK    5  A    between atoms: C_7  and  C_6 
ROOT
ATOM      1  C   UNL d   1       1.166   2.607   0.013  0.00  0.00     0.254 C 
ATOM      2  N   UNL d   1       0.471   3.757   0.290  0.00  0.00    -0.349 N 
ATOM      3  O   UNL d   1       0.636   1.577  -0.389  0.00  0.00    -0.268 OA
ATOM      4  H   UNL d   1       0.903   4.516   0.804  0.00  0.00     0.163 HD
ENDROOT
BRANCH   1   5
ATOM      5  C   UNL d   1       2.631   2.624   0.226  0.00  0.00     0.062 A 
ATOM      6  C   UNL d   1       3.520   3.622  -0.189  0.00  0.00     0.066 A 
ATOM      7  C   UNL d   1       4.896   3.433   0.063  0.00  0.00     0.034 A 
ATOM      8  C   UNL d   1       5.327   2.270   0.678  0.00  0.00     0.088 A 
ATOM      9  N   UNL d   1       4.490   1.291   1.064  0.00  0.00    -0.374 N 
ATOM     10  C   UNL d   1       3.170   1.482   0.826  0.00  0.00     0.105 A 
ATOM     11  HN  UNL d   1       4.833   0.443   1.515  1.00  0.00     0.164 HD
BRANCH   6  12
ATOM     12  C   UNL d   1       3.140   4.878  -0.922  0.00  0.00     0.418 C 
ATOM     13  F   UNL d   1       1.877   4.941  -1.410  0.00  0.00    -0.166 F 
ATOM     14  F   UNL d   1       3.284   5.976  -0.126  0.00  0.00    -0.166 F 
ATOM     15  F   UNL d   1       3.946   5.104  -2.000  0.00  0.00    -0.166 F 
ENDBRANCH   6  12
ENDBRANCH   1   5
BRANCH   2  16
ATOM     16  C   UNL d   1      -0.950   3.875   0.003  0.00  0.00     0.206 C 
BRANCH  16  17
ATOM     17  C   UNL d   1      -1.796   3.924   1.274  0.00  0.00     0.177 C 
ATOM     18  O   UNL d   1      -1.304   3.818   2.398  0.00  0.00    -0.291 OA
BRANCH  17  19
ATOM     19  C   UNL d   1      -3.271   4.155   1.139  0.00  0.00     0.013 A 
ATOM     20  C   UNL d   1      -3.880   4.415  -0.097  0.00  0.00     0.039 A 
ATOM     21  C   UNL d   1      -5.252   4.673  -0.153  0.00  0.00     0.035 A 
ATOM     22 CL   UNL d   1      -5.989   5.019  -1.670  0.00  0.00    -0.084 Cl
ATOM     23  C   UNL d   1      -6.029   4.667   1.003  0.00  0.00     0.024 A 
ATOM     24  C   UNL d   1      -5.431   4.397   2.232  0.00  0.00     0.003 A 
ATOM     25  C   UNL d   1      -4.058   4.144   2.299  0.00  0.00     0.015 A 
ENDBRANCH  17  19
ENDBRANCH  16  17
ENDBRANCH   2  16
TORSDOF 5
