REMARK  4 active torsions:
REMARK  status: ('A' for Active; 'I' for Inactive)
REMARK    1  A    between atoms: C_4  and  C_1 
REMARK    2  A    between atoms: N_6  and  C_2 
REMARK       I    between atoms: C_3  and  N_5 
REMARK       I    between atoms: N_7  and  C_3 
REMARK    3  A    between atoms: C_15  and  N_7 
REMARK    4  A    between atoms: O_22  and  C_20 
ROOT
ATOM      1  C   UNL d   1      -3.208   6.192  -0.401  0.00  0.00     0.323 C 
ATOM      2  N   UNL d   1      -2.646   4.925  -0.271  0.00  0.00    -0.332 N 
ATOM      3  N   UNL d   1      -1.115   2.510  -0.052  0.00  0.00    -0.266 NA
ATOM      4  N   UNL d   1      -4.290   6.460   0.406  0.00  0.00    -0.309 N 
ATOM      5  O   UNL d   1      -2.747   6.987  -1.221  0.00  0.00    -0.247 OA
ATOM      6  C   UNL d   1      -2.808   4.024   0.891  0.00  0.00     0.142 C 
ATOM      7  C   UNL d   1      -1.414   4.710  -1.052  0.00  0.00     0.142 C 
ATOM      8  C   UNL d   1      -2.443   2.552   0.586  0.00  0.00     0.117 C 
ATOM      9  C   UNL d   1      -1.136   3.228  -1.341  0.00  0.00     0.117 C 
ATOM     10  H   UNL d   1      -4.560   5.761   1.072  0.00  0.00     0.170 HD
ENDROOT
BRANCH   4  11
ATOM     11  C   UNL d   1      -5.080   7.635   0.410  0.00  0.00     0.039 A 
ATOM     12  C   UNL d   1      -4.892   8.704  -0.473  0.00  0.00     0.066 A 
ATOM     13  C   UNL d   1      -5.702   9.840  -0.416  0.00  0.00     0.070 A 
ATOM     14  C   UNL d   1      -6.728   9.899   0.526  0.00  0.00     0.037 A 
ATOM     15  C   UNL d   1      -6.937   8.839   1.407  0.00  0.00     0.005 A 
ATOM     16  C   UNL d   1      -6.115   7.712   1.350  0.00  0.00     0.030 A 
BRANCH  13  17
ATOM     17  O   UNL d   1      -5.590  10.940  -1.224  0.00  0.00    -0.356 OA
ATOM     18  C   UNL d   1      -4.499  10.946  -2.141  0.00  0.00     0.210 C 
ENDBRANCH  13  17
ENDBRANCH   4  11
BRANCH   3  19
ATOM     19  C   UNL d   1      -0.489   1.269  -0.082  0.00  0.00     0.097 A 
ATOM     20  C   UNL d   1       0.902   1.161  -0.172  0.00  0.00     0.086 A 
ATOM     21  C   UNL d   1       1.476  -0.126  -0.176  0.00  0.00     0.021 A 
ATOM     22  C   UNL d   1       0.676  -1.249  -0.058  0.00  0.00     0.018 A 
ATOM     23  C   UNL d   1      -0.684  -1.053   0.053  0.00  0.00     0.089 A 
ATOM     24  N   UNL d   1      -1.267   0.167   0.044  0.00  0.00    -0.356 N 
ATOM     25  HN  UNL d   1      -2.279   0.257   0.130  1.00  0.00     0.166 HD
BRANCH  20  26
ATOM     26  C   UNL d   1       1.827   2.340  -0.253  0.00  0.00     0.420 C 
ATOM     27  F   UNL d   1       1.322   3.547   0.123  0.00  0.00    -0.166 F 
ATOM     28  F   UNL d   1       2.942   2.173   0.520  0.00  0.00    -0.166 F 
ATOM     29  F   UNL d   1       2.300   2.522  -1.521  0.00  0.00    -0.166 F 
ENDBRANCH  20  26
ENDBRANCH   3  19
TORSDOF 4
