REMARK  9 active torsions:
REMARK  status: ('A' for Active; 'I' for Inactive)
REMARK    1  A    between atoms: C_16  and  N_1 
REMARK    2  A    between atoms: C_22  and  C_4 
REMARK    3  A    between atoms: C_21  and  N_7 
REMARK    4  A    between atoms: C_8  and  C_20 
REMARK    5  A    between atoms: S_15  and  C_9 
REMARK    6  A    between atoms: C_19  and  C_10 
REMARK    7  A    between atoms: C_14  and  C_27 
REMARK       I    between atoms: N_23  and  C_14 
REMARK    8  A    between atoms: C_27  and  S_15 
REMARK    9  A    between atoms: N_17  and  N_23 
ROOT
ATOM      1  C   UNL d   1      -5.050  -1.947  -0.059  0.00  0.00     0.245 C 
ATOM      2  N   UNL d   1      -5.878  -0.818  -0.011  0.00  0.00    -0.270 N 
ATOM      3  O   UNL d   1      -3.849  -1.895  -0.322  0.00  0.00    -0.271 OA
ATOM      4  H   UNL d   1      -6.869  -0.952  -0.192  0.00  0.00     0.190 HD
ENDROOT
BRANCH   1   5
ATOM      5  C   UNL d   1      -5.781  -3.252   0.242  0.00  0.00     0.186 C 
BRANCH   5   6
ATOM      6  S   UNL d   1      -4.718  -4.303   1.279  0.00  0.00    -0.083 SA
BRANCH   6   7
ATOM      7  C   UNL d   1      -5.588  -5.804   1.328  0.00  0.00     0.168 A 
ATOM      8  N   UNL d   1      -5.131  -6.977   1.922  0.00  0.00    -0.275 N 
ATOM      9  C   UNL d   1      -6.114  -7.923   1.599  0.00  0.00     0.139 A 
ATOM     10  N   UNL d   1      -7.022  -7.346   0.828  0.00  0.00    -0.282 N 
ATOM     11  N   UNL d   1      -6.706  -6.025   0.678  0.00  0.00    -0.278 N 
ATOM     12  HN  UNL d   1      -7.829  -7.812   0.412  1.00  0.00     0.188 HD
ATOM     13  HN  UNL d   1      -7.243  -5.334   0.154  1.00  0.00     0.189 HD
BRANCH   8  14
ATOM     14  C   UNL d   1      -3.938  -7.186   2.679  0.00  0.00     0.043 A 
ATOM     15  C   UNL d   1      -3.212  -8.380   2.544  0.00  0.00     0.030 A 
ATOM     16  C   UNL d   1      -2.095  -8.621   3.348  0.00  0.00     0.002 A 
ATOM     17  C   UNL d   1      -1.675  -7.663   4.268  0.00  0.00     0.000 A 
ATOM     18  C   UNL d   1      -2.370  -6.463   4.385  0.00  0.00     0.002 A 
ATOM     19  C   UNL d   1      -3.502  -6.225   3.601  0.00  0.00     0.030 A 
ENDBRANCH   8  14
BRANCH   9  20
ATOM     20  C   UNL d   1      -6.217  -9.319   2.053  0.00  0.00     0.013 A 
ATOM     21  C   UNL d   1      -5.910  -9.714   3.360  0.00  0.00     0.032 A 
ATOM     22  C   UNL d   1      -5.979 -11.060   3.684  0.00  0.00     0.088 A 
ATOM     23  N   UNL d   1      -6.370 -12.019   2.823  0.00  0.00    -0.375 N 
ATOM     24  C   UNL d   1      -6.724 -11.615   1.585  0.00  0.00     0.088 A 
ATOM     25  HN  UNL d   1      -6.398 -13.002   3.093  1.00  0.00     0.164 HD
ATOM     26  C   UNL d   1      -6.665 -10.298   1.160  0.00  0.00     0.032 A 
ENDBRANCH   9  20
ENDBRANCH   6   7
ENDBRANCH   5   6
ENDBRANCH   1   5
BRANCH   2  27
ATOM     27  N   UNL d   1      -5.427   0.450  -0.329  0.00  0.00    -0.308 N 
ATOM     28  C   UNL d   1      -4.292   0.801   0.197  0.00  0.00     0.122 C 
ATOM     29  HN  UNL d   1      -5.954   1.072  -0.941  1.00  0.00     0.186 HD
BRANCH  28  30
ATOM     30  C   UNL d   1      -3.727   2.096  -0.098  0.00  0.00     0.027 A 
ATOM     31  C   UNL d   1      -2.831   2.871   0.695  0.00  0.00     0.072 A 
ATOM     32  N   UNL d   1      -2.449   3.979   0.046  0.00  0.00    -0.292 N 
ATOM     33  N   UNL d   1      -3.129   3.967  -1.132  0.00  0.00    -0.266 N 
ATOM     34  HN  UNL d   1      -1.786   4.685   0.368  1.00  0.00     0.187 HD
ATOM     35  C   UNL d   1      -3.918   2.847  -1.238  0.00  0.00     0.132 A 
BRANCH  31  36
ATOM     36  C   UNL d   1      -2.349   2.572   2.047  0.00  0.00    -0.007 A 
ATOM     37  C   UNL d   1      -3.213   2.020   3.006  0.00  0.00     0.015 A 
ATOM     38  C   UNL d   1      -2.741   1.656   4.270  0.00  0.00     0.024 A 
ATOM     39  C   UNL d   1      -1.403   1.869   4.592  0.00  0.00     0.034 A 
ATOM     40  C   UNL d   1      -0.542   2.458   3.671  0.00  0.00     0.024 A 
ATOM     41 CL   UNL d   1      -0.816   1.393   6.138  0.00  0.00    -0.084 Cl
ATOM     42  C   UNL d   1      -1.014   2.812   2.399  0.00  0.00     0.015 A 
ENDBRANCH  31  36
BRANCH  33  43
ATOM     43  C   UNL d   1      -2.982   5.023  -2.079  0.00  0.00     0.056 A 
ATOM     44  C   UNL d   1      -3.726   5.038  -3.268  0.00  0.00     0.031 A 
ATOM     45  C   UNL d   1      -3.579   6.092  -4.176  0.00  0.00     0.002 A 
ATOM     46  C   UNL d   1      -2.689   7.130  -3.911  0.00  0.00     0.000 A 
ATOM     47  C   UNL d   1      -1.939   7.117  -2.736  0.00  0.00     0.002 A 
ATOM     48  C   UNL d   1      -2.083   6.070  -1.821  0.00  0.00     0.031 A 
ENDBRANCH  33  43
ENDBRANCH  28  30
ENDBRANCH   2  27
TORSDOF 9
