REMARK  3 active torsions:
REMARK  status: ('A' for Active; 'I' for Inactive)
REMARK    1  A    between atoms: C_6  and  N_1 
REMARK    2  A    between atoms: C_7  and  C_6 
REMARK       I    between atoms: N_8  and  C_7 
REMARK    3  A    between atoms: C_10  and  N_9 
ROOT
ATOM      1  C   UNL d   1       3.999   1.574  -0.139  0.00  0.00     0.238 C 
ATOM      2  N   UNL d   1       3.183   2.686  -0.276  0.00  0.00    -0.348 N 
ATOM      3  N   UNL d   1       1.313   4.820  -0.587  0.00  0.00    -0.378 N 
ATOM      4  C   UNL d   1       2.150   2.922   0.750  0.00  0.00     0.145 C 
ATOM      5  C   UNL d   1       3.512   3.875  -1.080  0.00  0.00     0.145 C 
ATOM      6  C   UNL d   1       2.251   4.523  -1.679  0.00  0.00     0.143 C 
ATOM      7  C   UNL d   1       0.902   3.628   0.182  0.00  0.00     0.143 C 
ATOM      8  O   UNL d   1       3.882   0.820   0.832  0.00  0.00    -0.272 OA
ENDROOT
BRANCH   1   9
ATOM      9  C   UNL d   1       5.058   1.282  -1.209  0.00  0.00     0.238 C 
BRANCH   9  10
ATOM     10  N   UNL d   1       6.382   1.637  -0.737  0.00  0.00    -0.271 N 
ATOM     11  C   UNL d   1       7.088   2.732  -1.143  0.00  0.00     0.262 A 
ATOM     12  C   UNL d   1       8.392   2.657  -0.480  0.00  0.00     0.048 A 
ATOM     13  O   UNL d   1       6.761   3.612  -1.916  0.00  0.00    -0.267 OA
ATOM     14  C   UNL d   1       9.489   3.492  -0.539  0.00  0.00     0.018 A 
ATOM     15  C   UNL d   1       8.393   1.512   0.296  0.00  0.00     0.048 A 
ATOM     16  C   UNL d   1      10.593   3.156   0.253  0.00  0.00     0.001 A 
ATOM     17  C   UNL d   1      10.575   2.008   1.073  0.00  0.00     0.001 A 
ATOM     18  C   UNL d   1       9.465   1.160   1.092  0.00  0.00     0.018 A 
ATOM     19  C   UNL d   1       7.128   0.822   0.069  0.00  0.00     0.262 A 
ATOM     20  O   UNL d   1       6.885  -0.295   0.484  0.00  0.00    -0.267 OA
ENDBRANCH   9  10
ENDBRANCH   1   9
BRANCH   3  21
ATOM     21  C   UNL d   1       0.408   5.863  -0.702  0.00  0.00     0.030 A 
ATOM     22  C   UNL d   1      -0.050   6.353  -1.934  0.00  0.00     0.032 A 
ATOM     23  C   UNL d   1      -0.896   7.466  -2.000  0.00  0.00     0.044 A 
ATOM     24  C   UNL d   1      -1.284   8.103  -0.831  0.00  0.00     0.116 A 
ATOM     25  C   UNL d   1      -0.857   7.640   0.404  0.00  0.00     0.044 A 
ATOM     26  F   UNL d   1      -2.073   9.184  -0.895  0.00  0.00    -0.206 F 
ATOM     27  C   UNL d   1      -0.022   6.523   0.462  0.00  0.00     0.032 A 
ENDBRANCH   3  21
TORSDOF 3
