REMARK  3 active torsions:
REMARK  status: ('A' for Active; 'I' for Inactive)
REMARK    1  A    between atoms: C_3  and  S_1 
REMARK    2  A    between atoms: C_9  and  S_1 
REMARK    3  A    between atoms: C_10  and  C_9 
ROOT
ATOM      1  N   UNL d   1       4.550   2.503  -2.704  0.00  0.00    -0.197 NA
ATOM      2  C   UNL d   1       3.761   2.186  -1.917  0.00  0.00     0.060 C 
ATOM      3  C   UNL d   1       2.761   1.774  -0.926  0.00  0.00     0.139 C 
ENDROOT
BRANCH   3   4
ATOM      4  C   UNL d   1       2.209   0.394  -1.250  0.00  0.00     0.160 C 
BRANCH   4   5
ATOM      5  S   UNL d   1       1.023  -0.068  -0.010  0.00  0.00     0.176 S 
ATOM      6  O   UNL d   1       1.734  -0.230   1.242  0.00  0.00    -0.223 OA
ATOM      7  O   UNL d   1      -0.100   0.843  -0.113  0.00  0.00    -0.223 OA
BRANCH   5   8
ATOM      8  C   UNL d   1       0.448  -1.677  -0.506  0.00  0.00     0.059 A 
ATOM      9  C   UNL d   1       1.083  -2.821  -0.010  0.00  0.00     0.025 A 
ATOM     10  C   UNL d   1       0.585  -4.084  -0.343  0.00  0.00     0.025 A 
ATOM     11  C   UNL d   1      -0.544  -4.195  -1.155  0.00  0.00     0.034 A 
ATOM     12  C   UNL d   1      -1.187  -3.053  -1.634  0.00  0.00     0.025 A 
ATOM     13 CL   UNL d   1      -1.158  -5.751  -1.556  0.00  0.00    -0.084 Cl
ATOM     14  C   UNL d   1      -0.695  -1.786  -1.306  0.00  0.00     0.025 A 
ENDBRANCH   5   8
ENDBRANCH   4   5
ENDBRANCH   3   4
TORSDOF 3
