REMARK  2 active torsions:
REMARK  status: ('A' for Active; 'I' for Inactive)
REMARK       I    between atoms: C_8  and  N_1 
REMARK    1  A    between atoms: C_7  and  C_4 
REMARK    2  A    between atoms: S_13  and  C_5 
ROOT
ATOM      1  N   UNL d   1       0.834  -0.862  -0.147  0.00  0.00    -0.217 N 
ATOM      2  N   UNL d   1       0.929   0.499  -0.277  0.00  0.00    -0.288 N 
ATOM      3  HN  UNL d   1       1.759   1.043  -0.513  1.00  0.00     0.188 HD
ATOM      4  C   UNL d   1      -0.305   0.959  -0.028  0.00  0.00     0.085 A 
ATOM      5  C   UNL d   1      -0.477  -1.239   0.110  0.00  0.00     0.098 A 
ATOM      6  C   UNL d   1      -1.212  -0.087   0.236  0.00  0.00     0.073 A 
ATOM      7  C   UNL d   1       1.997  -1.652  -0.246  0.00  0.00     0.239 C 
ATOM      8  O   UNL d   1       2.022  -2.793   0.207  0.00  0.00    -0.272 OA
ATOM      9  C   UNL d   1       3.178  -1.002  -0.902  0.00  0.00     0.119 C 
ENDROOT
BRANCH   4  10
ATOM     10  C   UNL d   1      -0.677   2.422  -0.064  0.00  0.00     0.102 A 
ATOM     11  N   UNL d   1      -1.899   2.831   0.214  0.00  0.00    -0.358 N 
ATOM     12  C   UNL d   1      -1.969   4.207   0.096  0.00  0.00     0.096 A 
ATOM     13  HN  UNL d   1      -2.675   2.224   0.477  1.00  0.00     0.166 HD
ATOM     14  C   UNL d   1      -0.802   4.832  -0.281  0.00  0.00     0.069 A 
ATOM     15  S   UNL d   1       0.438   3.665  -0.482  0.00  0.00    -0.081 SA
ENDBRANCH   4  10
BRANCH   5  16
ATOM     16  S   UNL d   1      -1.051  -2.881   0.080  0.00  0.00    -0.115 SA
ATOM     17  C   UNL d   1      -0.952  -3.318   1.829  0.00  0.00     0.097 C 
ENDBRANCH   5  16
TORSDOF 2
