REMARK  8 active torsions:
REMARK  status: ('A' for Active; 'I' for Inactive)
REMARK    1  A    between atoms: C_2  and  C_1 
REMARK    2  A    between atoms: C_13  and  C_1 
REMARK    3  A    between atoms: O_20  and  C_3 
REMARK    4  A    between atoms: C_18  and  N_5 
REMARK    5  A    between atoms: C_19  and  N_6 
REMARK    6  A    between atoms: C_14  and  C_13 
REMARK    7  A    between atoms: O_22  and  C_14 
REMARK    8  A    between atoms: C_29  and  O_22 
ROOT
ATOM      1  C   UNL d   1      -0.207  -1.821   1.633  0.00  0.00     0.220 C 
ATOM      2  C   UNL d   1      -0.532  -0.825   2.674  0.00  0.00     0.076 C 
ATOM      3  N   UNL d   1      -0.851  -0.048   3.470  0.00  0.00    -0.196 NA
ENDROOT
BRANCH   1   4
ATOM      4  C   UNL d   1      -0.072  -1.216   0.225  0.00  0.00     0.141 A 
ATOM      5  C   UNL d   1       1.173  -0.300   0.209  0.00  0.00     0.264 A 
ATOM      6  N   UNL d   1       0.667   1.001   0.103  0.00  0.00    -0.223 N 
ATOM      7  O   UNL d   1       2.331  -0.681   0.260  0.00  0.00    -0.269 OA
ATOM      8  N   UNL d   1      -0.698   1.056  -0.048  0.00  0.00    -0.298 N 
ATOM      9  C   UNL d   1      -1.144  -0.155  -0.014  0.00  0.00     0.025 A 
ATOM     10  HN  UNL d   1      -1.257   1.901  -0.165  1.00  0.00     0.187 HD
ATOM     11  C   UNL d   1      -2.606  -0.449  -0.119  0.00  0.00     0.066 C 
BRANCH   4  12
ATOM     12  C   UNL d   1      -0.011  -2.191  -0.949  0.00  0.00     0.044 C 
ATOM     13  C   UNL d   1       0.577  -1.933  -2.184  0.00  0.00     0.172 C 
ATOM     14  N   UNL d   1       0.605  -3.133  -2.888  0.00  0.00    -0.234 N 
ATOM     15  N   UNL d   1      -0.236  -4.029  -2.322  0.00  0.00    -0.296 N 
ATOM     16  C   UNL d   1      -0.510  -3.532  -1.110  0.00  0.00     0.035 C 
ATOM     17  HN  UNL d   1      -0.586  -4.895  -2.730  1.00  0.00     0.187 HD
ATOM     18  C   UNL d   1      -1.284  -4.414  -0.191  0.00  0.00     0.070 C 
BRANCH  13  19
ATOM     19  O   UNL d   1       1.065  -0.811  -2.719  0.00  0.00    -0.344 OA
ATOM     20  H   UNL d   1       0.727  -0.022  -2.258  0.00  0.00     0.219 HD
ENDBRANCH  13  19
BRANCH  14  21
ATOM     21  C   UNL d   1       1.341  -3.446  -4.062  0.00  0.00     0.059 A 
ATOM     22  C   UNL d   1       2.537  -2.769  -4.343  0.00  0.00     0.031 A 
ATOM     23  C   UNL d   1       3.240  -3.045  -5.516  0.00  0.00     0.002 A 
ATOM     24  C   UNL d   1       2.747  -3.984  -6.418  0.00  0.00     0.000 A 
ATOM     25  C   UNL d   1       1.574  -4.682  -6.128  0.00  0.00     0.002 A 
ATOM     26  C   UNL d   1       0.881  -4.435  -4.939  0.00  0.00     0.031 A 
ENDBRANCH  14  21
ENDBRANCH   4  12
BRANCH   6  27
ATOM     27  C   UNL d   1       1.387   2.222   0.089  0.00  0.00     0.059 A 
ATOM     28  C   UNL d   1       2.772   2.265  -0.101  0.00  0.00     0.031 A 
ATOM     29  C   UNL d   1       3.449   3.490  -0.151  0.00  0.00     0.002 A 
ATOM     30  C   UNL d   1       2.754   4.686   0.018  0.00  0.00     0.000 A 
ATOM     31  C   UNL d   1       1.381   4.659   0.239  0.00  0.00     0.002 A 
ATOM     32  C   UNL d   1       0.703   3.438   0.265  0.00  0.00     0.031 A 
ENDBRANCH   6  27
ENDBRANCH   1   4
BRANCH   1  33
ATOM     33  C   UNL d   1       1.028  -2.596   2.038  0.00  0.00     0.278 C 
ATOM     34  O   UNL d   1       1.189  -3.778   1.763  0.00  0.00    -0.264 OA
BRANCH  33  35
ATOM     35  O   UNL d   1       1.923  -1.835   2.715  0.00  0.00    -0.321 OA
BRANCH  35  36
ATOM     36  C   UNL d   1       3.148  -2.486   3.081  0.00  0.00     0.174 C 
ATOM     37  C   UNL d   1       2.945  -3.218   4.392  0.00  0.00     0.034 C 
ENDBRANCH  35  36
ENDBRANCH  33  35
ENDBRANCH   1  33
TORSDOF 8
