REMARK  8 active torsions:
REMARK  status: ('A' for Active; 'I' for Inactive)
REMARK    1  A    between atoms: C_8  and  C_1 
REMARK    2  A    between atoms: O_10  and  C_1 
REMARK    3  A    between atoms: C_2  and  O_9 
REMARK    4  A    between atoms: C_7  and  C_2 
REMARK    5  A    between atoms: C_12  and  C_3 
REMARK    6  A    between atoms: C_4  and  C_11 
REMARK    7  A    between atoms: O_9  and  C_12 
REMARK    8  A    between atoms: C_11  and  O_10 
ROOT
ATOM      1  C   UNL d   1       5.810  -0.640  -0.093  0.00  0.00    -0.078 C 
ATOM      2  C   UNL d   1       4.598  -0.865  -0.142  0.00  0.00    -0.078 C 
ENDROOT
BRANCH   1   3
ATOM      3  C   UNL d   1       7.297  -0.376  -0.042  0.00  0.00     0.272 C 
BRANCH   3   4
ATOM      4  O   UNL d   1       7.842  -0.203  -1.369  0.00  0.00    -0.305 OA
BRANCH   4   5
ATOM      5  C   UNL d   1       8.065  -1.353  -2.051  0.00  0.00     0.294 C 
ATOM      6  O   UNL d   1       7.937  -2.486  -1.619  0.00  0.00    -0.259 OA
BRANCH   5   7
ATOM      7  C   UNL d   1       8.479  -1.050  -3.450  0.00  0.00     0.039 A 
ATOM      8  C   UNL d   1       8.729  -2.118  -4.323  0.00  0.00     0.017 A 
ATOM      9  C   UNL d   1       9.094  -1.872  -5.649  0.00  0.00     0.001 A 
ATOM     10  C   UNL d   1       9.214  -0.561  -6.108  0.00  0.00     0.000 A 
ATOM     11  C   UNL d   1       8.976   0.507  -5.244  0.00  0.00     0.001 A 
ATOM     12  C   UNL d   1       8.610   0.265  -3.918  0.00  0.00     0.017 A 
ENDBRANCH   5   7
ENDBRANCH   4   5
ENDBRANCH   3   4
ENDBRANCH   1   3
BRANCH   2  13
ATOM     13  C   UNL d   1       3.112  -1.134  -0.188  0.00  0.00     0.272 C 
BRANCH  13  14
ATOM     14  O   UNL d   1       2.357   0.082   0.012  0.00  0.00    -0.305 OA
BRANCH  14  15
ATOM     15  C   UNL d   1       2.265   0.490   1.302  0.00  0.00     0.294 C 
ATOM     16  O   UNL d   1       2.665  -0.118   2.283  0.00  0.00    -0.259 OA
BRANCH  15  17
ATOM     17  C   UNL d   1       1.616   1.828   1.376  0.00  0.00     0.039 A 
ATOM     18  C   UNL d   1       1.458   2.429   2.633  0.00  0.00     0.017 A 
ATOM     19  C   UNL d   1       0.882   3.698   2.739  0.00  0.00     0.001 A 
ATOM     20  C   UNL d   1       0.460   4.370   1.592  0.00  0.00     0.000 A 
ATOM     21  C   UNL d   1       0.604   3.775   0.340  0.00  0.00     0.001 A 
ATOM     22  C   UNL d   1       1.180   2.508   0.230  0.00  0.00     0.017 A 
ENDBRANCH  15  17
ENDBRANCH  14  15
ENDBRANCH  13  14
ENDBRANCH   2  13
TORSDOF 8
