REMARK  3 active torsions:
REMARK  status: ('A' for Active; 'I' for Inactive)
REMARK    1  A    between atoms: C_3  and  C_1 
REMARK       I    between atoms: N_13  and  C_3 
REMARK    2  A    between atoms: C_6  and  C_17 
REMARK    3  A    between atoms: C_17  and  N_13 
ROOT
ATOM      1  C   UNL d   1      -1.129  -2.807  -0.356  0.00  0.00     0.256 C 
ATOM      2  N   UNL d   1      -0.225  -3.726   0.183  0.00  0.00    -0.347 N 
ATOM      3  O   UNL d   1      -2.115  -3.142  -1.013  0.00  0.00    -0.267 OA
ATOM      4  C   UNL d   1       1.143  -3.386   0.556  0.00  0.00     0.153 C 
ENDROOT
BRANCH   1   5
ATOM      5  C   UNL d   1      -0.920  -1.359  -0.219  0.00  0.00     0.061 A 
ATOM      6  C   UNL d   1      -0.794  -0.702   1.032  0.00  0.00     0.082 A 
ATOM      7  N   UNL d   1      -0.775  -1.253   2.259  0.00  0.00    -0.310 N 
ATOM      8  C   UNL d   1      -0.679   0.808   1.078  0.00  0.00     0.068 A 
ATOM      9  S   UNL d   1      -0.580  -0.013   3.344  0.00  0.00     0.068 SA
ATOM     10  HN  UNL d   1      -0.863  -2.245   2.480  1.00  0.00     0.176 HD
ATOM     11  N   UNL d   1      -0.539   1.292   2.321  0.00  0.00    -0.310 N 
ATOM     12  HN  UNL d   1      -0.428   2.271   2.585  1.00  0.00     0.176 HD
ATOM     13  C   UNL d   1      -0.724   1.584  -0.104  0.00  0.00     0.032 A 
ATOM     14  C   UNL d   1      -0.895   0.883  -1.308  0.00  0.00     0.003 A 
ATOM     15  C   UNL d   1      -0.994  -0.527  -1.363  0.00  0.00     0.019 A 
ENDBRANCH   1   5
BRANCH   2  16
ATOM     16  C   UNL d   1      -0.491  -5.149  -0.050  0.00  0.00     0.171 C 
BRANCH  16  17
ATOM     17  C   UNL d   1      -0.821  -5.867   1.231  0.00  0.00     0.003 A 
ATOM     18  S   UNL d   1      -0.173  -7.435   1.498  0.00  0.00    -0.074 SA
ATOM     19  C   UNL d   1      -0.969  -7.595   2.994  0.00  0.00     0.084 A 
ATOM     20  N   UNL d   1      -0.812  -8.709   3.741  0.00  0.00    -0.360 N 
ATOM     21  C   UNL d   1      -1.746  -6.484   3.308  0.00  0.00    -0.001 A 
ATOM     22  C   UNL d   1      -1.496  -8.690   4.902  0.00  0.00     0.089 A 
ATOM     23  HN  UNL d   1      -0.228  -9.494   3.453  1.00  0.00     0.166 HD
ATOM     24  C   UNL d   1      -2.312  -7.658   5.338  0.00  0.00     0.018 A 
ATOM     25  C   UNL d   1      -2.450  -6.529   4.530  0.00  0.00     0.015 A 
ATOM     26  C   UNL d   1      -1.657  -5.494   2.270  0.00  0.00     0.030 A 
ENDBRANCH  16  17
ENDBRANCH   2  16
TORSDOF 3
