REMARK  4 active torsions:
REMARK  status: ('A' for Active; 'I' for Inactive)
REMARK    1  A    between atoms: C_12  and  N_2 
REMARK    2  A    between atoms: C_4  and  N_13 
REMARK    3  A    between atoms: C_18  and  C_11 
REMARK    4  A    between atoms: C_14  and  C_12 
REMARK       I    between atoms: N_13  and  C_14 
ROOT
ATOM      1  N   UNL d   1       0.728  -4.018   0.283  0.00  0.00    -0.310 N 
ATOM      2  C   UNL d   1       1.995  -3.339   0.277  0.00  0.00     0.242 C 
ATOM      3  O   UNL d   1       2.059  -2.178  -0.104  0.00  0.00    -0.271 OA
ATOM      4  H   UNL d   1       0.668  -4.905   0.780  0.00  0.00     0.170 HD
ENDROOT
BRANCH   1   5
ATOM      5  C   UNL d   1      -0.449  -3.525  -0.270  0.00  0.00     0.126 C 
ATOM      6  C   UNL d   1      -0.639  -2.392  -1.028  0.00  0.00     0.082 C 
ATOM      7  C   UNL d   1      -1.978  -2.466  -1.506  0.00  0.00     0.062 C 
ATOM      8  N   UNL d   1      -2.620  -3.492  -0.924  0.00  0.00    -0.296 N 
ATOM      9  N   UNL d   1      -1.673  -4.143  -0.239  0.00  0.00    -0.281 N 
ATOM     10  HN  UNL d   1      -3.611  -3.723  -0.990  1.00  0.00     0.187 HD
ATOM     11  C   UNL d   1      -1.993  -5.436   0.317  0.00  0.00     0.179 C 
BRANCH   7  12
ATOM     12  C   UNL d   1      -2.613  -1.691  -2.577  0.00  0.00    -0.008 A 
ATOM     13  C   UNL d   1      -1.871  -0.801  -3.367  0.00  0.00     0.014 A 
ATOM     14  C   UNL d   1      -2.431  -0.238  -4.517  0.00  0.00     0.001 A 
ATOM     15  C   UNL d   1      -3.741  -0.544  -4.881  0.00  0.00     0.000 A 
ATOM     16  C   UNL d   1      -4.506  -1.384  -4.078  0.00  0.00     0.001 A 
ATOM     17  C   UNL d   1      -3.948  -1.947  -2.929  0.00  0.00     0.014 A 
ENDBRANCH   7  12
ENDBRANCH   1   5
BRANCH   2  18
ATOM     18  C   UNL d   1       3.233  -4.124   0.654  0.00  0.00     0.248 C 
BRANCH  18  19
ATOM     19  N   UNL d   1       3.220  -5.239   1.609  0.00  0.00    -0.228 N 
ATOM     20  S   UNL d   1       4.736  -5.877   2.026  0.00  0.00     0.269 S 
ATOM     21  C   UNL d   1       4.098  -6.812   3.343  0.00  0.00     0.095 A 
ATOM     22  O   UNL d   1       5.156  -6.753   0.962  0.00  0.00    -0.200 OA
ATOM     23  O   UNL d   1       5.542  -4.803   2.557  0.00  0.00    -0.200 OA
ATOM     24  C   UNL d   1       2.723  -6.642   3.433  0.00  0.00     0.056 A 
ATOM     25  C   UNL d   1       4.811  -7.563   4.257  0.00  0.00     0.026 A 
ATOM     26  C   UNL d   1       2.001  -7.204   4.473  0.00  0.00     0.018 A 
ATOM     27  C   UNL d   1       2.178  -5.780   2.378  0.00  0.00     0.269 A 
ATOM     28  C   UNL d   1       2.701  -7.951   5.422  0.00  0.00     0.001 A 
ATOM     29  C   UNL d   1       4.092  -8.139   5.309  0.00  0.00     0.002 A 
ATOM     30  O   UNL d   1       0.997  -5.574   2.171  0.00  0.00    -0.266 OA
ENDBRANCH  18  19
ENDBRANCH   2  18
TORSDOF 4
