REMARK  5 active torsions:
REMARK  status: ('A' for Active; 'I' for Inactive)
REMARK    1  A    between atoms: N_2  and  S_1 
REMARK    2  A    between atoms: C_8  and  S_1 
REMARK    3  A    between atoms: C_16  and  C_4 
REMARK    4  A    between atoms: C_6  and  O_18 
REMARK    5  A    between atoms: O_18  and  C_27 
ROOT
ATOM      1  C   UNL d   1       1.283   0.305  -1.667  0.00  0.00     0.074 A 
ATOM      2  N   UNL d   1       2.755   1.581  -6.707  0.00  0.00    -0.191 NA
ATOM      3  C   UNL d   1       2.434   1.310  -5.623  0.00  0.00     0.099 C 
ATOM      4  C   UNL d   1       0.402   0.071  -2.728  0.00  0.00     0.026 A 
ATOM      5  C   UNL d   1       2.533   0.890  -1.906  0.00  0.00     0.026 A 
ATOM      6  C   UNL d   1       2.045   0.968  -4.284  0.00  0.00     0.044 A 
ATOM      7  C   UNL d   1       2.912   1.221  -3.214  0.00  0.00     0.024 A 
ATOM      8  C   UNL d   1       0.791   0.394  -4.037  0.00  0.00     0.024 A 
ENDROOT
BRANCH   1   9
ATOM      9  S   UNL d   1       0.754   0.014   0.012  0.00  0.00     0.244 S 
ATOM     10  O   UNL d   1       1.885   0.253   0.883  0.00  0.00    -0.206 OA
ATOM     11  O   UNL d   1      -0.468   0.770   0.178  0.00  0.00    -0.206 OA
BRANCH   9  12
ATOM     12  N   UNL d   1       0.350  -1.643   0.105  0.00  0.00    -0.193 NA
ATOM     13  C   UNL d   1       1.423  -2.619  -0.252  0.00  0.00     0.141 C 
ATOM     14  C   UNL d   1       0.934  -4.046  -0.069  0.00  0.00    -0.021 A 
ATOM     15  C   UNL d   1       1.560  -5.239  -0.572  0.00  0.00     0.017 A 
ATOM     16  C   UNL d   1      -0.181  -4.365   0.680  0.00  0.00    -0.008 A 
ATOM     17  C   UNL d   1       0.939  -6.386  -0.127  0.00  0.00     0.051 A 
ATOM     18  S   UNL d   1      -0.430  -6.039   0.838  0.00  0.00    -0.106 SA
ATOM     19  C   UNL d   1      -1.088  -3.360   1.301  0.00  0.00     0.062 C 
ATOM     20  C   UNL d   1      -0.422  -1.976   1.353  0.00  0.00     0.114 C 
BRANCH  13  21
ATOM     21  C   UNL d   1       2.744  -2.591   0.510  0.00  0.00    -0.035 A 
ATOM     22  C   UNL d   1       3.918  -2.254  -0.181  0.00  0.00     0.012 A 
ATOM     23  C   UNL d   1       5.173  -2.358   0.427  0.00  0.00     0.037 A 
ATOM     24  C   UNL d   1       5.284  -2.839   1.730  0.00  0.00     0.078 A 
ATOM     25  C   UNL d   1       4.124  -3.092   2.458  0.00  0.00     0.037 A 
ATOM     26  C   UNL d   1       2.867  -2.970   1.859  0.00  0.00     0.012 A 
BRANCH  24  27
ATOM     27  O   UNL d   1       6.449  -3.044   2.401  0.00  0.00    -0.255 OA
BRANCH  27  28
ATOM     28  C   UNL d   1       7.582  -3.524   1.688  0.00  0.00     0.530 C 
ATOM     29  F   UNL d   1       7.364  -3.761   0.377  0.00  0.00    -0.144 F 
ATOM     30  F   UNL d   1       8.584  -2.625   1.800  0.00  0.00    -0.144 F 
ATOM     31  F   UNL d   1       7.992  -4.683   2.251  0.00  0.00    -0.144 F 
ENDBRANCH  27  28
ENDBRANCH  24  27
ENDBRANCH  13  21
ENDBRANCH   9  12
ENDBRANCH   1   9
TORSDOF 5
