REMARK  2 active torsions:
REMARK  status: ('A' for Active; 'I' for Inactive)
REMARK    1  A    between atoms: C_9  and  N_2 
REMARK    2  A    between atoms: C_11  and  C_9 
ROOT
ATOM      1  C   UNL d   1       0.378  -0.198   1.110  0.00  0.00     0.150 A 
ATOM      2  N   UNL d   1       1.011   0.363   0.031  0.00  0.00    -0.277 N 
ATOM      3  N   UNL d   1       0.490  -0.036  -1.157  0.00  0.00    -0.307 N 
ATOM      4  HN  UNL d   1       0.770   0.251  -2.096  1.00  0.00     0.186 HD
ATOM      5  C   UNL d   1      -0.585  -1.020   0.581  0.00  0.00     0.066 A 
ATOM      6  C   UNL d   1      -0.476  -0.892  -0.810  0.00  0.00     0.129 A 
ATOM      7  C   UNL d   1       0.684   0.066   2.467  0.00  0.00     0.120 C 
ATOM      8  N   UNL d   1       0.969   0.324   3.561  0.00  0.00    -0.190 NA
ATOM      9 BR   UNL d   1      -1.834  -2.098   1.457  0.00  0.00    -0.046 Br
ENDROOT
BRANCH   2  10
ATOM     10  C   UNL d   1       2.059   1.377   0.045  0.00  0.00     0.188 C 
BRANCH  10  11
ATOM     11  C   UNL d   1       3.440   0.778  -0.040  0.00  0.00    -0.038 A 
ATOM     12  C   UNL d   1       3.984   0.430  -1.288  0.00  0.00     0.010 A 
ATOM     13  C   UNL d   1       5.284  -0.070  -1.383  0.00  0.00     0.024 A 
ATOM     14  C   UNL d   1       6.047  -0.238  -0.230  0.00  0.00     0.034 A 
ATOM     15  C   UNL d   1       5.513   0.075   1.019  0.00  0.00     0.024 A 
ATOM     16 CL   UNL d   1       7.659  -0.825  -0.348  0.00  0.00    -0.084 Cl
ATOM     17  C   UNL d   1       4.213   0.580   1.115  0.00  0.00     0.010 A 
ENDBRANCH  10  11
ENDBRANCH   2  10
TORSDOF 2
