REMARK  1 active torsions:
REMARK  status: ('A' for Active; 'I' for Inactive)
REMARK    1  A    between atoms: C_15  and  C_12 
ROOT
ATOM      1  N   UNL d   1      -0.810   1.024  -0.004  0.00  0.00    -0.196 N 
ATOM      2  C   UNL d   1       0.058  -0.040   0.003  0.00  0.00     0.177 A 
ATOM      3  N   UNL d   1       1.343   0.019   0.019  0.00  0.00    -0.300 N 
ATOM      4  HN  UNL d   1       1.934  -0.812   0.021  1.00  0.00     0.171 HD
ATOM      5  N   UNL d   1      -0.383   2.334   0.006  0.00  0.00    -0.288 N 
ATOM      6  HN  UNL d   1      -1.034   3.119   0.000  1.00  0.00     0.187 HD
ATOM      7  C   UNL d   1      -2.167   0.736  -0.017  0.00  0.00     0.285 A 
ATOM      8  C   UNL d   1      -2.348  -0.748  -0.016  0.00  0.00     0.079 A 
ATOM      9  S   UNL d   1      -0.817  -1.547  -0.008  0.00  0.00    -0.046 SA
ATOM     10  C   UNL d   1       1.853   1.298   0.031  0.00  0.00     0.271 A 
ATOM     11  C   UNL d   1       0.907   2.502   0.024  0.00  0.00     0.090 A 
ATOM     12  C   UNL d   1      -3.567  -1.307  -0.017  0.00  0.00     0.036 C 
ATOM     13  O   UNL d   1      -3.102   1.526  -0.027  0.00  0.00    -0.265 OA
ATOM     14  O   UNL d   1       3.054   1.527   0.050  0.00  0.00    -0.266 OA
ATOM     15  C   UNL d   1       1.489   3.885   0.040  0.00  0.00     0.076 C 
ENDROOT
BRANCH  12  16
ATOM     16  C   UNL d   1      -3.838  -2.747  -0.012  0.00  0.00    -0.035 A 
ATOM     17  C   UNL d   1      -3.970  -3.439   1.198  0.00  0.00     0.013 A 
ATOM     18  C   UNL d   1      -4.188  -4.819   1.199  0.00  0.00     0.024 A 
ATOM     19  C   UNL d   1      -4.282  -5.507  -0.010  0.00  0.00     0.034 A 
ATOM     20  C   UNL d   1      -4.178  -4.822  -1.220  0.00  0.00     0.024 A 
ATOM     21 CL   UNL d   1      -4.519  -7.211  -0.010  0.00  0.00    -0.084 Cl
ATOM     22  C   UNL d   1      -3.957  -3.442  -1.221  0.00  0.00     0.013 A 
ENDBRANCH  12  16
TORSDOF 1
