REMARK  3 active torsions:
REMARK  status: ('A' for Active; 'I' for Inactive)
REMARK    1  A    between atoms: C_2  and  C_1 
REMARK       I    between atoms: C_3  and  N_5 
REMARK       I    between atoms: N_6  and  C_3 
REMARK    2  A    between atoms: N_5  and  C_4 
REMARK    3  A    between atoms: C_15  and  N_6 
ROOT
ATOM      1  C   UNL d   1       1.159   2.194   0.527  0.00  0.00     0.321 C 
ATOM      2  N   UNL d   1       1.693   3.429   0.726  0.00  0.00    -0.307 N 
ATOM      3  N   UNL d   1       1.552   1.186   1.374  0.00  0.00    -0.338 N 
ATOM      4  O   UNL d   1       0.525   1.998  -0.505  0.00  0.00    -0.247 OA
ATOM      5  H   UNL d   1       1.701   3.940  -0.154  0.00  0.00     0.170 HD
ATOM      6  H   UNL d   1       2.285   1.441   2.018  0.00  0.00     0.164 HD
ENDROOT
BRANCH   2   7
ATOM      7  C   UNL d   1       2.184   4.095   1.858  0.00  0.00     0.066 A 
ATOM      8  C   UNL d   1       3.064   5.181   1.706  0.00  0.00     0.077 A 
ATOM      9  C   UNL d   1       3.441   5.912   2.844  0.00  0.00     0.035 A 
ATOM     10  C   UNL d   1       2.932   5.545   4.075  0.00  0.00     0.088 A 
ATOM     11  N   UNL d   1       2.100   4.500   4.250  0.00  0.00    -0.373 N 
ATOM     12  C   UNL d   1       1.740   3.804   3.144  0.00  0.00     0.117 A 
ATOM     13  HN  UNL d   1       1.755   4.244   5.175  1.00  0.00     0.164 HD
BRANCH   8  14
ATOM     14  C   UNL d   1       3.702   5.552   0.391  0.00  0.00     0.419 C 
ATOM     15  F   UNL d   1       3.102   5.001  -0.700  0.00  0.00    -0.166 F 
ATOM     16  F   UNL d   1       5.008   5.169   0.331  0.00  0.00    -0.166 F 
ATOM     17  F   UNL d   1       3.699   6.896   0.169  0.00  0.00    -0.166 F 
ENDBRANCH   8  14
ENDBRANCH   2   7
BRANCH   3  18
ATOM     18  C   UNL d   1       1.664  -0.152   0.774  0.00  0.00     0.086 C 
ATOM     19  C   UNL d   1       0.315  -0.883   0.636  0.00  0.00     0.025 C 
ATOM     20  C   UNL d   1      -0.030  -1.842   1.771  0.00  0.00     0.002 C 
ATOM     21  C   UNL d   1       1.141  -2.750   2.115  0.00  0.00     0.000 C 
ATOM     22  C   UNL d   1       2.332  -1.908   2.546  0.00  0.00     0.002 C 
ATOM     23  C   UNL d   1       2.782  -0.988   1.420  0.00  0.00     0.025 C 
ENDBRANCH   3  18
TORSDOF 3
