REMARK  3 active torsions:
REMARK  status: ('A' for Active; 'I' for Inactive)
REMARK    1  A    between atoms: C_15  and  N_2 
REMARK       I    between atoms: C_11  and  N_10 
REMARK    2  A    between atoms: O_19  and  C_11 
REMARK    3  A    between atoms: C_22  and  O_19 
ROOT
ATOM      1  C   UNL d   1       0.683   0.430   0.047  0.00  0.00     0.074 A 
ATOM      2  N   UNL d   1       2.986   1.177   0.054  0.00  0.00    -0.254 N 
ATOM      3  C   UNL d   1       1.177  -0.835  -0.034  0.00  0.00     0.093 A 
ATOM      4  C   UNL d   1       3.449  -0.164  -0.016  0.00  0.00     0.186 A 
ATOM      5  C   UNL d   1       1.611   1.543   0.107  0.00  0.00     0.268 A 
ATOM      6  N   UNL d   1       2.494  -1.155  -0.078  0.00  0.00    -0.326 N 
ATOM      7  C   UNL d   1      -0.749   0.397   0.044  0.00  0.00    -0.023 A 
ATOM      8  C   UNL d   1      -1.230  -0.909   0.014  0.00  0.00     0.010 A 
ATOM      9  S   UNL d   1       0.032  -2.062  -0.066  0.00  0.00    -0.074 SA
ATOM     10  N   UNL d   1      -3.493  -0.131   0.326  0.00  0.00    -0.323 N 
ATOM     11  C   UNL d   1      -4.358  -0.079   1.399  0.00  0.00     0.363 C 
ATOM     12  C   UNL d   1      -2.679  -1.313   0.016  0.00  0.00     0.174 C 
ATOM     13  S   UNL d   1       5.040  -0.720   0.039  0.00  0.00    -0.040 SA
ATOM     14  C   UNL d   1      -1.698   1.563   0.093  0.00  0.00     0.061 C 
ATOM     15  O   UNL d   1       1.189   2.698   0.175  0.00  0.00    -0.267 OA
ATOM     16  C   UNL d   1      -3.110   1.120  -0.339  0.00  0.00     0.133 C 
ATOM     17  O   UNL d   1      -4.883   0.951   1.803  0.00  0.00    -0.238 OA
ATOM     18  H   UNL d   1       2.783  -2.126  -0.110  0.00  0.00     0.169 HD
ENDROOT
BRANCH   2  19
ATOM     19  C   UNL d   1       3.922   2.267   0.092  0.00  0.00     0.045 A 
ATOM     20  C   UNL d   1       3.903   3.174   1.162  0.00  0.00     0.030 A 
ATOM     21  C   UNL d   1       4.811   4.234   1.209  0.00  0.00     0.002 A 
ATOM     22  C   UNL d   1       5.732   4.410   0.178  0.00  0.00     0.000 A 
ATOM     23  C   UNL d   1       5.745   3.529  -0.901  0.00  0.00     0.002 A 
ATOM     24  C   UNL d   1       4.844   2.462  -0.946  0.00  0.00     0.030 A 
ENDBRANCH   2  19
BRANCH  11  25
ATOM     25  O   UNL d   1      -4.523  -1.292   1.989  0.00  0.00    -0.304 OA
BRANCH  25  26
ATOM     26  C   UNL d   1      -5.064  -1.266   3.317  0.00  0.00     0.176 C 
ATOM     27  C   UNL d   1      -3.910  -1.084   4.287  0.00  0.00     0.034 C 
ENDBRANCH  25  26
ENDBRANCH  11  25
TORSDOF 3
