REMARK  9 active torsions:
REMARK  status: ('A' for Active; 'I' for Inactive)
REMARK    1  A    between atoms: C_15  and  N_1 
REMARK    2  A    between atoms: C_12  and  C_2 
REMARK    3  A    between atoms: S_9  and  C_5 
REMARK    4  A    between atoms: C_8  and  C_16 
REMARK       I    between atoms: N_13  and  C_8 
REMARK    5  A    between atoms: C_16  and  S_9 
REMARK    6  A    between atoms: N_10  and  N_13 
REMARK    7  A    between atoms: C_17  and  C_15 
REMARK    8  A    between atoms: C_21  and  C_18 
REMARK    9  A    between atoms: O_23  and  C_22 
ROOT
ATOM      1  S   UNL d   1      -2.901  -0.006   0.178  0.00  0.00    -0.083 SA
ENDROOT
BRANCH   1   2
ATOM      2  C   UNL d   1      -1.191  -0.331   0.104  0.00  0.00     0.163 A 
ATOM      3  N   UNL d   1      -0.213   0.625   0.258  0.00  0.00    -0.307 N 
ATOM      4  C   UNL d   1       1.002  -0.027   0.099  0.00  0.00     0.135 A 
ATOM      5  N   UNL d   1       0.732  -1.310  -0.104  0.00  0.00    -0.283 N 
ATOM      6  N   UNL d   1      -0.631  -1.495  -0.114  0.00  0.00    -0.278 N 
ATOM      7  HN  UNL d   1       1.427  -2.045  -0.232  1.00  0.00     0.188 HD
ATOM      8  HN  UNL d   1      -1.118  -2.378  -0.264  1.00  0.00     0.189 HD
BRANCH   3   9
ATOM      9  C   UNL d   1      -0.430   2.017   0.611  0.00  0.00     0.159 C 
BRANCH   9  10
ATOM     10  C   UNL d   1      -0.625   2.950  -0.559  0.00  0.00    -0.017 C 
ATOM     11  C   UNL d   1      -0.579   2.654  -1.867  0.00  0.00     0.008 C 
ENDBRANCH   9  10
ENDBRANCH   3   9
BRANCH   4  12
ATOM     12  C   UNL d   1       2.370   0.532   0.180  0.00  0.00     0.009 A 
ATOM     13  C   UNL d   1       3.422  -0.291   0.618  0.00  0.00     0.015 A 
ATOM     14  C   UNL d   1       4.735   0.191   0.721  0.00  0.00     0.001 A 
ATOM     15  C   UNL d   1       5.024   1.510   0.385  0.00  0.00     0.000 A 
ATOM     16  C   UNL d   1       4.007   2.335  -0.079  0.00  0.00     0.001 A 
ATOM     17  C   UNL d   1       2.700   1.843  -0.195  0.00  0.00     0.015 A 
ENDBRANCH   4  12
ENDBRANCH   1   2
BRANCH   1  18
ATOM     18  C   UNL d   1      -3.593  -1.675  -0.003  0.00  0.00     0.186 C 
BRANCH  18  19
ATOM     19  C   UNL d   1      -5.115  -1.750   0.114  0.00  0.00     0.245 C 
ATOM     20  N   UNL d   1      -5.840  -0.661  -0.367  0.00  0.00    -0.270 N 
ATOM     21  H   UNL d   1      -5.371   0.180  -0.682  0.00  0.00     0.190 HD
ATOM     22  O   UNL d   1      -5.644  -2.778   0.539  0.00  0.00    -0.271 OA
BRANCH  20  23
ATOM     23  N   UNL d   1      -7.205  -0.747  -0.390  0.00  0.00    -0.308 N 
ATOM     24  C   UNL d   1      -7.878   0.278  -0.808  0.00  0.00     0.118 C 
ATOM     25  HN  UNL d   1      -7.680  -1.596  -0.085  1.00  0.00     0.186 HD
BRANCH  24  26
ATOM     26  C   UNL d   1      -9.362   0.229  -0.886  0.00  0.00    -0.017 A 
ATOM     27  C   UNL d   1     -10.049  -0.928  -0.490  0.00  0.00     0.049 A 
ATOM     28  C   UNL d   1     -11.441  -0.985  -0.571  0.00  0.00     0.069 A 
ATOM     29  C   UNL d   1     -12.144   0.117  -1.065  0.00  0.00     0.037 A 
ATOM     30  C   UNL d   1     -11.464   1.272  -1.460  0.00  0.00     0.004 A 
ATOM     31  C   UNL d   1     -10.073   1.334  -1.367  0.00  0.00     0.013 A 
BRANCH  28  32
ATOM     32  O   UNL d   1     -12.225  -2.044  -0.201  0.00  0.00    -0.356 OA
ATOM     33  C   UNL d   1     -11.555  -3.180   0.333  0.00  0.00     0.210 C 
ENDBRANCH  28  32
ENDBRANCH  24  26
ENDBRANCH  20  23
ENDBRANCH  18  19
ENDBRANCH   1  18
TORSDOF 9
