REMARK  0 active torsions:
REMARK  status: ('A' for Active; 'I' for Inactive)
ROOT
ATOM      1  C   UNL d   1       1.230  -0.948   0.419  0.00  0.00    -0.001 C 
ATOM      2  C   UNL d   1      -0.411  -0.830   0.212  0.00  0.00     0.012 C 
ATOM      3  C   UNL d   1       2.449  -2.256   0.559  0.00  0.00    -0.000 C 
ATOM      4  N   UNL d   1       3.775  -0.140  -0.083  0.00  0.00    -0.368 N 
ATOM      5  HN  UNL d   1       4.757   0.076  -0.252  1.00  0.00     0.165 HD
ATOM      6  C   UNL d   1       1.607   0.515   0.233  0.00  0.00    -0.007 C 
ATOM      7  O   UNL d   1      -0.645   1.704   0.083  0.00  0.00    -0.346 OA
ATOM      8  C   UNL d   1      -1.170   0.451   0.099  0.00  0.00     0.080 C 
ATOM      9  C   UNL d   1       3.352  -1.475  -0.052  0.00  0.00     0.020 C 
ATOM     10  C   UNL d   1      -1.301  -1.875   0.069  0.00  0.00     0.057 C 
ATOM     11  C   UNL d   1       3.719  -3.600   0.705  0.00  0.00     0.033 C 
ATOM     12  C   UNL d   1       2.918   0.836   0.102  0.00  0.00     0.098 C 
ATOM     13  C   UNL d   1       0.742   1.766   0.046  0.00  0.00     0.216 C 
ATOM     14  C   UNL d   1      -2.603   0.653   0.010  0.00  0.00     0.040 C 
ATOM     15  C   UNL d   1       3.896  -2.214  -1.019  0.00  0.00     0.063 C 
ATOM     16  C   UNL d   1      -2.740  -1.675  -0.001  0.00  0.00     0.117 C 
ATOM     17  C   UNL d   1       5.150  -3.423   0.301  0.00  0.00     0.013 C 
ATOM     18  C   UNL d   1      -3.406  -0.447  -0.003  0.00  0.00     0.045 C 
ATOM     19  C   UNL d   1       5.154  -2.403  -0.556  0.00  0.00     0.057 C 
ATOM     20 CL   UNL d   1       6.706  -4.205   0.236  0.00  0.00    -0.089 Cl
ATOM     21  F   UNL d   1      -3.519  -2.763  -0.019  0.00  0.00    -0.206 F 
ENDROOT
TORSDOF 0
