REMARK  3 active torsions:
REMARK  status: ('A' for Active; 'I' for Inactive)
REMARK    1  A    between atoms: O_7  and  N_2 
REMARK    2  A    between atoms: C_6  and  O_7 
REMARK    3  A    between atoms: C_14  and  C_6 
ROOT
ATOM      1  C   UNL d   1      -0.803   1.030   1.208  0.00  0.00     0.019 C 
ATOM      2  N   UNL d   1      -1.283   1.843   2.096  0.00  0.00    -0.265 N 
ATOM      3  HN  UNL d   1      -0.737   2.223   2.870  1.00  0.00     0.194 HD
ATOM      4  C   UNL d   1      -1.581   0.308   0.113  0.00  0.00     0.034 C 
ATOM      5  C   UNL d   1       0.701   0.771   1.181  0.00  0.00     0.034 C 
ATOM      6  C   UNL d   1       0.206  -1.487   0.180  0.00  0.00    -0.013 C 
ATOM      7  C   UNL d   1       0.486   0.516  -1.325  0.00  0.00    -0.013 C 
ATOM      8  C   UNL d   1       1.209   1.263  -0.185  0.00  0.00     0.015 C 
ATOM      9  C   UNL d   1       0.932  -0.738   1.314  0.00  0.00     0.015 C 
ATOM     10  C   UNL d   1      -1.028   0.800  -1.232  0.00  0.00     0.015 C 
ATOM     11  C   UNL d   1      -1.305  -1.197   0.279  0.00  0.00     0.015 C 
ATOM     12  C   UNL d   1       0.732  -0.994  -1.178  0.00  0.00     0.009 C 
ENDROOT
BRANCH   2  13
ATOM     13  O   UNL d   1      -2.641   2.144   1.876  0.00  0.00    -0.195 OA
BRANCH  13  14
ATOM     14  C   UNL d   1      -3.146   2.772   2.981  0.00  0.00     0.315 C 
ATOM     15  O   UNL d   1      -2.986   2.439   4.145  0.00  0.00    -0.257 OA
BRANCH  14  16
ATOM     16  C   UNL d   1      -3.903   3.998   2.580  0.00  0.00     0.041 A 
ATOM     17  C   UNL d   1      -4.409   4.824   3.597  0.00  0.00     0.019 A 
ATOM     18  C   UNL d   1      -5.032   6.038   3.284  0.00  0.00     0.025 A 
ATOM     19  C   UNL d   1      -5.156   6.428   1.953  0.00  0.00     0.034 A 
ATOM     20  C   UNL d   1      -4.677   5.610   0.932  0.00  0.00     0.025 A 
ATOM     21 CL   UNL d   1      -5.886   7.938   1.567  0.00  0.00    -0.084 Cl
ATOM     22  C   UNL d   1      -4.052   4.396   1.242  0.00  0.00     0.019 A 
ENDBRANCH  14  16
ENDBRANCH  13  14
ENDBRANCH   2  13
TORSDOF 3
