REMARK  7 active torsions:
REMARK  status: ('A' for Active; 'I' for Inactive)
REMARK    1  A    between atoms: N_7  and  C_1 
REMARK    2  A    between atoms: C_8  and  C_2 
REMARK    3  A    between atoms: C_13  and  C_5 
REMARK    4  A    between atoms: N_6  and  C_11 
REMARK       I    between atoms: C_9  and  N_7 
REMARK    5  A    between atoms: O_18  and  C_8 
REMARK    6  A    between atoms: C_11  and  C_9 
REMARK    7  A    between atoms: C_23  and  O_18 
ROOT
ATOM      1  C   UNL d   1       0.155   1.089  -0.038  0.00  0.00     0.093 C 
ATOM      2  C   UNL d   1       1.430   0.538   0.007  0.00  0.00     0.074 C 
ATOM      3  S   UNL d   1      -0.995  -0.084  -0.478  0.00  0.00    -0.071 SA
ATOM      4  C   UNL d   1       1.347  -0.911  -0.071  0.00  0.00     0.040 C 
ATOM      5  C   UNL d   1       0.053  -1.389  -0.171  0.00  0.00     0.018 C 
ENDROOT
BRANCH   1   6
ATOM      6  N   UNL d   1      -0.279   2.403   0.127  0.00  0.00    -0.319 N 
ATOM      7  C   UNL d   1      -1.608   2.760   0.368  0.00  0.00     0.235 C 
ATOM      8  O   UNL d   1      -2.551   1.998   0.583  0.00  0.00    -0.272 OA
ATOM      9  H   UNL d   1       0.435   3.102   0.314  0.00  0.00     0.169 HD
BRANCH   7  10
ATOM     10  C   UNL d   1      -1.851   4.269   0.432  0.00  0.00     0.198 C 
BRANCH  10  11
ATOM     11  N   UNL d   1      -1.743   4.762   1.809  0.00  0.00    -0.274 NA
ATOM     12  C   UNL d   1      -2.141   6.096   2.047  0.00  0.00     0.017 A 
ATOM     13  C   UNL d   1      -2.586   6.284   3.363  0.00  0.00    -0.036 A 
ATOM     14  C   UNL d   1      -2.104   7.173   1.177  0.00  0.00     0.024 A 
ATOM     15  C   UNL d   1      -2.949   7.529   3.849  0.00  0.00     0.009 A 
ATOM     16  C   UNL d   1      -2.565   4.979   4.082  0.00  0.00     0.055 C 
ATOM     17  C   UNL d   1      -2.903   8.612   2.974  0.00  0.00     0.001 A 
ATOM     18  C   UNL d   1      -2.497   8.433   1.643  0.00  0.00     0.002 A 
ATOM     19  C   UNL d   1      -2.453   4.023   2.883  0.00  0.00     0.101 C 
ENDBRANCH  10  11
ENDBRANCH   7  10
ENDBRANCH   1   6
BRANCH   2  20
ATOM     20  C   UNL d   1       2.706   1.242   0.165  0.00  0.00     0.296 C 
ATOM     21  O   UNL d   1       3.783   0.680  -0.015  0.00  0.00    -0.259 OA
BRANCH  20  22
ATOM     22  O   UNL d   1       2.578   2.551   0.528  0.00  0.00    -0.318 OA
BRANCH  22  23
ATOM     23  C   UNL d   1       3.809   3.291   0.621  0.00  0.00     0.174 C 
ATOM     24  C   UNL d   1       4.589   2.972   1.887  0.00  0.00     0.034 C 
ENDBRANCH  22  23
ENDBRANCH  20  22
ENDBRANCH   2  20
BRANCH   5  25
ATOM     25  C   UNL d   1      -0.498  -2.745  -0.007  0.00  0.00    -0.019 A 
ATOM     26  C   UNL d   1      -1.740  -3.118  -0.553  0.00  0.00     0.013 A 
ATOM     27  C   UNL d   1      -2.333  -4.341  -0.234  0.00  0.00     0.001 A 
ATOM     28  C   UNL d   1      -1.684  -5.225   0.620  0.00  0.00     0.000 A 
ATOM     29  C   UNL d   1      -0.434  -4.895   1.138  0.00  0.00     0.001 A 
ATOM     30  C   UNL d   1       0.156  -3.666   0.825  0.00  0.00     0.013 A 
ENDBRANCH   5  25
TORSDOF 7
