REMARK  1 active torsions:
REMARK  status: ('A' for Active; 'I' for Inactive)
REMARK    1  A    between atoms: C_3  and  C_1 
REMARK       I    between atoms: N_14  and  C_3 
ROOT
ATOM      1  C   UNL d   1       0.743   0.781   1.139  0.00  0.00     0.043 C 
ATOM      2  C   UNL d   1      -1.507   0.282   0.105  0.00  0.00     0.020 C 
ATOM      3  C   UNL d   1      -0.780   1.042   1.227  0.00  0.00     0.040 C 
ATOM      4  C   UNL d   1       0.983  -0.746   1.264  0.00  0.00     0.024 C 
ATOM      5  C   UNL d   1       1.252   1.240  -0.248  0.00  0.00     0.024 C 
ATOM      6  C   UNL d   1       0.250  -1.508   0.147  0.00  0.00    -0.012 C 
ATOM      7  C   UNL d   1       0.518   0.485  -1.370  0.00  0.00    -0.012 C 
ATOM      8  C   UNL d   1      -1.258  -1.227   0.251  0.00  0.00     0.025 C 
ATOM      9  C   UNL d   1      -0.993   0.762  -1.262  0.00  0.00     0.025 C 
ATOM     10  C   UNL d   1       0.767  -1.024  -1.217  0.00  0.00     0.009 C 
ATOM     11 BR   UNL d   1      -3.424   0.635   0.229  0.00  0.00    -0.085 Br
ENDROOT
BRANCH   1  12
ATOM     12  C   UNL d   1       1.483   1.519   2.260  0.00  0.00     0.224 C 
ATOM     13  O   UNL d   1       2.162   0.960   3.115  0.00  0.00    -0.273 OA
ATOM     14  N   UNL d   1       1.360   2.876   2.281  0.00  0.00    -0.369 N 
ATOM     15  H   UNL d   1       0.807   3.407   1.624  0.00  0.00     0.159 HD
ATOM     16  H   UNL d   1       1.838   3.373   3.022  0.00  0.00     0.159 HD
ENDBRANCH   1  12
TORSDOF 1
