REMARK  5 active torsions:
REMARK  status: ('A' for Active; 'I' for Inactive)
REMARK    1  A    between atoms: C_6  and  N_1 
REMARK    2  A    between atoms: C_2  and  O_9 
REMARK    3  A    between atoms: O_9  and  C_3 
REMARK    4  A    between atoms: C_13  and  C_6 
REMARK    5  A    between atoms: C_14  and  C_6 
ROOT
ATOM      1  N   UNL d   1       0.281   1.086  -0.229  0.00  0.00     0.106 N 
ATOM      2  C   UNL d   1      -0.128  -0.991  -0.184  0.00  0.00     0.185 C 
ATOM      3  C   UNL d   1      -0.791   0.279   0.406  0.00  0.00     0.307 C 
ATOM      4  C   UNL d   1       1.157  -0.111  -0.166  0.00  0.00     0.307 C 
ENDROOT
BRANCH   1   5
ATOM      5  C   UNL d   1       0.734   2.174   0.666  0.00  0.00     0.289 C 
BRANCH   5   6
ATOM      6  C   UNL d   1       1.941   2.905   0.077  0.00  0.00    -0.021 A 
ATOM      7  C   UNL d   1       1.883   3.477  -1.208  0.00  0.00     0.010 A 
ATOM      8  C   UNL d   1       2.963   4.192  -1.722  0.00  0.00     0.001 A 
ATOM      9  C   UNL d   1       4.121   4.346  -0.967  0.00  0.00     0.000 A 
ATOM     10  C   UNL d   1       4.201   3.775   0.304  0.00  0.00     0.001 A 
ATOM     11  C   UNL d   1       3.120   3.062   0.824  0.00  0.00     0.010 A 
ENDBRANCH   5   6
BRANCH   5  12
ATOM     12  C   UNL d   1      -0.392   3.171   0.990  0.00  0.00    -0.021 A 
ATOM     13  C   UNL d   1      -0.397   3.849   2.221  0.00  0.00     0.010 A 
ATOM     14  C   UNL d   1      -1.423   4.743   2.538  0.00  0.00     0.001 A 
ATOM     15  C   UNL d   1      -2.456   4.973   1.633  0.00  0.00     0.000 A 
ATOM     16  C   UNL d   1      -2.459   4.326   0.401  0.00  0.00     0.001 A 
ATOM     17  C   UNL d   1      -1.430   3.442   0.077  0.00  0.00     0.010 A 
ENDBRANCH   5  12
ENDBRANCH   1   5
BRANCH   2  18
ATOM     18  O   UNL d   1      -0.575  -1.434  -1.479  0.00  0.00    -0.341 OA
BRANCH  18  19
ATOM     19  C   UNL d   1      -1.772  -2.083  -1.694  0.00  0.00     0.081 A 
ATOM     20  C   UNL d   1      -2.764  -2.447  -0.766  0.00  0.00    -0.028 A 
ATOM     21  C   UNL d   1      -3.926  -3.105  -1.244  0.00  0.00     0.016 A 
ATOM     22  C   UNL d   1      -2.792  -2.247   0.723  0.00  0.00     0.051 C 
ATOM     23  C   UNL d   1      -4.123  -3.410  -2.590  0.00  0.00    -0.061 A 
ATOM     24  C   UNL d   1      -3.136  -3.053  -3.498  0.00  0.00     0.016 A 
ATOM     25  C   UNL d   1      -5.364  -4.133  -3.017  0.00  0.00     0.048 C 
ATOM     26  C   UNL d   1      -1.964  -2.404  -3.067  0.00  0.00    -0.028 A 
ATOM     27  C   UNL d   1      -0.964  -2.020  -4.133  0.00  0.00     0.051 C 
ENDBRANCH  18  19
ENDBRANCH   2  18
TORSDOF 5
