REMARK  2 active torsions:
REMARK  status: ('A' for Active; 'I' for Inactive)
REMARK    1  A    between atoms: N_2  and  C_1 
REMARK    2  A    between atoms: C_5  and  C_1 
REMARK       I    between atoms: C_4  and  N_2 
ROOT
ATOM      1  C   UNL d   1       1.120  -0.178   0.017  0.00  0.00     0.046 C 
ATOM      2  C   UNL d   1       0.385   0.959   0.128  0.00  0.00    -0.060 C 
ATOM      3  C   UNL d   1       0.993   2.341   0.258  0.00  0.00     0.045 C 
ATOM      4  C   UNL d   1      -1.127   1.028   0.118  0.00  0.00     0.045 C 
ENDROOT
BRANCH   1   5
ATOM      5  N   UNL d   1       0.514  -1.420  -0.067  0.00  0.00    -0.327 N 
ATOM      6  C   UNL d   1       1.104  -2.663  -0.239  0.00  0.00     0.218 C 
ATOM      7  O   UNL d   1       2.296  -2.916  -0.377  0.00  0.00    -0.274 OA
ATOM      8  C   UNL d   1       0.079  -3.769  -0.290  0.00  0.00     0.117 C 
ATOM      9  H   UNL d   1      -0.492  -1.435   0.005  0.00  0.00     0.169 HD
ENDBRANCH   1   5
BRANCH   1  10
ATOM     10  C   UNL d   1       2.598  -0.119  -0.047  0.00  0.00    -0.009 A 
ATOM     11  C   UNL d   1       3.370  -0.250   1.115  0.00  0.00     0.014 A 
ATOM     12  C   UNL d   1       4.764  -0.288   1.032  0.00  0.00     0.001 A 
ATOM     13  C   UNL d   1       5.394  -0.187  -0.208  0.00  0.00     0.000 A 
ATOM     14  C   UNL d   1       4.634  -0.030  -1.366  0.00  0.00     0.001 A 
ATOM     15  C   UNL d   1       3.241   0.012  -1.286  0.00  0.00     0.014 A 
ENDBRANCH   1  10
TORSDOF 2
