REMARK  5 active torsions:
REMARK  status: ('A' for Active; 'I' for Inactive)
REMARK    1  A    between atoms: O_12  and  C_9 
REMARK    2  A    between atoms: C_10  and  C_16 
REMARK       I    between atoms: N_17  and  C_10 
REMARK    3  A    between atoms: C_16  and  O_12 
REMARK    4  A    between atoms: C_15  and  C_20 
REMARK    5  A    between atoms: C_20  and  N_17 
ROOT
ATOM      1  C   UNL d   1       0.013   0.636   0.013  0.00  0.00     0.092 A 
ATOM      2  C   UNL d   1       0.072  -0.761   0.003  0.00  0.00     0.044 A 
ATOM      3  C   UNL d   1       1.205   1.381   0.065  0.00  0.00     0.006 A 
ATOM      4  C   UNL d   1      -1.184  -1.532   0.059  0.00  0.00     0.165 C 
ATOM      5  O   UNL d   1      -1.170   1.331  -0.016  0.00  0.00    -0.339 OA
ATOM      6  C   UNL d   1      -2.334   0.592  -0.431  0.00  0.00     0.067 C 
ATOM      7  C   UNL d   1      -2.428  -0.737   0.316  0.00  0.00     0.121 C 
ATOM      8  C   UNL d   1       1.298  -1.426  -0.033  0.00  0.00     0.021 A 
ATOM      9  C   UNL d   1       2.442   0.704   0.068  0.00  0.00     0.078 A 
ATOM     10  O   UNL d   1      -1.187  -2.756  -0.035  0.00  0.00    -0.292 OA
ATOM     11  C   UNL d   1       2.484  -0.693  -0.015  0.00  0.00     0.038 A 
ATOM     12  C   UNL d   1       1.192   2.887   0.128  0.00  0.00     0.054 C 
ATOM     13  C   UNL d   1      -2.335   0.417  -1.960  0.00  0.00     0.046 C 
ATOM     14  C   UNL d   1      -3.547   1.456  -0.052  0.00  0.00     0.046 C 
ENDROOT
BRANCH   9  15
ATOM     15  O   UNL d   1       3.559   1.499   0.121  0.00  0.00    -0.341 OA
BRANCH  15  16
ATOM     16  C   UNL d   1       4.731   0.908   0.679  0.00  0.00     0.278 C 
BRANCH  16  17
ATOM     17  C   UNL d   1       5.666   1.963   1.270  0.00  0.00     0.242 C 
ATOM     18  O   UNL d   1       6.699   1.642   1.851  0.00  0.00    -0.271 OA
ATOM     19  N   UNL d   1       5.258   3.266   1.113  0.00  0.00    -0.356 N 
ATOM     20  H   UNL d   1       4.364   3.426   0.659  0.00  0.00     0.162 HD
BRANCH  19  21
ATOM     21  C   UNL d   1       5.944   4.374   1.726  0.00  0.00     0.149 C 
BRANCH  21  22
ATOM     22  C   UNL d   1       6.275   5.364   0.657  0.00  0.00    -0.018 C 
ATOM     23  C   UNL d   1       5.902   6.651   0.670  0.00  0.00     0.008 C 
ENDBRANCH  21  22
ENDBRANCH  19  21
ENDBRANCH  16  17
ENDBRANCH  15  16
ENDBRANCH   9  15
TORSDOF 5
