REMARK  0 active torsions:
REMARK  status: ('A' for Active; 'I' for Inactive)
ROOT
ATOM      1  C   UNL d   1       1.046  -1.567  -0.041  0.00  0.00     0.042 A 
ATOM      2  C   UNL d   1       1.996  -2.644   0.059  0.00  0.00     0.042 A 
ATOM      3  C   UNL d   1      -0.280  -1.601  -0.425  0.00  0.00     0.031 A 
ATOM      4  C   UNL d   1       2.683  -3.106   1.165  0.00  0.00     0.031 A 
ATOM      5  C   UNL d   1      -0.913  -0.328  -0.406  0.00  0.00     0.047 A 
ATOM      6  C   UNL d   1       3.545  -4.201   0.884  0.00  0.00     0.047 A 
ATOM      7  S   UNL d   1       2.433  -3.553  -1.338  0.00  0.00    -0.080 SA
ATOM      8  S   UNL d   1       1.519   0.050   0.326  0.00  0.00    -0.080 SA
ATOM      9  C   UNL d   1       3.479  -4.538  -0.442  0.00  0.00     0.053 A 
ATOM     10  C   UNL d   1      -0.033   0.640   0.001  0.00  0.00     0.053 A 
ATOM     11 BR   UNL d   1      -1.274  -3.139  -0.915  0.00  0.00    -0.050 Br
ATOM     12 BR   UNL d   1       2.544  -2.447   2.936  0.00  0.00    -0.050 Br
ATOM     13 BR   UNL d   1      -0.499   2.447   0.183  0.00  0.00    -0.043 Br
ATOM     14 BR   UNL d   1       4.449  -5.951  -1.199  0.00  0.00    -0.043 Br
ENDROOT
TORSDOF 0
