REMARK  6 active torsions:
REMARK  status: ('A' for Active; 'I' for Inactive)
REMARK    1  A    between atoms: C_18  and  N_1 
REMARK    2  A    between atoms: S_2  and  N_10 
REMARK    3  A    between atoms: C_9  and  S_2 
REMARK    4  A    between atoms: C_15  and  C_7 
REMARK    5  A    between atoms: N_10  and  C_15 
REMARK    6  A    between atoms: N_14  and  C_11 
ROOT
ATOM      1  N   UNL d   1       3.519   0.816  -0.089  0.00  0.00    -0.310 N 
ATOM      2  H   UNL d   1       2.642   1.305  -0.282  0.00  0.00     0.172 HD
ENDROOT
BRANCH   1   3
ATOM      3  S   UNL d   1       4.886   1.783  -0.013  0.00  0.00     0.260 S 
ATOM      4  O   UNL d   1       4.699   2.688   1.102  0.00  0.00    -0.200 OA
ATOM      5  O   UNL d   1       6.048   0.930  -0.111  0.00  0.00    -0.200 OA
BRANCH   3   6
ATOM      6  C   UNL d   1       4.797   2.749  -1.479  0.00  0.00     0.095 A 
ATOM      7  C   UNL d   1       5.442   2.342  -2.627  0.00  0.00     0.115 A 
ATOM      8  N   UNL d   1       5.498   3.093  -3.759  0.00  0.00    -0.351 N 
ATOM      9  C   UNL d   1       4.919   4.317  -3.766  0.00  0.00     0.103 A 
ATOM     10  HN  UNL d   1       5.969   2.739  -4.591  1.00  0.00     0.166 HD
ATOM     11  C   UNL d   1       4.274   4.787  -2.620  0.00  0.00     0.050 A 
ATOM     12  C   UNL d   1       4.213   4.006  -1.466  0.00  0.00     0.030 A 
BRANCH   9  13
ATOM     13  N   UNL d   1       5.008   5.084  -4.902  0.00  0.00    -0.363 N 
ATOM     14  C   UNL d   1       6.072   4.849  -5.885  0.00  0.00     0.150 C 
ATOM     15  C   UNL d   1       5.469   4.626  -7.279  0.00  0.00     0.187 C 
ATOM     16  O   UNL d   1       4.586   5.700  -7.652  0.00  0.00    -0.388 OA
ATOM     17  C   UNL d   1       3.508   5.802  -6.710  0.00  0.00     0.187 C 
ATOM     18  C   UNL d   1       4.017   6.091  -5.288  0.00  0.00     0.150 C 
ENDBRANCH   9  13
ENDBRANCH   3   6
ENDBRANCH   1   3
BRANCH   1  19
ATOM     19  C   UNL d   1       3.648  -0.439  -0.840  0.00  0.00     0.193 C 
BRANCH  19  20
ATOM     20  C   UNL d   1       2.359  -1.192  -0.790  0.00  0.00     0.069 A 
ATOM     21  N   UNL d   1       1.161  -0.587  -0.741  0.00  0.00    -0.280 N 
ATOM     22  N   UNL d   1       0.304  -1.649  -0.643  0.00  0.00    -0.197 N 
ATOM     23  HN  UNL d   1       0.945   0.409  -0.770  1.00  0.00     0.189 HD
ATOM     24  N   UNL d   1       0.881  -2.880  -0.708  0.00  0.00    -0.282 N 
ATOM     25  C   UNL d   1       2.180  -2.591  -0.821  0.00  0.00     0.049 A 
ATOM     26  HN  UNL d   1       0.433  -3.796  -0.677  1.00  0.00     0.189 HD
ATOM     27  C   UNL d   1       3.207  -3.648  -0.963  0.00  0.00     0.072 C 
BRANCH  22  28
ATOM     28  C   UNL d   1      -1.098  -1.480  -0.495  0.00  0.00     0.074 A 
ATOM     29  C   UNL d   1      -1.664  -0.200  -0.582  0.00  0.00     0.033 A 
ATOM     30  C   UNL d   1      -3.043  -0.035  -0.436  0.00  0.00     0.002 A 
ATOM     31  C   UNL d   1      -3.858  -1.140  -0.189  0.00  0.00     0.000 A 
ATOM     32  C   UNL d   1      -3.299  -2.414  -0.096  0.00  0.00     0.002 A 
ATOM     33  C   UNL d   1      -1.923  -2.590  -0.256  0.00  0.00     0.033 A 
ENDBRANCH  22  28
ENDBRANCH  19  20
ENDBRANCH   1  19
TORSDOF 6
