REMARK  10 active torsions:
REMARK  status: ('A' for Active; 'I' for Inactive)
REMARK    1  A    between atoms: C_2  and  S_1 
REMARK    2  A    between atoms: N_3  and  S_1 
REMARK    3  A    between atoms: N_5  and  N_3 
REMARK       I    between atoms: C_6  and  N_5 
REMARK    4  A    between atoms: C_11  and  C_6 
REMARK    5  A    between atoms: O_17  and  C_8 
REMARK       I    between atoms: C_9  and  N_16 
REMARK    6  A    between atoms: C_18  and  C_9 
REMARK    7  A    between atoms: C_24  and  C_10 
REMARK    8  A    between atoms: N_16  and  C_24 
REMARK    9  A    between atoms: C_31  and  O_17 
REMARK   10  A    between atoms: O_32  and  C_19 
ROOT
ATOM      1  S   UNL d   1       1.113   0.123   0.318  0.00  0.00     0.282 S 
ATOM      2  O   UNL d   1       2.503   0.122  -0.084  0.00  0.00    -0.198 OA
ATOM      3  O   UNL d   1       0.690  -0.533   1.538  0.00  0.00    -0.198 OA
ENDROOT
BRANCH   1   4
ATOM      4  C   UNL d   1       0.218  -0.698  -0.979  0.00  0.00     0.122 A 
ATOM      5  S   UNL d   1       0.334  -0.017  -2.544  0.00  0.00    -0.080 SA
ATOM      6  C   UNL d   1      -0.671  -1.230  -3.228  0.00  0.00     0.002 A 
ATOM      7  C   UNL d   1      -1.094  -2.130  -2.269  0.00  0.00     0.018 A 
ATOM      8  C   UNL d   1      -0.580  -1.826  -0.977  0.00  0.00     0.034 A 
BRANCH   6   9
ATOM      9  C   UNL d   1      -0.997  -1.227  -4.691  0.00  0.00     0.169 C 
BRANCH   9  10
ATOM     10  N   UNL d   1      -2.101  -0.318  -4.899  0.00  0.00    -0.352 N 
ATOM     11  C   UNL d   1      -3.024  -0.527  -5.900  0.00  0.00     0.251 C 
ATOM     12  O   UNL d   1      -2.983  -1.500  -6.646  0.00  0.00    -0.268 OA
ATOM     13  H   UNL d   1      -2.027   0.584  -4.457  0.00  0.00     0.163 HD
BRANCH  11  14
ATOM     14  C   UNL d   1      -4.106   0.497  -6.063  0.00  0.00     0.032 A 
ATOM     15  C   UNL d   1      -4.337   1.522  -5.134  0.00  0.00     0.018 A 
ATOM     16  C   UNL d   1      -5.380   2.436  -5.333  0.00  0.00     0.025 A 
ATOM     17  C   UNL d   1      -6.203   2.322  -6.451  0.00  0.00     0.034 A 
ATOM     18  C   UNL d   1      -5.993   1.304  -7.377  0.00  0.00     0.025 A 
ATOM     19 CL   UNL d   1      -7.491   3.438  -6.679  0.00  0.00    -0.084 Cl
ATOM     20  C   UNL d   1      -4.948   0.395  -7.183  0.00  0.00     0.018 A 
ENDBRANCH  11  14
ENDBRANCH   9  10
ENDBRANCH   6   9
ENDBRANCH   1   4
BRANCH   1  21
ATOM     21  N   UNL d   1       0.597   1.723   0.410  0.00  0.00    -0.220 N 
ATOM     22  H   UNL d   1      -0.210   2.044  -0.133  0.00  0.00     0.200 HD
BRANCH  21  23
ATOM     23  N   UNL d   1       1.127   2.587   1.443  0.00  0.00    -0.256 N 
ATOM     24  C   UNL d   1       0.638   3.875   1.552  0.00  0.00     0.270 C 
ATOM     25  O   UNL d   1      -0.193   4.346   0.777  0.00  0.00    -0.266 OA
ATOM     26  H   UNL d   1       1.886   2.224   2.018  0.00  0.00     0.191 HD
BRANCH  24  27
ATOM     27  C   UNL d   1       1.197   4.693   2.661  0.00  0.00     0.036 A 
ATOM     28  C   UNL d   1       1.352   6.077   2.477  0.00  0.00     0.056 A 
ATOM     29  C   UNL d   1       1.901   6.880   3.488  0.00  0.00     0.103 A 
ATOM     30  C   UNL d   1       2.238   6.292   4.720  0.00  0.00     0.101 A 
ATOM     31  C   UNL d   1       2.074   4.912   4.899  0.00  0.00     0.040 A 
ATOM     32  C   UNL d   1       1.554   4.112   3.882  0.00  0.00     0.020 A 
BRANCH  29  33
ATOM     33  O   UNL d   1       2.109   8.224   3.331  0.00  0.00    -0.343 OA
BRANCH  33  34
ATOM     34  C   UNL d   1       2.450   8.720   2.035  0.00  0.00     0.129 C 
ATOM     35  C   UNL d   1       3.787   8.188   1.520  0.00  0.00     0.032 C 
ATOM     36  C   UNL d   1       4.398   9.305   0.680  0.00  0.00     0.002 C 
ATOM     37  C   UNL d   1       3.607  10.570   0.986  0.00  0.00     0.002 C 
ATOM     38  C   UNL d   1       2.700  10.224   2.155  0.00  0.00     0.032 C 
ENDBRANCH  33  34
ENDBRANCH  29  33
BRANCH  30  39
ATOM     39  O   UNL d   1       2.802   6.905   5.808  0.00  0.00    -0.353 OA
ATOM     40  C   UNL d   1       2.408   8.247   6.069  0.00  0.00     0.210 C 
ENDBRANCH  30  39
ENDBRANCH  24  27
ENDBRANCH  21  23
ENDBRANCH   1  21
TORSDOF 10
