REMARK  4 active torsions:
REMARK  status: ('A' for Active; 'I' for Inactive)
REMARK    1  A    between atoms: C_2  and  N_1 
REMARK       I    between atoms: C_3  and  N_1 
REMARK    2  A    between atoms: C_5  and  C_3 
REMARK    3  A    between atoms: C_6  and  C_7 
REMARK    4  A    between atoms: O_14  and  C_6 
ROOT
ATOM      1  N   UNL d   1       5.742  -1.532   1.902  0.00  0.00    -0.322 N 
ATOM      2  C   UNL d   1       4.990  -1.064   0.855  0.00  0.00     0.245 C 
ATOM      3  O   UNL d   1       5.388  -0.421  -0.110  0.00  0.00    -0.268 OA
ATOM      4  H   UNL d   1       5.266  -1.879   2.729  0.00  0.00     0.169 HD
ENDROOT
BRANCH   1   5
ATOM      5  C   UNL d   1       7.154  -1.479   1.999  0.00  0.00     0.052 A 
ATOM      6  C   UNL d   1       7.766  -1.671   3.250  0.00  0.00     0.039 A 
ATOM      7  C   UNL d   1       9.155  -1.597   3.388  0.00  0.00     0.045 A 
ATOM      8 BR   UNL d   1       6.734  -1.994   4.815  0.00  0.00    -0.049 Br
ATOM      9  C   UNL d   1       9.944  -1.359   2.267  0.00  0.00     0.035 A 
ATOM     10  C   UNL d   1       9.360  -1.205   1.014  0.00  0.00     0.026 A 
ATOM     11 CL   UNL d   1      11.653  -1.254   2.428  0.00  0.00    -0.084 Cl
ATOM     12  C   UNL d   1       7.970  -1.264   0.882  0.00  0.00     0.032 A 
ENDBRANCH   1   5
BRANCH   2  13
ATOM     13  C   UNL d   1       3.547  -1.362   0.987  0.00  0.00     0.081 C 
ATOM     14  C   UNL d   1       2.707  -1.543  -0.041  0.00  0.00     0.086 C 
BRANCH  14  15
ATOM     15  C   UNL d   1       2.907  -1.565  -1.507  0.00  0.00     0.165 C 
ATOM     16  O   UNL d   1       2.114  -2.169  -2.214  0.00  0.00    -0.647 OA
BRANCH  15  17
ATOM     17  O   UNL d   1       3.921  -0.856  -2.015  0.00  0.00    -0.773 OA
ATOM     18  H   UNL d   1       4.529  -0.443  -1.357  0.00  0.00     0.167 HD
ENDBRANCH  15  17
ENDBRANCH  14  15
ENDBRANCH   2  13
TORSDOF 4
