REMARK  5 active torsions:
REMARK  status: ('A' for Active; 'I' for Inactive)
REMARK       I    between atoms: C_2  and  N_1 
REMARK    1  A    between atoms: C_5  and  N_1 
REMARK    2  A    between atoms: C_3  and  C_2 
REMARK    3  A    between atoms: C_4  and  C_6 
REMARK    4  A    between atoms: O_10  and  C_4 
REMARK    5  A    between atoms: O_11  and  C_7 
ROOT
ATOM      1  N   UNL d   1       0.701   5.001  -0.155  0.00  0.00    -0.321 N 
ATOM      2  C   UNL d   1      -0.417   5.804  -0.176  0.00  0.00     0.246 C 
ATOM      3  O   UNL d   1      -0.474   6.945   0.255  0.00  0.00    -0.268 OA
ATOM      4  H   UNL d   1       0.588   3.998  -0.242  0.00  0.00     0.169 HD
ENDROOT
BRANCH   1   5
ATOM      5  C   UNL d   1       2.023   5.403   0.118  0.00  0.00     0.068 A 
ATOM      6  C   UNL d   1       2.925   4.425   0.566  0.00  0.00     0.095 A 
ATOM      7  C   UNL d   1       4.289   4.698   0.667  0.00  0.00     0.039 A 
ATOM      8  C   UNL d   1       4.754   5.978   0.370  0.00  0.00     0.003 A 
ATOM      9  C   UNL d   1       3.856   6.976  -0.012  0.00  0.00     0.002 A 
ATOM     10  C   UNL d   1       2.490   6.694  -0.133  0.00  0.00     0.032 A 
BRANCH   6  11
ATOM     11  O   UNL d   1       2.497   3.167   0.925  0.00  0.00    -0.354 OA
ATOM     12  C   UNL d   1       1.758   3.226   2.154  0.00  0.00     0.210 C 
ENDBRANCH   6  11
ENDBRANCH   1   5
BRANCH   2  13
ATOM     13  C   UNL d   1      -1.596   5.059  -0.704  0.00  0.00     0.081 C 
ATOM     14  C   UNL d   1      -2.882   5.438  -0.704  0.00  0.00     0.086 C 
BRANCH  14  15
ATOM     15  C   UNL d   1      -3.470   6.671  -0.184  0.00  0.00     0.165 C 
ATOM     16  O   UNL d   1      -4.511   6.717   0.441  0.00  0.00    -0.647 OA
BRANCH  15  17
ATOM     17  O   UNL d   1      -2.837   7.774  -0.600  0.00  0.00    -0.773 OA
ATOM     18  H   UNL d   1      -3.276   8.507  -0.126  0.00  0.00     0.167 HD
ENDBRANCH  15  17
ENDBRANCH  14  15
ENDBRANCH   2  13
TORSDOF 5
