REMARK  3 active torsions:
REMARK  status: ('A' for Active; 'I' for Inactive)
REMARK    1  A    between atoms: C_8  and  C_3 
REMARK    2  A    between atoms: C_9  and  C_4 
REMARK    3  A    between atoms: C_10  and  C_6 
ROOT
ATOM      1  N   UNL d   1      -1.039  -1.104   0.149  0.00  0.00    -0.354 N 
ATOM      2  HN  UNL d   1      -1.580  -1.967   0.206  1.00  0.00     0.166 HD
ATOM      3  C   UNL d   1       0.321  -1.147   0.096  0.00  0.00     0.049 C 
ATOM      4  C   UNL d   1       0.455   1.281   0.057  0.00  0.00    -0.016 C 
ATOM      5  C   UNL d   1       1.103   0.024  -0.032  0.00  0.00    -0.023 C 
ATOM      6  C   UNL d   1      -1.665   0.093   0.125  0.00  0.00     0.043 C 
ATOM      7  C   UNL d   1      -0.947   1.280   0.145  0.00  0.00     0.043 C 
ATOM      8  C   UNL d   1       2.585  -0.058  -0.303  0.00  0.00     0.051 C 
ENDROOT
BRANCH   3   9
ATOM      9  C   UNL d   1       0.867  -2.534   0.118  0.00  0.00    -0.009 A 
ATOM     10  C   UNL d   1       0.214  -3.566  -0.583  0.00  0.00     0.015 A 
ATOM     11  C   UNL d   1       0.748  -4.860  -0.648  0.00  0.00     0.024 A 
ATOM     12  C   UNL d   1       1.948  -5.145  -0.007  0.00  0.00     0.034 A 
ATOM     13  C   UNL d   1       2.588  -4.165   0.741  0.00  0.00     0.024 A 
ATOM     14 CL   UNL d   1       2.645  -6.711  -0.141  0.00  0.00    -0.084 Cl
ATOM     15  C   UNL d   1       2.032  -2.880   0.826  0.00  0.00     0.015 A 
ENDBRANCH   3   9
BRANCH   6  16
ATOM     16  C   UNL d   1      -3.143   0.063   0.031  0.00  0.00    -0.009 A 
ATOM     17  C   UNL d   1      -3.889  -0.991   0.586  0.00  0.00     0.013 A 
ATOM     18  C   UNL d   1      -5.283  -1.028   0.494  0.00  0.00     0.001 A 
ATOM     19  C   UNL d   1      -5.968  -0.011  -0.164  0.00  0.00     0.000 A 
ATOM     20  C   UNL d   1      -5.260   1.037  -0.740  0.00  0.00     0.001 A 
ATOM     21  C   UNL d   1      -3.864   1.069  -0.647  0.00  0.00     0.013 A 
ENDBRANCH   6  16
BRANCH   4  22
ATOM     22  C   UNL d   1       1.159   2.592   0.013  0.00  0.00    -0.025 A 
ATOM     23  C   UNL d   1       2.315   2.847   0.772  0.00  0.00     0.012 A 
ATOM     24  C   UNL d   1       2.989   4.070   0.688  0.00  0.00     0.001 A 
ATOM     25  C   UNL d   1       2.490   5.089  -0.116  0.00  0.00     0.000 A 
ATOM     26  C   UNL d   1       1.322   4.883  -0.841  0.00  0.00     0.001 A 
ATOM     27  C   UNL d   1       0.673   3.646  -0.785  0.00  0.00     0.012 A 
ENDBRANCH   4  22
TORSDOF 3
