REMARK  6 active torsions:
REMARK  status: ('A' for Active; 'I' for Inactive)
REMARK    1  A    between atoms: C_6  and  C_1 
REMARK    2  A    between atoms: C_18  and  C_5 
REMARK       I    between atoms: C_9  and  N_12 
REMARK    3  A    between atoms: C_11  and  C_9 
REMARK    4  A    between atoms: C_10  and  C_11 
REMARK    5  A    between atoms: N_12  and  C_18 
REMARK    6  A    between atoms: O_19  and  C_16 
ROOT
ATOM      1  C   UNL d   1       4.764   1.674   1.180  0.00  0.00     0.222 C 
ATOM      2  N   UNL d   1       3.529   1.248   1.627  0.00  0.00    -0.355 N 
ATOM      3  O   UNL d   1       5.790   1.025   1.375  0.00  0.00    -0.273 OA
ATOM      4  H   UNL d   1       2.678   1.754   1.410  0.00  0.00     0.162 HD
ENDROOT
BRANCH   2   5
ATOM      5  C   UNL d   1       3.405  -0.081   2.167  0.00  0.00     0.180 C 
BRANCH   5   6
ATOM      6  C   UNL d   1       2.090  -0.320   2.842  0.00  0.00     0.034 A 
ATOM      7  N   UNL d   1       1.029   0.588   2.762  0.00  0.00    -0.351 N 
ATOM      8  C   UNL d   1      -0.007   0.142   3.461  0.00  0.00     0.091 A 
ATOM      9  HN  UNL d   1       1.049   1.466   2.242  1.00  0.00     0.166 HD
ATOM     10  S   UNL d   1       0.231  -1.398   4.201  0.00  0.00    -0.081 SA
ATOM     11  C   UNL d   1       1.813  -1.456   3.579  0.00  0.00     0.078 A 
BRANCH   8  12
ATOM     12  C   UNL d   1      -1.249   0.882   3.582  0.00  0.00     0.038 A 
ATOM     13  S   UNL d   1      -2.518   0.427   4.657  0.00  0.00    -0.099 SA
ATOM     14  C   UNL d   1      -3.506   1.735   4.184  0.00  0.00     0.050 A 
ATOM     15  C   UNL d   1      -2.897   2.517   3.230  0.00  0.00     0.008 A 
ATOM     16  C   UNL d   1      -1.599   2.030   2.889  0.00  0.00     0.022 A 
ENDBRANCH   8  12
ENDBRANCH   5   6
ENDBRANCH   2   5
BRANCH   1  17
ATOM     17  C   UNL d   1       4.770   2.987   0.423  0.00  0.00     0.144 C 
BRANCH  17  18
ATOM     18  C   UNL d   1       5.095   4.229   1.228  0.00  0.00    -0.016 A 
ATOM     19  C   UNL d   1       5.489   5.405   0.558  0.00  0.00     0.074 A 
ATOM     20  C   UNL d   1       5.684   6.593   1.271  0.00  0.00     0.037 A 
ATOM     21  C   UNL d   1       5.534   6.614   2.657  0.00  0.00     0.003 A 
ATOM     22  C   UNL d   1       5.183   5.450   3.333  0.00  0.00     0.001 A 
ATOM     23  C   UNL d   1       4.955   4.269   2.625  0.00  0.00     0.010 A 
BRANCH  19  24
ATOM     24  O   UNL d   1       5.619   5.325  -0.807  0.00  0.00    -0.355 OA
ATOM     25  C   UNL d   1       6.611   6.179  -1.373  0.00  0.00     0.210 C 
ENDBRANCH  19  24
ENDBRANCH  17  18
ENDBRANCH   1  17
TORSDOF 6
