REMARK  3 active torsions:
REMARK  status: ('A' for Active; 'I' for Inactive)
REMARK    1  A    between atoms: C_12  and  N_1 
REMARK    2  A    between atoms: N_6  and  N_13 
REMARK    3  A    between atoms: N_13  and  C_18 
ROOT
ATOM      1  C   UNL d   1       2.153  -1.433  -0.029  0.00  0.00     0.056 A 
ATOM      2  C   UNL d   1       2.203  -2.480  -0.959  0.00  0.00     0.034 A 
ATOM      3  C   UNL d   1       3.249  -1.217   0.812  0.00  0.00     0.034 A 
ATOM      4  C   UNL d   1       4.463  -3.046  -0.254  0.00  0.00     0.048 A 
ATOM      5  C   UNL d   1       4.394  -2.015   0.692  0.00  0.00     0.033 A 
ATOM      6  C   UNL d   1       3.346  -3.279  -1.061  0.00  0.00     0.033 A 
ENDROOT
BRANCH   4   7
ATOM      7  N   UNL d   1       5.583  -3.895  -0.256  0.00  0.00    -0.300 N 
ATOM      8  H   UNL d   1       6.485  -3.433  -0.100  0.00  0.00     0.187 HD
BRANCH   7   9
ATOM      9  N   UNL d   1       5.507  -5.094  -0.886  0.00  0.00    -0.294 N 
ATOM     10  C   UNL d   1       6.540  -5.878  -0.792  0.00  0.00     0.140 C 
ATOM     11  C   UNL d   1       6.416  -7.281  -1.323  0.00  0.00     0.180 C 
ATOM     12  C   UNL d   1       7.804  -5.529  -0.041  0.00  0.00     0.180 C 
ATOM     13  O   UNL d   1       5.998  -7.513  -2.449  0.00  0.00    -0.291 OA
ATOM     14  C   UNL d   1       6.862  -8.331  -0.341  0.00  0.00     0.086 C 
ATOM     15  C   UNL d   1       8.268  -7.996   0.148  0.00  0.00     0.015 C 
ATOM     16  C   UNL d   1       8.348  -6.631   0.831  0.00  0.00     0.086 C 
ATOM     17  O   UNL d   1       8.268  -4.397  -0.087  0.00  0.00    -0.291 OA
ATOM     18  HN  UNL d   1       4.676  -5.368  -1.410  1.00  0.00     0.187 HD
ENDBRANCH   7   9
ENDBRANCH   4   7
BRANCH   1  19
ATOM     19  N   UNL d   1       0.959  -0.665   0.083  0.00  0.00    -0.261 N 
ATOM     20  N   UNL d   1      -0.218  -1.211  -0.329  0.00  0.00    -0.298 N 
ATOM     21  C   UNL d   1      -1.164  -0.381   0.110  0.00  0.00     0.024 C 
ATOM     22  HN  UNL d   1      -0.348  -2.072  -0.861  1.00  0.00     0.187 HD
ATOM     23  C   UNL d   1      -2.599  -0.712  -0.063  0.00  0.00     0.070 C 
ATOM     24  C   UNL d   1      -0.610   0.777   0.680  0.00  0.00     0.052 C 
ATOM     25  C   UNL d   1       0.759   0.613   0.593  0.00  0.00     0.032 C 
ATOM     26  C   UNL d   1       1.815   1.611   0.895  0.00  0.00     0.070 C 
ENDBRANCH   1  19
TORSDOF 3
