REMARK  4 active torsions:
REMARK  status: ('A' for Active; 'I' for Inactive)
REMARK    1  A    between atoms: C_8  and  C_1 
REMARK    2  A    between atoms: C_6  and  C_4 
REMARK    3  A    between atoms: O_13  and  C_8 
REMARK    4  A    between atoms: C_16  and  O_13 
ROOT
ATOM      1  C   UNL d   1      -1.117  -1.496  -0.025  0.00  0.00     0.053 A 
ATOM      2  N   UNL d   1      -1.174   1.274  -0.038  0.00  0.00    -0.359 N 
ATOM      3  HN  UNL d   1      -1.187   2.294  -0.050  1.00  0.00     0.166 HD
ATOM      4  C   UNL d   1      -2.336   0.585  -0.033  0.00  0.00     0.015 A 
ATOM      5  C   UNL d   1      -2.329  -0.798  -0.020  0.00  0.00     0.044 A 
ATOM      6  C   UNL d   1       0.110  -0.787  -0.017  0.00  0.00     0.007 A 
ATOM      7  C   UNL d   1       0.001   0.620  -0.028  0.00  0.00     0.043 A 
ATOM      8  C   UNL d   1       1.415  -1.355   0.023  0.00  0.00     0.015 A 
ATOM      9  C   UNL d   1       1.158   1.389  -0.018  0.00  0.00     0.030 A 
ATOM     10  C   UNL d   1       2.561  -0.559   0.022  0.00  0.00     0.001 A 
ATOM     11  C   UNL d   1       2.432   0.819   0.001  0.00  0.00     0.002 A 
ENDROOT
BRANCH   1  12
ATOM     12  C   UNL d   1      -1.264  -2.973   0.009  0.00  0.00     0.294 C 
ATOM     13  O   UNL d   1      -2.227  -3.520   0.531  0.00  0.00    -0.259 OA
BRANCH  12  14
ATOM     14  O   UNL d   1      -0.272  -3.603  -0.659  0.00  0.00    -0.318 OA
BRANCH  14  15
ATOM     15  C   UNL d   1      -0.350  -5.037  -0.672  0.00  0.00     0.174 C 
ATOM     16  C   UNL d   1       0.134  -5.612   0.648  0.00  0.00     0.034 C 
ENDBRANCH  14  15
ENDBRANCH  12  14
ENDBRANCH   1  12
BRANCH   4  17
ATOM     17  C   UNL d   1      -3.646   1.336  -0.015  0.00  0.00     0.036 A 
ATOM     18  C   UNL d   1      -4.605   1.163  -1.174  0.00  0.00     0.011 A 
ATOM     19  C   UNL d   1      -3.913   2.477  -0.967  0.00  0.00     0.011 A 
ENDBRANCH   4  17
TORSDOF 4
