REMARK  5 active torsions:
REMARK  status: ('A' for Active; 'I' for Inactive)
REMARK    1  A    between atoms: C_4  and  C_1 
REMARK    2  A    between atoms: C_5  and  C_1 
REMARK    3  A    between atoms: O_6  and  N_2 
REMARK    4  A    between atoms: C_7  and  C_4 
REMARK    5  A    between atoms: C_8  and  C_5 
ROOT
ATOM      1  C   UNL d   1       1.012   0.032   0.115  0.00  0.00     0.018 C 
ATOM      2  N   UNL d   1       0.322  -0.883   0.738  0.00  0.00    -0.277 N 
ATOM      3  HN  UNL d   1      -0.697  -0.891   0.791  1.00  0.00     0.193 HD
ENDROOT
BRANCH   1   4
ATOM      4  C   UNL d   1       0.236   1.154  -0.558  0.00  0.00     0.093 C 
BRANCH   4   5
ATOM      5  C   UNL d   1       0.197   2.428   0.254  0.00  0.00    -0.053 A 
ATOM      6  C   UNL d   1       0.695   3.627  -0.275  0.00  0.00     0.007 A 
ATOM      7  C   UNL d   1       0.605   4.817   0.451  0.00  0.00     0.001 A 
ATOM      8  C   UNL d   1       0.016   4.822   1.714  0.00  0.00     0.000 A 
ATOM      9  C   UNL d   1      -0.481   3.637   2.252  0.00  0.00     0.001 A 
ATOM     10  C   UNL d   1      -0.392   2.447   1.528  0.00  0.00     0.007 A 
ENDBRANCH   4   5
ENDBRANCH   1   4
BRANCH   1  11
ATOM     11  C   UNL d   1       2.530   0.064   0.012  0.00  0.00     0.093 C 
BRANCH  11  12
ATOM     12  C   UNL d   1       3.072  -0.748  -1.143  0.00  0.00    -0.053 A 
ATOM     13  C   UNL d   1       3.136  -0.212  -2.437  0.00  0.00     0.007 A 
ATOM     14  C   UNL d   1       3.657  -0.963  -3.494  0.00  0.00     0.001 A 
ATOM     15  C   UNL d   1       4.122  -2.258  -3.270  0.00  0.00     0.000 A 
ATOM     16  C   UNL d   1       4.058  -2.805  -1.991  0.00  0.00     0.001 A 
ATOM     17  C   UNL d   1       3.534  -2.057  -0.936  0.00  0.00     0.007 A 
ENDBRANCH  11  12
ENDBRANCH   1  11
BRANCH   2  18
ATOM     18  O   UNL d   1       1.141  -1.850   1.325  0.00  0.00    -0.290 OA
ATOM     19  H   UNL d   1       0.491  -2.483   1.684  0.00  0.00     0.244 HD
ENDBRANCH   2  18
TORSDOF 5
