REMARK  4 active torsions:
REMARK  status: ('A' for Active; 'I' for Inactive)
REMARK    1  A    between atoms: N_10  and  C_3 
REMARK    2  A    between atoms: C_11  and  C_4 
REMARK    3  A    between atoms: C_8  and  C_13 
REMARK    4  A    between atoms: C_9  and  C_12 
ROOT
ATOM      1  C   UNL d   1       2.198   1.801  -0.004  0.00  0.00     0.010 A 
ATOM      2  C   UNL d   1       2.875   4.142  -0.263  0.00  0.00     0.049 A 
ATOM      3  C   UNL d   1       4.550   2.368  -0.361  0.00  0.00     0.049 A 
ATOM      4  C   UNL d   1       4.206   3.729  -0.414  0.00  0.00     0.032 A 
ATOM      5  C   UNL d   1       3.538   1.412  -0.152  0.00  0.00     0.031 A 
ATOM      6  C   UNL d   1       1.887   3.170  -0.048  0.00  0.00     0.031 A 
ENDROOT
BRANCH   1   7
ATOM      7  C   UNL d   1       1.127   0.807   0.146  0.00  0.00     0.123 A 
ATOM      8  N   UNL d   1       1.381  -0.554  -0.042  0.00  0.00    -0.321 N 
ATOM      9  C   UNL d   1       0.260  -1.243   0.056  0.00  0.00     0.165 A 
ATOM     10  HN  UNL d   1       2.299  -0.957  -0.228  1.00  0.00     0.169 HD
ATOM     11  S   UNL d   1      -1.066  -0.175   0.400  0.00  0.00     0.024 SA
ATOM     12  N   UNL d   1      -0.127   1.186   0.418  0.00  0.00    -0.309 N 
ATOM     13  HN  UNL d   1      -0.445   2.137   0.603  1.00  0.00     0.176 HD
BRANCH   9  14
ATOM     14  N   UNL d   1       0.138  -2.588  -0.155  0.00  0.00    -0.356 N 
ATOM     15  C   UNL d   1       1.376  -3.367  -0.329  0.00  0.00     0.151 C 
ATOM     16  C   UNL d   1       1.058  -4.703  -1.023  0.00  0.00     0.187 C 
ATOM     17  O   UNL d   1       0.045  -5.441  -0.320  0.00  0.00    -0.388 OA
ATOM     18  C   UNL d   1      -1.164  -4.672  -0.244  0.00  0.00     0.187 C 
ATOM     19  C   UNL d   1      -0.935  -3.351   0.504  0.00  0.00     0.151 C 
ENDBRANCH   9  14
ENDBRANCH   1   7
BRANCH   3  20
ATOM     20  C   UNL d   1       5.983   1.924  -0.549  0.00  0.00     0.417 C 
ATOM     21  F   UNL d   1       6.839   2.951  -0.808  0.00  0.00    -0.166 F 
ATOM     22  F   UNL d   1       6.482   1.289   0.548  0.00  0.00    -0.166 F 
ATOM     23  F   UNL d   1       6.124   1.052  -1.585  0.00  0.00    -0.166 F 
ENDBRANCH   3  20
BRANCH   2  24
ATOM     24  C   UNL d   1       2.476   5.596  -0.359  0.00  0.00     0.417 C 
ATOM     25  F   UNL d   1       3.522   6.427  -0.628  0.00  0.00    -0.166 F 
ATOM     26  F   UNL d   1       1.563   5.818  -1.342  0.00  0.00    -0.166 F 
ATOM     27  F   UNL d   1       1.915   6.060   0.790  0.00  0.00    -0.166 F 
ENDBRANCH   2  24
TORSDOF 4
