REMARK  2 active torsions:
REMARK  status: ('A' for Active; 'I' for Inactive)
REMARK    1  A    between atoms: C_10  and  N_1 
REMARK    2  A    between atoms: C_14  and  C_9 
ROOT
ATOM      1  N   UNL d   1       2.182   0.717   0.007  0.00  0.00    -0.229 N 
ATOM      2  C   UNL d   1      -0.224   0.660   0.090  0.00  0.00     0.068 A 
ATOM      3  C   UNL d   1      -0.124  -0.685  -0.059  0.00  0.00     0.094 A 
ATOM      4  C   UNL d   1       0.984   1.457   0.158  0.00  0.00     0.269 A 
ATOM      5  C   UNL d   1       2.237  -0.683  -0.160  0.00  0.00     0.335 A 
ATOM      6  N   UNL d   1       1.043  -1.365  -0.169  0.00  0.00    -0.301 N 
ATOM      7  C   UNL d   1      -1.598   1.049   0.129  0.00  0.00     0.039 A 
ATOM      8  S   UNL d   1      -1.577  -1.511  -0.118  0.00  0.00    -0.071 SA
ATOM      9  C   UNL d   1      -2.467  -0.033   0.034  0.00  0.00     0.018 A 
ATOM     10  O   UNL d   1       3.272  -1.344  -0.262  0.00  0.00    -0.246 OA
ATOM     11  O   UNL d   1       0.912   2.675   0.294  0.00  0.00    -0.266 OA
ATOM     12  H   UNL d   1       1.060  -2.372  -0.264  0.00  0.00     0.171 HD
ENDROOT
BRANCH   1  13
ATOM     13  C   UNL d   1       3.420   1.436   0.024  0.00  0.00     0.049 A 
ATOM     14  C   UNL d   1       3.710   2.335   1.060  0.00  0.00     0.054 A 
ATOM     15  C   UNL d   1       4.934   3.005   1.081  0.00  0.00     0.036 A 
ATOM     16 CL   UNL d   1       5.312   4.048   2.396  0.00  0.00    -0.084 Cl
ATOM     17  C   UNL d   1       5.862   2.821   0.059  0.00  0.00     0.024 A 
ATOM     18  C   UNL d   1       5.574   1.947  -0.987  0.00  0.00     0.004 A 
ATOM     19  C   UNL d   1       4.366   1.245  -0.995  0.00  0.00     0.030 A 
ENDBRANCH   1  13
BRANCH   9  20
ATOM     20  C   UNL d   1      -3.939  -0.039   0.014  0.00  0.00    -0.019 A 
ATOM     21  C   UNL d   1      -4.638   1.006  -0.611  0.00  0.00     0.013 A 
ATOM     22  C   UNL d   1      -6.036   1.019  -0.643  0.00  0.00     0.001 A 
ATOM     23  C   UNL d   1      -6.757  -0.013  -0.047  0.00  0.00     0.000 A 
ATOM     24  C   UNL d   1      -6.083  -1.054   0.584  0.00  0.00     0.001 A 
ATOM     25  C   UNL d   1      -4.685  -1.065   0.617  0.00  0.00     0.013 A 
ENDBRANCH   9  20
TORSDOF 2
