REMARK  1 active torsions:
REMARK  status: ('A' for Active; 'I' for Inactive)
REMARK    1  A    between atoms: C_4  and  N_1 
ROOT
ATOM      1  N   UNL d   1       1.725  -0.736   0.087  0.00  0.00    -0.252 N 
ATOM      2  C   UNL d   1       1.794   0.638   0.159  0.00  0.00     0.232 C 
ATOM      3  C   UNL d   1       0.429  -1.166  -0.107  0.00  0.00     0.240 C 
ATOM      4  C   UNL d   1      -0.499   0.025  -0.069  0.00  0.00     0.050 C 
ATOM      5  C   UNL d   1       0.432   1.225  -0.083  0.00  0.00     0.123 C 
ATOM      6  O   UNL d   1       2.777   1.351   0.311  0.00  0.00    -0.273 OA
ATOM      7  O   UNL d   1       0.015  -2.314  -0.219  0.00  0.00    -0.272 OA
ATOM      8  C   UNL d   1      -1.508   0.002  -1.216  0.00  0.00     0.020 C 
ATOM      9  C   UNL d   1      -1.397  -0.012   1.172  0.00  0.00     0.020 C 
ATOM     10  C   UNL d   1      -2.619   0.821   0.798  0.00  0.00     0.001 C 
ATOM     11  C   UNL d   1      -2.683   0.839  -0.727  0.00  0.00     0.001 C 
ENDROOT
BRANCH   1  12
ATOM     12  C   UNL d   1       2.855  -1.609   0.171  0.00  0.00     0.047 A 
ATOM     13  C   UNL d   1       4.055  -1.202   0.778  0.00  0.00     0.055 A 
ATOM     14  C   UNL d   1       5.161  -2.064   0.866  0.00  0.00     0.058 A 
ATOM     15 CL   UNL d   1       6.576  -1.474   1.667  0.00  0.00    -0.082 Cl
ATOM     16  C   UNL d   1       5.092  -3.351   0.332  0.00  0.00     0.055 A 
ATOM     17  C   UNL d   1       3.915  -3.772  -0.278  0.00  0.00     0.028 A 
ATOM     18 CL   UNL d   1       6.413  -4.460   0.390  0.00  0.00    -0.083 Cl
ATOM     19  C   UNL d   1       2.811  -2.913  -0.351  0.00  0.00     0.032 A 
ENDBRANCH   1  12
TORSDOF 1
