REMARK  4 active torsions:
REMARK  status: ('A' for Active; 'I' for Inactive)
REMARK    1  A    between atoms: N_2  and  C_1 
REMARK    2  A    between atoms: C_12  and  C_1 
REMARK    3  A    between atoms: C_8  and  C_3 
REMARK    4  A    between atoms: C_11  and  N_4 
ROOT
ATOM      1  C   UNL d   1       5.184   2.055  -1.647  0.00  0.00     0.124 C 
ATOM      2  N   UNL d   1       4.168   4.428  -1.685  0.00  0.00    -0.191 NA
ATOM      3  N   UNL d   1       7.516   1.677  -2.690  0.00  0.00    -0.191 NA
ATOM      4  C   UNL d   1       4.530   0.998  -1.124  0.00  0.00     0.036 C 
ATOM      5  C   UNL d   1       6.473   1.859  -2.219  0.00  0.00     0.110 C 
ATOM      6  C   UNL d   1       4.632   3.367  -1.670  0.00  0.00     0.110 C 
ENDROOT
BRANCH   4   7
ATOM      7  C   UNL d   1       3.192   1.003  -0.553  0.00  0.00     0.032 C 
ATOM      8  C   UNL d   1       2.562  -0.061  -0.010  0.00  0.00     0.040 C 
BRANCH   8   9
ATOM      9  N   UNL d   1       3.150  -1.306   0.235  0.00  0.00    -0.377 N 
ATOM     10  C   UNL d   1       3.169  -2.372  -0.799  0.00  0.00     0.143 C 
ATOM     11  C   UNL d   1       3.198  -3.777  -0.147  0.00  0.00     0.143 C 
ATOM     12  N   UNL d   1       4.283  -3.882   0.854  0.00  0.00    -0.378 N 
ATOM     13  C   UNL d   1       4.264  -2.815   1.872  0.00  0.00     0.143 C 
ATOM     14  C   UNL d   1       4.281  -1.434   1.185  0.00  0.00     0.143 C 
BRANCH  12  15
ATOM     15  C   UNL d   1       5.234  -4.880   0.859  0.00  0.00     0.030 A 
ATOM     16  C   UNL d   1       5.844  -5.311   2.051  0.00  0.00     0.031 A 
ATOM     17  C   UNL d   1       6.835  -6.301   2.069  0.00  0.00     0.026 A 
ATOM     18  C   UNL d   1       7.236  -6.892   0.880  0.00  0.00     0.034 A 
ATOM     19  C   UNL d   1       6.654  -6.499  -0.318  0.00  0.00     0.026 A 
ATOM     20 CL   UNL d   1       8.448  -8.110   0.892  0.00  0.00    -0.084 Cl
ATOM     21  C   UNL d   1       5.665  -5.505  -0.321  0.00  0.00     0.031 A 
ENDBRANCH  12  15
ENDBRANCH   8   9
BRANCH   8  22
ATOM     22  C   UNL d   1       1.139   0.089   0.456  0.00  0.00    -0.010 A 
ATOM     23  C   UNL d   1       0.239   0.984  -0.152  0.00  0.00     0.014 A 
ATOM     24  C   UNL d   1      -1.083   1.113   0.297  0.00  0.00     0.007 A 
ATOM     25  C   UNL d   1      -1.556   0.332   1.352  0.00  0.00    -0.062 A 
ATOM     26  C   UNL d   1      -0.681  -0.573   1.959  0.00  0.00     0.007 A 
ATOM     27  C   UNL d   1      -2.978   0.468   1.810  0.00  0.00     0.048 C 
ATOM     28  C   UNL d   1       0.644  -0.690   1.514  0.00  0.00     0.014 A 
ENDBRANCH   8  22
ENDBRANCH   4   7
TORSDOF 4
