REMARK  4 active torsions:
REMARK  status: ('A' for Active; 'I' for Inactive)
REMARK    1  A    between atoms: S_2  and  C_3 
REMARK    2  A    between atoms: C_7  and  S_2 
REMARK    3  A    between atoms: O_12  and  C_6 
REMARK    4  A    between atoms: C_13  and  C_7 
ROOT
ATOM      1  S   UNL d   1       2.510   0.548  -1.233  0.00  0.00     0.155 S 
ATOM      2  O   UNL d   1       2.796   1.972  -1.227  0.00  0.00    -0.227 OA
ATOM      3  O   UNL d   1       3.527  -0.404  -0.822  0.00  0.00    -0.227 OA
ENDROOT
BRANCH   1   4
ATOM      4  C   UNL d   1       1.117   0.351  -0.137  0.00  0.00     0.152 C 
ATOM      5  C   UNL d   1       1.550   0.604   1.308  0.00  0.00     0.162 C 
ATOM      6  S   UNL d   1       0.727  -0.614   2.302  0.00  0.00     0.148 S 
ATOM      7  C   UNL d   1      -0.394  -1.187   1.054  0.00  0.00     0.173 C 
ATOM      8  O   UNL d   1       1.662  -1.689   2.562  0.00  0.00    -0.228 OA
ATOM      9  O   UNL d   1      -0.030   0.042   3.344  0.00  0.00    -0.228 OA
ATOM     10  C   UNL d   1       0.381  -0.990  -0.239  0.00  0.00     0.151 C 
BRANCH  10  11
ATOM     11  O   UNL d   1       1.221  -2.106  -0.488  0.00  0.00    -0.393 OA
ATOM     12  H   UNL d   1       1.762  -2.335   0.299  0.00  0.00     0.210 HD
ENDBRANCH  10  11
ENDBRANCH   1   4
BRANCH   1  13
ATOM     13  C   UNL d   1       1.887   0.108  -2.852  0.00  0.00     0.179 C 
BRANCH  13  14
ATOM     14  C   UNL d   1       2.956   0.284  -3.905  0.00  0.00    -0.044 A 
ATOM     15  C   UNL d   1       3.809  -0.781  -4.234  0.00  0.00     0.010 A 
ATOM     16  C   UNL d   1       4.732  -0.659  -5.278  0.00  0.00     0.024 A 
ATOM     17  C   UNL d   1       4.816   0.532  -5.993  0.00  0.00     0.034 A 
ATOM     18  C   UNL d   1       4.004   1.612  -5.655  0.00  0.00     0.024 A 
ATOM     19 CL   UNL d   1       5.914   0.666  -7.312  0.00  0.00    -0.084 Cl
ATOM     20  C   UNL d   1       3.080   1.491  -4.611  0.00  0.00     0.010 A 
ENDBRANCH  13  14
ENDBRANCH   1  13
TORSDOF 4
