REMARK  7 active torsions:
REMARK  status: ('A' for Active; 'I' for Inactive)
REMARK    1  A    between atoms: C_15  and  N_1 
REMARK    2  A    between atoms: N_3  and  C_2 
REMARK    3  A    between atoms: C_18  and  C_8 
REMARK    4  A    between atoms: N_9  and  C_13 
REMARK    5  A    between atoms: C_14  and  N_23 
REMARK    6  A    between atoms: C_28  and  C_18 
REMARK    7  A    between atoms: N_23  and  N_21 
ROOT
ATOM      1  N   UNL d   1      -4.638  -1.791   0.209  0.00  0.00    -0.315 N 
ATOM      2  HN  UNL d   1      -5.267  -0.992   0.137  1.00  0.00     0.185 HD
ATOM      3  C   UNL d   1      -3.349  -1.667   0.159  0.00  0.00     0.087 C 
ENDROOT
BRANCH   3   4
ATOM      4  C   UNL d   1      -2.717  -0.304   0.023  0.00  0.00     0.126 C 
BRANCH   4   5
ATOM      5  C   UNL d   1      -1.818  -0.262  -1.156  0.00  0.00     0.125 A 
ATOM      6  N   UNL d   1      -1.029   0.814  -1.572  0.00  0.00    -0.227 N 
ATOM      7  N   UNL d   1      -0.450   0.448  -2.747  0.00  0.00    -0.220 N 
ATOM      8  N   UNL d   1      -0.834  -0.789  -2.998  0.00  0.00    -0.226 N 
ATOM      9  HN  UNL d   1       0.164   1.021  -3.325  1.00  0.00     0.210 HD
ATOM     10  N   UNL d   1      -1.672  -1.242  -2.027  0.00  0.00    -0.271 N 
ATOM     11  HN  UNL d   1      -0.542  -1.333  -3.810  1.00  0.00     0.210 HD
ATOM     12  HN  UNL d   1      -2.106  -2.164  -1.981  1.00  0.00     0.190 HD
BRANCH   6  13
ATOM     13  C   UNL d   1      -0.761   2.103  -1.024  0.00  0.00     0.059 A 
ATOM     14  C   UNL d   1      -0.001   3.016  -1.784  0.00  0.00     0.033 A 
ATOM     15  C   UNL d   1       0.266   4.306  -1.309  0.00  0.00     0.020 A 
ATOM     16  C   UNL d   1      -0.213   4.695  -0.063  0.00  0.00     0.006 A 
ATOM     17  C   UNL d   1      -0.938   3.796   0.715  0.00  0.00     0.020 A 
ATOM     18  I   UNL d   1       0.138   6.619   0.634  0.00  0.00    -0.045 I 
ATOM     19  C   UNL d   1      -1.213   2.507   0.237  0.00  0.00     0.033 A 
ENDBRANCH   6  13
ENDBRANCH   4   5
ENDBRANCH   3   4
BRANCH   1  20
ATOM     20  N   UNL d   1      -5.091  -3.069   0.368  0.00  0.00    -0.299 N 
ATOM     21  H   UNL d   1      -4.504  -3.853   0.050  0.00  0.00     0.187 HD
BRANCH  20  22
ATOM     22  C   UNL d   1      -6.482  -3.282   0.190  0.00  0.00     0.081 A 
ATOM     23  C   UNL d   1      -7.050  -4.522  -0.190  0.00  0.00     0.133 A 
ATOM     24  C   UNL d   1      -8.441  -4.656  -0.390  0.00  0.00     0.074 A 
ATOM     25  C   UNL d   1      -9.278  -3.554  -0.178  0.00  0.00     0.105 A 
ATOM     26  C   UNL d   1      -8.751  -2.341   0.266  0.00  0.00     0.038 A 
ATOM     27  C   UNL d   1      -7.371  -2.218   0.450  0.00  0.00     0.036 A 
BRANCH  23  28
ATOM     28  N   UNL d   1      -6.209  -5.711  -0.413  0.00  0.00    -0.113 N 
ATOM     29  O   UNL d   1      -6.777  -6.758  -0.764  0.00  0.00    -0.532 OA
ATOM     30  O   UNL d   1      -4.988  -5.610  -0.235  0.00  0.00    -0.532 OA
ENDBRANCH  23  28
BRANCH  25  31
ATOM     31  N   UNL d   1     -10.721  -3.666  -0.435  0.00  0.00    -0.116 N 
ATOM     32  O   UNL d   1     -11.143  -4.744  -0.872  0.00  0.00    -0.532 OA
ATOM     33  O   UNL d   1     -11.425  -2.671  -0.209  0.00  0.00    -0.532 OA
ENDBRANCH  25  31
ENDBRANCH  20  22
ENDBRANCH   1  20
TORSDOF 7
