REMARK  5 active torsions:
REMARK  status: ('A' for Active; 'I' for Inactive)
REMARK    1  A    between atoms: C_2  and  C_1 
REMARK    2  A    between atoms: C_3  and  C_1 
REMARK    3  A    between atoms: C_4  and  C_1 
REMARK    4  A    between atoms: O_6  and  C_2 
REMARK    5  A    between atoms: C_16  and  O_6 
ROOT
ATOM      1  C   UNL d   1       1.243  -0.072   0.332  0.00  0.00     0.051 C 
ENDROOT
BRANCH   1   2
ATOM      2  C   UNL d   1       0.359   1.152   0.452  0.00  0.00     0.299 C 
ATOM      3  O   UNL d   1      -0.723   1.199   1.019  0.00  0.00    -0.259 OA
BRANCH   2   4
ATOM      4  O   UNL d   1       1.005   2.246  -0.133  0.00  0.00    -0.275 OA
BRANCH   4   5
ATOM      5  C   UNL d   1       0.769   3.607   0.187  0.00  0.00     0.079 A 
ATOM      6  C   UNL d   1      -0.343   4.083   0.880  0.00  0.00     0.040 A 
ATOM      7  C   UNL d   1      -0.407   5.436   1.226  0.00  0.00     0.045 A 
ATOM      8  C   UNL d   1       0.630   6.293   0.870  0.00  0.00     0.116 A 
ATOM      9  C   UNL d   1       1.728   5.828   0.158  0.00  0.00     0.045 A 
ATOM     10  F   UNL d   1       0.571   7.584   1.225  0.00  0.00    -0.206 F 
ATOM     11  C   UNL d   1       1.799   4.479  -0.190  0.00  0.00     0.040 A 
ENDBRANCH   4   5
ENDBRANCH   2   4
ENDBRANCH   1   2
BRANCH   1  12
ATOM     12  C   UNL d   1       0.778  -1.339   0.432  0.00  0.00     0.037 C 
ATOM     13  C   UNL d   1      -0.539  -1.824   0.671  0.00  0.00     0.005 A 
ATOM     14  S   UNL d   1      -1.066  -3.204  -0.234  0.00  0.00    -0.102 SA
ATOM     15  C   UNL d   1      -1.496  -1.489   1.613  0.00  0.00     0.019 A 
ATOM     16  C   UNL d   1      -2.520  -3.336   0.648  0.00  0.00     0.050 A 
ATOM     17  C   UNL d   1      -2.636  -2.347   1.595  0.00  0.00     0.008 A 
ENDBRANCH   1  12
BRANCH   1  18
ATOM     18  C   UNL d   1       2.676   0.115   0.135  0.00  0.00    -0.013 A 
ATOM     19  C   UNL d   1       3.429   1.058   0.811  0.00  0.00     0.062 A 
ATOM     20  S   UNL d   1       5.093   0.989   0.412  0.00  0.00    -0.113 SA
ATOM     21  C   UNL d   1       4.841  -0.334  -0.639  0.00  0.00     0.050 A 
ATOM     22  C   UNL d   1       3.512  -0.689  -0.713  0.00  0.00     0.020 A 
ENDBRANCH   1  18
TORSDOF 5
