REMARK  5 active torsions:
REMARK  status: ('A' for Active; 'I' for Inactive)
REMARK    1  A    between atoms: C_2  and  C_1 
REMARK    2  A    between atoms: O_4  and  C_2 
REMARK    3  A    between atoms: C_10  and  O_4 
REMARK    4  A    between atoms: C_5  and  C_10 
REMARK    5  A    between atoms: C_6  and  C_5 
ROOT
ATOM      1  C   UNL d   1      -3.923   3.114   0.003  0.00  0.00     0.183 C 
ATOM      2  O   UNL d   1      -3.948   4.332   0.171  0.00  0.00    -0.290 OA
ENDROOT
BRANCH   1   3
ATOM      3  C   UNL d   1      -2.622   2.312  -0.025  0.00  0.00     0.263 C 
BRANCH   3   4
ATOM      4  O   UNL d   1      -1.453   3.114   0.173  0.00  0.00    -0.309 OA
BRANCH   4   5
ATOM      5  C   UNL d   1      -0.983   3.730  -0.952  0.00  0.00     0.300 C 
ATOM      6  O   UNL d   1      -1.507   3.606  -2.056  0.00  0.00    -0.259 OA
BRANCH   5   7
ATOM      7  C   UNL d   1       0.236   4.487  -0.707  0.00  0.00     0.080 A 
ATOM      8  S   UNL d   1       0.995   4.574   0.828  0.00  0.00    -0.096 SA
ATOM      9  C   UNL d   1       2.259   5.562   0.232  0.00  0.00     0.050 A 
ATOM     10  C   UNL d   1       2.116   5.828  -1.110  0.00  0.00     0.009 A 
ATOM     11  C   UNL d   1       0.952   5.207  -1.649  0.00  0.00     0.025 A 
ENDBRANCH   5   7
ENDBRANCH   4   5
ENDBRANCH   3   4
ENDBRANCH   1   3
BRANCH   1  12
ATOM     12  C   UNL d   1      -5.219   2.373  -0.106  0.00  0.00     0.012 A 
ATOM     13  C   UNL d   1      -6.361   2.947   0.476  0.00  0.00     0.017 A 
ATOM     14  C   UNL d   1      -7.598   2.300   0.405  0.00  0.00     0.025 A 
ATOM     15  C   UNL d   1      -7.702   1.081  -0.259  0.00  0.00     0.034 A 
ATOM     16  C   UNL d   1      -6.578   0.502  -0.847  0.00  0.00     0.025 A 
ATOM     17 CL   UNL d   1      -9.226   0.288  -0.361  0.00  0.00    -0.084 Cl
ATOM     18  C   UNL d   1      -5.334   1.144  -0.769  0.00  0.00     0.017 A 
ENDBRANCH   1  12
TORSDOF 5
