REMARK  3 active torsions:
REMARK  status: ('A' for Active; 'I' for Inactive)
REMARK    1  A    between atoms: C_8  and  C_3 
REMARK    2  A    between atoms: C_9  and  C_4 
REMARK    3  A    between atoms: C_10  and  C_6 
ROOT
ATOM      1  N   UNL d   1      -1.046  -1.100   0.142  0.00  0.00    -0.354 N 
ATOM      2  HN  UNL d   1      -1.588  -1.962   0.201  1.00  0.00     0.166 HD
ATOM      3  C   UNL d   1       0.315  -1.145   0.098  0.00  0.00     0.049 A 
ATOM      4  C   UNL d   1       0.452   1.286   0.046  0.00  0.00    -0.016 A 
ATOM      5  C   UNL d   1       1.099   0.026  -0.026  0.00  0.00    -0.023 A 
ATOM      6  C   UNL d   1      -1.673   0.097   0.109  0.00  0.00     0.043 A 
ATOM      7  C   UNL d   1      -0.952   1.284   0.121  0.00  0.00     0.043 A 
ATOM      8  C   UNL d   1       2.587  -0.058  -0.271  0.00  0.00     0.051 C 
ENDROOT
BRANCH   3   9
ATOM      9  C   UNL d   1       0.858  -2.534   0.126  0.00  0.00    -0.009 A 
ATOM     10  C   UNL d   1       0.195  -3.572  -0.563  0.00  0.00     0.017 A 
ATOM     11  C   UNL d   1       0.727  -4.864  -0.630  0.00  0.00     0.043 A 
ATOM     12  C   UNL d   1       1.935  -5.139  -0.008  0.00  0.00     0.116 A 
ATOM     13  C   UNL d   1       2.591  -4.162   0.725  0.00  0.00     0.043 A 
ATOM     14  F   UNL d   1       2.474  -6.361  -0.111  0.00  0.00    -0.206 F 
ATOM     15  C   UNL d   1       2.037  -2.880   0.817  0.00  0.00     0.017 A 
ENDBRANCH   3   9
BRANCH   6  16
ATOM     16  C   UNL d   1      -3.152   0.070   0.020  0.00  0.00    -0.009 A 
ATOM     17  C   UNL d   1      -3.899  -0.983   0.582  0.00  0.00     0.013 A 
ATOM     18  C   UNL d   1      -5.292  -1.016   0.496  0.00  0.00     0.001 A 
ATOM     19  C   UNL d   1      -5.979   0.004  -0.158  0.00  0.00     0.000 A 
ATOM     20  C   UNL d   1      -5.270   1.050  -0.740  0.00  0.00     0.001 A 
ATOM     21  C   UNL d   1      -3.874   1.078  -0.654  0.00  0.00     0.013 A 
ENDBRANCH   6  16
BRANCH   4  22
ATOM     22  C   UNL d   1       1.156   2.600   0.000  0.00  0.00    -0.025 A 
ATOM     23  C   UNL d   1       2.328   2.852   0.735  0.00  0.00     0.012 A 
ATOM     24  C   UNL d   1       3.005   4.074   0.644  0.00  0.00     0.001 A 
ATOM     25  C   UNL d   1       2.490   5.100  -0.141  0.00  0.00     0.000 A 
ATOM     26  C   UNL d   1       1.304   4.902  -0.838  0.00  0.00     0.001 A 
ATOM     27  C   UNL d   1       0.656   3.663  -0.779  0.00  0.00     0.012 A 
ENDBRANCH   4  22
TORSDOF 3
