REMARK  2 active torsions:
REMARK  status: ('A' for Active; 'I' for Inactive)
REMARK    1  A    between atoms: C_4  and  C_1 
REMARK       I    between atoms: N_6  and  C_4 
REMARK       I    between atoms: C_8  and  N_9 
REMARK    2  A    between atoms: C_11  and  C_8 
ROOT
ATOM      1  C   UNL d   1       3.822  -0.147  -0.144  0.00  0.00     0.262 C 
ATOM      2  N   UNL d   1       4.680  -1.247  -0.025  0.00  0.00    -0.344 N 
ATOM      3  C   UNL d   1       6.754  -4.779   0.926  0.00  0.00     0.248 C 
ATOM      4  N   UNL d   1       5.872  -3.711   0.811  0.00  0.00    -0.347 N 
ATOM      5  O   UNL d   1       3.820   0.711   0.740  0.00  0.00    -0.267 OA
ATOM      6  C   UNL d   1       4.906  -2.325  -1.001  0.00  0.00     0.146 C 
ATOM      7  C   UNL d   1       5.644  -1.257   1.083  0.00  0.00     0.146 C 
ATOM      8  C   UNL d   1       4.900  -3.691  -0.290  0.00  0.00     0.145 C 
ATOM      9  C   UNL d   1       5.717  -2.621   1.784  0.00  0.00     0.145 C 
ATOM     10  O   UNL d   1       6.803  -5.656   0.059  0.00  0.00    -0.270 OA
ENDROOT
BRANCH   1  11
ATOM     11  C   UNL d   1       2.987   0.015  -1.323  0.00  0.00     0.096 C 
ATOM     12  S   UNL d   1       3.012   1.563  -2.066  0.00  0.00    -0.082 SA
ATOM     13  C   UNL d   1       1.856   1.122  -3.252  0.00  0.00     0.017 A 
ATOM     14  C   UNL d   1       1.320   1.954  -4.254  0.00  0.00     0.020 A 
ATOM     15  C   UNL d   1       1.477  -0.215  -3.120  0.00  0.00     0.004 A 
ATOM     16  C   UNL d   1       0.429   1.412  -5.180  0.00  0.00     0.001 A 
ATOM     17  C   UNL d   1       0.085   0.070  -5.119  0.00  0.00     0.001 A 
ATOM     18  C   UNL d   1       0.588  -0.741  -4.096  0.00  0.00     0.014 A 
ATOM     19  C   UNL d   1       2.053  -0.801  -1.932  0.00  0.00     0.068 C 
ATOM     20 CL   UNL d   1       1.539  -2.344  -1.361  0.00  0.00    -0.082 Cl
ENDBRANCH   1  11
BRANCH   3  21
ATOM     21  C   UNL d   1       7.728  -4.794   2.130  0.00  0.00     0.213 C 
ATOM     22  O   UNL d   1       7.065  -4.806   3.403  0.00  0.00    -0.376 OA
ATOM     23  C   UNL d   1       7.644  -5.827   4.225  0.00  0.00     0.168 C 
ATOM     24  C   UNL d   1       8.947  -6.229   3.575  0.00  0.00     0.029 C 
ATOM     25  C   UNL d   1       8.657  -6.003   2.115  0.00  0.00     0.043 C 
ENDBRANCH   3  21
TORSDOF 2
