REMARK  8 active torsions:
REMARK  status: ('A' for Active; 'I' for Inactive)
REMARK    1  A    between atoms: N_3  and  C_1 
REMARK    2  A    between atoms: N_4  and  C_1 
REMARK       I    between atoms: C_2  and  N_5 
REMARK    3  A    between atoms: C_14  and  C_2 
REMARK    4  A    between atoms: C_9  and  N_3 
REMARK    5  A    between atoms: N_5  and  N_4 
REMARK    6  A    between atoms: C_10  and  C_16 
REMARK    7  A    between atoms: S_11  and  C_14 
REMARK    8  A    between atoms: C_16  and  S_11 
ROOT
ATOM      1  C   UNL d   1      -1.788   1.336  -2.044  0.00  0.00     0.245 C 
ATOM      2  N   UNL d   1      -1.341   0.728  -0.876  0.00  0.00    -0.267 N 
ATOM      3  O   UNL d   1      -0.999   1.870  -2.819  0.00  0.00    -0.271 OA
ATOM      4  H   UNL d   1      -1.975   0.508  -0.114  0.00  0.00     0.190 HD
ENDROOT
BRANCH   1   5
ATOM      5  C   UNL d   1      -3.304   1.321  -2.187  0.00  0.00     0.178 C 
BRANCH   5   6
ATOM      6  S   UNL d   1      -3.835   2.034  -3.773  0.00  0.00    -0.155 SA
BRANCH   6   7
ATOM      7  C   UNL d   1      -5.636   1.915  -3.568  0.00  0.00     0.113 C 
BRANCH   7   8
ATOM      8  C   UNL d   1      -6.364   2.395  -4.807  0.00  0.00    -0.038 A 
ATOM      9  C   UNL d   1      -6.660   1.539  -5.908  0.00  0.00    -0.019 A 
ATOM     10  C   UNL d   1      -7.362   2.076  -7.019  0.00  0.00    -0.025 A 
ATOM     11  C   UNL d   1      -6.290   0.175  -5.973  0.00  0.00     0.013 A 
ATOM     12  C   UNL d   1      -7.689   1.255  -8.112  0.00  0.00     0.012 A 
ATOM     13  C   UNL d   1      -7.725   3.430  -7.033  0.00  0.00     0.012 A 
ATOM     14  C   UNL d   1      -7.323  -0.089  -8.136  0.00  0.00     0.001 A 
ATOM     15  C   UNL d   1      -6.618  -0.627  -7.069  0.00  0.00     0.001 A 
ATOM     16  C   UNL d   1      -7.405   4.266  -5.968  0.00  0.00     0.001 A 
ATOM     17  C   UNL d   1      -6.732   3.753  -4.865  0.00  0.00     0.009 A 
ENDBRANCH   7   8
ENDBRANCH   6   7
ENDBRANCH   5   6
ENDBRANCH   1   5
BRANCH   2  18
ATOM     18  N   UNL d   1      -0.025   1.042  -0.494  0.00  0.00    -0.274 N 
ATOM     19  H   UNL d   1       0.409   1.763  -1.078  0.00  0.00     0.189 HD
BRANCH  18  20
ATOM     20  C   UNL d   1       0.854   0.111   0.017  0.00  0.00     0.191 C 
ATOM     21  S   UNL d   1       0.530  -1.509   0.250  0.00  0.00    -0.039 SA
BRANCH  20  22
ATOM     22  N   UNL d   1       2.103   0.609   0.325  0.00  0.00    -0.332 N 
ATOM     23  H   UNL d   1       2.846  -0.079   0.376  0.00  0.00     0.168 HD
BRANCH  22  24
ATOM     24  C   UNL d   1       2.424   1.934   0.695  0.00  0.00     0.034 A 
ATOM     25  C   UNL d   1       1.473   2.807   1.236  0.00  0.00     0.036 A 
ATOM     26  C   UNL d   1       1.806   4.115   1.599  0.00  0.00    -0.060 A 
ATOM     27  C   UNL d   1       0.766   5.035   2.172  0.00  0.00     0.048 C 
ATOM     28  C   UNL d   1       3.119   4.550   1.417  0.00  0.00     0.007 A 
ATOM     29  C   UNL d   1       4.087   3.677   0.919  0.00  0.00     0.003 A 
ATOM     30  C   UNL d   1       3.749   2.366   0.573  0.00  0.00     0.029 A 
ENDBRANCH  22  24
ENDBRANCH  20  22
ENDBRANCH  18  20
ENDBRANCH   2  18
TORSDOF 8
