REMARK  6 active torsions:
REMARK  status: ('A' for Active; 'I' for Inactive)
REMARK    1  A    between atoms: C_2  and  C_1 
REMARK    2  A    between atoms: N_6  and  C_3 
REMARK       I    between atoms: C_8  and  N_6 
REMARK       I    between atoms: N_13  and  C_8 
REMARK    3  A    between atoms: C_16  and  N_13 
REMARK    4  A    between atoms: O_17  and  C_18 
REMARK    5  A    between atoms: C_19  and  O_17 
REMARK    6  A    between atoms: C_24  and  C_19 
ROOT
ATOM      1  N   UNL d   1      -4.178  -0.369  -1.618  0.00  0.00    -0.302 N 
ATOM      2  C   UNL d   1      -3.015   0.209  -2.105  0.00  0.00     0.325 C 
ATOM      3  N   UNL d   1      -1.905   0.019  -1.304  0.00  0.00    -0.309 N 
ATOM      4  O   UNL d   1      -2.901   0.937  -3.088  0.00  0.00    -0.247 OA
ATOM      5  H   UNL d   1      -4.191  -0.594  -0.629  0.00  0.00     0.171 HD
ATOM      6  H   UNL d   1      -1.214   0.755  -1.384  0.00  0.00     0.170 HD
ENDROOT
BRANCH   1   7
ATOM      7  C   UNL d   1      -5.408  -0.423  -2.250  0.00  0.00     0.090 A 
ATOM      8  C   UNL d   1      -6.649  -0.734  -1.716  0.00  0.00     0.032 A 
ATOM      9  C   UNL d   1      -7.663  -0.727  -2.740  0.00  0.00     0.024 A 
ATOM     10  C   UNL d   1      -7.166  -0.418  -3.982  0.00  0.00     0.053 A 
ATOM     11  S   UNL d   1      -5.489  -0.159  -3.937  0.00  0.00    -0.083 SA
BRANCH   8  12
ATOM     12  C   UNL d   1      -6.971  -1.035  -0.259  0.00  0.00     0.088 A 
ATOM     13  N   UNL d   1      -6.078  -1.102   0.717  0.00  0.00    -0.349 N 
ATOM     14  C   UNL d   1      -6.722  -1.374   1.933  0.00  0.00     0.050 A 
ATOM     15  HN  UNL d   1      -5.073  -0.976   0.602  1.00  0.00     0.166 HD
ATOM     16  C   UNL d   1      -6.121  -1.522   3.206  0.00  0.00     0.031 A 
ATOM     17  C   UNL d   1      -8.110  -1.508   1.859  0.00  0.00     0.033 A 
ATOM     18  C   UNL d   1      -6.914  -1.781   4.338  0.00  0.00     0.002 A 
ATOM     19  C   UNL d   1      -8.295  -1.897   4.226  0.00  0.00     0.002 A 
ATOM     20  C   UNL d   1      -8.914  -1.766   2.983  0.00  0.00     0.021 A 
ATOM     21  S   UNL d   1      -8.602  -1.313   0.237  0.00  0.00    -0.069 SA
ENDBRANCH   8  12
ENDBRANCH   1   7
BRANCH   3  22
ATOM     22  C   UNL d   1      -1.764  -0.961  -0.318  0.00  0.00     0.036 A 
ATOM     23  C   UNL d   1      -2.159  -2.274  -0.576  0.00  0.00     0.032 A 
ATOM     24  C   UNL d   1      -2.177  -3.212   0.449  0.00  0.00     0.039 A 
ATOM     25  C   UNL d   1      -1.826  -2.832   1.744  0.00  0.00     0.069 A 
ATOM     26  C   UNL d   1      -1.332  -1.543   1.974  0.00  0.00     0.039 A 
ATOM     27  C   UNL d   1      -1.275  -0.609   0.935  0.00  0.00     0.032 A 
BRANCH  25  28
ATOM     28  O   UNL d   1      -1.922  -3.650   2.840  0.00  0.00    -0.347 OA
BRANCH  28  29
ATOM     29  C   UNL d   1      -2.969  -4.624   2.749  0.00  0.00     0.214 C 
BRANCH  29  30
ATOM     30  C   UNL d   1      -3.096  -5.388   4.044  0.00  0.00    -0.034 A 
ATOM     31  C   UNL d   1      -4.319  -5.440   4.728  0.00  0.00     0.009 A 
ATOM     32  C   UNL d   1      -4.453  -6.223   5.876  0.00  0.00     0.001 A 
ATOM     33  C   UNL d   1      -3.369  -6.961   6.348  0.00  0.00     0.000 A 
ATOM     34  C   UNL d   1      -2.148  -6.912   5.680  0.00  0.00     0.001 A 
ATOM     35  C   UNL d   1      -2.011  -6.128   4.534  0.00  0.00     0.009 A 
ENDBRANCH  29  30
ENDBRANCH  28  29
ENDBRANCH  25  28
ENDBRANCH   3  22
TORSDOF 6
