REMARK  5 active torsions:
REMARK  status: ('A' for Active; 'I' for Inactive)
REMARK    1  A    between atoms: C_2  and  C_1 
REMARK    2  A    between atoms: C_25  and  N_3 
REMARK    3  A    between atoms: N_20  and  C_4 
REMARK    4  A    between atoms: C_17  and  C_10 
REMARK    5  A    between atoms: C_23  and  C_15 
ROOT
ATOM      1  C   UNL d   1       2.364   0.107   0.046  0.00  0.00     0.150 A 
ATOM      2  C   UNL d   1       1.606   1.262   0.024  0.00  0.00     0.079 A 
ATOM      3  C   UNL d   1       0.236   0.894   0.087  0.00  0.00     0.058 A 
ATOM      4  C   UNL d   1       0.241  -0.499   0.106  0.00  0.00     0.162 A 
ATOM      5  O   UNL d   1       1.524  -0.971   0.100  0.00  0.00    -0.287 OA
ATOM      6  C   UNL d   1      -1.023   1.527   0.096  0.00  0.00     0.017 A 
ATOM      7  N   UNL d   1      -0.828  -1.320   0.106  0.00  0.00    -0.335 N 
ATOM      8  HN  UNL d   1      -0.744  -2.336   0.148  1.00  0.00     0.168 HD
ATOM      9  C   UNL d   1      -2.022  -0.683   0.044  0.00  0.00     0.045 A 
ATOM     10  C   UNL d   1      -2.156   0.707   0.057  0.00  0.00     0.045 A 
ENDROOT
BRANCH   1  11
ATOM     11  C   UNL d   1       3.796  -0.045   0.026  0.00  0.00     0.161 A 
ATOM     12  N   UNL d   1       4.478  -1.159  -0.384  0.00  0.00    -0.306 N 
ATOM     13  C   UNL d   1       5.806  -0.803  -0.317  0.00  0.00     0.194 A 
ATOM     14  S   UNL d   1       7.172  -1.636  -0.753  0.00  0.00    -0.039 SA
ATOM     15  N   UNL d   1       5.839   0.484   0.191  0.00  0.00    -0.274 N 
ATOM     16  N   UNL d   1       4.575   0.947   0.378  0.00  0.00    -0.281 N 
ATOM     17  H   UNL d   1       6.659   1.058   0.342  0.00  0.00     0.189 HD
ATOM     18  HN  UNL d   1       4.294   1.867   0.719  1.00  0.00     0.188 HD
BRANCH  12  19
ATOM     19  C   UNL d   1       3.958  -2.411  -0.927  0.00  0.00     0.129 C 
ATOM     20  C   UNL d   1       3.787  -2.351  -2.438  0.00  0.00     0.027 C 
ENDBRANCH  12  19
ENDBRANCH   1  11
BRANCH   2  21
ATOM     21  N   UNL d   1       2.103   2.513  -0.079  0.00  0.00    -0.396 N 
ATOM     22  H   UNL d   1       3.090   2.678   0.127  0.00  0.00     0.156 HD
ATOM     23  H   UNL d   1       1.512   3.310   0.155  0.00  0.00     0.156 HD
ENDBRANCH   2  21
BRANCH   6  24
ATOM     24  C   UNL d   1      -1.148   2.975   0.118  0.00  0.00     0.086 A 
ATOM     25  O   UNL d   1      -0.247   3.660   0.884  0.00  0.00    -0.322 OA
ATOM     26  C   UNL d   1      -0.555   4.978   0.797  0.00  0.00     0.142 A 
ATOM     27  C   UNL d   1      -1.654   5.159  -0.004  0.00  0.00     0.027 A 
ATOM     28  C   UNL d   1      -2.045   3.868  -0.436  0.00  0.00     0.040 A 
ENDBRANCH   6  24
BRANCH   9  29
ATOM     29  C   UNL d   1      -3.211  -1.559  -0.069  0.00  0.00    -0.009 A 
ATOM     30  C   UNL d   1      -3.304  -2.759   0.654  0.00  0.00     0.013 A 
ATOM     31  C   UNL d   1      -4.421  -3.594   0.537  0.00  0.00     0.001 A 
ATOM     32  C   UNL d   1      -5.467  -3.247  -0.314  0.00  0.00     0.000 A 
ATOM     33  C   UNL d   1      -5.401  -2.064  -1.043  0.00  0.00     0.001 A 
ATOM     34  C   UNL d   1      -4.285  -1.231  -0.921  0.00  0.00     0.013 A 
ENDBRANCH   9  29
TORSDOF 5
