REMARK  2 active torsions:
REMARK  status: ('A' for Active; 'I' for Inactive)
REMARK    1  A    between atoms: C_2  and  N_1 
REMARK    2  A    between atoms: C_12  and  C_7 
ROOT
ATOM      1  C   UNL d   1      -0.006  -5.982  -1.229  0.00  0.00     0.105 A 
ATOM      2  C   UNL d   1      -1.077  -5.924  -2.088  0.00  0.00     0.105 A 
ATOM      3  O   UNL d   1       0.310  -7.258  -0.881  0.00  0.00    -0.323 OA
ATOM      4  O   UNL d   1      -1.570  -7.154  -2.389  0.00  0.00    -0.323 OA
ATOM      5  C   UNL d   1      -0.709  -7.994  -1.592  0.00  0.00     0.352 A 
ATOM      6  C   UNL d   1       0.642  -4.843  -0.795  0.00  0.00     0.051 A 
ATOM      7  C   UNL d   1       0.172  -3.598  -1.242  0.00  0.00    -0.032 A 
ATOM      8  C   UNL d   1      -1.555  -4.726  -2.567  0.00  0.00     0.040 A 
ATOM      9  C   UNL d   1      -0.919  -3.554  -2.141  0.00  0.00     0.014 A 
ENDROOT
BRANCH   7  10
ATOM     10  C   UNL d   1       0.868  -2.380  -0.796  0.00  0.00     0.035 C 
ATOM     11  C   UNL d   1       0.244  -1.209  -0.616  0.00  0.00     0.168 C 
BRANCH  11  12
ATOM     12  N   UNL d   1       0.990  -0.054  -0.174  0.00  0.00    -0.127 N 
ATOM     13  O   UNL d   1       0.336   0.989  -0.049  0.00  0.00    -0.532 OA
ATOM     14  O   UNL d   1       2.202  -0.168   0.045  0.00  0.00    -0.532 OA
ENDBRANCH  11  12
ENDBRANCH   7  10
TORSDOF 2
