REMARK  3 active torsions:
REMARK  status: ('A' for Active; 'I' for Inactive)
REMARK    1  A    between atoms: N_6  and  C_1 
REMARK       I    between atoms: C_8  and  N_6 
REMARK    2  A    between atoms: C_12  and  C_7 
REMARK       I    between atoms: N_9  and  C_8 
REMARK    3  A    between atoms: C_10  and  N_9 
ROOT
ATOM      1  C   UNL d   1       0.356  -1.074   0.137  0.00  0.00     0.127 A 
ATOM      2  N   UNL d   1       0.797   0.928   1.128  0.00  0.00    -0.296 N 
ATOM      3  HN  UNL d   1       0.693   1.765   1.702  1.00  0.00     0.187 HD
ATOM      4  C   UNL d   1       1.601  -0.665  -0.285  0.00  0.00     0.082 A 
ATOM      5  N   UNL d   1      -0.072  -0.078   0.988  0.00  0.00    -0.281 N 
ATOM      6  C   UNL d   1       1.832   0.596   0.347  0.00  0.00     0.062 A 
ATOM      7  C   UNL d   1      -1.332  -0.014   1.690  0.00  0.00     0.179 C 
ENDROOT
BRANCH   1   8
ATOM      8  N   UNL d   1      -0.410  -2.179  -0.184  0.00  0.00    -0.293 N 
ATOM      9  C   UNL d   1      -0.215  -3.324  -0.996  0.00  0.00     0.326 C 
ATOM     10  N   UNL d   1       1.039  -3.561  -1.469  0.00  0.00    -0.306 N 
ATOM     11  O   UNL d   1      -1.216  -4.012  -1.066  0.00  0.00    -0.247 OA
ATOM     12  H   UNL d   1       1.791  -3.057  -1.034  0.00  0.00     0.171 HD
ATOM     13  H   UNL d   1      -1.353  -2.210   0.190  0.00  0.00     0.172 HD
BRANCH  10  14
ATOM     14  C   UNL d   1       1.406  -4.732  -2.183  0.00  0.00     0.075 A 
ATOM     15  C   UNL d   1       0.513  -5.529  -2.915  0.00  0.00     0.143 A 
ATOM     16  F   UNL d   1      -0.735  -5.116  -3.176  0.00  0.00    -0.204 F 
ATOM     17  C   UNL d   1       0.907  -6.753  -3.451  0.00  0.00     0.044 A 
ATOM     18  C   UNL d   1       2.222  -7.183  -3.298  0.00  0.00     0.003 A 
ATOM     19  C   UNL d   1       3.146  -6.362  -2.653  0.00  0.00     0.002 A 
ATOM     20  C   UNL d   1       2.745  -5.136  -2.110  0.00  0.00     0.033 A 
ENDBRANCH  10  14
ENDBRANCH   1   8
BRANCH   6  21
ATOM     21  C   UNL d   1       2.973   1.497   0.193  0.00  0.00    -0.008 A 
ATOM     22  C   UNL d   1       2.769   2.885   0.212  0.00  0.00     0.014 A 
ATOM     23  C   UNL d   1       3.837   3.767   0.046  0.00  0.00     0.001 A 
ATOM     24  C   UNL d   1       5.126   3.269  -0.131  0.00  0.00     0.000 A 
ATOM     25  C   UNL d   1       5.345   1.891  -0.137  0.00  0.00     0.001 A 
ATOM     26  C   UNL d   1       4.274   1.006   0.021  0.00  0.00     0.014 A 
ENDBRANCH   6  21
TORSDOF 3
