REMARK  5 active torsions:
REMARK  status: ('A' for Active; 'I' for Inactive)
REMARK    1  A    between atoms: C_2  and  S_1 
REMARK    2  A    between atoms: C_5  and  S_1 
REMARK    3  A    between atoms: C_3  and  C_2 
REMARK    4  A    between atoms: C_4  and  C_3 
REMARK    5  A    between atoms: O_11  and  C_4 
ROOT
ATOM      1  S   UNL d   1       0.875   0.055   0.094  0.00  0.00     0.176 S 
ATOM      2  O   UNL d   1       0.118   1.058   0.825  0.00  0.00    -0.223 OA
ATOM      3  O   UNL d   1       2.321   0.038   0.163  0.00  0.00    -0.223 OA
ENDROOT
BRANCH   1   4
ATOM      4  C   UNL d   1       0.414   0.129  -1.624  0.00  0.00     0.160 C 
BRANCH   4   5
ATOM      5  C   UNL d   1       0.853   1.453  -2.284  0.00  0.00     0.094 C 
ATOM      6  C   UNL d   1       0.149   2.671  -1.681  0.00  0.00     0.022 C 
BRANCH   5   7
ATOM      7  C   UNL d   1       0.559   1.408  -3.763  0.00  0.00     0.144 C 
ATOM      8  O   UNL d   1      -0.039   0.492  -4.304  0.00  0.00    -0.650 OA
BRANCH   7   9
ATOM      9  O   UNL d   1       1.030   2.460  -4.460  0.00  0.00    -0.776 OA
ATOM     10  H   UNL d   1       1.515   3.126  -3.932  0.00  0.00     0.167 HD
ENDBRANCH   7   9
ENDBRANCH   5   7
ENDBRANCH   4   5
ENDBRANCH   1   4
BRANCH   1  11
ATOM     11  C   UNL d   1       0.291  -1.512   0.704  0.00  0.00     0.059 A 
ATOM     12  C   UNL d   1       1.150  -2.614   0.719  0.00  0.00     0.025 A 
ATOM     13  C   UNL d   1       0.754  -3.783   1.376  0.00  0.00     0.025 A 
ATOM     14  C   UNL d   1      -0.483  -3.837   2.020  0.00  0.00     0.034 A 
ATOM     15  C   UNL d   1      -1.340  -2.737   2.005  0.00  0.00     0.025 A 
ATOM     16 CL   UNL d   1      -0.942  -5.260   2.872  0.00  0.00    -0.084 Cl
ATOM     17  C   UNL d   1      -0.953  -1.569   1.346  0.00  0.00     0.025 A 
ENDBRANCH   1  11
TORSDOF 5
