REMARK  5 active torsions:
REMARK  status: ('A' for Active; 'I' for Inactive)
REMARK    1  A    between atoms: C_6  and  N_1 
REMARK    2  A    between atoms: C_7  and  C_6 
REMARK       I    between atoms: N_8  and  C_7 
REMARK    3  A    between atoms: C_9  and  C_12 
REMARK    4  A    between atoms: O_19  and  C_9 
REMARK    5  A    between atoms: C_22  and  O_19 
ROOT
ATOM      1  C   UNL d   1       3.788   1.472  -0.252  0.00  0.00     0.238 C 
ATOM      2  N   UNL d   1       3.115   2.605   0.215  0.00  0.00    -0.351 N 
ATOM      3  C   UNL d   1       1.698   5.049   0.998  0.00  0.00     0.088 C 
ATOM      4  C   UNL d   1       2.938   3.694  -0.748  0.00  0.00     0.126 C 
ATOM      5  C   UNL d   1       2.140   2.559   1.306  0.00  0.00     0.126 C 
ATOM      6  O   UNL d   1       4.168   1.403  -1.424  0.00  0.00    -0.272 OA
ATOM      7  C   UNL d   1       2.804   5.053  -0.064  0.00  0.00     0.034 C 
ATOM      8  C   UNL d   1       1.988   3.917   1.997  0.00  0.00     0.034 C 
ENDROOT
BRANCH   1   9
ATOM      9  C   UNL d   1       4.061   0.301   0.705  0.00  0.00     0.238 C 
BRANCH   9  10
ATOM     10  N   UNL d   1       3.070  -0.747   0.561  0.00  0.00    -0.271 N 
ATOM     11  C   UNL d   1       3.029  -1.616  -0.492  0.00  0.00     0.262 C 
ATOM     12  C   UNL d   1       1.901  -2.510  -0.250  0.00  0.00     0.048 A 
ATOM     13  O   UNL d   1       3.788  -1.734  -1.433  0.00  0.00    -0.267 OA
ATOM     14  C   UNL d   1       1.307  -3.447  -1.073  0.00  0.00     0.018 A 
ATOM     15  C   UNL d   1       1.449  -2.268   1.033  0.00  0.00     0.048 A 
ATOM     16  C   UNL d   1       0.232  -4.168  -0.545  0.00  0.00     0.001 A 
ATOM     17  C   UNL d   1      -0.191  -3.965   0.785  0.00  0.00     0.001 A 
ATOM     18  C   UNL d   1       0.424  -3.004   1.595  0.00  0.00     0.018 A 
ATOM     19  C   UNL d   1       2.224  -1.144   1.563  0.00  0.00     0.262 C 
ATOM     20  O   UNL d   1       2.106  -0.703   2.687  0.00  0.00    -0.267 OA
ENDBRANCH   9  10
ENDBRANCH   1   9
BRANCH   3  21
ATOM     21  C   UNL d   1       0.293   4.899   0.418  0.00  0.00     0.263 C 
ATOM     22  O   UNL d   1      -0.641   4.394   1.027  0.00  0.00    -0.265 OA
BRANCH  21  23
ATOM     23  O   UNL d   1       0.219   5.383  -0.851  0.00  0.00    -0.322 OA
BRANCH  23  24
ATOM     24  C   UNL d   1      -0.929   4.991  -1.618  0.00  0.00     0.174 C 
ATOM     25  C   UNL d   1      -1.831   6.179  -1.882  0.00  0.00     0.034 C 
ENDBRANCH  23  24
ENDBRANCH  21  23
ENDBRANCH   3  21
TORSDOF 5
