REMARK  4 active torsions:
REMARK  status: ('A' for Active; 'I' for Inactive)
REMARK    1  A    between atoms: C_6  and  N_1 
REMARK    2  A    between atoms: C_2  and  C_8 
REMARK    3  A    between atoms: C_14  and  C_3 
REMARK    4  A    between atoms: O_20  and  C_15 
ROOT
ATOM      1  C   UNL d   1      -1.755  -4.816  -1.336  0.00  0.00     0.055 C 
ATOM      2  C   UNL d   1      -2.844  -4.749  -2.136  0.00  0.00     0.034 C 
ATOM      3  C   UNL d   1      -1.046  -3.620  -0.972  0.00  0.00     0.100 C 
ATOM      4  N   UNL d   1      -0.462  -2.671  -0.648  0.00  0.00    -0.191 NA
ENDROOT
BRANCH   1   5
ATOM      5  C   UNL d   1      -1.299  -6.128  -0.779  0.00  0.00    -0.015 A 
ATOM      6  C   UNL d   1      -1.460  -7.336  -1.485  0.00  0.00     0.015 A 
ATOM      7  C   UNL d   1      -1.028  -8.559  -0.952  0.00  0.00     0.037 A 
ATOM      8  C   UNL d   1      -0.410  -8.590   0.302  0.00  0.00     0.102 A 
ATOM      9  C   UNL d   1      -0.222  -7.405   1.019  0.00  0.00     0.037 A 
ATOM     10  C   UNL d   1      -0.663  -6.188   0.478  0.00  0.00     0.015 A 
BRANCH   8  11
ATOM     11  N   UNL d   1       0.043  -9.868   0.865  0.00  0.00    -0.116 N 
ATOM     12  O   UNL d   1       0.582  -9.847   1.981  0.00  0.00    -0.532 OA
ATOM     13  O   UNL d   1      -0.142 -10.892   0.192  0.00  0.00    -0.532 OA
ENDBRANCH   8  11
ENDBRANCH   1   5
BRANCH   2  14
ATOM     14  C   UNL d   1      -3.397  -3.509  -2.698  0.00  0.00    -0.035 A 
ATOM     15  C   UNL d   1      -2.931  -3.001  -3.915  0.00  0.00     0.014 A 
ATOM     16  C   UNL d   1      -3.438  -1.798  -4.422  0.00  0.00     0.037 A 
ATOM     17  C   UNL d   1      -4.417  -1.098  -3.716  0.00  0.00     0.068 A 
ATOM     18  C   UNL d   1      -4.913  -1.628  -2.524  0.00  0.00     0.037 A 
ATOM     19  C   UNL d   1      -4.401  -2.822  -2.010  0.00  0.00     0.014 A 
BRANCH  17  20
ATOM     20  O   UNL d   1      -4.990   0.077  -4.119  0.00  0.00    -0.356 OA
ATOM     21  C   UNL d   1      -4.144   0.946  -4.866  0.00  0.00     0.210 C 
ENDBRANCH  17  20
ENDBRANCH   2  14
TORSDOF 4
