REMARK  9 active torsions:
REMARK  status: ('A' for Active; 'I' for Inactive)
REMARK    1  A    between atoms: C1*_3  and  N_1 
REMARK    2  A    between atoms: N_17  and  C_2 
REMARK    3  A    between atoms: C2*_8  and  O2*_27 
REMARK    4  A    between atoms: C3*_10  and  O3*_29 
REMARK    5  A    between atoms: C4*_11  and  C5*_30 
REMARK    6  A    between atoms: N_28  and  C_14 
REMARK    7  A    between atoms: N_18  and  N_17 
REMARK    8  A    between atoms: C_20  and  C_22 
REMARK    9  A    between atoms: O5*_31  and  C5*_30 
ROOT
ATOM      1  N   UNL d   1       1.588   1.195   0.171  0.00  0.00    -0.134 N 
ATOM      2  C   UNL d   1       2.417   0.088   0.225  0.00  0.00     0.703 C 
ATOM      3  C   UNL d   1       0.301   0.736   0.283  0.00  0.00     0.158 A 
ATOM      4  N   UNL d   1       1.716  -1.029   0.234  0.00  0.00    -0.182 N 
ATOM      5  HN  UNL d   1       2.077  -1.983   0.246  1.00  0.00     0.184 HD
ATOM      6  C   UNL d   1       0.404  -0.643   0.223  0.00  0.00     0.137 A 
ATOM      7  N   UNL d   1      -0.827   1.456   0.295  0.00  0.00    -0.336 N 
ATOM      8  HN  UNL d   1      -0.859   2.474   0.349  1.00  0.00     0.168 HD
ATOM      9  C   UNL d   1      -0.794  -1.364   0.100  0.00  0.00     0.131 A 
ATOM     10  N   UNL d   1      -1.960  -0.686   0.120  0.00  0.00    -0.337 N 
ATOM     11  HN  UNL d   1      -2.851  -1.178   0.056  1.00  0.00     0.168 HD
ATOM     12  C   UNL d   1      -1.919   0.661   0.228  0.00  0.00     0.183 A 
ENDROOT
BRANCH   1  13
ATOM     13  C1* UNL d   1       1.974   2.470  -0.409  0.00  0.00     0.279 C 
ATOM     14  C2* UNL d   1       1.385   3.772   0.141  0.00  0.00     0.199 C 
ATOM     15  C3* UNL d   1       0.357   4.190  -0.902  0.00  0.00     0.182 C 
ATOM     16  C4* UNL d   1       0.875   3.554  -2.187  0.00  0.00     0.179 C 
ATOM     17  O4* UNL d   1       1.669   2.410  -1.821  0.00  0.00    -0.353 OA
BRANCH  14  18
ATOM     18  O2* UNL d   1       2.404   4.803   0.216  0.00  0.00    -0.388 OA
ATOM     19  H2* UNL d   1       3.007   4.715  -0.545  0.00  0.00     0.210 HD
ENDBRANCH  14  18
BRANCH  15  20
ATOM     20  O3* UNL d   1       0.270   5.608  -1.047  0.00  0.00    -0.390 OA
ATOM     21  H3* UNL d   1       1.087   5.983  -0.663  0.00  0.00     0.210 HD
ENDBRANCH  15  20
BRANCH  16  22
ATOM     22  C5* UNL d   1      -0.243   3.119  -3.139  0.00  0.00     0.198 C 
BRANCH  22  23
ATOM     23  O5* UNL d   1      -1.120   2.174  -2.540  0.00  0.00    -0.398 OA
ATOM     24  H5* UNL d   1      -0.563   1.520  -2.078  0.00  0.00     0.209 HD
ENDBRANCH  22  23
ENDBRANCH  16  22
ENDBRANCH   1  13
BRANCH   2  25
ATOM     25  N   UNL d   1       3.763   0.215   0.115  0.00  0.00    -0.132 N 
ATOM     26  H   UNL d   1       4.232   0.968   0.620  0.00  0.00     0.205 HD
BRANCH  25  27
ATOM     27  N   UNL d   1       4.632  -0.709  -0.393  0.00  0.00    -0.295 N 
ATOM     28  C   UNL d   1       4.179  -1.484  -1.339  0.00  0.00     0.144 C 
ATOM     29  HN  UNL d   1       5.589  -0.790  -0.048  1.00  0.00     0.186 HD
BRANCH  28  30
ATOM     30  C   UNL d   1       5.052  -2.403  -1.999  0.00  0.00     0.091 A 
ATOM     31  O   UNL d   1       4.552  -3.144  -3.031  0.00  0.00    -0.321 OA
ATOM     32  C   UNL d   1       5.581  -3.870  -3.534  0.00  0.00     0.142 A 
ATOM     33  C   UNL d   1       6.739  -3.619  -2.839  0.00  0.00     0.027 A 
ATOM     34  C   UNL d   1       6.394  -2.682  -1.833  0.00  0.00     0.040 A 
ENDBRANCH  28  30
ENDBRANCH  25  27
ENDBRANCH   2  25
BRANCH   9  35
ATOM     35  N   UNL d   1      -0.834  -2.736  -0.103  0.00  0.00    -0.383 N 
ATOM     36  H   UNL d   1       0.003  -3.233   0.171  0.00  0.00     0.157 HD
ATOM     37  H   UNL d   1      -1.735  -3.146   0.097  0.00  0.00     0.157 HD
ENDBRANCH   9  35
TORSDOF 9
