REMARK  1 active torsions:
REMARK  status: ('A' for Active; 'I' for Inactive)
REMARK    1  A    between atoms: C_10  and  C_5 
ROOT
ATOM      1  C   UNL d   1       1.173  -0.892   0.028  0.00  0.00     0.088 A 
ATOM      2  C   UNL d   1       0.735   0.491   0.021  0.00  0.00     0.009 A 
ATOM      3  O   UNL d   1       2.514  -1.195   0.045  0.00  0.00    -0.309 OA
ATOM      4  C   UNL d   1       0.118  -1.722   0.017  0.00  0.00     0.050 A 
ATOM      5  C   UNL d   1       3.427  -0.128   0.045  0.00  0.00     0.086 A 
ATOM      6  C   UNL d   1       1.613   1.496   0.020  0.00  0.00     0.018 A 
ATOM      7  C   UNL d   1      -0.719   0.490   0.010  0.00  0.00    -0.013 A 
ATOM      8  C   UNL d   1      -1.084  -0.873   0.006  0.00  0.00    -0.022 A 
ATOM      9  C   UNL d   1       3.022   1.162   0.020  0.00  0.00     0.039 A 
ATOM     10  C   UNL d   1      -1.661   1.502   0.005  0.00  0.00     0.013 A 
ATOM     11  C   UNL d   1      -2.418  -1.240  -0.004  0.00  0.00     0.012 A 
ATOM     12  C   UNL d   1      -3.009   1.132  -0.003  0.00  0.00     0.001 A 
ATOM     13  C   UNL d   1      -3.383  -0.224  -0.008  0.00  0.00     0.001 A 
ENDROOT
BRANCH   5  14
ATOM     14  C   UNL d   1       4.855  -0.507   0.016  0.00  0.00    -0.002 A 
ATOM     15  C   UNL d   1       5.834   0.288   0.637  0.00  0.00     0.016 A 
ATOM     16  C   UNL d   1       7.191  -0.037   0.549  0.00  0.00     0.024 A 
ATOM     17  C   UNL d   1       7.583  -1.176  -0.147  0.00  0.00     0.034 A 
ATOM     18  C   UNL d   1       6.628  -2.001  -0.736  0.00  0.00     0.024 A 
ATOM     19 CL   UNL d   1       9.254  -1.560  -0.283  0.00  0.00    -0.084 Cl
ATOM     20  C   UNL d   1       5.271  -1.670  -0.650  0.00  0.00     0.016 A 
ENDBRANCH   5  14
TORSDOF 1
