REMARK  3 active torsions:
REMARK  status: ('A' for Active; 'I' for Inactive)
REMARK    1  A    between atoms: C_6  and  N_1 
REMARK    2  A    between atoms: C_12  and  N_7 
REMARK    3  A    between atoms: C_9  and  C_13 
ROOT
ATOM      1  C   UNL d   1       2.130  -1.488  -0.036  0.00  0.00     0.039 A 
ATOM      2  C   UNL d   1       2.397  -2.287  -1.157  0.00  0.00     0.031 A 
ATOM      3  C   UNL d   1       3.037  -1.485   1.034  0.00  0.00     0.031 A 
ATOM      4  C   UNL d   1       4.469  -3.032  -0.154  0.00  0.00    -0.021 A 
ATOM      5  C   UNL d   1       4.209  -2.244   0.969  0.00  0.00     0.015 A 
ATOM      6  C   UNL d   1       3.558  -3.068  -1.212  0.00  0.00     0.015 A 
ENDROOT
BRANCH   4   7
ATOM      7  C   UNL d   1       5.717  -3.819  -0.250  0.00  0.00     0.099 C 
ATOM      8  N   UNL d   1       6.695  -3.625   0.574  0.00  0.00    -0.365 N 
ATOM      9  HN  UNL d   1       6.602  -2.935   1.319  1.00  0.00     0.165 HD
BRANCH   8  10
ATOM     10  C   UNL d   1       7.882  -4.361   0.445  0.00  0.00     0.032 A 
ATOM     11  C   UNL d   1       8.479  -4.670  -0.785  0.00  0.00     0.031 A 
ATOM     12  C   UNL d   1       9.700  -5.355  -0.838  0.00  0.00     0.026 A 
ATOM     13  C   UNL d   1      10.341  -5.714   0.347  0.00  0.00     0.034 A 
ATOM     14  C   UNL d   1       9.774  -5.398   1.575  0.00  0.00     0.026 A 
ATOM     15 CL   UNL d   1      11.854  -6.533   0.283  0.00  0.00    -0.084 Cl
ATOM     16  C   UNL d   1       8.550  -4.723   1.620  0.00  0.00     0.031 A 
ENDBRANCH   8  10
ENDBRANCH   4   7
BRANCH   1  17
ATOM     17  N   UNL d   1       0.959  -0.666   0.008  0.00  0.00    -0.320 N 
ATOM     18  C   UNL d   1      -0.316  -1.012  -0.452  0.00  0.00     0.013 A 
ATOM     19  C   UNL d   1      -1.157   0.067  -0.257  0.00  0.00     0.027 A 
ATOM     20  C   UNL d   1      -0.728  -2.347  -0.974  0.00  0.00     0.068 C 
ATOM     21  C   UNL d   1      -0.417   1.087   0.354  0.00  0.00     0.027 A 
ATOM     22  C   UNL d   1       0.882   0.640   0.504  0.00  0.00     0.013 A 
ATOM     23  C   UNL d   1       2.023   1.456   1.014  0.00  0.00     0.068 C 
ENDBRANCH   1  17
TORSDOF 3
