REMARK  8 active torsions:
REMARK  status: ('A' for Active; 'I' for Inactive)
REMARK    1  A    between atoms: O_39  and  C_13 
REMARK    2  A    between atoms: O_38  and  C_14 
REMARK    3  A    between atoms: O_34  and  C_15 
REMARK    4  A    between atoms: O_36  and  C_16 
REMARK    5  A    between atoms: O_37  and  C_17 
REMARK    6  A    between atoms: O_35  and  C_18 
REMARK    7  A    between atoms: O_33  and  C_19 
REMARK    8  A    between atoms: O_40  and  C_20 
ROOT
ATOM      1  C   UNL d   1       0.572   1.238  -0.890  0.00  0.00    -0.015 A 
ATOM      2  C   UNL d   1       1.644   3.078  -2.312  0.00  0.00    -0.015 C 
ATOM      3  C   UNL d   1       2.138  -0.393   0.123  0.00  0.00    -0.015 A 
ATOM      4  C   UNL d   1       3.135   4.992  -2.752  0.00  0.00    -0.015 C 
ATOM      5  C   UNL d   1       3.981   0.402   1.659  0.00  0.00    -0.015 A 
ATOM      6  C   UNL d   1       3.786   6.266  -0.661  0.00  0.00    -0.015 A 
ATOM      7  C   UNL d   1       4.675   2.661   2.420  0.00  0.00    -0.015 A 
ATOM      8  C   UNL d   1       4.344   5.032   1.418  0.00  0.00    -0.015 A 
ATOM      9  C   UNL d   1      -0.138  -1.024  -0.430  0.00  0.00     0.078 A 
ATOM     10  C   UNL d   1       3.726   1.050   3.999  0.00  0.00     0.078 A 
ATOM     11  C   UNL d   1       2.513   3.442  -4.524  0.00  0.00     0.078 C 
ATOM     12  C   UNL d   1       2.305   6.396   1.259  0.00  0.00     0.078 A 
ATOM     13  C   UNL d   1      -0.419   0.278  -0.895  0.00  0.00     0.092 A 
ATOM     14  C   UNL d   1       1.869   2.616  -3.598  0.00  0.00     0.092 C 
ATOM     15  C   UNL d   1       1.141  -1.367   0.057  0.00  0.00     0.092 A 
ATOM     16  C   UNL d   1       2.627   6.766  -0.050  0.00  0.00     0.092 A 
ATOM     17  C   UNL d   1       4.250   2.315   3.708  0.00  0.00     0.092 A 
ATOM     18  C   UNL d   1       3.040   4.676  -4.106  0.00  0.00     0.092 C 
ATOM     19  C   UNL d   1       3.593   0.103   2.976  0.00  0.00     0.092 A 
ATOM     20  C   UNL d   1       3.153   5.537   1.986  0.00  0.00     0.092 A 
ATOM     21  C   UNL d   1       0.499   2.663  -1.381  0.00  0.00     0.053 C 
ATOM     22  C   UNL d   1       3.601  -0.579   0.530  0.00  0.00     0.053 C 
ATOM     23  C   UNL d   1       3.861   6.236  -2.207  0.00  0.00     0.053 C 
ATOM     24  C   UNL d   1       5.273   4.054   2.156  0.00  0.00     0.053 C 
ATOM     25  C   UNL d   1       1.802   0.893  -0.316  0.00  0.00     0.021 A 
ATOM     26  C   UNL d   1       4.652   5.448   0.103  0.00  0.00     0.021 A 
ATOM     27  C   UNL d   1       2.416   4.156  -1.882  0.00  0.00     0.021 C 
ATOM     28  C   UNL d   1       4.548   1.680   1.410  0.00  0.00     0.021 A 
ATOM     29 BR   UNL d   1       2.552   2.940  -6.355  0.00  0.00    -0.045 Br
ATOM     30 BR   UNL d   1      -1.541  -2.324  -0.469  0.00  0.00    -0.045 Br
ATOM     31 BR   UNL d   1       3.147   0.633   5.760  0.00  0.00    -0.045 Br
ATOM     32 BR   UNL d   1       0.616   6.933   1.970  0.00  0.00    -0.045 Br
ATOM     33  C   UNL d   1       4.452  -0.473  -0.745  0.00  0.00     0.020 C 
ATOM     34  C   UNL d   1      -0.800   3.203  -1.982  0.00  0.00     0.020 C 
ATOM     35  C   UNL d   1       5.305   6.370  -2.720  0.00  0.00     0.020 C 
ATOM     36  C   UNL d   1       6.686   3.890   1.564  0.00  0.00     0.020 C 
ENDROOT
BRANCH  13  37
ATOM     37  O   UNL d   1      -1.669   0.612  -1.340  0.00  0.00    -0.359 OA
ATOM     38  H   UNL d   1      -2.233  -0.178  -1.248  0.00  0.00     0.217 HD
ENDBRANCH  13  37
BRANCH  15  39
ATOM     39  O   UNL d   1       1.358  -2.661   0.442  0.00  0.00    -0.359 OA
ATOM     40  H   UNL d   1       2.137  -2.686   1.038  0.00  0.00     0.217 HD
ENDBRANCH  15  39
BRANCH  14  41
ATOM     41  O   UNL d   1       1.465   1.353  -3.924  0.00  0.00    -0.359 OA
ATOM     42  H   UNL d   1       2.142   1.003  -4.531  0.00  0.00     0.217 HD
ENDBRANCH  14  41
BRANCH  19  43
ATOM     43  O   UNL d   1       3.035  -1.129   3.221  0.00  0.00    -0.359 OA
ATOM     44  H   UNL d   1       2.710  -1.129   4.142  0.00  0.00     0.217 HD
ENDBRANCH  19  43
BRANCH  18  45
ATOM     45  O   UNL d   1       3.378   5.622  -5.040  0.00  0.00    -0.359 OA
ATOM     46  H   UNL d   1       2.777   6.373  -4.887  0.00  0.00     0.217 HD
ENDBRANCH  18  45
BRANCH  17  47
ATOM     47  O   UNL d   1       4.331   3.290   4.670  0.00  0.00    -0.359 OA
ATOM     48  H   UNL d   1       4.937   2.950   5.355  0.00  0.00     0.217 HD
ENDBRANCH  17  47
BRANCH  16  49
ATOM     49  O   UNL d   1       1.744   7.479  -0.823  0.00  0.00    -0.359 OA
ATOM     50  H   UNL d   1       0.927   7.591  -0.304  0.00  0.00     0.217 HD
ENDBRANCH  16  49
BRANCH  20  51
ATOM     51  O   UNL d   1       2.745   5.213   3.253  0.00  0.00    -0.359 OA
ATOM     52  H   UNL d   1       3.352   4.584   3.684  0.00  0.00     0.217 HD
ENDBRANCH  20  51
TORSDOF 8
