REMARK  1 active torsions:
REMARK  status: ('A' for Active; 'I' for Inactive)
REMARK    1  A    between atoms: C_7  and  C_6 
ROOT
ATOM      1  C   UNL d   1       1.291  -0.031  -0.090  0.00  0.00     0.078 C 
ATOM      2  N   UNL d   1       0.252  -1.085  -0.165  0.00  0.00    -0.272 NA
ATOM      3  S   UNL d   1       0.432   1.603  -0.169  0.00  0.00    -0.101 SA
ATOM      4  C   UNL d   1       2.218  -0.233  -1.300  0.00  0.00     0.058 C 
ATOM      5  S   UNL d   1       3.829  -0.438   0.820  0.00  0.00    -0.156 SA
ATOM      6  C   UNL d   1       3.678  -0.009  -0.930  0.00  0.00     0.090 C 
ATOM      7  C   UNL d   1      -1.034  -0.554  -0.004  0.00  0.00     0.026 A 
ATOM      8  C   UNL d   1      -1.152   0.836  -0.040  0.00  0.00     0.023 A 
ATOM      9  C   UNL d   1       2.086  -0.145   1.226  0.00  0.00     0.111 C 
ATOM     10  C   UNL d   1      -2.178  -1.342   0.039  0.00  0.00     0.025 A 
ATOM     11  C   UNL d   1      -2.389   1.461   0.024  0.00  0.00     0.020 A 
ATOM     12  C   UNL d   1      -3.537   0.668   0.096  0.00  0.00     0.001 A 
ATOM     13  C   UNL d   1      -3.431  -0.728   0.097  0.00  0.00     0.002 A 
ATOM     14  H   UNL d   1       0.425  -1.943   0.347  0.00  0.00     0.129 HD
ENDROOT
BRANCH   6  15
ATOM     15  C   UNL d   1       4.192   1.359  -1.284  0.00  0.00    -0.004 A 
ATOM     16  S   UNL d   1       4.916   1.577  -2.835  0.00  0.00    -0.105 SA
ATOM     17  C   UNL d   1       5.247   3.220  -2.535  0.00  0.00     0.050 A 
ATOM     18  C   UNL d   1       4.814   3.614  -1.289  0.00  0.00     0.008 A 
ATOM     19  C   UNL d   1       4.200   2.544  -0.571  0.00  0.00     0.016 A 
ENDBRANCH   6  15
TORSDOF 1
