REMARK  5 active torsions:
REMARK  status: ('A' for Active; 'I' for Inactive)
REMARK       I    between atoms: N_3  and  C_1 
REMARK    1  A    between atoms: C_5  and  C_1 
REMARK    2  A    between atoms: C_2  and  C_4 
REMARK    3  A    between atoms: C_7  and  N_3 
REMARK    4  A    between atoms: O_8  and  C_6 
REMARK    5  A    between atoms: C_15  and  O_8 
ROOT
ATOM      1  C   UNL d   1       0.481  -1.535  -3.046  0.00  0.00     0.175 A 
ATOM      2  C   UNL d   1       0.992  -1.577  -1.740  0.00  0.00     0.087 A 
ATOM      3  N   UNL d   1       1.162  -2.046  -4.111  0.00  0.00    -0.345 N 
ATOM      4  HN  UNL d   1       0.810  -1.938  -5.062  1.00  0.00     0.167 HD
ATOM      5  C   UNL d   1       2.210  -2.229  -1.537  0.00  0.00     0.035 A 
ATOM      6  C   UNL d   1       2.315  -2.699  -3.866  0.00  0.00     0.090 A 
ATOM      7  C   UNL d   1       2.866  -2.830  -2.607  0.00  0.00     0.019 A 
ENDROOT
BRANCH   2   8
ATOM      8  N   UNL d   1       0.405  -0.946  -0.621  0.00  0.00    -0.319 N 
ATOM      9  C   UNL d   1      -0.729  -1.466  -0.021  0.00  0.00     0.257 C 
ATOM     10  O   UNL d   1      -1.415  -2.393  -0.445  0.00  0.00    -0.267 OA
ATOM     11  H   UNL d   1       1.063  -0.550   0.042  0.00  0.00     0.169 HD
BRANCH   9  12
ATOM     12  C   UNL d   1      -1.090  -0.826   1.276  0.00  0.00     0.047 A 
ATOM     13  C   UNL d   1      -1.450  -1.552   2.425  0.00  0.00     0.063 A 
ATOM     14  C   UNL d   1      -1.915  -0.837   3.551  0.00  0.00     0.017 A 
ATOM     15  C   UNL d   1      -1.972   0.557   3.552  0.00  0.00     0.001 A 
ATOM     16  C   UNL d   1      -1.560   1.266   2.430  0.00  0.00     0.001 A 
ATOM     17  C   UNL d   1      -1.129   0.581   1.295  0.00  0.00     0.018 A 
BRANCH  13  18
ATOM     18  C   UNL d   1      -1.349  -3.052   2.557  0.00  0.00     0.418 C 
ATOM     19  F   UNL d   1      -0.549  -3.675   1.656  0.00  0.00    -0.166 F 
ATOM     20  F   UNL d   1      -0.812  -3.393   3.773  0.00  0.00    -0.166 F 
ATOM     21  F   UNL d   1      -2.559  -3.672   2.524  0.00  0.00    -0.166 F 
ENDBRANCH  13  18
ENDBRANCH   9  12
ENDBRANCH   2   8
BRANCH   1  22
ATOM     22  O   UNL d   1      -0.703  -0.841  -3.296  0.00  0.00    -0.292 OA
BRANCH  22  23
ATOM     23  C   UNL d   1      -1.362  -1.112  -4.480  0.00  0.00     0.078 A 
ATOM     24  C   UNL d   1      -1.536  -2.411  -4.973  0.00  0.00     0.039 A 
ATOM     25  C   UNL d   1      -2.188  -2.628  -6.189  0.00  0.00     0.026 A 
ATOM     26  C   UNL d   1      -2.714  -1.547  -6.892  0.00  0.00     0.034 A 
ATOM     27  C   UNL d   1      -2.597  -0.253  -6.385  0.00  0.00     0.026 A 
ATOM     28 CL   UNL d   1      -3.514  -1.815  -8.391  0.00  0.00    -0.084 Cl
ATOM     29  C   UNL d   1      -1.922  -0.035  -5.177  0.00  0.00     0.039 A 
ENDBRANCH  22  23
ENDBRANCH   1  22
TORSDOF 5
