REMARK  6 active torsions:
REMARK  status: ('A' for Active; 'I' for Inactive)
REMARK    1  A    between atoms: C_16  and  C_5 
REMARK       I    between atoms: C_7  and  N_14 
REMARK    2  A    between atoms: C_11  and  C_7 
REMARK    3  A    between atoms: C_21  and  C_10 
REMARK    4  A    between atoms: C_12  and  C_13 
REMARK    5  A    between atoms: O_23  and  C_12 
REMARK    6  A    between atoms: N_14  and  C_16 
ROOT
ATOM      1  C   UNL d   1      -0.913   1.923  -0.384  0.00  0.00    -0.012 C 
ATOM      2  C   UNL d   1       0.372   1.086  -0.380  0.00  0.00    -0.043 A 
ATOM      3  C   UNL d   1      -1.785   1.482  -1.603  0.00  0.00     0.008 C 
ATOM      4  C   UNL d   1       0.270  -0.302  -0.629  0.00  0.00    -0.051 A 
ATOM      5  C   UNL d   1      -1.371   2.098  -3.019  0.00  0.00    -0.023 C 
ATOM      6  C   UNL d   1       1.383  -1.145  -0.454  0.00  0.00     0.015 A 
ATOM      7  C   UNL d   1       1.631   1.593  -0.036  0.00  0.00     0.009 A 
ATOM      8  C   UNL d   1      -2.142  -0.011  -1.458  0.00  0.00     0.011 C 
ATOM      9  C   UNL d   1       2.637  -0.635  -0.116  0.00  0.00    -0.054 A 
ATOM     10  C   UNL d   1      -1.021  -0.955  -1.042  0.00  0.00     0.039 C 
ATOM     11  C   UNL d   1       2.747   0.747   0.081  0.00  0.00     0.008 A 
ATOM     12  C   UNL d   1      -0.818   3.472  -0.351  0.00  0.00     0.014 C 
ATOM     13  C   UNL d   1      -1.631   1.566   0.967  0.00  0.00     0.021 C 
ATOM     14  C   UNL d   1      -1.536   3.643  -2.825  0.00  0.00     0.011 C 
ATOM     15  C   UNL d   1      -0.680   4.206  -1.681  0.00  0.00     0.002 C 
ATOM     16  C   UNL d   1       0.057   1.921  -3.596  0.00  0.00     0.017 C 
ENDROOT
BRANCH   5  17
ATOM     17  C   UNL d   1      -2.355   1.611  -4.134  0.00  0.00     0.132 C 
BRANCH  17  18
ATOM     18  N   UNL d   1      -2.211   0.200  -4.461  0.00  0.00    -0.357 N 
ATOM     19  C   UNL d   1      -3.276  -0.557  -4.883  0.00  0.00     0.241 C 
ATOM     20  O   UNL d   1      -4.358  -0.090  -5.223  0.00  0.00    -0.269 OA
ATOM     21  H   UNL d   1      -1.347  -0.275  -4.217  0.00  0.00     0.162 HD
BRANCH  19  22
ATOM     22  C   UNL d   1      -3.053  -2.019  -4.812  0.00  0.00     0.080 C 
ATOM     23  C   UNL d   1      -4.086  -2.828  -5.095  0.00  0.00     0.086 C 
BRANCH  23  24
ATOM     24  C   UNL d   1      -3.928  -4.294  -4.941  0.00  0.00     0.165 C 
ATOM     25  O   UNL d   1      -2.924  -4.830  -4.514  0.00  0.00    -0.647 OA
BRANCH  24  26
ATOM     26  O   UNL d   1      -5.027  -4.955  -5.331  0.00  0.00    -0.773 OA
ATOM     27  H   UNL d   1      -5.759  -4.407  -5.671  0.00  0.00     0.167 HD
ENDBRANCH  24  26
ENDBRANCH  23  24
ENDBRANCH  19  22
ENDBRANCH  17  18
ENDBRANCH   5  17
BRANCH   9  28
ATOM     28  C   UNL d   1       3.853  -1.538  -0.003  0.00  0.00     0.010 C 
ATOM     29  C   UNL d   1       3.756  -2.505   1.182  0.00  0.00     0.015 C 
ATOM     30  C   UNL d   1       4.086  -2.313  -1.305  0.00  0.00     0.015 C 
ENDBRANCH   9  28
TORSDOF 6
