REMARK  5 active torsions:
REMARK  status: ('A' for Active; 'I' for Inactive)
REMARK    1  A    between atoms: C_14  and  N_3 
REMARK    2  A    between atoms: C_13  and  C_4 
REMARK    3  A    between atoms: C_12  and  C_5 
REMARK       I    between atoms: C_7  and  N_15 
REMARK    4  A    between atoms: C_8  and  C_7 
REMARK    5  A    between atoms: N_15  and  N_10 
ROOT
ATOM      1  N   UNL d   1       0.927  -0.641   0.147  0.00  0.00    -0.292 N 
ATOM      2  HN  UNL d   1       1.739  -1.244   0.275  1.00  0.00     0.187 HD
ATOM      3  N   UNL d   1      -0.368  -1.028   0.006  0.00  0.00    -0.266 N 
ATOM      4  C   UNL d   1      -0.419   1.186  -0.018  0.00  0.00     0.027 A 
ATOM      5  C   UNL d   1       0.914   0.700   0.084  0.00  0.00     0.072 A 
ATOM      6  C   UNL d   1      -1.200   0.056  -0.113  0.00  0.00     0.132 A 
ENDROOT
BRANCH   4   7
ATOM      7  C   UNL d   1      -0.894   2.545  -0.024  0.00  0.00     0.122 C 
ATOM      8  N   UNL d   1      -2.009   2.822  -0.616  0.00  0.00    -0.308 N 
ATOM      9  HN  UNL d   1      -2.584   2.108  -1.063  1.00  0.00     0.186 HD
BRANCH   8  10
ATOM     10  N   UNL d   1      -2.359   4.141  -0.598  0.00  0.00    -0.266 N 
ATOM     11  C   UNL d   1      -3.497   4.591  -1.257  0.00  0.00     0.276 C 
ATOM     12  O   UNL d   1      -4.227   3.857  -1.921  0.00  0.00    -0.265 OA
ATOM     13  H   UNL d   1      -1.790   4.814  -0.096  0.00  0.00     0.190 HD
BRANCH  11  14
ATOM     14  C   UNL d   1      -3.765   6.020  -1.102  0.00  0.00     0.074 A 
ATOM     15  S   UNL d   1      -2.761   7.047  -0.159  0.00  0.00    -0.097 SA
ATOM     16  C   UNL d   1      -3.739   8.412  -0.474  0.00  0.00     0.050 A 
ATOM     17  C   UNL d   1      -4.805   8.105  -1.290  0.00  0.00     0.009 A 
ATOM     18  C   UNL d   1      -4.817   6.727  -1.652  0.00  0.00     0.025 A 
ENDBRANCH  11  14
ENDBRANCH   8  10
ENDBRANCH   4   7
BRANCH   5  19
ATOM     19  C   UNL d   1       2.160   1.479   0.113  0.00  0.00    -0.007 A 
ATOM     20  C   UNL d   1       3.273   1.023   0.828  0.00  0.00     0.014 A 
ATOM     21  C   UNL d   1       4.447   1.786   0.883  0.00  0.00     0.007 A 
ATOM     22  C   UNL d   1       4.526   3.020   0.228  0.00  0.00    -0.062 A 
ATOM     23  C   UNL d   1       3.429   3.466  -0.511  0.00  0.00     0.007 A 
ATOM     24  C   UNL d   1       5.783   3.836   0.300  0.00  0.00     0.048 C 
ATOM     25  C   UNL d   1       2.266   2.694  -0.582  0.00  0.00     0.014 A 
ENDBRANCH   5  19
BRANCH   3  26
ATOM     26  C   UNL d   1      -0.737  -2.404   0.012  0.00  0.00     0.056 A 
ATOM     27  C   UNL d   1       0.246  -3.387   0.200  0.00  0.00     0.031 A 
ATOM     28  C   UNL d   1      -0.106  -4.739   0.220  0.00  0.00     0.002 A 
ATOM     29  C   UNL d   1      -1.436  -5.119   0.047  0.00  0.00     0.000 A 
ATOM     30  C   UNL d   1      -2.417  -4.149  -0.145  0.00  0.00     0.002 A 
ATOM     31  C   UNL d   1      -2.073  -2.796  -0.162  0.00  0.00     0.031 A 
ENDBRANCH   3  26
TORSDOF 5
