REMARK  4 active torsions:
REMARK  status: ('A' for Active; 'I' for Inactive)
REMARK    1  A    between atoms: N_4  and  C_1 
REMARK    2  A    between atoms: N_5  and  C_1 
REMARK    3  A    between atoms: C_9  and  N_4 
REMARK    4  A    between atoms: C_14  and  N_5 
ROOT
ATOM      1  N   UNL d   1       0.733   0.292   1.218  0.00  0.00    -0.333 N 
ATOM      2  H   UNL d   1       0.114   1.091   1.253  0.00  0.00     0.168 HD
ENDROOT
BRANCH   1   3
ATOM      3  C   UNL d   1       1.250   0.037  -0.023  0.00  0.00     0.172 C 
ATOM      4  S   UNL d   1       2.830  -0.356  -0.411  0.00  0.00    -0.041 SA
BRANCH   3   5
ATOM      5  N   UNL d   1       0.389   0.163  -1.076  0.00  0.00    -0.362 N 
ATOM      6  H   UNL d   1       0.849  -0.082  -1.946  0.00  0.00     0.162 HD
BRANCH   5   7
ATOM      7  C   UNL d   1      -1.075   0.180  -1.090  0.00  0.00     0.083 C 
ATOM      8  C   UNL d   1      -1.678  -1.163  -0.652  0.00  0.00     0.025 C 
ATOM      9  C   UNL d   1      -1.407  -2.283  -1.657  0.00  0.00     0.002 C 
ATOM     10  C   UNL d   1      -1.867  -1.912  -3.063  0.00  0.00     0.000 C 
ATOM     11  C   UNL d   1      -1.305  -0.570  -3.521  0.00  0.00     0.002 C 
ATOM     12  C   UNL d   1      -1.571   0.543  -2.500  0.00  0.00     0.025 C 
ENDBRANCH   5   7
ENDBRANCH   3   5
ENDBRANCH   1   3
BRANCH   1  13
ATOM     13  C   UNL d   1       1.213  -0.182   2.462  0.00  0.00     0.035 A 
ATOM     14  C   UNL d   1       1.774  -1.461   2.590  0.00  0.00     0.043 A 
ATOM     15  C   UNL d   1       2.176  -1.930   3.856  0.00  0.00    -0.006 A 
ATOM     16  C   UNL d   1       2.740  -3.149   4.323  0.00  0.00     0.030 A 
ATOM     17  C   UNL d   1       2.012  -1.099   4.963  0.00  0.00     0.042 A 
ATOM     18  C   UNL d   1       2.905  -3.039   5.684  0.00  0.00     0.089 A 
ATOM     19  N   UNL d   1       2.478  -1.794   6.057  0.00  0.00    -0.365 N 
ATOM     20  H   UNL d   1       2.482  -1.435   7.003  0.00  0.00     0.165 HD
ATOM     21  C   UNL d   1       1.456   0.182   4.864  0.00  0.00     0.033 A 
ATOM     22  C   UNL d   1       1.039   0.614   3.596  0.00  0.00     0.032 A 
ENDBRANCH   1  13
TORSDOF 4
