REMARK  3 active torsions:
REMARK  status: ('A' for Active; 'I' for Inactive)
REMARK       I    between atoms: N_2  and  C_1 
REMARK       I    between atoms: N_5  and  C_1 
REMARK    1  A    between atoms: C_3  and  N_4 
REMARK    2  A    between atoms: C_6  and  N_5 
REMARK    3  A    between atoms: O_22  and  C_13 
ROOT
ATOM      1  C   UNL d   1       0.965   0.396   0.083  0.00  0.00     0.323 C 
ATOM      2  N   UNL d   1       0.300   0.630   1.279  0.00  0.00    -0.331 N 
ATOM      3  N   UNL d   1       0.052   0.693   4.131  0.00  0.00    -0.214 N 
ATOM      4  N   UNL d   1       0.604  -0.747  -0.595  0.00  0.00    -0.306 N 
ATOM      5  O   UNL d   1       1.802   1.198  -0.329  0.00  0.00    -0.247 OA
ATOM      6  C   UNL d   1       0.643   1.852   2.033  0.00  0.00     0.148 C 
ATOM      7  C   UNL d   1      -0.741  -0.178   1.945  0.00  0.00     0.148 C 
ATOM      8  C   UNL d   1       1.071   1.516   3.472  0.00  0.00     0.161 C 
ATOM      9  C   UNL d   1      -0.364  -0.508   3.405  0.00  0.00     0.161 C 
ATOM     10  H   UNL d   1      -0.191  -1.223  -0.239  0.00  0.00     0.171 HD
ENDROOT
BRANCH   4  11
ATOM     11  C   UNL d   1       1.097  -1.200  -1.851  0.00  0.00     0.071 A 
ATOM     12  C   UNL d   1       2.340  -0.732  -2.325  0.00  0.00     0.056 A 
ATOM     13  C   UNL d   1       2.858  -1.135  -3.557  0.00  0.00     0.036 A 
ATOM     14 CL   UNL d   1       4.383  -0.539  -4.088  0.00  0.00    -0.084 Cl
ATOM     15  C   UNL d   1       2.155  -2.022  -4.353  0.00  0.00     0.026 A 
ATOM     16  C   UNL d   1       0.942  -2.522  -3.891  0.00  0.00     0.041 A 
ATOM     17  C   UNL d   1       0.399  -2.137  -2.646  0.00  0.00     0.095 A 
BRANCH  17  18
ATOM     18  O   UNL d   1      -0.783  -2.793  -2.444  0.00  0.00    -0.354 OA
ATOM     19  C   UNL d   1      -1.685  -2.452  -1.415  0.00  0.00     0.210 C 
ENDBRANCH  17  18
ENDBRANCH   4  11
BRANCH   3  20
ATOM     20  C   UNL d   1      -0.795   1.274   5.051  0.00  0.00     0.679 A 
ATOM     21  N   UNL d   1      -1.881   0.595   5.458  0.00  0.00    -0.202 N 
ATOM     22  C   UNL d   1      -2.632   1.136   6.439  0.00  0.00     0.107 A 
ATOM     23  HN  UNL d   1      -2.130  -0.300   5.038  1.00  0.00     0.183 HD
ATOM     24  C   UNL d   1      -2.349   2.335   7.039  0.00  0.00     0.035 A 
ATOM     25  C   UNL d   1      -1.239   2.970   6.552  0.00  0.00     0.107 A 
ATOM     26  N   UNL d   1      -0.464   2.468   5.569  0.00  0.00    -0.202 N 
ATOM     27  HN  UNL d   1       0.350   2.980   5.229  1.00  0.00     0.183 HD
ENDBRANCH   3  20
TORSDOF 3
