REMARK  3 active torsions:
REMARK  status: ('A' for Active; 'I' for Inactive)
REMARK    1  A    between atoms: C_5  and  C_1 
REMARK    2  A    between atoms: C_9  and  C_4 
REMARK       I    between atoms: N_10  and  C_5 
REMARK    3  A    between atoms: N_11  and  N_10 
ROOT
ATOM      1  C   UNL d   1       1.354   0.820  -0.056  0.00  0.00     0.109 A 
ATOM      2  N   UNL d   1       1.467  -0.577  -0.038  0.00  0.00    -0.345 N 
ATOM      3  HN  UNL d   1       2.348  -1.090  -0.023  1.00  0.00     0.167 HD
ATOM      4  C   UNL d   1       0.268  -1.134  -0.043  0.00  0.00     0.085 A 
ATOM      5  S   UNL d   1      -1.046  -0.012   0.009  0.00  0.00    -0.081 SA
ATOM      6  C   UNL d   1       0.056   1.290  -0.023  0.00  0.00     0.087 A 
ENDROOT
BRANCH   1   7
ATOM      7  C   UNL d   1       2.522   1.699  -0.116  0.00  0.00     0.282 C 
ATOM      8  O   UNL d   1       2.444   2.926  -0.176  0.00  0.00    -0.265 OA
ATOM      9  N   UNL d   1       3.731   1.017  -0.119  0.00  0.00    -0.288 N 
ATOM     10  H   UNL d   1       3.710   0.004   0.007  0.00  0.00     0.183 HD
BRANCH   9  11
ATOM     11  N   UNL d   1       4.958   1.723  -0.133  0.00  0.00    -0.247 NA
ATOM     12  H   UNL d   1       4.733   2.719   0.004  0.00  0.00     0.143 HD
ATOM     13  H   UNL d   1       5.332   1.682  -1.085  0.00  0.00     0.143 HD
ENDBRANCH   9  11
ENDBRANCH   1   7
BRANCH   4  14
ATOM     14  C   UNL d   1       0.007  -2.586  -0.042  0.00  0.00    -0.002 A 
ATOM     15  C   UNL d   1       0.914  -3.453   0.587  0.00  0.00     0.014 A 
ATOM     16  C   UNL d   1       0.680  -4.832   0.625  0.00  0.00     0.001 A 
ATOM     17  C   UNL d   1      -0.458  -5.366   0.025  0.00  0.00     0.000 A 
ATOM     18  C   UNL d   1      -1.357  -4.525  -0.623  0.00  0.00     0.001 A 
ATOM     19  C   UNL d   1      -1.125  -3.147  -0.659  0.00  0.00     0.014 A 
ENDBRANCH   4  14
TORSDOF 3
