REMARK  2 active torsions:
REMARK  status: ('A' for Active; 'I' for Inactive)
REMARK    1  A    between atoms: C_7  and  C_1 
REMARK    2  A    between atoms: O_10  and  C_2 
ROOT
ATOM      1  C   UNL d   1       2.394   0.762  -0.019  0.00  0.00     0.076 A 
ATOM      2  C   UNL d   1       1.223   1.434   0.002  0.00  0.00     0.094 A 
ATOM      3  C   UNL d   1       2.393  -0.740  -0.002  0.00  0.00     0.259 A 
ATOM      4  N   UNL d   1       1.179  -1.363   0.057  0.00  0.00    -0.319 N 
ATOM      5  C   UNL d   1      -0.061   0.711   0.015  0.00  0.00     0.028 A 
ATOM      6  C   UNL d   1      -0.046  -0.685   0.048  0.00  0.00     0.087 A 
ATOM      7  O   UNL d   1       3.431  -1.396  -0.042  0.00  0.00    -0.267 OA
ATOM      8  C   UNL d   1      -1.239  -1.408   0.041  0.00  0.00     0.144 A 
ATOM      9  C   UNL d   1      -1.302   1.366  -0.031  0.00  0.00     0.017 A 
ATOM     10  F   UNL d   1      -1.211  -2.749   0.075  0.00  0.00    -0.204 F 
ATOM     11  C   UNL d   1      -2.497   0.637  -0.061  0.00  0.00     0.004 A 
ATOM     12  C   UNL d   1      -2.465  -0.756  -0.023  0.00  0.00     0.045 A 
ATOM     13  H   UNL d   1       1.187  -2.375   0.063  0.00  0.00     0.169 HD
ENDROOT
BRANCH   1  14
ATOM     14  C   UNL d   1       3.682   1.475  -0.073  0.00  0.00    -0.018 A 
ATOM     15  C   UNL d   1       4.349   1.822   1.107  0.00  0.00     0.012 A 
ATOM     16  C   UNL d   1       5.551   2.531   1.051  0.00  0.00     0.001 A 
ATOM     17  C   UNL d   1       6.088   2.898  -0.182  0.00  0.00     0.000 A 
ATOM     18  C   UNL d   1       5.428   2.556  -1.362  0.00  0.00     0.001 A 
ATOM     19  C   UNL d   1       4.228   1.846  -1.309  0.00  0.00     0.012 A 
ENDBRANCH   1  14
BRANCH   2  20
ATOM     20  O   UNL d   1       1.115   2.813  -0.007  0.00  0.00    -0.359 OA
ATOM     21  H   UNL d   1       2.008   3.201  -0.038  0.00  0.00     0.217 HD
ENDBRANCH   2  20
TORSDOF 2
