REMARK  4 active torsions:
REMARK  status: ('A' for Active; 'I' for Inactive)
REMARK    1  A    between atoms: C_5  and  C_1 
REMARK    2  A    between atoms: C_7  and  C_2 
REMARK       I    between atoms: N_11  and  C_7 
REMARK       I    between atoms: C_9  and  N_12 
REMARK    3  A    between atoms: C_10  and  C_9 
REMARK    4  A    between atoms: N_12  and  N_11 
ROOT
ATOM      1  C   UNL d   1       0.285  -2.495   0.148  0.00  0.00     0.275 C 
ATOM      2  N   UNL d   1      -0.350  -3.668  -0.215  0.00  0.00    -0.263 N 
ATOM      3  O   UNL d   1      -0.164  -1.381  -0.110  0.00  0.00    -0.266 OA
ATOM      4  H   UNL d   1       0.037  -4.590  -0.022  0.00  0.00     0.190 HD
ENDROOT
BRANCH   1   5
ATOM      5  C   UNL d   1       1.541  -2.703   0.846  0.00  0.00     0.094 A 
ATOM      6  C   UNL d   1       2.798  -2.018   0.711  0.00  0.00     0.088 A 
ATOM      7  N   UNL d   1       3.711  -2.589   1.516  0.00  0.00    -0.259 N 
ATOM      8  O   UNL d   1       3.063  -3.548   2.245  0.00  0.00    -0.241 OA
ATOM      9  HN  UNL d   1       4.701  -2.351   1.573  1.00  0.00     0.195 HD
ATOM     10  C   UNL d   1       1.767  -3.618   1.859  0.00  0.00     0.090 A 
ATOM     11  C   UNL d   1       0.955  -4.590   2.620  0.00  0.00     0.080 C 
BRANCH   6  12
ATOM     12  C   UNL d   1       3.213  -0.928  -0.179  0.00  0.00     0.054 A 
ATOM     13  C   UNL d   1       2.808  -0.929  -1.520  0.00  0.00     0.130 A 
ATOM     14  F   UNL d   1       2.019  -1.907  -1.995  0.00  0.00    -0.205 F 
ATOM     15  C   UNL d   1       3.237   0.044  -2.425  0.00  0.00     0.043 A 
ATOM     16  C   UNL d   1       4.115   1.040  -2.013  0.00  0.00     0.005 A 
ATOM     17  C   UNL d   1       4.539   1.068  -0.687  0.00  0.00     0.025 A 
ATOM     18  C   UNL d   1       4.083   0.105   0.229  0.00  0.00     0.049 A 
ATOM     19 CL   UNL d   1       4.638   0.305   1.860  0.00  0.00    -0.083 Cl
ENDBRANCH   6  12
ENDBRANCH   1   5
BRANCH   2  20
ATOM     20  N   UNL d   1      -1.641  -3.666  -0.765  0.00  0.00    -0.263 N 
ATOM     21  C   UNL d   1      -2.298  -4.888  -0.804  0.00  0.00     0.271 C 
ATOM     22  O   UNL d   1      -1.773  -5.901  -0.344  0.00  0.00    -0.266 OA
ATOM     23  H   UNL d   1      -1.979  -2.799  -1.175  0.00  0.00     0.190 HD
BRANCH  21  24
ATOM     24  C   UNL d   1      -3.667  -4.917  -1.403  0.00  0.00     0.044 A 
ATOM     25  C   UNL d   1      -4.139  -6.049  -2.142  0.00  0.00    -0.010 A 
ATOM     26  C   UNL d   1      -5.488  -6.047  -2.584  0.00  0.00    -0.025 A 
ATOM     27  C   UNL d   1      -3.359  -7.189  -2.479  0.00  0.00     0.013 A 
ATOM     28  C   UNL d   1      -6.011  -7.146  -3.289  0.00  0.00     0.012 A 
ATOM     29  C   UNL d   1      -6.311  -4.946  -2.315  0.00  0.00     0.012 A 
ATOM     30  C   UNL d   1      -5.220  -8.253  -3.586  0.00  0.00     0.001 A 
ATOM     31  C   UNL d   1      -3.892  -8.269  -3.188  0.00  0.00     0.001 A 
ATOM     32  C   UNL d   1      -5.835  -3.845  -1.609  0.00  0.00     0.002 A 
ATOM     33  C   UNL d   1      -4.522  -3.832  -1.147  0.00  0.00     0.018 A 
ENDBRANCH  21  24
ENDBRANCH   2  20
TORSDOF 4
