REMARK  2 active torsions:
REMARK  status: ('A' for Active; 'I' for Inactive)
REMARK    1  A    between atoms: C_7  and  C_1 
REMARK       I    between atoms: N_13  and  C_7 
REMARK    2  A    between atoms: N_15  and  N_13 
ROOT
ATOM      1  C   UNL d   1       1.531   1.260   0.034  0.00  0.00     0.132 A 
ATOM      2  N   UNL d   1       0.230   0.775   0.012  0.00  0.00    -0.302 N 
ATOM      3  C   UNL d   1       0.326  -0.614  -0.058  0.00  0.00     0.113 A 
ATOM      4  N   UNL d   1       1.573  -1.018  -0.086  0.00  0.00    -0.344 N 
ATOM      5  HN  UNL d   1       1.910  -1.978  -0.153  1.00  0.00     0.167 HD
ATOM      6  C   UNL d   1       2.328   0.123  -0.007  0.00  0.00     0.040 A 
ATOM      7  C   UNL d   1      -1.004   1.431   0.075  0.00  0.00     0.099 A 
ATOM      8  C   UNL d   1      -0.882  -1.365  -0.067  0.00  0.00     0.056 A 
ATOM      9  C   UNL d   1      -2.144   0.716   0.052  0.00  0.00     0.024 A 
ATOM     10  C   UNL d   1      -2.078  -0.741  -0.014  0.00  0.00    -0.057 A 
ATOM     11  C   UNL d   1       3.809   0.026   0.009  0.00  0.00     0.071 C 
ATOM     12  C   UNL d   1      -3.361  -1.517  -0.002  0.00  0.00     0.048 C 
ENDROOT
BRANCH   1  13
ATOM     13  C   UNL d   1       1.988   2.624   0.155  0.00  0.00     0.284 C 
ATOM     14  O   UNL d   1       3.014   2.937   0.757  0.00  0.00    -0.265 OA
ATOM     15  N   UNL d   1       1.233   3.596  -0.502  0.00  0.00    -0.288 N 
ATOM     16  H   UNL d   1       0.587   3.310  -1.234  0.00  0.00     0.183 HD
BRANCH  15  17
ATOM     17  N   UNL d   1       1.702   4.936  -0.520  0.00  0.00    -0.247 NA
ATOM     18  H   UNL d   1       2.685   4.907  -0.211  0.00  0.00     0.143 HD
ATOM     19  H   UNL d   1       1.234   5.444   0.236  0.00  0.00     0.143 HD
ENDBRANCH  15  17
ENDBRANCH   1  13
TORSDOF 2
