REMARK  4 active torsions:
REMARK  status: ('A' for Active; 'I' for Inactive)
REMARK    1  A    between atoms: C_13  and  N_3 
REMARK    2  A    between atoms: S_11  and  C_4 
REMARK    3  A    between atoms: C_18  and  S_11 
REMARK    4  A    between atoms: C_17  and  C_18 
ROOT
ATOM      1  C   UNL d   1       0.785   0.405  -0.076  0.00  0.00     0.074 A 
ATOM      2  C   UNL d   1       1.355  -0.842  -0.141  0.00  0.00     0.092 A 
ATOM      3  N   UNL d   1       3.028   1.252  -0.007  0.00  0.00    -0.258 N 
ATOM      4  C   UNL d   1       3.466  -0.084  -0.102  0.00  0.00     0.155 A 
ATOM      5  N   UNL d   1       2.680  -1.121  -0.159  0.00  0.00    -0.330 N 
ATOM      6  HN  UNL d   1       3.037  -2.075  -0.213  1.00  0.00     0.168 HD
ATOM      7  C   UNL d   1       1.656   1.556   0.005  0.00  0.00     0.268 A 
ATOM      8  C   UNL d   1      -0.643   0.370  -0.098  0.00  0.00    -0.026 A 
ATOM      9  C   UNL d   1      -1.101  -0.933  -0.078  0.00  0.00    -0.008 A 
ATOM     10  S   UNL d   1       0.167  -2.071  -0.154  0.00  0.00    -0.075 SA
ATOM     11  C   UNL d   1      -1.569   1.552  -0.071  0.00  0.00     0.041 C 
ATOM     12  O   UNL d   1       1.179   2.688   0.066  0.00  0.00    -0.267 OA
ATOM     13  C   UNL d   1      -2.545  -1.333  -0.021  0.00  0.00     0.051 C 
ATOM     14  C   UNL d   1      -3.028   1.144  -0.322  0.00  0.00     0.009 C 
ATOM     15  C   UNL d   1      -3.428  -0.143   0.432  0.00  0.00    -0.014 C 
ATOM     16  C   UNL d   1      -3.374   0.060   1.951  0.00  0.00     0.010 C 
ENDROOT
BRANCH   3  17
ATOM     17  C   UNL d   1       3.901   2.384   0.018  0.00  0.00     0.044 A 
ATOM     18  C   UNL d   1       3.775   3.337   1.044  0.00  0.00     0.030 A 
ATOM     19  C   UNL d   1       4.480   4.538   0.991  0.00  0.00     0.002 A 
ATOM     20  C   UNL d   1       5.316   4.800  -0.089  0.00  0.00     0.000 A 
ATOM     21  C   UNL d   1       5.464   3.855  -1.106  0.00  0.00     0.002 A 
ATOM     22  C   UNL d   1       4.763   2.647  -1.054  0.00  0.00     0.030 A 
ENDBRANCH   3  17
BRANCH   4  23
ATOM     23  S   UNL d   1       5.199  -0.405   0.026  0.00  0.00    -0.086 SA
BRANCH  23  24
ATOM     24  C   UNL d   1       5.322  -2.060  -0.695  0.00  0.00     0.160 C 
BRANCH  24  25
ATOM     25  C   UNL d   1       5.055  -2.094  -2.194  0.00  0.00     0.132 C 
ATOM     26  O   UNL d   1       4.694  -1.118  -2.849  0.00  0.00    -0.298 OA
ATOM     27  C   UNL d   1       5.277  -3.431  -2.858  0.00  0.00     0.091 C 
ENDBRANCH  24  25
ENDBRANCH  23  24
ENDBRANCH   4  23
TORSDOF 4
