REMARK  6 active torsions:
REMARK  status: ('A' for Active; 'I' for Inactive)
REMARK    1  A    between atoms: C_3  and  C_1 
REMARK    2  A    between atoms: N_5  and  C_2 
REMARK    3  A    between atoms: O_12  and  C_3 
REMARK    4  A    between atoms: C_10  and  N_5 
REMARK    5  A    between atoms: C_13  and  C_10 
REMARK    6  A    between atoms: C_14  and  C_10 
ROOT
ATOM      1  C   UNL d   1       1.724   3.480  -1.101  0.00  0.00    -0.086 C 
ATOM      2  C   UNL d   1       1.051   3.847  -2.024  0.00  0.00     0.015 C 
ATOM      3  C   UNL d   1       2.571   3.001   0.019  0.00  0.00     0.092 C 
ENDROOT
BRANCH   3   4
ATOM      4  N   UNL d   1       2.668   1.528  -0.048  0.00  0.00    -0.369 N 
ATOM      5  H   UNL d   1       2.253   1.050   0.755  0.00  0.00     0.161 HD
BRANCH   4   6
ATOM      6  C   UNL d   1       3.424   0.785  -0.910  0.00  0.00     0.053 C 
ATOM      7  C   UNL d   1       3.770  -0.538  -0.661  0.00  0.00     0.104 C 
ATOM      8  S   UNL d   1       4.854  -1.136  -1.857  0.00  0.00    -0.093 SA
ATOM      9  C   UNL d   1       4.785   0.312  -2.747  0.00  0.00     0.053 C 
ATOM     10  C   UNL d   1       3.940   1.227  -2.164  0.00  0.00     0.038 C 
BRANCH   7  11
ATOM     11  C   UNL d   1       3.352  -1.381   0.448  0.00  0.00     0.185 C 
ATOM     12  O   UNL d   1       2.554  -1.063   1.321  0.00  0.00    -0.646 OA
BRANCH  11  13
ATOM     13  O   UNL d   1       3.943  -2.609   0.449  0.00  0.00    -0.772 OA
ATOM     14  H   UNL d   1       4.552  -2.706  -0.309  0.00  0.00     0.167 HD
ENDBRANCH  11  13
ENDBRANCH   7  11
ENDBRANCH   4   6
ENDBRANCH   3   4
BRANCH   3  15
ATOM     15  C   UNL d   1       1.937   3.396   1.391  0.00  0.00     0.040 C 
ATOM     16  C   UNL d   1       0.508   2.936   1.661  0.00  0.00     0.009 C 
ENDBRANCH   3  15
BRANCH   3  17
ATOM     17  C   UNL d   1       3.995   3.641  -0.032  0.00  0.00     0.040 C 
ATOM     18  C   UNL d   1       4.048   5.167  -0.076  0.00  0.00     0.009 C 
ENDBRANCH   3  17
TORSDOF 6
