REMARK  9 active torsions:
REMARK  status: ('A' for Active; 'I' for Inactive)
REMARK    1  A    between atoms: C_5  and  C_1 
REMARK    2  A    between atoms: S_2  and  C_10 
REMARK    3  A    between atoms: N_11  and  S_2 
REMARK       I    between atoms: N_9  and  C_5 
REMARK       I    between atoms: C_8  and  N_12 
REMARK    4  A    between atoms: C_15  and  C_8 
REMARK    5  A    between atoms: N_12  and  N_9 
REMARK    6  A    between atoms: C_25  and  N_11 
REMARK    7  A    between atoms: C_26  and  N_11 
REMARK    8  A    between atoms: C_27  and  C_25 
REMARK    9  A    between atoms: C_28  and  C_26 
ROOT
ATOM      1  C   UNL d   1       4.707  -3.847   0.084  0.00  0.00     0.270 C 
ATOM      2  N   UNL d   1       4.092  -3.969  -1.148  0.00  0.00    -0.263 N 
ATOM      3  O   UNL d   1       4.113  -3.794   1.152  0.00  0.00    -0.266 OA
ATOM      4  H   UNL d   1       4.579  -3.676  -1.998  0.00  0.00     0.190 HD
ENDROOT
BRANCH   1   5
ATOM      5  C   UNL d   1       6.196  -3.768   0.010  0.00  0.00     0.033 A 
ATOM      6  C   UNL d   1       6.922  -3.023   0.950  0.00  0.00     0.018 A 
ATOM      7  C   UNL d   1       8.315  -2.894   0.825  0.00  0.00     0.026 A 
ATOM      8  C   UNL d   1       8.975  -3.503  -0.250  0.00  0.00     0.074 A 
ATOM      9  C   UNL d   1       8.246  -4.233  -1.194  0.00  0.00     0.026 A 
ATOM     10  C   UNL d   1       6.875  -4.410  -1.035  0.00  0.00     0.018 A 
BRANCH   8  11
ATOM     11  S   UNL d   1      10.695  -3.151  -0.585  0.00  0.00     0.243 S 
ATOM     12  O   UNL d   1      10.781  -2.857  -2.001  0.00  0.00    -0.206 OA
ATOM     13  O   UNL d   1      11.116  -2.171   0.399  0.00  0.00    -0.206 OA
BRANCH  11  14
ATOM     14  N   UNL d   1      11.597  -4.625  -0.316  0.00  0.00    -0.206 NA
BRANCH  14  15
ATOM     15  C   UNL d   1      11.019  -5.814  -1.040  0.00  0.00     0.107 C 
BRANCH  15  16
ATOM     16  C   UNL d   1      11.727  -7.148  -0.803  0.00  0.00     0.011 C 
ATOM     17  C   UNL d   1      11.741  -7.559   0.660  0.00  0.00     0.006 C 
ENDBRANCH  15  16
ENDBRANCH  14  15
BRANCH  14  18
ATOM     18  C   UNL d   1      13.060  -4.449  -0.678  0.00  0.00     0.107 C 
BRANCH  18  19
ATOM     19  C   UNL d   1      13.820  -3.420   0.154  0.00  0.00     0.011 C 
ATOM     20  C   UNL d   1      13.799  -3.729   1.642  0.00  0.00     0.006 C 
ENDBRANCH  18  19
ENDBRANCH  14  18
ENDBRANCH  11  14
ENDBRANCH   8  11
ENDBRANCH   1   5
BRANCH   2  21
ATOM     21  N   UNL d   1       2.693  -3.935  -1.259  0.00  0.00    -0.262 N 
ATOM     22  C   UNL d   1       2.177  -3.533  -2.484  0.00  0.00     0.278 C 
ATOM     23  O   UNL d   1       2.972  -3.151  -3.352  0.00  0.00    -0.265 OA
ATOM     24  H   UNL d   1       2.144  -4.314  -0.490  0.00  0.00     0.190 HD
BRANCH  22  25
ATOM     25  C   UNL d   1       0.738  -3.606  -2.682  0.00  0.00     0.097 A 
ATOM     26  S   UNL d   1       0.150  -3.125  -4.224  0.00  0.00    -0.082 SA
ATOM     27  C   UNL d   1      -1.483  -3.431  -3.815  0.00  0.00     0.017 A 
ATOM     28  C   UNL d   1      -2.602  -3.251  -4.653  0.00  0.00     0.020 A 
ATOM     29  C   UNL d   1      -1.604  -3.899  -2.506  0.00  0.00     0.004 A 
ATOM     30  C   UNL d   1      -3.873  -3.542  -4.160  0.00  0.00     0.001 A 
ATOM     31  C   UNL d   1      -4.031  -4.002  -2.862  0.00  0.00     0.001 A 
ATOM     32  C   UNL d   1      -2.914  -4.185  -2.035  0.00  0.00     0.014 A 
ATOM     33  C   UNL d   1      -0.307  -4.003  -1.869  0.00  0.00     0.068 A 
ATOM     34 CL   UNL d   1      -0.158  -4.577  -0.252  0.00  0.00    -0.082 Cl
ENDBRANCH  22  25
ENDBRANCH   2  21
TORSDOF 9
