REMARK  3 active torsions:
REMARK  status: ('A' for Active; 'I' for Inactive)
REMARK    1  A    between atoms: C_2  and  S_1 
REMARK    2  A    between atoms: C_5  and  S_1 
REMARK    3  A    between atoms: C_6  and  C_2 
ROOT
ATOM      1  S   UNL d   1       0.959  -0.069  -0.033  0.00  0.00     0.179 S 
ATOM      2  O   UNL d   1       0.437   1.284   0.054  0.00  0.00    -0.222 OA
ATOM      3  O   UNL d   1       2.381  -0.328   0.093  0.00  0.00    -0.222 OA
ENDROOT
BRANCH   1   4
ATOM      4  C   UNL d   1       0.359  -0.838  -1.533  0.00  0.00     0.184 C 
BRANCH   4   5
ATOM      5  C   UNL d   1       0.830  -0.043  -2.729  0.00  0.00    -0.044 A 
ATOM      6  C   UNL d   1       2.046  -0.349  -3.364  0.00  0.00     0.011 A 
ATOM      7  C   UNL d   1       2.473   0.393  -4.468  0.00  0.00     0.043 A 
ATOM      8  C   UNL d   1       1.693   1.444  -4.936  0.00  0.00     0.116 A 
ATOM      9  C   UNL d   1       0.494   1.770  -4.317  0.00  0.00     0.043 A 
ATOM     10  F   UNL d   1       2.105   2.153  -5.995  0.00  0.00    -0.206 F 
ATOM     11  C   UNL d   1       0.062   1.029  -3.215  0.00  0.00     0.011 A 
ENDBRANCH   4   5
ENDBRANCH   1   4
BRANCH   1  12
ATOM     12  C   UNL d   1       0.154  -0.999   1.263  0.00  0.00     0.059 A 
ATOM     13  C   UNL d   1       0.773  -2.140   1.782  0.00  0.00     0.023 A 
ATOM     14  C   UNL d   1       0.194  -2.802   2.866  0.00  0.00     0.002 A 
ATOM     15  C   UNL d   1      -0.990  -2.321   3.430  0.00  0.00     0.000 A 
ATOM     16  C   UNL d   1      -1.603  -1.181   2.909  0.00  0.00     0.002 A 
ATOM     17  C   UNL d   1      -1.031  -0.513   1.825  0.00  0.00     0.023 A 
ENDBRANCH   1  12
TORSDOF 3
