REMARK  5 active torsions:
REMARK  status: ('A' for Active; 'I' for Inactive)
REMARK    1  A    between atoms: C_3  and  C_1 
REMARK    2  A    between atoms: C_4  and  C_2 
REMARK       I    between atoms: N_9  and  C_3 
REMARK    3  A    between atoms: N_11  and  C_8 
REMARK    4  A    between atoms: C_16  and  N_9 
REMARK    5  A    between atoms: C_21  and  N_11 
ROOT
ATOM      1  C   UNL d   1       0.652   1.196  -0.250  0.00  0.00     0.062 A 
ATOM      2  C   UNL d   1       1.499   0.087  -0.197  0.00  0.00     0.068 A 
ATOM      3  C   UNL d   1      -0.698   0.961  -0.455  0.00  0.00     0.107 A 
ATOM      4  N   UNL d   1      -1.247  -0.273  -0.600  0.00  0.00    -0.356 N 
ATOM      5  HN  UNL d   1      -2.253  -0.382  -0.725  1.00  0.00     0.166 HD
ATOM      6  C   UNL d   1      -0.438  -1.349  -0.578  0.00  0.00     0.081 A 
ATOM      7  C   UNL d   1       0.927  -1.195  -0.353  0.00  0.00     0.059 A 
ENDROOT
BRANCH   1   8
ATOM      8  C   UNL d   1       1.141   2.591  -0.270  0.00  0.00     0.258 C 
ATOM      9  N   UNL d   1       0.508   3.470   0.602  0.00  0.00    -0.323 N 
ATOM     10  H   UNL d   1      -0.153   3.081   1.265  0.00  0.00     0.169 HD
ATOM     11  O   UNL d   1       2.024   2.845  -1.076  0.00  0.00    -0.267 OA
BRANCH   9  12
ATOM     12  C   UNL d   1       0.685   4.874   0.662  0.00  0.00     0.035 A 
ATOM     13  C   UNL d   1       1.539   5.587  -0.183  0.00  0.00     0.031 A 
ATOM     14  C   UNL d   1       1.627   6.984  -0.113  0.00  0.00     0.026 A 
ATOM     15  C   UNL d   1       0.854   7.679   0.814  0.00  0.00     0.034 A 
ATOM     16  C   UNL d   1       0.011   6.987   1.678  0.00  0.00     0.026 A 
ATOM     17 CL   UNL d   1       0.938   9.395   0.879  0.00  0.00    -0.084 Cl
ATOM     18  C   UNL d   1      -0.071   5.590   1.604  0.00  0.00     0.031 A 
ENDBRANCH   9  12
ENDBRANCH   1   8
BRANCH   2  19
ATOM     19  C   UNL d   1       2.991   0.177  -0.013  0.00  0.00     0.418 C 
ATOM     20  F   UNL d   1       3.450   1.342   0.507  0.00  0.00    -0.166 F 
ATOM     21  F   UNL d   1       3.433  -0.785   0.853  0.00  0.00    -0.166 F 
ATOM     22  F   UNL d   1       3.671  -0.044  -1.169  0.00  0.00    -0.166 F 
ENDBRANCH   2  19
BRANCH   6  23
ATOM     23  N   UNL d   1      -0.959  -2.650  -0.677  0.00  0.00    -0.274 NA
ATOM     24  H   UNL d   1      -0.303  -3.267  -1.143  0.00  0.00     0.129 HD
BRANCH  23  25
ATOM     25  C   UNL d   1      -2.318  -2.773  -1.233  0.00  0.00     0.061 C 
ATOM     26  C   UNL d   1      -3.054  -3.942  -0.554  0.00  0.00     0.020 C 
ATOM     27  C   UNL d   1      -2.683  -5.329  -1.075  0.00  0.00     0.002 C 
ATOM     28  C   UNL d   1      -2.734  -5.403  -2.595  0.00  0.00     0.000 C 
ATOM     29  C   UNL d   1      -1.847  -4.335  -3.220  0.00  0.00     0.002 C 
ATOM     30  C   UNL d   1      -2.258  -2.934  -2.763  0.00  0.00     0.020 C 
ENDBRANCH  23  25
ENDBRANCH   6  23
TORSDOF 5
