REMARK  2 active torsions:
REMARK  status: ('A' for Active; 'I' for Inactive)
REMARK    1  A    between atoms: C_2  and  C_1 
REMARK       I    between atoms: N_3  and  C_1 
REMARK    2  A    between atoms: C_7  and  N_3 
ROOT
ATOM      1  C   UNL d   1       2.144   1.135   0.427  0.00  0.00     0.254 C 
ATOM      2  N   UNL d   1       3.352   0.737  -0.173  0.00  0.00    -0.348 N 
ATOM      3  O   UNL d   1       2.074   2.138   1.146  0.00  0.00    -0.267 OA
ATOM      4  C   UNL d   1       3.526  -0.534  -0.867  0.00  0.00     0.153 C 
ENDROOT
BRANCH   1   5
ATOM      5  C   UNL d   1       0.819   0.456   0.162  0.00  0.00     0.038 C 
ATOM      6  C   UNL d   1       0.507  -0.925   0.199  0.00  0.00    -0.040 C 
ATOM      7  C   UNL d   1      -0.772  -1.356  -0.247  0.00  0.00    -0.055 C 
ATOM      8  C   UNL d   1       1.439  -1.958   0.766  0.00  0.00     0.050 C 
ATOM      9  C   UNL d   1      -1.110  -2.814  -0.451  0.00  0.00     0.049 C 
ATOM     10  C   UNL d   1      -1.794  -0.421  -0.462  0.00  0.00     0.007 C 
ATOM     11  C   UNL d   1      -1.539   0.935  -0.338  0.00  0.00     0.002 C 
ATOM     12  C   UNL d   1      -0.239   1.363  -0.072  0.00  0.00     0.017 C 
ENDBRANCH   1   5
BRANCH   2  13
ATOM     13  C   UNL d   1       4.575   1.599  -0.207  0.00  0.00     0.087 C 
ATOM     14  C   UNL d   1       4.807   2.655   0.898  0.00  0.00     0.025 C 
ATOM     15  C   UNL d   1       4.307   4.079   0.611  0.00  0.00     0.002 C 
ATOM     16  C   UNL d   1       4.540   4.539  -0.821  0.00  0.00     0.000 C 
ATOM     17  C   UNL d   1       4.054   3.504  -1.821  0.00  0.00     0.002 C 
ATOM     18  C   UNL d   1       4.793   2.194  -1.606  0.00  0.00     0.025 C 
ENDBRANCH   2  13
TORSDOF 2
