REMARK  4 active torsions:
REMARK  status: ('A' for Active; 'I' for Inactive)
REMARK    1  A    between atoms: N_2  and  S_1 
REMARK    2  A    between atoms: C_4  and  S_1 
REMARK       I    between atoms: C_3  and  N_2 
REMARK       I    between atoms: N_8  and  C_3 
REMARK    3  A    between atoms: C_7  and  C_16 
REMARK    4  A    between atoms: C_16  and  N_8 
ROOT
ATOM      1  N   UNL d   1       0.487   1.131  -0.957  0.00  0.00    -0.232 N 
ATOM      2  C   UNL d   1      -0.780   1.597  -1.260  0.00  0.00     0.330 C 
ATOM      3  N   UNL d   1      -1.856   0.795  -1.049  0.00  0.00    -0.336 N 
ATOM      4  O   UNL d   1      -0.877   2.708  -1.758  0.00  0.00    -0.246 OA
ATOM      5  H   UNL d   1       1.233   1.784  -1.175  0.00  0.00     0.183 HD
ATOM      6  H   UNL d   1      -1.758  -0.155  -0.726  0.00  0.00     0.164 HD
ENDROOT
BRANCH   1   7
ATOM      7  S   UNL d   1       1.028  -0.139  -0.069  0.00  0.00     0.266 S 
ATOM      8  O   UNL d   1       0.430  -0.052   1.241  0.00  0.00    -0.200 OA
ATOM      9  O   UNL d   1       2.469  -0.172  -0.234  0.00  0.00    -0.200 OA
BRANCH   7  10
ATOM     10  C   UNL d   1       0.394  -1.599  -0.864  0.00  0.00     0.080 A 
ATOM     11  C   UNL d   1       0.725  -1.917  -2.182  0.00  0.00     0.026 A 
ATOM     12  C   UNL d   1       0.257  -3.117  -2.735  0.00  0.00     0.008 A 
ATOM     13  C   UNL d   1      -0.531  -3.997  -1.974  0.00  0.00    -0.062 A 
ATOM     14  C   UNL d   1      -0.863  -3.654  -0.660  0.00  0.00     0.008 A 
ATOM     15  C   UNL d   1      -0.991  -5.307  -2.542  0.00  0.00     0.048 C 
ATOM     16  C   UNL d   1      -0.404  -2.464  -0.105  0.00  0.00     0.026 A 
ENDBRANCH   7  10
ENDBRANCH   1   7
BRANCH   3  17
ATOM     17  C   UNL d   1      -3.162   1.200  -1.513  0.00  0.00     0.189 C 
BRANCH  17  18
ATOM     18  C   UNL d   1      -4.160   0.127  -1.270  0.00  0.00     0.070 A 
ATOM     19  O   UNL d   1      -3.713  -1.165  -1.293  0.00  0.00    -0.325 OA
ATOM     20  C   UNL d   1      -4.793  -1.963  -1.093  0.00  0.00     0.142 A 
ATOM     21  C   UNL d   1      -5.931  -1.206  -0.939  0.00  0.00     0.027 A 
ATOM     22  C   UNL d   1      -5.524   0.145  -1.052  0.00  0.00     0.036 A 
ENDBRANCH  17  18
ENDBRANCH   3  17
TORSDOF 4
