REMARK  2 active torsions:
REMARK  status: ('A' for Active; 'I' for Inactive)
REMARK    1  A    between atoms: C_7  and  N_1 
REMARK    2  A    between atoms: N_6  and  C_2 
ROOT
ATOM      1  N   UNL d   1       1.000  -0.583  -0.183  0.00  0.00    -0.238 N 
ATOM      2  C   UNL d   1       0.980   0.788   0.037  0.00  0.00     0.155 C 
ATOM      3  N   UNL d   1      -0.248  -1.044  -0.475  0.00  0.00    -0.302 N 
ATOM      4  HN  UNL d   1      -0.506  -1.962  -0.838  1.00  0.00     0.186 HD
ATOM      5  C   UNL d   1      -0.351   1.140   0.158  0.00  0.00     0.107 C 
ATOM      6  C   UNL d   1      -1.056  -0.025  -0.180  0.00  0.00     0.134 C 
ATOM      7  C   UNL d   1      -0.932   2.418   0.403  0.00  0.00     0.105 C 
ATOM      8  N   UNL d   1      -1.416   3.453   0.603  0.00  0.00    -0.191 NA
ENDROOT
BRANCH   2   9
ATOM      9  N   UNL d   1       2.102   1.617   0.040  0.00  0.00    -0.316 N 
ATOM     10  C   UNL d   1       3.267   1.421  -0.682  0.00  0.00     0.098 A 
ATOM     11  C   UNL d   1       4.155   2.436  -0.407  0.00  0.00     0.019 A 
ATOM     12  C   UNL d   1       3.512   3.316   0.483  0.00  0.00     0.019 A 
ATOM     13  C   UNL d   1       2.249   2.813   0.714  0.00  0.00     0.098 A 
ENDBRANCH   2   9
BRANCH   1  14
ATOM     14  C   UNL d   1       2.055  -1.527  -0.014  0.00  0.00     0.060 A 
ATOM     15  C   UNL d   1       3.106  -1.286   0.881  0.00  0.00     0.055 A 
ATOM     16  C   UNL d   1       4.131  -2.224   1.011  0.00  0.00     0.036 A 
ATOM     17 CL   UNL d   1       5.424  -1.922   2.106  0.00  0.00    -0.084 Cl
ATOM     18  C   UNL d   1       4.115  -3.402   0.268  0.00  0.00     0.024 A 
ATOM     19  C   UNL d   1       3.051  -3.660  -0.597  0.00  0.00     0.004 A 
ATOM     20  C   UNL d   1       2.014  -2.734  -0.727  0.00  0.00     0.032 A 
ENDBRANCH   1  14
TORSDOF 2
