REMARK  6 active torsions:
REMARK  status: ('A' for Active; 'I' for Inactive)
REMARK    1  A    between atoms: O_9  and  N_1 
REMARK    2  A    between atoms: C_3  and  O_9 
REMARK       I    between atoms: N_6  and  C_3 
REMARK    3  A    between atoms: C_10  and  C_4 
REMARK    4  A    between atoms: N_17  and  C_4 
REMARK    5  A    between atoms: C_5  and  C_11 
REMARK    6  A    between atoms: C_18  and  N_6 
ROOT
ATOM      1  N   UNL d   1       0.988  -0.133   0.536  0.00  0.00    -0.244 N 
ATOM      2  HN  UNL d   1       1.936  -0.200   0.907  1.00  0.00     0.196 HD
ATOM      3  C   UNL d   1       0.366  -1.062  -0.140  0.00  0.00     0.109 C 
ENDROOT
BRANCH   3   4
ATOM      4  C   UNL d   1       1.083  -2.328  -0.486  0.00  0.00     0.004 A 
ATOM      5  C   UNL d   1       2.106  -2.824   0.323  0.00  0.00     0.015 A 
ATOM      6  C   UNL d   1       2.775  -4.002  -0.037  0.00  0.00     0.010 A 
ATOM      7  C   UNL d   1       2.439  -4.697  -1.214  0.00  0.00    -0.035 A 
ATOM      8  C   UNL d   1       1.403  -4.186  -2.014  0.00  0.00     0.010 A 
ATOM      9  C   UNL d   1       0.731  -3.016  -1.654  0.00  0.00     0.015 A 
BRANCH   7  10
ATOM     10  C   UNL d   1       3.215  -5.941  -1.610  0.00  0.00     0.141 C 
ATOM     11  S   UNL d   1       4.159  -5.684  -3.153  0.00  0.00    -0.148 SA
ATOM     12  C   UNL d   1       3.789  -7.288  -3.902  0.00  0.00     0.085 C 
ATOM     13  C   UNL d   1       2.361  -7.646  -3.551  0.00  0.00     0.085 C 
ATOM     14  S   UNL d   1       2.151  -7.415  -1.767  0.00  0.00    -0.148 SA
ENDBRANCH   7  10
ENDBRANCH   3   4
BRANCH   3  15
ATOM     15  N   UNL d   1      -0.938  -0.928  -0.567  0.00  0.00    -0.286 NA
ATOM     16  H   UNL d   1      -1.415  -0.146  -0.127  0.00  0.00     0.125 HD
ATOM     17  H   UNL d   1      -1.496  -1.775  -0.556  0.00  0.00     0.125 HD
ENDBRANCH   3  15
BRANCH   1  18
ATOM     18  O   UNL d   1       0.122   0.987   0.666  0.00  0.00    -0.179 OA
BRANCH  18  19
ATOM     19  C   UNL d   1       0.721   2.104   1.214  0.00  0.00     0.387 C 
ATOM     20  N   UNL d   1       1.985   1.874   1.704  0.00  0.00    -0.301 N 
ATOM     21  H   UNL d   1       2.267   0.908   1.574  0.00  0.00     0.171 HD
ATOM     22  O   UNL d   1       0.101   3.160   1.256  0.00  0.00    -0.236 OA
BRANCH  20  23
ATOM     23  C   UNL d   1       2.836   2.778   2.361  0.00  0.00     0.037 A 
ATOM     24  C   UNL d   1       2.546   4.138   2.518  0.00  0.00     0.031 A 
ATOM     25  C   UNL d   1       3.432   4.987   3.191  0.00  0.00     0.026 A 
ATOM     26  C   UNL d   1       4.615   4.478   3.714  0.00  0.00     0.034 A 
ATOM     27  C   UNL d   1       4.922   3.128   3.566  0.00  0.00     0.026 A 
ATOM     28 CL   UNL d   1       5.702   5.520   4.546  0.00  0.00    -0.084 Cl
ATOM     29  C   UNL d   1       4.036   2.282   2.886  0.00  0.00     0.031 A 
ENDBRANCH  20  23
ENDBRANCH  18  19
ENDBRANCH   1  18
TORSDOF 6
