REMARK  5 active torsions:
REMARK  status: ('A' for Active; 'I' for Inactive)
REMARK    1  A    between atoms: C_2  and  C_1 
REMARK    2  A    between atoms: C_7  and  C_2 
REMARK    3  A    between atoms: C_10  and  C_9 
REMARK       I    between atoms: N_11  and  C_10 
REMARK    4  A    between atoms: C_17  and  N_11 
REMARK    5  A    between atoms: C_16  and  C_17 
ROOT
ATOM      1  C   UNL d   1      -3.876   1.166   0.108  0.00  0.00     0.030 A 
ATOM      2  C   UNL d   1      -5.047   1.373  -0.651  0.00  0.00     0.046 A 
ATOM      3  C   UNL d   1      -3.949   0.441   1.311  0.00  0.00     0.016 A 
ATOM      4  C   UNL d   1      -6.259   0.807  -0.213  0.00  0.00     0.018 A 
ATOM      5  C   UNL d   1      -5.160  -0.114   1.730  0.00  0.00     0.001 A 
ATOM      6  C   UNL d   1      -6.312   0.068   0.970  0.00  0.00     0.001 A 
ENDROOT
BRANCH   1   7
ATOM      7  C   UNL d   1      -2.561   1.742  -0.287  0.00  0.00     0.194 C 
ATOM      8  O   UNL d   1      -2.561   2.927  -0.612  0.00  0.00    -0.287 OA
BRANCH   7   9
ATOM      9  C   UNL d   1      -1.260   0.956  -0.186  0.00  0.00     0.028 C 
ATOM     10  C   UNL d   1      -0.068   1.647   0.177  0.00  0.00    -0.041 C 
ATOM     11  C   UNL d   1       1.181   0.969   0.139  0.00  0.00    -0.049 C 
ATOM     12  C   UNL d   1      -0.094   3.109   0.570  0.00  0.00     0.050 C 
ATOM     13  C   UNL d   1       2.490   1.719   0.284  0.00  0.00     0.049 C 
ATOM     14  C   UNL d   1       1.217  -0.439  -0.020  0.00  0.00    -0.049 C 
ATOM     15  C   UNL d   1       0.017  -1.148  -0.254  0.00  0.00    -0.049 C 
ATOM     16  C   UNL d   1       2.557  -1.149   0.029  0.00  0.00     0.049 C 
ATOM     17  C   UNL d   1      -1.197  -0.433  -0.477  0.00  0.00    -0.041 C 
ATOM     18  C   UNL d   1       0.044  -2.661  -0.317  0.00  0.00     0.049 C 
ATOM     19  C   UNL d   1      -2.370  -1.197  -1.045  0.00  0.00     0.050 C 
ENDBRANCH   7   9
ENDBRANCH   1   7
BRANCH   2  20
ATOM     20  C   UNL d   1      -5.038   2.095  -1.961  0.00  0.00     0.252 C 
ATOM     21  N   UNL d   1      -6.143   2.886  -2.225  0.00  0.00    -0.353 N 
ATOM     22  H   UNL d   1      -6.851   2.998  -1.516  0.00  0.00     0.163 HD
ATOM     23  O   UNL d   1      -4.111   1.937  -2.747  0.00  0.00    -0.268 OA
BRANCH  21  24
ATOM     24  C   UNL d   1      -6.149   3.858  -3.305  0.00  0.00     0.162 C 
BRANCH  24  25
ATOM     25  C   UNL d   1      -6.710   3.344  -4.601  0.00  0.00    -0.025 A 
ATOM     26  C   UNL d   1      -7.914   3.818  -5.113  0.00  0.00     0.096 A 
ATOM     27  N   UNL d   1      -8.431   3.462  -6.314  0.00  0.00    -0.375 N 
ATOM     28  C   UNL d   1      -7.708   2.592  -7.051  0.00  0.00     0.087 A 
ATOM     29  HN  UNL d   1      -9.322   3.833  -6.644  1.00  0.00     0.164 HD
ATOM     30  C   UNL d   1      -6.504   2.052  -6.635  0.00  0.00     0.018 A 
ATOM     31  C   UNL d   1      -6.004   2.432  -5.392  0.00  0.00     0.011 A 
ENDBRANCH  24  25
ENDBRANCH  21  24
ENDBRANCH   2  20
TORSDOF 5
