REMARK  1 active torsions:
REMARK  status: ('A' for Active; 'I' for Inactive)
REMARK    1  A    between atoms: C_13  and  C_6 
ROOT
ATOM      1  C   UNL d   1       1.145  -1.012   0.042  0.00  0.00     0.139 A 
ATOM      2  N   UNL d   1       0.754   0.341   0.021  0.00  0.00    -0.261 N 
ATOM      3  C   UNL d   1       2.462  -1.305   0.062  0.00  0.00     0.100 A 
ATOM      4  N   UNL d   1      -0.005  -1.814   0.046  0.00  0.00    -0.334 N 
ATOM      5  C   UNL d   1       1.606   1.423   0.014  0.00  0.00     0.254 A 
ATOM      6  C   UNL d   1       3.449  -0.215   0.031  0.00  0.00     0.004 A 
ATOM      7  C   UNL d   1      -0.658   0.390   0.014  0.00  0.00     0.071 A 
ATOM      8  C   UNL d   1       3.049   1.069   0.012  0.00  0.00     0.089 A 
ATOM      9  C   UNL d   1      -1.113  -0.947   0.025  0.00  0.00     0.063 A 
ATOM     10  C   UNL d   1       2.944  -2.644   0.121  0.00  0.00     0.104 C 
ATOM     11  N   UNL d   1       3.344  -3.734   0.172  0.00  0.00    -0.191 NA
ATOM     12  O   UNL d   1       1.292   2.610   0.004  0.00  0.00    -0.268 OA
ATOM     13  C   UNL d   1      -0.211  -3.242   0.009  0.00  0.00     0.158 C 
ATOM     14  C   UNL d   1      -1.528   1.462  -0.003  0.00  0.00     0.032 A 
ATOM     15  C   UNL d   1      -2.467  -1.224   0.015  0.00  0.00     0.032 A 
ATOM     16  C   UNL d   1      -2.897   1.181  -0.010  0.00  0.00     0.002 A 
ATOM     17  C   UNL d   1      -3.361  -0.148  -0.003  0.00  0.00     0.002 A 
ENDROOT
BRANCH   6  18
ATOM     18  C   UNL d   1       4.907  -0.449  -0.005  0.00  0.00    -0.024 A 
ATOM     19  C   UNL d   1       5.646  -0.518   1.183  0.00  0.00     0.012 A 
ATOM     20  C   UNL d   1       7.015  -0.794   1.142  0.00  0.00     0.001 A 
ATOM     21  C   UNL d   1       7.650  -1.003  -0.082  0.00  0.00     0.000 A 
ATOM     22  C   UNL d   1       6.920  -0.935  -1.268  0.00  0.00     0.001 A 
ATOM     23  C   UNL d   1       5.552  -0.658  -1.231  0.00  0.00     0.012 A 
ENDBRANCH   6  18
TORSDOF 1
