REMARK  3 active torsions:
REMARK  status: ('A' for Active; 'I' for Inactive)
REMARK    1  A    between atoms: C_3  and  S_1 
REMARK    2  A    between atoms: N_6  and  S_1 
REMARK    3  A    between atoms: C_14  and  N_6 
ROOT
ATOM      1  N   UNL d   1       3.095   6.195   2.124  0.00  0.00    -0.275 NA
ATOM      2  C   UNL d   1       2.530   5.278   1.238  0.00  0.00     0.044 A 
ATOM      3  C   UNL d   1       3.275   4.191   0.729  0.00  0.00     0.092 A 
ATOM      4  O   UNL d   1       4.631   4.039   0.935  0.00  0.00    -0.348 OA
ATOM      5  C   UNL d   1       2.654   3.158   0.029  0.00  0.00     0.068 A 
ATOM      6  C   UNL d   1       1.165   5.344   0.940  0.00  0.00     0.029 A 
ATOM      7  C   UNL d   1       4.405   5.782   2.635  0.00  0.00     0.087 C 
ATOM      8  C   UNL d   1       1.277   3.197  -0.166  0.00  0.00     0.045 A 
ATOM      9  C   UNL d   1       5.243   5.221   1.482  0.00  0.00     0.196 C 
ATOM     10  C   UNL d   1       0.537   4.300   0.257  0.00  0.00     0.032 A 
ATOM     11  C   UNL d   1       3.083   7.618   1.783  0.00  0.00     0.096 C 
ATOM     12  C   UNL d   1       4.411   8.160   2.328  0.00  0.00     0.017 C 
ATOM     13  C   UNL d   1       4.941   7.067   3.248  0.00  0.00     0.023 C 
ENDROOT
BRANCH   8  14
ATOM     14  N   UNL d   1       0.605   2.037  -0.649  0.00  0.00    -0.281 N 
ATOM     15  H   UNL d   1       1.089   1.470  -1.342  0.00  0.00     0.179 HD
BRANCH  14  16
ATOM     16  S   UNL d   1      -0.191   1.067   0.501  0.00  0.00     0.263 S 
ATOM     17  O   UNL d   1      -1.160   1.875   1.212  0.00  0.00    -0.200 OA
ATOM     18  O   UNL d   1      -0.610  -0.133  -0.191  0.00  0.00    -0.200 OA
BRANCH  16  19
ATOM     19  C   UNL d   1       1.112   0.628   1.655  0.00  0.00     0.088 A 
ATOM     20  C   UNL d   1       1.215   1.400   2.824  0.00  0.00     0.068 A 
ATOM     21  C   UNL d   1       2.186   1.091   3.771  0.00  0.00     0.117 A 
ATOM     22  F   UNL d   1       2.287   1.835   4.879  0.00  0.00    -0.206 F 
ATOM     23  C   UNL d   1       3.042   0.018   3.589  0.00  0.00     0.043 A 
ATOM     24  C   UNL d   1       2.937  -0.760   2.436  0.00  0.00     0.011 A 
ATOM     25  C   UNL d   1       1.983  -0.463   1.443  0.00  0.00    -0.038 A 
ATOM     26  C   UNL d   1       1.926  -1.361   0.241  0.00  0.00     0.050 C 
ENDBRANCH  16  19
ENDBRANCH  14  16
ENDBRANCH   8  14
TORSDOF 3
