REMARK  2 active torsions:
REMARK  status: ('A' for Active; 'I' for Inactive)
REMARK    1  A    between atoms: C_10  and  N_1 
REMARK    2  A    between atoms: C_12  and  N_6 
ROOT
ATOM      1  N   UNL d   1      -0.438  -0.967  -0.250  0.00  0.00    -0.261 N 
ATOM      2  C   UNL d   1      -1.658  -0.578   0.279  0.00  0.00     0.155 C 
ATOM      3  C   UNL d   1      -0.903   1.050  -1.423  0.00  0.00     0.097 A 
ATOM      4  C   UNL d   1      -0.013  -0.141  -1.290  0.00  0.00     0.249 C 
ATOM      5  S   UNL d   1      -1.842   1.164   0.023  0.00  0.00    -0.073 SA
ATOM      6  N   UNL d   1      -2.532  -1.356   0.838  0.00  0.00    -0.336 N 
ATOM      7  HN  UNL d   1      -2.282  -2.336   0.973  1.00  0.00     0.168 HD
ATOM      8  C   UNL d   1      -1.596   1.327  -2.740  0.00  0.00     0.033 A 
ATOM      9  C   UNL d   1      -0.526   2.255  -2.240  0.00  0.00     0.033 A 
ATOM     10  O   UNL d   1       0.887  -0.323  -2.099  0.00  0.00    -0.271 OA
ENDROOT
BRANCH   1  11
ATOM     11  C   UNL d   1       0.342  -2.097   0.187  0.00  0.00     0.044 A 
ATOM     12  C   UNL d   1       1.725  -2.157  -0.086  0.00  0.00     0.030 A 
ATOM     13  C   UNL d   1       2.540  -3.186   0.401  0.00  0.00     0.002 A 
ATOM     14  C   UNL d   1       1.991  -4.197   1.175  0.00  0.00     0.000 A 
ATOM     15  C   UNL d   1       0.631  -4.172   1.458  0.00  0.00     0.002 A 
ATOM     16  C   UNL d   1      -0.181  -3.131   0.978  0.00  0.00     0.030 A 
ENDBRANCH   1  11
BRANCH   6  17
ATOM     17  C   UNL d   1      -3.803  -0.933   1.271  0.00  0.00     0.034 A 
ATOM     18  C   UNL d   1      -4.675  -0.156   0.496  0.00  0.00     0.029 A 
ATOM     19  C   UNL d   1      -5.917   0.253   0.989  0.00  0.00     0.002 A 
ATOM     20  C   UNL d   1      -6.343  -0.185   2.237  0.00  0.00     0.000 A 
ATOM     21  C   UNL d   1      -5.531  -1.034   2.984  0.00  0.00     0.002 A 
ATOM     22  C   UNL d   1      -4.268  -1.400   2.505  0.00  0.00     0.029 A 
ENDBRANCH   6  17
TORSDOF 2
