REMARK  4 active torsions:
REMARK  status: ('A' for Active; 'I' for Inactive)
REMARK    1  A    between atoms: C_3  and  C_1 
REMARK    2  A    between atoms: O_7  and  C_2 
REMARK       I    between atoms: N_13  and  C_3 
REMARK    3  A    between atoms: C_4  and  C_9 
REMARK    4  A    between atoms: C_9  and  O_7 
ROOT
ATOM      1  C   UNL d   1       0.846   1.273  -0.007  0.00  0.00     0.082 A 
ATOM      2  C   UNL d   1      -0.545   1.208  -0.087  0.00  0.00     0.158 A 
ATOM      3  N   UNL d   1      -1.243   0.044  -0.089  0.00  0.00    -0.346 N 
ATOM      4  HN  UNL d   1      -2.262   0.038  -0.135  1.00  0.00     0.167 HD
ATOM      5  C   UNL d   1       1.539   0.055   0.045  0.00  0.00     0.023 A 
ATOM      6  C   UNL d   1      -0.538  -1.105  -0.027  0.00  0.00     0.090 A 
ATOM      7  C   UNL d   1       0.842  -1.150   0.033  0.00  0.00     0.018 A 
ENDROOT
BRANCH   2   8
ATOM      8  O   UNL d   1      -1.284   2.371  -0.174  0.00  0.00    -0.326 OA
BRANCH   8   9
ATOM      9  C   UNL d   1      -2.631   2.157  -0.640  0.00  0.00     0.294 C 
BRANCH   9  10
ATOM     10  C   UNL d   1      -2.730   1.748  -2.110  0.00  0.00     0.408 C 
ATOM     11  F   UNL d   1      -1.530   1.734  -2.734  0.00  0.00    -0.169 F 
ATOM     12  F   UNL d   1      -3.295   0.531  -2.264  0.00  0.00    -0.169 F 
ATOM     13  F   UNL d   1      -3.507   2.633  -2.786  0.00  0.00    -0.169 F 
ENDBRANCH   9  10
ENDBRANCH   8   9
ENDBRANCH   2   8
BRANCH   1  14
ATOM     14  C   UNL d   1       1.655   2.522   0.007  0.00  0.00     0.253 C 
ATOM     15  O   UNL d   1       2.880   2.481   0.019  0.00  0.00    -0.268 OA
ATOM     16  N   UNL d   1       1.016   3.727   0.016  0.00  0.00    -0.366 N 
ATOM     17  H   UNL d   1       0.009   3.814   0.004  0.00  0.00     0.159 HD
ATOM     18  H   UNL d   1       1.585   4.563   0.017  0.00  0.00     0.159 HD
ENDBRANCH   1  14
TORSDOF 4
