REMARK  6 active torsions:
REMARK  status: ('A' for Active; 'I' for Inactive)
REMARK    1  A    between atoms: C_8  and  C_1 
REMARK    2  A    between atoms: C_14  and  C_3 
REMARK    3  A    between atoms: N_11  and  C_6 
REMARK    4  A    between atoms: C_13  and  C_7 
REMARK    5  A    between atoms: O_20  and  C_13 
REMARK    6  A    between atoms: C_27  and  O_20 
ROOT
ATOM      1  C   UNL d   1      -2.039   0.977   0.061  0.00  0.00     0.102 C 
ATOM      2  C   UNL d   1      -0.044  -0.554   0.102  0.00  0.00     0.060 A 
ATOM      3  C   UNL d   1      -0.856   1.696   0.175  0.00  0.00     0.024 C 
ATOM      4  C   UNL d   1       0.295   0.802   0.179  0.00  0.00     0.064 A 
ATOM      5  S   UNL d   1      -1.754  -0.702   0.207  0.00  0.00    -0.080 SA
ATOM      6  C   UNL d   1       0.949  -1.581  -0.004  0.00  0.00     0.067 A 
ATOM      7  C   UNL d   1       2.281  -1.098  -0.018  0.00  0.00     0.082 A 
ATOM      8  N   UNL d   1       1.591   1.219   0.217  0.00  0.00    -0.363 N 
ATOM      9  HN  UNL d   1       1.836   2.204   0.323  1.00  0.00     0.165 HD
ATOM     10  C   UNL d   1       2.527   0.262   0.107  0.00  0.00     0.108 A 
ENDROOT
BRANCH   3  11
ATOM     11  C   UNL d   1      -0.809   3.171   0.177  0.00  0.00    -0.022 A 
ATOM     12  C   UNL d   1      -1.728   3.939   0.908  0.00  0.00     0.012 A 
ATOM     13  C   UNL d   1      -1.704   5.337   0.849  0.00  0.00     0.001 A 
ATOM     14  C   UNL d   1      -0.729   5.990   0.101  0.00  0.00     0.000 A 
ATOM     15  C   UNL d   1       0.221   5.246  -0.591  0.00  0.00     0.001 A 
ATOM     16  C   UNL d   1       0.174   3.848  -0.561  0.00  0.00     0.012 A 
ENDBRANCH   3  11
BRANCH   1  17
ATOM     17  C   UNL d   1      -3.466   1.395  -0.120  0.00  0.00     0.424 C 
ATOM     18  F   UNL d   1      -3.616   2.641  -0.634  0.00  0.00    -0.166 F 
ATOM     19  F   UNL d   1      -4.138   0.567  -0.966  0.00  0.00    -0.166 F 
ATOM     20  F   UNL d   1      -4.141   1.373   1.059  0.00  0.00    -0.166 F 
ENDBRANCH   1  17
BRANCH   6  21
ATOM     21  N   UNL d   1       0.680  -2.947  -0.131  0.00  0.00    -0.375 N 
ATOM     22  C   UNL d   1      -0.513  -3.450  -0.831  0.00  0.00     0.149 C 
ATOM     23  C   UNL d   1      -0.255  -4.887  -1.312  0.00  0.00     0.187 C 
ATOM     24  O   UNL d   1       0.094  -5.747  -0.214  0.00  0.00    -0.388 OA
ATOM     25  C   UNL d   1       1.292  -5.267   0.423  0.00  0.00     0.187 C 
ATOM     26  C   UNL d   1       1.108  -3.839   0.969  0.00  0.00     0.149 C 
ENDBRANCH   6  21
BRANCH   7  27
ATOM     27  C   UNL d   1       3.445  -1.994  -0.269  0.00  0.00     0.297 C 
ATOM     28  O   UNL d   1       3.433  -2.999  -0.956  0.00  0.00    -0.259 OA
BRANCH  27  29
ATOM     29  O   UNL d   1       4.527  -1.536   0.420  0.00  0.00    -0.318 OA
BRANCH  29  30
ATOM     30  C   UNL d   1       5.702  -2.360   0.341  0.00  0.00     0.174 C 
ATOM     31  C   UNL d   1       6.450  -2.129  -0.962  0.00  0.00     0.034 C 
ENDBRANCH  29  30
ENDBRANCH  27  29
ENDBRANCH   7  27
TORSDOF 6
