REMARK  8 active torsions:
REMARK  status: ('A' for Active; 'I' for Inactive)
REMARK    1  A    between atoms: C_6  and  C_1 
REMARK    2  A    between atoms: C_10  and  N_2 
REMARK    3  A    between atoms: C_7  and  C_3 
REMARK    4  A    between atoms: O_13  and  C_6 
REMARK    5  A    between atoms: N_8  and  C_15 
REMARK    6  A    between atoms: C_12  and  C_10 
REMARK    7  A    between atoms: C_15  and  C_12 
REMARK    8  A    between atoms: C_23  and  O_13 
ROOT
ATOM      1  C   UNL d   1      -0.247   1.166   0.080  0.00  0.00     0.063 A 
ATOM      2  N   UNL d   1       0.963  -0.733   0.047  0.00  0.00    -0.352 N 
ATOM      3  C   UNL d   1      -0.370  -1.130   0.082  0.00  0.00     0.020 A 
ATOM      4  C   UNL d   1       1.040   0.655   0.035  0.00  0.00     0.024 A 
ATOM      5  C   UNL d   1      -1.112   0.044   0.105  0.00  0.00     0.045 A 
ATOM      6  C   UNL d   1       2.319   1.438   0.000  0.00  0.00     0.069 C 
ENDROOT
BRANCH   2   7
ATOM      7  C   UNL d   1       2.138  -1.594   0.058  0.00  0.00     0.130 C 
BRANCH   7   8
ATOM      8  C   UNL d   1       2.749  -1.794  -1.332  0.00  0.00     0.050 C 
BRANCH   8   9
ATOM      9  C   UNL d   1       4.007  -2.663  -1.237  0.00  0.00     0.274 C 
BRANCH   9  10
ATOM     10  N   UNL d   1       4.660  -3.036  -2.494  0.00  0.00     0.092 N 
ATOM     11  C   UNL d   1       3.816  -3.851  -3.386  0.00  0.00     0.298 C 
ATOM     12  C   UNL d   1       4.620  -4.310  -4.614  0.00  0.00     0.198 C 
ATOM     13  O   UNL d   1       5.151  -3.189  -5.337  0.00  0.00    -0.388 OA
ATOM     14  C   UNL d   1       5.983  -2.394  -4.478  0.00  0.00     0.198 C 
ATOM     15  C   UNL d   1       5.199  -1.893  -3.252  0.00  0.00     0.298 C 
ENDBRANCH   9  10
ENDBRANCH   8   9
ENDBRANCH   7   8
ENDBRANCH   2   7
BRANCH   3  16
ATOM     16  C   UNL d   1      -0.930  -2.562   0.104  0.00  0.00    -0.009 C 
ATOM     17  C   UNL d   1      -2.473  -2.537  -0.086  0.00  0.00     0.021 C 
ATOM     18  C   UNL d   1      -0.365  -3.412  -1.046  0.00  0.00     0.021 C 
ATOM     19  C   UNL d   1      -0.673  -3.239   1.464  0.00  0.00     0.021 C 
ENDBRANCH   3  16
BRANCH   1  20
ATOM     20  C   UNL d   1      -0.637   2.571   0.139  0.00  0.00     0.295 C 
ATOM     21  O   UNL d   1       0.155   3.501   0.233  0.00  0.00    -0.259 OA
BRANCH  20  22
ATOM     22  O   UNL d   1      -1.996   2.709   0.162  0.00  0.00    -0.318 OA
BRANCH  22  23
ATOM     23  C   UNL d   1      -2.486   3.972   0.624  0.00  0.00     0.174 C 
ATOM     24  C   UNL d   1      -2.609   3.902   2.131  0.00  0.00     0.034 C 
ENDBRANCH  22  23
ENDBRANCH  20  22
ENDBRANCH   1  20
TORSDOF 8
