REMARK  5 active torsions:
REMARK  status: ('A' for Active; 'I' for Inactive)
REMARK    1  A    between atoms: C_2  and  C_1 
REMARK       I    between atoms: N_3  and  C_1 
REMARK    2  A    between atoms: C_6  and  N_3 
REMARK    3  A    between atoms: C_4  and  C_5 
REMARK    4  A    between atoms: C_22  and  C_8 
REMARK    5  A    between atoms: C_21  and  C_9 
ROOT
ATOM      1  C   UNL d   1       0.936   0.847   0.030  0.00  0.00     0.258 C 
ATOM      2  N   UNL d   1       0.345   0.006   0.967  0.00  0.00    -0.322 N 
ATOM      3  O   UNL d   1       0.379   1.497  -0.837  0.00  0.00    -0.267 OA
ATOM      4  H   UNL d   1       0.847  -0.071   1.844  0.00  0.00     0.169 HD
ENDROOT
BRANCH   1   5
ATOM      5  C   UNL d   1       2.421   0.943   0.148  0.00  0.00     0.062 A 
ATOM      6  C   UNL d   1       3.172   2.126   0.051  0.00  0.00     0.066 A 
ATOM      7  C   UNL d   1       4.575   2.019   0.119  0.00  0.00     0.034 A 
ATOM      8  C   UNL d   1       5.167   0.777   0.288  0.00  0.00     0.088 A 
ATOM      9  N   UNL d   1       4.460  -0.364   0.384  0.00  0.00    -0.374 N 
ATOM     10  C   UNL d   1       3.116  -0.259   0.294  0.00  0.00     0.105 A 
ATOM     11  HN  UNL d   1       4.917  -1.266   0.518  1.00  0.00     0.164 HD
BRANCH   6  12
ATOM     12  C   UNL d   1       2.615   3.513  -0.110  0.00  0.00     0.418 C 
ATOM     13  F   UNL d   1       1.276   3.665   0.046  0.00  0.00    -0.166 F 
ATOM     14  F   UNL d   1       3.163   4.359   0.817  0.00  0.00    -0.166 F 
ATOM     15  F   UNL d   1       2.938   4.058  -1.315  0.00  0.00    -0.166 F 
ENDBRANCH   6  12
ENDBRANCH   1   5
BRANCH   2  16
ATOM     16  C   UNL d   1      -1.062  -0.101   1.074  0.00  0.00     0.047 A 
ATOM     17  C   UNL d   1      -1.788  -0.899   0.159  0.00  0.00    -0.031 A 
ATOM     18  C   UNL d   1      -3.188  -0.987   0.293  0.00  0.00     0.009 A 
ATOM     19  C   UNL d   1      -3.847  -0.346   1.335  0.00  0.00     0.001 A 
ATOM     20  C   UNL d   1      -3.117   0.375   2.275  0.00  0.00     0.009 A 
ATOM     21  C   UNL d   1      -1.718   0.491   2.174  0.00  0.00    -0.031 A 
BRANCH  17  22
ATOM     22  C   UNL d   1      -1.131  -1.794  -0.870  0.00  0.00     0.036 C 
ATOM     23  C   UNL d   1      -1.086  -1.217  -2.273  0.00  0.00     0.010 C 
ENDBRANCH  17  22
BRANCH  21  24
ATOM     24  C   UNL d   1      -1.010   1.277   3.257  0.00  0.00     0.036 C 
ATOM     25  C   UNL d   1      -1.014   2.777   3.009  0.00  0.00     0.010 C 
ENDBRANCH  21  24
ENDBRANCH   2  16
TORSDOF 5
