REMARK  8 active torsions:
REMARK  status: ('A' for Active; 'I' for Inactive)
REMARK    1  A    between atoms: N_2  and  C_1 
REMARK    2  A    between atoms: N_7  and  C_1 
REMARK    3  A    between atoms: C_3  and  C_6 
REMARK    4  A    between atoms: C_4  and  C_5 
REMARK    5  A    between atoms: C_8  and  N_7 
REMARK    6  A    between atoms: N_11  and  C_22 
REMARK    7  A    between atoms: C_15  and  C_13 
REMARK    8  A    between atoms: C_22  and  C_15 
ROOT
ATOM      1  C   UNL d   1       0.707   0.135   0.390  0.00  0.00     0.174 C 
ATOM      2  S   UNL d   1       2.376   0.211   0.517  0.00  0.00    -0.041 SA
ENDROOT
BRANCH   1   3
ATOM      3  N   UNL d   1       0.009  -0.956  -0.111  0.00  0.00    -0.353 N 
ATOM      4  C   UNL d   1      -0.724  -0.916  -1.413  0.00  0.00     0.088 C 
ATOM      5  C   UNL d   1      -2.064  -1.642  -1.231  0.00  0.00     0.025 C 
ATOM      6  C   UNL d   1      -1.856  -3.065  -0.693  0.00  0.00     0.004 C 
ATOM      7  C   UNL d   1      -0.890  -3.145   0.493  0.00  0.00     0.020 C 
ATOM      8  C   UNL d   1       0.376  -2.317   0.286  0.00  0.00     0.125 C 
BRANCH   4   9
ATOM      9  C   UNL d   1      -0.819   0.466  -2.088  0.00  0.00     0.055 C 
BRANCH   9  10
ATOM     10  C   UNL d   1      -1.419   0.478  -3.502  0.00  0.00     0.274 C 
BRANCH  10  11
ATOM     11  N   UNL d   1      -1.317   1.821  -4.111  0.00  0.00     0.092 N 
ATOM     12  C   UNL d   1      -2.104   1.921  -5.363  0.00  0.00     0.298 C 
ATOM     13  C   UNL d   1      -1.466   1.209  -6.572  0.00  0.00     0.198 C 
ATOM     14  O   UNL d   1      -0.109   1.616  -6.790  0.00  0.00    -0.388 OA
ATOM     15  C   UNL d   1       0.677   1.441  -5.605  0.00  0.00     0.198 C 
ATOM     16  C   UNL d   1       0.071   2.227  -4.434  0.00  0.00     0.298 C 
ENDBRANCH  10  11
ENDBRANCH   9  10
ENDBRANCH   4   9
ENDBRANCH   1   3
BRANCH   1  17
ATOM     17  N   UNL d   1      -0.018   1.258   0.712  0.00  0.00    -0.333 N 
ATOM     18  H   UNL d   1       0.512   2.123   0.671  0.00  0.00     0.168 HD
BRANCH  17  19
ATOM     19  C   UNL d   1      -1.375   1.353   1.072  0.00  0.00     0.035 A 
ATOM     20  C   UNL d   1      -2.042   0.311   1.720  0.00  0.00     0.045 A 
ATOM     21  C   UNL d   1      -3.425   0.375   1.956  0.00  0.00     0.050 A 
ATOM     22  C   UNL d   1      -4.129   1.513   1.540  0.00  0.00     0.032 A 
ATOM     23  C   UNL d   1      -3.465   2.581   0.912  0.00  0.00     0.050 A 
ATOM     24  C   UNL d   1      -2.075   2.511   0.734  0.00  0.00     0.045 A 
BRANCH  21  25
ATOM     25  C   UNL d   1      -4.118  -0.788   2.620  0.00  0.00     0.417 C 
ATOM     26  F   UNL d   1      -5.476  -0.674   2.629  0.00  0.00    -0.166 F 
ATOM     27  F   UNL d   1      -3.852  -1.975   2.006  0.00  0.00    -0.166 F 
ATOM     28  F   UNL d   1      -3.747  -0.945   3.920  0.00  0.00    -0.166 F 
ENDBRANCH  21  25
BRANCH  23  29
ATOM     29  C   UNL d   1      -4.233   3.772   0.388  0.00  0.00     0.417 C 
ATOM     30  F   UNL d   1      -5.585   3.610   0.442  0.00  0.00    -0.166 F 
ATOM     31  F   UNL d   1      -3.962   4.911   1.081  0.00  0.00    -0.166 F 
ATOM     32  F   UNL d   1      -3.945   4.043  -0.914  0.00  0.00    -0.166 F 
ENDBRANCH  23  29
ENDBRANCH  17  19
ENDBRANCH   1  17
TORSDOF 8
