REMARK  8 active torsions:
REMARK  status: ('A' for Active; 'I' for Inactive)
REMARK    1  A    between atoms: C_2  and  C_1 
REMARK    2  A    between atoms: O_7  and  C_2 
REMARK    3  A    between atoms: C_13  and  C_3 
REMARK    4  A    between atoms: N_16  and  C_3 
REMARK    5  A    between atoms: N_4  and  O_7 
REMARK    6  A    between atoms: C_9  and  O_11 
REMARK    7  A    between atoms: O_21  and  C_10 
REMARK    8  A    between atoms: O_11  and  C_13 
ROOT
ATOM      1  C   UNL d   1       4.109   2.901  -0.098  0.00  0.00     0.120 C 
ATOM      2  N   UNL d   1       3.335   1.863   0.002  0.00  0.00    -0.243 N 
ATOM      3  HN  UNL d   1       3.675   0.924   0.210  1.00  0.00     0.196 HD
ENDROOT
BRANCH   1   4
ATOM      4  C   UNL d   1       5.611   2.683   0.187  0.00  0.00     0.253 C 
BRANCH   4   5
ATOM      5  O   UNL d   1       6.371   2.716  -1.016  0.00  0.00    -0.342 OA
BRANCH   5   6
ATOM      6  C   UNL d   1       7.719   2.480  -0.853  0.00  0.00     0.091 A 
ATOM      7  C   UNL d   1       8.380   1.674  -1.792  0.00  0.00     0.069 A 
ATOM      8  C   UNL d   1       9.763   1.463  -1.709  0.00  0.00     0.050 A 
ATOM      9 CL   UNL d   1       7.523   0.901  -3.079  0.00  0.00    -0.081 Cl
ATOM     10  C   UNL d   1      10.488   2.073  -0.689  0.00  0.00     0.035 A 
ATOM     11  C   UNL d   1       9.848   2.886   0.244  0.00  0.00     0.026 A 
ATOM     12 CL   UNL d   1      12.190   1.840  -0.587  0.00  0.00    -0.084 Cl
ATOM     13  C   UNL d   1       8.467   3.094   0.158  0.00  0.00     0.040 A 
ENDBRANCH   5   6
ENDBRANCH   4   5
ENDBRANCH   1   4
BRANCH   1  14
ATOM     14  N   UNL d   1       3.687   4.181  -0.375  0.00  0.00    -0.386 N 
ATOM     15  H   UNL d   1       2.694   4.340  -0.263  0.00  0.00     0.157 HD
ATOM     16  H   UNL d   1       4.279   4.950  -0.084  0.00  0.00     0.157 HD
ENDBRANCH   1  14
BRANCH   2  17
ATOM     17  O   UNL d   1       1.970   2.173  -0.209  0.00  0.00    -0.193 OA
BRANCH  17  18
ATOM     18  C   UNL d   1       1.202   1.364   0.593  0.00  0.00     0.318 C 
ATOM     19  O   UNL d   1       1.607   0.617   1.474  0.00  0.00    -0.257 OA
BRANCH  18  20
ATOM     20  C   UNL d   1      -0.240   1.572   0.327  0.00  0.00     0.074 A 
ATOM     21  C   UNL d   1      -1.201   0.546   0.329  0.00  0.00     0.084 A 
ATOM     22  C   UNL d   1      -2.563   0.901   0.277  0.00  0.00     0.038 A 
ATOM     23  C   UNL d   1      -2.977   2.231   0.210  0.00  0.00     0.003 A 
ATOM     24  C   UNL d   1      -2.027   3.241   0.178  0.00  0.00     0.001 A 
ATOM     25  C   UNL d   1      -0.670   2.916   0.237  0.00  0.00     0.020 A 
BRANCH  21  26
ATOM     26  O   UNL d   1      -1.068  -0.812   0.400  0.00  0.00    -0.355 OA
ATOM     27  C   UNL d   1       0.172  -1.445   0.140  0.00  0.00     0.210 C 
ENDBRANCH  21  26
ENDBRANCH  18  20
ENDBRANCH  17  18
ENDBRANCH   2  17
TORSDOF 8
