REMARK  4 active torsions:
REMARK  status: ('A' for Active; 'I' for Inactive)
REMARK    1  A    between atoms: C_5  and  C_1 
REMARK    2  A    between atoms: N_3  and  C_2 
REMARK       I    between atoms: C_4  and  N_3 
REMARK    3  A    between atoms: C_11  and  C_4 
REMARK    4  A    between atoms: O_17  and  C_5 
ROOT
ATOM      1  N   UNL d   1       9.319   5.150   0.724  0.00  0.00    -0.191 NA
ATOM      2  C   UNL d   1       8.230   4.788   0.574  0.00  0.00     0.099 C 
ATOM      3  C   UNL d   1       4.207   3.425   0.054  0.00  0.00     0.032 A 
ATOM      4  C   UNL d   1       4.643   4.605  -0.560  0.00  0.00     0.018 A 
ATOM      5  C   UNL d   1       5.113   2.705   0.853  0.00  0.00     0.018 A 
ATOM      6  C   UNL d   1       6.879   4.327   0.390  0.00  0.00     0.044 A 
ATOM      7  C   UNL d   1       6.438   3.149   1.014  0.00  0.00     0.024 A 
ATOM      8  C   UNL d   1       5.968   5.049  -0.398  0.00  0.00     0.024 A 
ENDROOT
BRANCH   3   9
ATOM      9  C   UNL d   1       2.770   2.989  -0.109  0.00  0.00     0.256 C 
ATOM     10  N   UNL d   1       2.600   1.622  -0.157  0.00  0.00    -0.321 N 
ATOM     11  H   UNL d   1       3.440   1.063  -0.102  0.00  0.00     0.169 HD
ATOM     12  O   UNL d   1       1.891   3.837  -0.143  0.00  0.00    -0.267 OA
BRANCH  10  13
ATOM     13  C   UNL d   1       1.424   0.868  -0.152  0.00  0.00     0.058 A 
ATOM     14  C   UNL d   1       0.090   1.196  -0.371  0.00  0.00     0.106 A 
ATOM     15  S   UNL d   1      -0.932  -0.205  -0.164  0.00  0.00    -0.094 SA
ATOM     16  C   UNL d   1       0.373  -1.222   0.180  0.00  0.00     0.053 A 
ATOM     17  C   UNL d   1       1.562  -0.540   0.142  0.00  0.00     0.038 A 
BRANCH  14  18
ATOM     18  C   UNL d   1      -0.601   2.380  -0.868  0.00  0.00     0.302 C 
ATOM     19  O   UNL d   1      -0.275   3.046  -1.844  0.00  0.00    -0.259 OA
BRANCH  18  20
ATOM     20  O   UNL d   1      -1.799   2.506  -0.213  0.00  0.00    -0.322 OA
ATOM     21  C   UNL d   1      -2.860   3.192  -0.885  0.00  0.00     0.213 C 
ENDBRANCH  18  20
ENDBRANCH  14  18
ENDBRANCH  10  13
ENDBRANCH   3   9
TORSDOF 4
