REMARK  4 active torsions:
REMARK  status: ('A' for Active; 'I' for Inactive)
REMARK    1  A    between atoms: C_7  and  C_1 
REMARK    2  A    between atoms: C_16  and  C_4 
REMARK       I    between atoms: N_11  and  C_7 
REMARK    3  A    between atoms: C_9  and  C_19 
REMARK    4  A    between atoms: C_19  and  N_11 
ROOT
ATOM      1  C   UNL d   1       0.211   3.009   0.227  0.00  0.00     0.254 C 
ATOM      2  N   UNL d   1      -0.906   3.809   0.260  0.00  0.00    -0.351 N 
ATOM      3  O   UNL d   1       0.117   1.786   0.170  0.00  0.00    -0.268 OA
ATOM      4  H   UNL d   1      -0.809   4.816   0.313  0.00  0.00     0.163 HD
ENDROOT
BRANCH   2   5
ATOM      5  C   UNL d   1      -2.233   3.243   0.088  0.00  0.00     0.180 C 
BRANCH   5   6
ATOM      6  C   UNL d   1      -2.929   3.058   1.402  0.00  0.00     0.034 A 
ATOM      7  N   UNL d   1      -3.777   4.061   1.871  0.00  0.00    -0.351 N 
ATOM      8  C   UNL d   1      -4.363   3.691   2.995  0.00  0.00     0.084 A 
ATOM      9  HN  UNL d   1      -3.925   4.958   1.408  1.00  0.00     0.166 HD
ATOM     10  S   UNL d   1      -3.932   2.111   3.540  0.00  0.00    -0.081 SA
ATOM     11  C   UNL d   1      -2.894   1.925   2.194  0.00  0.00     0.078 A 
BRANCH   8  12
ATOM     12  C   UNL d   1      -5.365   4.497   3.718  0.00  0.00    -0.002 A 
ATOM     13  C   UNL d   1      -6.190   5.376   2.996  0.00  0.00     0.014 A 
ATOM     14  C   UNL d   1      -7.163   6.148   3.644  0.00  0.00     0.001 A 
ATOM     15  C   UNL d   1      -7.317   6.060   5.025  0.00  0.00     0.000 A 
ATOM     16  C   UNL d   1      -6.498   5.206   5.759  0.00  0.00     0.001 A 
ATOM     17  C   UNL d   1      -5.530   4.431   5.112  0.00  0.00     0.014 A 
ENDBRANCH   8  12
ENDBRANCH   5   6
ENDBRANCH   2   5
BRANCH   1  18
ATOM     18  C   UNL d   1       1.576   3.636   0.233  0.00  0.00     0.069 A 
ATOM     19  C   UNL d   1       1.871   5.016   0.208  0.00  0.00     0.096 A 
ATOM     20  C   UNL d   1       3.215   5.449   0.189  0.00  0.00     0.003 A 
ATOM     21  O   UNL d   1       0.847   5.930   0.173  0.00  0.00    -0.325 OA
ATOM     22  C   UNL d   1       3.547   6.912   0.161  0.00  0.00     0.212 C 
ATOM     23  C   UNL d   1       4.258   4.515   0.228  0.00  0.00     0.054 A 
ATOM     24  O   UNL d   1       2.427   7.661  -0.283  0.00  0.00    -0.362 OA
ATOM     25  C   UNL d   1       1.274   7.270   0.447  0.00  0.00     0.345 C 
ATOM     26  C   UNL d   1       3.962   3.165   0.260  0.00  0.00     0.118 A 
ATOM     27  C   UNL d   1       2.646   2.724   0.258  0.00  0.00     0.062 A 
ATOM     28  F   UNL d   1       4.958   2.272   0.291  0.00  0.00    -0.206 F 
ENDBRANCH   1  18
TORSDOF 4
