REMARK  5 active torsions:
REMARK  status: ('A' for Active; 'I' for Inactive)
REMARK    1  A    between atoms: C_15  and  N_1 
REMARK    2  A    between atoms: N_13  and  C_7 
REMARK    3  A    between atoms: C_8  and  C_14 
REMARK    4  A    between atoms: C_17  and  N_13 
REMARK    5  A    between atoms: C_22  and  C_15 
ROOT
ATOM      1  N   UNL d   1       1.478   1.080  -0.082  0.00  0.00    -0.254 N 
ATOM      2  C   UNL d   1       0.252  -0.698  -0.118  0.00  0.00     0.136 A 
ATOM      3  C   UNL d   1       0.172   0.683  -0.128  0.00  0.00     0.154 A 
ATOM      4  N   UNL d   1       2.316   0.018  -0.040  0.00  0.00    -0.018 NA
ATOM      5  N   UNL d   1       1.568  -1.083  -0.074  0.00  0.00    -0.277 N 
ATOM      6  HN  UNL d   1       1.913  -2.043  -0.068  1.00  0.00     0.184 HD
ATOM      7  C   UNL d   1      -0.958  -1.407  -0.106  0.00  0.00     0.139 A 
ATOM      8  N   UNL d   1      -0.936   1.443  -0.153  0.00  0.00    -0.336 N 
ATOM      9  HN  UNL d   1      -0.940   2.463  -0.157  1.00  0.00     0.168 HD
ATOM     10  N   UNL d   1      -2.109  -0.671  -0.140  0.00  0.00    -0.337 N 
ATOM     11  HN  UNL d   1      -3.016  -1.138  -0.142  1.00  0.00     0.168 HD
ATOM     12  C   UNL d   1      -2.039   0.674  -0.171  0.00  0.00     0.183 A 
ENDROOT
BRANCH   7  13
ATOM     13  N   UNL d   1      -1.011  -2.809  -0.062  0.00  0.00    -0.340 N 
ATOM     14  H   UNL d   1      -0.098  -3.249  -0.136  0.00  0.00     0.167 HD
BRANCH  13  15
ATOM     15  C   UNL d   1      -1.974  -3.606   0.586  0.00  0.00     0.034 A 
ATOM     16  C   UNL d   1      -2.809  -3.099   1.590  0.00  0.00     0.045 A 
ATOM     17  C   UNL d   1      -3.780  -3.896   2.216  0.00  0.00     0.050 A 
ATOM     18  C   UNL d   1      -3.929  -5.226   1.803  0.00  0.00     0.016 A 
ATOM     19  C   UNL d   1      -3.115  -5.743   0.796  0.00  0.00     0.003 A 
ATOM     20  C   UNL d   1      -2.140  -4.939   0.197  0.00  0.00     0.029 A 
BRANCH  17  21
ATOM     21  C   UNL d   1      -4.644  -3.332   3.314  0.00  0.00     0.417 C 
ATOM     22  F   UNL d   1      -4.357  -2.037   3.631  0.00  0.00    -0.166 F 
ATOM     23  F   UNL d   1      -5.970  -3.353   3.002  0.00  0.00    -0.166 F 
ATOM     24  F   UNL d   1      -4.525  -4.030   4.478  0.00  0.00    -0.166 F 
ENDBRANCH  17  21
ENDBRANCH  13  15
ENDBRANCH   7  13
BRANCH   1  25
ATOM     25  C   UNL d   1       1.975   2.436   0.015  0.00  0.00     0.187 C 
BRANCH  25  26
ATOM     26  C   UNL d   1       2.231   3.021  -1.350  0.00  0.00    -0.039 A 
ATOM     27  C   UNL d   1       1.228   3.740  -2.018  0.00  0.00     0.009 A 
ATOM     28  C   UNL d   1       1.458   4.251  -3.295  0.00  0.00     0.001 A 
ATOM     29  C   UNL d   1       2.688   4.046  -3.918  0.00  0.00     0.000 A 
ATOM     30  C   UNL d   1       3.689   3.330  -3.265  0.00  0.00     0.001 A 
ATOM     31  C   UNL d   1       3.462   2.817  -1.988  0.00  0.00     0.009 A 
ENDBRANCH  25  26
ENDBRANCH   1  25
TORSDOF 5
