REMARK  3 active torsions:
REMARK  status: ('A' for Active; 'I' for Inactive)
REMARK    1  A    between atoms: C_4  and  N_1 
REMARK    2  A    between atoms: C_8  and  C_4 
REMARK    3  A    between atoms: C_10  and  N_6 
ROOT
ATOM      1  N   UNL d   1      -0.406   0.981  -0.075  0.00  0.00    -0.293 N 
ATOM      2  C   UNL d   1       0.882   0.528   0.041  0.00  0.00     0.150 C 
ATOM      3  C   UNL d   1      -1.396   0.026  -0.140  0.00  0.00     0.235 C 
ATOM      4  S   UNL d   1       0.877  -1.168   0.461  0.00  0.00    -0.084 SA
ATOM      5  N   UNL d   1       1.901   1.302  -0.149  0.00  0.00    -0.337 N 
ATOM      6  HN  UNL d   1       1.721   2.283  -0.362  1.00  0.00     0.168 HD
ATOM      7  C   UNL d   1      -0.843  -1.371  -0.018  0.00  0.00     0.185 C 
ATOM      8  O   UNL d   1      -2.589   0.244  -0.314  0.00  0.00    -0.272 OA
ENDROOT
BRANCH   1   9
ATOM      9  C   UNL d   1      -0.738   2.400  -0.139  0.00  0.00     0.174 C 
BRANCH   9  10
ATOM     10  C   UNL d   1      -0.887   3.009   1.245  0.00  0.00    -0.018 A 
ATOM     11  C   UNL d   1      -0.097   4.074   1.707  0.00  0.00     0.042 A 
ATOM     12 CL   UNL d   1       1.107   4.832   0.726  0.00  0.00    -0.084 Cl
ATOM     13  C   UNL d   1      -0.268   4.583   3.002  0.00  0.00     0.024 A 
ATOM     14  C   UNL d   1      -1.232   4.042   3.854  0.00  0.00     0.002 A 
ATOM     15  C   UNL d   1      -2.038   3.005   3.407  0.00  0.00     0.001 A 
ATOM     16  C   UNL d   1      -1.874   2.499   2.116  0.00  0.00     0.010 A 
ENDBRANCH   9  10
ENDBRANCH   1   9
BRANCH   5  17
ATOM     17  C   UNL d   1       3.238   0.880  -0.082  0.00  0.00     0.036 A 
ATOM     18  C   UNL d   1       3.732  -0.256  -0.732  0.00  0.00     0.071 A 
ATOM     19  C   UNL d   1       5.076  -0.598  -0.625  0.00  0.00     0.118 A 
ATOM     20  F   UNL d   1       5.516  -1.720  -1.212  0.00  0.00    -0.206 F 
ATOM     21  C   UNL d   1       5.970   0.205   0.069  0.00  0.00     0.042 A 
ATOM     22  C   UNL d   1       5.508   1.375   0.665  0.00  0.00     0.005 A 
ATOM     23  C   UNL d   1       4.150   1.704   0.590  0.00  0.00     0.029 A 
ENDBRANCH   5  17
TORSDOF 3
