REMARK  4 active torsions:
REMARK  status: ('A' for Active; 'I' for Inactive)
REMARK    1  A    between atoms: C_13  and  C_1 
REMARK    2  A    between atoms: C_4  and  C_2 
REMARK    3  A    between atoms: C_16  and  N_3 
REMARK    4  A    between atoms: C_15  and  C_10 
ROOT
ATOM      1  C   UNL d   1       1.006  -0.898   0.068  0.00  0.00     0.156 A 
ATOM      2  C   UNL d   1      -0.330  -1.277   0.067  0.00  0.00     0.067 A 
ATOM      3  N   UNL d   1       1.007   0.492   0.039  0.00  0.00    -0.251 N 
ATOM      4  N   UNL d   1      -0.267   0.974  -0.052  0.00  0.00    -0.303 N 
ATOM      5  HN  UNL d   1      -0.552   1.949  -0.143  1.00  0.00     0.186 HD
ATOM      6  C   UNL d   1      -1.058  -0.093   0.002  0.00  0.00     0.126 A 
ENDROOT
BRANCH   2   7
ATOM      7  C   UNL d   1      -0.881  -2.653   0.094  0.00  0.00     0.178 A 
ATOM      8  O   UNL d   1      -0.100  -3.764   0.221  0.00  0.00    -0.272 OA
ATOM      9  C   UNL d   1      -0.998  -4.785   0.191  0.00  0.00     0.174 A 
ATOM     10  N   UNL d   1      -2.236  -4.355   0.070  0.00  0.00    -0.277 N 
ATOM     11  N   UNL d   1      -2.159  -2.968   0.010  0.00  0.00    -0.277 N 
ATOM     12  HN  UNL d   1      -3.081  -4.924   0.027  1.00  0.00     0.189 HD
ATOM     13  HN  UNL d   1      -2.940  -2.319  -0.081  1.00  0.00     0.189 HD
BRANCH   9  14
ATOM     14  C   UNL d   1      -0.435  -6.120   0.335  0.00  0.00     0.020 A 
ATOM     15  C   UNL d   1       0.958  -6.309   0.424  0.00  0.00     0.040 A 
ATOM     16  C   UNL d   1       1.493  -7.580   0.604  0.00  0.00     0.036 A 
ATOM     17 CL   UNL d   1       3.197  -7.775   0.730  0.00  0.00    -0.084 Cl
ATOM     18  C   UNL d   1       0.658  -8.690   0.692  0.00  0.00     0.047 A 
ATOM     19  C   UNL d   1      -0.719  -8.511   0.596  0.00  0.00     0.036 A 
ATOM     20  C   UNL d   1      -1.270  -7.240   0.416  0.00  0.00     0.040 A 
ATOM     21 CL   UNL d   1      -1.757  -9.879   0.711  0.00  0.00    -0.084 Cl
ENDBRANCH   9  14
ENDBRANCH   2   7
BRANCH   1  22
ATOM     22  C   UNL d   1       2.238  -1.699   0.016  0.00  0.00     0.435 C 
ATOM     23  F   UNL d   1       2.043  -2.986  -0.360  0.00  0.00    -0.165 F 
ATOM     24  F   UNL d   1       3.142  -1.213  -0.868  0.00  0.00    -0.165 F 
ATOM     25  F   UNL d   1       2.841  -1.759   1.231  0.00  0.00    -0.165 F 
ENDBRANCH   1  22
BRANCH   3  26
ATOM     26  C   UNL d   1       2.086   1.437   0.039  0.00  0.00     0.057 A 
ATOM     27  C   UNL d   1       1.852   2.717  -0.493  0.00  0.00     0.031 A 
ATOM     28  C   UNL d   1       2.892   3.644  -0.607  0.00  0.00     0.002 A 
ATOM     29  C   UNL d   1       4.173   3.314  -0.175  0.00  0.00     0.000 A 
ATOM     30  C   UNL d   1       4.405   2.072   0.405  0.00  0.00     0.002 A 
ATOM     31  C   UNL d   1       3.365   1.144   0.526  0.00  0.00     0.031 A 
ENDBRANCH   3  26
TORSDOF 4
