REMARK  4 active torsions:
REMARK  status: ('A' for Active; 'I' for Inactive)
REMARK       I    between atoms: C_7  and  N_2 
REMARK    1  A    between atoms: S_11  and  C_6 
REMARK    2  A    between atoms: C_10  and  C_7 
REMARK    3  A    between atoms: C_15  and  S_11 
REMARK    4  A    between atoms: C_13  and  C_15 
ROOT
ATOM      1  C   UNL d   1       0.270   0.628   0.002  0.00  0.00     0.706 A 
ATOM      2  N   UNL d   1      -0.742   1.578  -0.086  0.00  0.00    -0.145 N 
ATOM      3  N   UNL d   1      -0.034  -0.718   0.047  0.00  0.00    -0.159 N 
ATOM      4  N   UNL d   1       1.575   0.751   0.079  0.00  0.00    -0.129 N 
ATOM      5  HN  UNL d   1       2.089   1.632   0.092  1.00  0.00     0.205 HD
ATOM      6  C   UNL d   1       1.156  -1.379   0.130  0.00  0.00     0.177 A 
ATOM      7  C   UNL d   1      -0.519   2.969  -0.201  0.00  0.00     0.279 C 
ATOM      8  N   UNL d   1       2.134  -0.505   0.139  0.00  0.00    -0.265 N 
ATOM      9  HN  UNL d   1       3.131  -0.718   0.182  1.00  0.00     0.189 HD
ATOM     10  O   UNL d   1      -1.483   3.722  -0.002  0.00  0.00    -0.266 OA
ATOM     11  C   UNL d   1      -2.115   1.143   0.202  0.00  0.00     0.153 C 
ATOM     12  C   UNL d   1      -1.379  -1.246   0.031  0.00  0.00     0.151 C 
ATOM     13  C   UNL d   1      -2.400  -0.211  -0.434  0.00  0.00     0.042 C 
ENDROOT
BRANCH   6  14
ATOM     14  S   UNL d   1       1.318  -3.101   0.225  0.00  0.00    -0.087 SA
BRANCH  14  15
ATOM     15  C   UNL d   1       3.141  -3.246   0.264  0.00  0.00     0.122 C 
BRANCH  15  16
ATOM     16  C   UNL d   1       3.703  -4.653   0.402  0.00  0.00    -0.027 A 
ATOM     17  C   UNL d   1       4.926  -5.010  -0.204  0.00  0.00     0.041 A 
ATOM     18 CL   UNL d   1       5.823  -3.911  -1.196  0.00  0.00    -0.084 Cl
ATOM     19  C   UNL d   1       5.494  -6.275   0.001  0.00  0.00     0.024 A 
ATOM     20  C   UNL d   1       4.865  -7.203   0.823  0.00  0.00     0.002 A 
ATOM     21  C   UNL d   1       3.670  -6.868   1.448  0.00  0.00     0.001 A 
ATOM     22  C   UNL d   1       3.099  -5.600   1.247  0.00  0.00     0.009 A 
ENDBRANCH  15  16
ENDBRANCH  14  15
ENDBRANCH   6  14
BRANCH   7  23
ATOM     23  C   UNL d   1       0.775   3.533  -0.592  0.00  0.00     0.073 A 
ATOM     24  S   UNL d   1       1.167   5.106   0.004  0.00  0.00    -0.097 SA
ATOM     25  C   UNL d   1       2.683   5.113  -0.776  0.00  0.00     0.050 A 
ATOM     26  C   UNL d   1       2.889   3.968  -1.508  0.00  0.00     0.009 A 
ATOM     27  C   UNL d   1       1.767   3.087  -1.449  0.00  0.00     0.025 A 
ENDBRANCH   7  23
TORSDOF 4
