REMARK  7 active torsions:
REMARK  status: ('A' for Active; 'I' for Inactive)
REMARK    1  A    between atoms: N_7  and  C_1 
REMARK    2  A    between atoms: N_3  and  C_18 
REMARK    3  A    between atoms: C_19  and  C_6 
REMARK       I    between atoms: C_17  and  N_7 
REMARK    4  A    between atoms: S_27  and  C_8 
REMARK    5  A    between atoms: C_16  and  C_33 
REMARK    6  A    between atoms: C_21  and  C_17 
REMARK    7  A    between atoms: C_33  and  S_27 
ROOT
ATOM      1  C   UNL d   1      -1.260  -5.019   3.473  0.00  0.00     0.168 A 
ATOM      2  S   UNL d   1      -1.847  -4.625   1.922  0.00  0.00    -0.026 SA
ATOM      3  C   UNL d   1      -0.348  -3.856   1.625  0.00  0.00     0.130 A 
ATOM      4  N   UNL d   1      -0.071  -4.522   3.741  0.00  0.00    -0.278 N 
ATOM      5  HN  UNL d   1       0.397  -4.618   4.642  1.00  0.00     0.189 HD
ATOM      6  N   UNL d   1       0.470  -3.854   2.656  0.00  0.00    -0.286 N 
ATOM      7  HN  UNL d   1       1.390  -3.414   2.655  1.00  0.00     0.188 HD
ENDROOT
BRANCH   3   8
ATOM      8  S   UNL d   1       0.051  -3.124   0.090  0.00  0.00    -0.095 SA
BRANCH   8   9
ATOM      9  C   UNL d   1       1.852  -3.337   0.044  0.00  0.00     0.167 C 
BRANCH   9  10
ATOM     10  C   UNL d   1       2.268  -4.755  -0.066  0.00  0.00     0.150 A 
ATOM     11  O   UNL d   1       2.590  -5.417   1.091  0.00  0.00    -0.277 OA
ATOM     12  C   UNL d   1       2.957  -6.650   0.618  0.00  0.00     0.174 A 
ATOM     13  N   UNL d   1       2.878  -6.728  -0.696  0.00  0.00    -0.277 N 
ATOM     14  N   UNL d   1       2.434  -5.500  -1.139  0.00  0.00    -0.281 N 
ATOM     15  HN  UNL d   1       3.102  -7.539  -1.272  1.00  0.00     0.189 HD
ATOM     16  HN  UNL d   1       2.267  -5.223  -2.107  1.00  0.00     0.189 HD
BRANCH  12  17
ATOM     17  C   UNL d   1       3.363  -7.658   1.591  0.00  0.00     0.017 A 
ATOM     18  C   UNL d   1       3.387  -7.402   2.972  0.00  0.00     0.025 A 
ATOM     19  C   UNL d   1       3.759  -8.390   3.915  0.00  0.00    -0.028 A 
ATOM     20  C   UNL d   1       3.723  -8.006   5.371  0.00  0.00     0.050 C 
ATOM     21  C   UNL d   1       4.127  -9.666   3.435  0.00  0.00     0.108 A 
ATOM     22  C   UNL d   1       4.115  -9.926   2.052  0.00  0.00     0.037 A 
ATOM     23  C   UNL d   1       3.734  -8.932   1.146  0.00  0.00     0.018 A 
BRANCH  21  24
ATOM     24  N   UNL d   1       4.528 -10.780   4.327  0.00  0.00    -0.115 N 
ATOM     25  O   UNL d   1       4.544 -10.592   5.550  0.00  0.00    -0.532 OA
ATOM     26  O   UNL d   1       4.827 -11.859   3.794  0.00  0.00    -0.532 OA
ENDBRANCH  21  24
ENDBRANCH  12  17
ENDBRANCH   9  10
ENDBRANCH   8   9
ENDBRANCH   3   8
BRANCH   1  27
ATOM     27  N   UNL d   1      -1.981  -5.748   4.395  0.00  0.00    -0.302 N 
ATOM     28  C   UNL d   1      -3.091  -6.518   4.118  0.00  0.00     0.257 C 
ATOM     29  O   UNL d   1      -3.577  -6.725   3.010  0.00  0.00    -0.267 OA
ATOM     30  H   UNL d   1      -1.526  -5.817   5.293  0.00  0.00     0.171 HD
BRANCH  28  31
ATOM     31  C   UNL d   1      -3.720  -7.211   5.285  0.00  0.00     0.034 A 
ATOM     32  C   UNL d   1      -3.688  -6.674   6.580  0.00  0.00     0.044 A 
ATOM     33  C   UNL d   1      -4.316  -7.359   7.628  0.00  0.00     0.073 A 
ATOM     34 CL   UNL d   1      -4.254  -6.697   9.217  0.00  0.00    -0.081 Cl
ATOM     35  C   UNL d   1      -4.984  -8.559   7.391  0.00  0.00     0.138 A 
ATOM     36  C   UNL d   1      -5.036  -9.090   6.105  0.00  0.00     0.045 A 
ATOM     37  F   UNL d   1      -5.595  -9.216   8.385  0.00  0.00    -0.204 F 
ATOM     38  C   UNL d   1      -4.401  -8.418   5.054  0.00  0.00     0.020 A 
ENDBRANCH  28  31
ENDBRANCH   1  27
TORSDOF 7
