REMARK  2 active torsions:
REMARK  status: ('A' for Active; 'I' for Inactive)
REMARK    1  A    between atoms: C_5  and  C_1 
REMARK    2  A    between atoms: C_10  and  N_2 
ROOT
ATOM      1  C   UNL d   1       0.913  -0.660   0.043  0.00  0.00     0.141 A 
ATOM      2  N   UNL d   1       0.945   0.719   0.014  0.00  0.00    -0.270 N 
ATOM      3  N   UNL d   1      -0.284  -1.161   0.171  0.00  0.00    -0.282 N 
ATOM      4  HN  UNL d   1      -0.544  -2.146   0.221  1.00  0.00     0.188 HD
ATOM      5  C   UNL d   1      -0.389   1.096   0.102  0.00  0.00     0.199 A 
ATOM      6  N   UNL d   1      -1.109  -0.083   0.222  0.00  0.00    -0.274 N 
ATOM      7  S   UNL d   1      -1.146   2.572  -0.002  0.00  0.00    -0.039 SA
ATOM      8  H   UNL d   1      -2.118  -0.177   0.239  0.00  0.00     0.189 HD
ENDROOT
BRANCH   1   9
ATOM      9  C   UNL d   1       2.109  -1.533   0.018  0.00  0.00     0.032 A 
ATOM     10  C   UNL d   1       2.174  -2.663  -0.814  0.00  0.00     0.049 A 
ATOM     11  C   UNL d   1       3.311  -3.479  -0.804  0.00  0.00     0.048 A 
ATOM     12 CL   UNL d   1       0.923  -3.090  -1.929  0.00  0.00    -0.083 Cl
ATOM     13  C   UNL d   1       4.385  -3.164   0.024  0.00  0.00     0.035 A 
ATOM     14  C   UNL d   1       4.325  -2.057   0.866  0.00  0.00     0.025 A 
ATOM     15 CL   UNL d   1       5.796  -4.146   0.003  0.00  0.00    -0.084 Cl
ATOM     16  C   UNL d   1       3.180  -1.256   0.883  0.00  0.00     0.018 A 
ENDBRANCH   1   9
BRANCH   2  17
ATOM     17  C   UNL d   1       2.059   1.581  -0.125  0.00  0.00     0.059 A 
ATOM     18  C   UNL d   1       3.121   1.298  -0.983  0.00  0.00     0.117 A 
ATOM     19  N   UNL d   1       4.249   2.043  -1.086  0.00  0.00    -0.373 N 
ATOM     20  C   UNL d   1       4.322   3.148  -0.316  0.00  0.00     0.088 A 
ATOM     21  HN  UNL d   1       5.007   1.780  -1.716  1.00  0.00     0.164 HD
ATOM     22  C   UNL d   1       3.318   3.539   0.550  0.00  0.00     0.019 A 
ATOM     23  C   UNL d   1       2.177   2.745   0.643  0.00  0.00     0.033 A 
ENDBRANCH   2  17
TORSDOF 2
