REMARK  4 active torsions:
REMARK  status: ('A' for Active; 'I' for Inactive)
REMARK    1  A    between atoms: C_3  and  C_1 
REMARK       I    between atoms: N_16  and  C_3 
REMARK    2  A    between atoms: C_22  and  C_10 
REMARK    3  A    between atoms: C_12  and  C_18 
REMARK    4  A    between atoms: C_18  and  N_16 
ROOT
ATOM      1  C   UNL d   1       0.016  -3.133   1.476  0.00  0.00     0.256 C 
ATOM      2  N   UNL d   1      -0.374  -3.654   0.246  0.00  0.00    -0.347 N 
ATOM      3  O   UNL d   1       0.290  -3.851   2.441  0.00  0.00    -0.267 OA
ATOM      4  C   UNL d   1      -1.088  -2.907  -0.786  0.00  0.00     0.153 C 
ENDROOT
BRANCH   2   5
ATOM      5  C   UNL d   1      -0.327  -5.110   0.079  0.00  0.00     0.184 C 
BRANCH   5   6
ATOM      6  C   UNL d   1      -1.680  -5.732   0.205  0.00  0.00     0.053 A 
ATOM      7  N   UNL d   1      -2.424  -5.970  -0.885  0.00  0.00    -0.263 N 
ATOM      8  O   UNL d   1      -3.575  -6.582  -0.428  0.00  0.00    -0.237 OA
ATOM      9  HN  UNL d   1      -2.188  -5.745  -1.852  1.00  0.00     0.194 HD
ATOM     10  C   UNL d   1      -3.527  -6.716   0.931  0.00  0.00     0.111 A 
ATOM     11  C   UNL d   1      -2.340  -6.177   1.374  0.00  0.00     0.069 A 
BRANCH  10  12
ATOM     12  C   UNL d   1      -4.675  -7.358   1.565  0.00  0.00    -0.000 A 
ATOM     13  C   UNL d   1      -4.731  -7.492   2.961  0.00  0.00     0.014 A 
ATOM     14  C   UNL d   1      -5.834  -8.088   3.583  0.00  0.00     0.001 A 
ATOM     15  C   UNL d   1      -6.896  -8.563   2.817  0.00  0.00     0.000 A 
ATOM     16  C   UNL d   1      -6.853  -8.450   1.431  0.00  0.00     0.001 A 
ATOM     17  C   UNL d   1      -5.750  -7.854   0.810  0.00  0.00     0.014 A 
ENDBRANCH  10  12
ENDBRANCH   5   6
ENDBRANCH   2   5
BRANCH   1  18
ATOM     18  C   UNL d   1       0.088  -1.683   1.709  0.00  0.00     0.061 A 
ATOM     19  C   UNL d   1       0.860  -0.794   0.914  0.00  0.00     0.082 A 
ATOM     20  N   UNL d   1       1.582  -1.075  -0.185  0.00  0.00    -0.310 N 
ATOM     21  C   UNL d   1       0.949   0.670   1.297  0.00  0.00     0.068 A 
ATOM     22  S   UNL d   1       2.249   0.350  -0.709  0.00  0.00     0.068 SA
ATOM     23  HN  UNL d   1       1.698  -1.993  -0.616  1.00  0.00     0.176 HD
ATOM     24  N   UNL d   1       1.683   1.400   0.444  0.00  0.00    -0.310 N 
ATOM     25  HN  UNL d   1       1.858   2.403   0.493  1.00  0.00     0.176 HD
ATOM     26  C   UNL d   1       0.307   1.167   2.457  0.00  0.00     0.032 A 
ATOM     27  C   UNL d   1      -0.398   0.230   3.229  0.00  0.00     0.003 A 
ATOM     28  C   UNL d   1      -0.500  -1.135   2.874  0.00  0.00     0.019 A 
ENDBRANCH   1  18
TORSDOF 4
