REMARK  3 active torsions:
REMARK  status: ('A' for Active; 'I' for Inactive)
REMARK    1  A    between atoms: S_8  and  C_2 
REMARK    2  A    between atoms: C_11  and  S_8 
REMARK    3  A    between atoms: C_12  and  C_11 
ROOT
ATOM      1  C   UNL d   1       0.838   0.273  -0.061  0.00  0.00     0.084 A 
ATOM      2  C   UNL d   1       0.029   1.415  -0.096  0.00  0.00     0.091 A 
ATOM      3  N   UNL d   1      -1.330   1.348  -0.078  0.00  0.00    -0.353 N 
ATOM      4  HN  UNL d   1      -1.899   2.194  -0.101  1.00  0.00     0.166 HD
ATOM      5  C   UNL d   1       0.231  -0.998  -0.016  0.00  0.00    -0.037 A 
ATOM      6  C   UNL d   1       2.267   0.382  -0.068  0.00  0.00     0.103 C 
ATOM      7  N   UNL d   1       3.426   0.425  -0.067  0.00  0.00    -0.191 NA
ATOM      8  C   UNL d   1      -1.906   0.118  -0.028  0.00  0.00     0.006 A 
ATOM      9  C   UNL d   1      -1.164  -1.060   0.001  0.00  0.00     0.033 A 
ATOM     10  C   UNL d   1       1.002  -2.290   0.003  0.00  0.00     0.050 C 
ATOM     11  C   UNL d   1      -3.407   0.052  -0.000  0.00  0.00     0.068 C 
ENDROOT
BRANCH   2  12
ATOM     12  S   UNL d   1       0.796   3.041  -0.174  0.00  0.00    -0.106 SA
BRANCH  12  13
ATOM     13  C   UNL d   1      -0.617   4.188  -0.243  0.00  0.00     0.119 C 
BRANCH  13  14
ATOM     14  C   UNL d   1      -0.114   5.612  -0.395  0.00  0.00    -0.049 A 
ATOM     15  C   UNL d   1       0.112   6.159  -1.669  0.00  0.00     0.008 A 
ATOM     16  C   UNL d   1       0.606   7.459  -1.811  0.00  0.00     0.001 A 
ATOM     17  C   UNL d   1       0.888   8.227  -0.683  0.00  0.00     0.000 A 
ATOM     18  C   UNL d   1       0.686   7.692   0.587  0.00  0.00     0.001 A 
ATOM     19  C   UNL d   1       0.192   6.392   0.731  0.00  0.00     0.008 A 
ENDBRANCH  13  14
ENDBRANCH  12  13
ENDBRANCH   2  12
TORSDOF 3
