REMARK  4 active torsions:
REMARK  status: ('A' for Active; 'I' for Inactive)
REMARK    1  A    between atoms: C_7  and  C_1 
REMARK    2  A    between atoms: C_8  and  C_4 
REMARK    3  A    between atoms: O_16  and  C_7 
REMARK    4  A    between atoms: C_19  and  O_16 
ROOT
ATOM      1  C   UNL d   1       1.226   0.805   0.318  0.00  0.00     0.115 A 
ATOM      2  N   UNL d   1       1.312  -0.584   0.473  0.00  0.00    -0.345 N 
ATOM      3  HN  UNL d   1       2.085  -1.071   0.926  1.00  0.00     0.167 HD
ATOM      4  C   UNL d   1       0.253  -1.174  -0.047  0.00  0.00     0.085 A 
ATOM      5  S   UNL d   1      -0.929  -0.097  -0.699  0.00  0.00    -0.081 SA
ATOM      6  C   UNL d   1       0.059   1.236  -0.289  0.00  0.00     0.087 A 
ENDROOT
BRANCH   4   7
ATOM      7  C   UNL d   1       0.027  -2.631  -0.046  0.00  0.00    -0.002 A 
ATOM      8  C   UNL d   1      -0.709  -3.277  -1.058  0.00  0.00     0.024 A 
ATOM      9  C   UNL d   1      -0.899  -4.648  -0.980  0.00  0.00    -0.022 A 
ATOM     10  C   UNL d   1      -1.573  -5.561  -1.927  0.00  0.00     0.068 C 
ATOM     11  C   UNL d   1      -0.358  -5.382   0.060  0.00  0.00     0.075 A 
ATOM     12  C   UNL d   1      -1.629  -6.816  -1.056  0.00  0.00     0.180 C 
ATOM     13  O   UNL d   1      -0.619  -6.725  -0.022  0.00  0.00    -0.350 OA
ATOM     14  C   UNL d   1       0.389  -4.794   1.056  0.00  0.00     0.038 A 
ATOM     15  C   UNL d   1       0.581  -3.409   0.997  0.00  0.00     0.017 A 
ENDBRANCH   4   7
BRANCH   1  16
ATOM     16  C   UNL d   1       2.300   1.721   0.693  0.00  0.00     0.310 C 
ATOM     17  O   UNL d   1       2.244   2.931   0.491  0.00  0.00    -0.258 OA
BRANCH  16  18
ATOM     18  O   UNL d   1       3.400   1.069   1.172  0.00  0.00    -0.317 OA
BRANCH  18  19
ATOM     19  C   UNL d   1       4.631   1.788   1.036  0.00  0.00     0.175 C 
ATOM     20  C   UNL d   1       5.181   1.500  -0.350  0.00  0.00     0.034 C 
ENDBRANCH  18  19
ENDBRANCH  16  18
ENDBRANCH   1  16
TORSDOF 4
