REMARK  8 active torsions:
REMARK  status: ('A' for Active; 'I' for Inactive)
REMARK    1  A    between atoms: C_3  and  C_1 
REMARK    2  A    between atoms: C_4  and  C_1 
REMARK    3  A    between atoms: N_5  and  C_2 
REMARK    4  A    between atoms: O_15  and  C_3 
REMARK    5  A    between atoms: O_14  and  C_4 
REMARK    6  A    between atoms: C_8  and  N_5 
REMARK    7  A    between atoms: C_18  and  O_14 
REMARK    8  A    between atoms: C_19  and  O_15 
ROOT
ATOM      1  C   UNL d   1       1.141  -0.041  -0.036  0.00  0.00     0.129 C 
ATOM      2  C   UNL d   1       0.474   0.829   0.746  0.00  0.00     0.112 C 
ENDROOT
BRANCH   1   3
ATOM      3  C   UNL d   1       0.419  -0.892  -1.008  0.00  0.00     0.300 C 
ATOM      4  O   UNL d   1       0.868  -1.923  -1.485  0.00  0.00    -0.259 OA
BRANCH   3   5
ATOM      5  O   UNL d   1      -0.759  -0.312  -1.364  0.00  0.00    -0.318 OA
BRANCH   5   6
ATOM      6  C   UNL d   1      -1.373  -0.813  -2.561  0.00  0.00     0.174 C 
ATOM      7  C   UNL d   1      -0.949   0.082  -3.711  0.00  0.00     0.034 C 
ENDBRANCH   5   6
ENDBRANCH   3   5
ENDBRANCH   1   3
BRANCH   1   8
ATOM      8  C   UNL d   1       2.619  -0.045  -0.005  0.00  0.00     0.300 C 
ATOM      9  O   UNL d   1       3.297   0.210   0.973  0.00  0.00    -0.259 OA
BRANCH   8  10
ATOM     10  O   UNL d   1       3.083  -0.240  -1.267  0.00  0.00    -0.318 OA
BRANCH  10  11
ATOM     11  C   UNL d   1       4.430   0.172  -1.524  0.00  0.00     0.174 C 
ATOM     12  C   UNL d   1       4.341   1.516  -2.221  0.00  0.00     0.034 C 
ENDBRANCH  10  11
ENDBRANCH   8  10
ENDBRANCH   1   8
BRANCH   2  13
ATOM     13  N   UNL d   1       0.929   1.781   1.628  0.00  0.00    -0.363 N 
ATOM     14  H   UNL d   1       1.254   1.452   2.537  0.00  0.00     0.165 HD
BRANCH  13  15
ATOM     15  C   UNL d   1       1.212   3.135   1.344  0.00  0.00     0.054 A 
ATOM     16  C   UNL d   1       1.751   3.978   2.339  0.00  0.00     0.062 A 
ATOM     17  C   UNL d   1       1.968   5.340   2.106  0.00  0.00     0.045 A 
ATOM     18 CL   UNL d   1       2.171   3.345   3.896  0.00  0.00    -0.082 Cl
ATOM     19  C   UNL d   1       1.650   5.877   0.863  0.00  0.00     0.012 A 
ATOM     20  C   UNL d   1       1.141   5.064  -0.147  0.00  0.00     0.021 A 
ATOM     21 BR   UNL d   1       1.895   7.724   0.547  0.00  0.00    -0.051 Br
ATOM     22  C   UNL d   1       0.925   3.703   0.093  0.00  0.00     0.032 A 
ENDBRANCH  13  15
ENDBRANCH   2  13
TORSDOF 8
