REMARK  8 active torsions:
REMARK  status: ('A' for Active; 'I' for Inactive)
REMARK    1  A    between atoms: C_7  and  C_1 
REMARK    2  A    between atoms: C_8  and  C_2 
REMARK    3  A    between atoms: S_5  and  C_3 
REMARK    4  A    between atoms: C_6  and  S_5 
REMARK    5  A    between atoms: O_16  and  C_7 
REMARK    6  A    between atoms: O_17  and  C_8 
REMARK    7  A    between atoms: C_10  and  C_9 
REMARK    8  A    between atoms: O_18  and  C_10 
ROOT
ATOM      1  C   UNL d   1       1.303  -0.022  -0.365  0.00  0.00     0.055 A 
ATOM      2  C   UNL d   1       0.497  -1.177  -0.318  0.00  0.00     0.022 A 
ATOM      3  C   UNL d   1       0.708   1.249  -0.211  0.00  0.00     0.038 A 
ATOM      4  C   UNL d   1      -0.671   1.384  -0.014  0.00  0.00     0.038 A 
ATOM      5  C   UNL d   1      -0.890  -1.020  -0.131  0.00  0.00     0.021 A 
ATOM      6  C   UNL d   1      -1.472   0.243   0.021  0.00  0.00     0.020 A 
ENDROOT
BRANCH   2   7
ATOM      7  S   UNL d   1       1.107  -2.857  -0.206  0.00  0.00    -0.088 SA
BRANCH   7   8
ATOM      8  C   UNL d   1       1.224  -3.446  -1.891  0.00  0.00     0.022 A 
ATOM      9  C   UNL d   1       0.170  -4.027  -2.627  0.00  0.00     0.054 A 
ATOM     10  C   UNL d   1       0.436  -4.655  -3.858  0.00  0.00     0.020 A 
ATOM     11  C   UNL d   1       1.734  -4.722  -4.360  0.00  0.00     0.001 A 
ATOM     12  C   UNL d   1       2.775  -4.133  -3.653  0.00  0.00     0.001 A 
ATOM     13  C   UNL d   1       2.523  -3.501  -2.431  0.00  0.00     0.020 A 
BRANCH   9  14
ATOM     14  C   UNL d   1      -1.256  -4.037  -2.213  0.00  0.00     0.177 C 
ATOM     15  O   UNL d   1      -2.169  -3.884  -3.006  0.00  0.00    -0.646 OA
BRANCH  14  16
ATOM     16  O   UNL d   1      -1.463  -4.299  -0.906  0.00  0.00    -0.773 OA
ATOM     17  H   UNL d   1      -0.646  -4.433  -0.389  0.00  0.00     0.167 HD
ENDBRANCH  14  16
ENDBRANCH   9  14
ENDBRANCH   7   8
ENDBRANCH   2   7
BRANCH   1  18
ATOM     18  C   UNL d   1       2.780   0.003  -0.571  0.00  0.00     0.177 C 
ATOM     19  O   UNL d   1       3.337   0.928  -1.133  0.00  0.00    -0.646 OA
BRANCH  18  20
ATOM     20  O   UNL d   1       3.461  -1.033  -0.044  0.00  0.00    -0.773 OA
ATOM     21  H   UNL d   1       2.911  -1.695   0.415  0.00  0.00     0.167 HD
ENDBRANCH  18  20
ENDBRANCH   1  18
BRANCH   4  22
ATOM     22  C   UNL d   1      -1.221   2.737   0.252  0.00  0.00     0.176 C 
ATOM     23  O   UNL d   1      -0.580   3.602   0.821  0.00  0.00    -0.646 OA
BRANCH  22  24
ATOM     24  O   UNL d   1      -2.480   2.917  -0.195  0.00  0.00    -0.773 OA
ATOM     25  H   UNL d   1      -2.826   2.223  -0.783  0.00  0.00     0.167 HD
ENDBRANCH  22  24
ENDBRANCH   4  22
TORSDOF 8
