REMARK  6 active torsions:
REMARK  status: ('A' for Active; 'I' for Inactive)
REMARK    1  A    between atoms: C_2  and  C_1 
REMARK    2  A    between atoms: C_4  and  C_1 
REMARK    3  A    between atoms: N_6  and  C_3 
REMARK    4  A    between atoms: C_9  and  N_6 
REMARK    5  A    between atoms: O_18  and  C_10 
REMARK    6  A    between atoms: O_19  and  C_11 
ROOT
ATOM      1  C   UNL d   1       0.004   0.044  -1.482  0.00  0.00     0.041 C 
ATOM      2  C   UNL d   1       0.758   0.302  -2.560  0.00  0.00     0.090 C 
ENDROOT
BRANCH   1   3
ATOM      3  C   UNL d   1      -1.492   0.215  -1.379  0.00  0.00     0.042 C 
ATOM      4  S   UNL d   1      -2.570   0.036  -2.675  0.00  0.00    -0.079 SA
BRANCH   3   5
ATOM      5  C   UNL d   1      -1.979   0.556   0.002  0.00  0.00    -0.015 A 
ATOM      6  C   UNL d   1      -1.229   1.419   0.816  0.00  0.00     0.016 A 
ATOM      7  C   UNL d   1      -1.661   1.740   2.109  0.00  0.00     0.037 A 
ATOM      8  C   UNL d   1      -2.856   1.215   2.600  0.00  0.00     0.068 A 
ATOM      9  C   UNL d   1      -3.618   0.378   1.783  0.00  0.00     0.037 A 
ATOM     10  C   UNL d   1      -3.185   0.045   0.496  0.00  0.00     0.016 A 
BRANCH   8  11
ATOM     11  O   UNL d   1      -3.384   1.442   3.840  0.00  0.00    -0.356 OA
ATOM     12  C   UNL d   1      -2.599   2.212   4.741  0.00  0.00     0.210 C 
ENDBRANCH   8  11
ENDBRANCH   3   5
ENDBRANCH   1   3
BRANCH   2  13
ATOM     13  N   UNL d   1       0.354   0.755  -3.785  0.00  0.00    -0.366 N 
ATOM     14  H   UNL d   1      -0.659   0.804  -3.904  0.00  0.00     0.165 HD
BRANCH  13  15
ATOM     15  C   UNL d   1       1.095   1.041  -4.941  0.00  0.00     0.032 A 
ATOM     16  C   UNL d   1       2.482   0.888  -5.040  0.00  0.00     0.032 A 
ATOM     17  C   UNL d   1       3.169   1.231  -6.215  0.00  0.00     0.039 A 
ATOM     18  C   UNL d   1       2.479   1.748  -7.309  0.00  0.00     0.068 A 
ATOM     19  C   UNL d   1       1.098   1.910  -7.220  0.00  0.00     0.039 A 
ATOM     20  C   UNL d   1       0.417   1.563  -6.050  0.00  0.00     0.032 A 
BRANCH  18  21
ATOM     21  O   UNL d   1       3.026   2.135  -8.500  0.00  0.00    -0.356 OA
ATOM     22  C   UNL d   1       4.434   1.993  -8.635  0.00  0.00     0.210 C 
ENDBRANCH  18  21
ENDBRANCH  13  15
ENDBRANCH   2  13
TORSDOF 6
