REMARK  3 active torsions:
REMARK  status: ('A' for Active; 'I' for Inactive)
REMARK    1  A    between atoms: C_4  and  C_3 
REMARK       I    between atoms: N_9  and  C_4 
REMARK    2  A    between atoms: N_7  and  C_6 
REMARK    3  A    between atoms: C_13  and  N_9 
ROOT
ATOM      1  C   UNL d   1       1.810   5.034   0.666  0.00  0.00     0.052 A 
ATOM      2  C   UNL d   1       1.282   3.884   1.289  0.00  0.00     0.062 A 
ATOM      3  C   UNL d   1       1.898   2.625   1.148  0.00  0.00     0.055 A 
ATOM      4  C   UNL d   1       2.975   4.831  -0.106  0.00  0.00     0.033 A 
ATOM      5  C   UNL d   1       3.047   2.458   0.378  0.00  0.00     0.036 A 
ATOM      6 CL   UNL d   1      -0.188   3.863   2.211  0.00  0.00    -0.082 Cl
ATOM      7  C   UNL d   1       3.583   3.576  -0.254  0.00  0.00     0.032 A 
ENDROOT
BRANCH   5   8
ATOM      8  N   UNL d   1       3.696   1.221   0.202  0.00  0.00    -0.322 N 
ATOM      9  C   UNL d   1       3.320   0.002   0.726  0.00  0.00     0.270 C 
ATOM     10  O   UNL d   1       2.362  -0.255   1.438  0.00  0.00    -0.266 OA
ATOM     11  H   UNL d   1       4.545   1.202  -0.361  0.00  0.00     0.169 HD
BRANCH   9  12
ATOM     12  C   UNL d   1       4.250  -1.143   0.341  0.00  0.00     0.094 C 
ATOM     13  N   UNL d   1       5.361  -0.870  -0.282  0.00  0.00    -0.297 N 
ATOM     14  N   UNL d   1       6.191  -1.919  -0.561  0.00  0.00    -0.270 N 
ATOM     15  HN  UNL d   1       5.600   0.085  -0.551  1.00  0.00     0.187 HD
ATOM     16  C   UNL d   1       5.889  -3.254  -0.442  0.00  0.00     0.236 C 
ATOM     17  H   UNL d   1       7.127  -1.692  -0.888  0.00  0.00     0.190 HD
ATOM     18  O   UNL d   1       6.717  -4.127  -0.691  0.00  0.00    -0.272 OA
ATOM     19  C   UNL d   1       4.463  -3.573  -0.095  0.00  0.00     0.111 C 
ATOM     20  C   UNL d   1       3.860  -2.519   0.804  0.00  0.00     0.073 C 
ENDBRANCH   9  12
ENDBRANCH   5   8
BRANCH   1  21
ATOM     21  N   UNL d   1       1.346   6.349   0.767  0.00  0.00    -0.375 N 
ATOM     22  C   UNL d   1       0.541   6.809   1.915  0.00  0.00     0.149 C 
ATOM     23  C   UNL d   1       0.601   8.345   1.997  0.00  0.00     0.187 C 
ATOM     24  O   UNL d   1       0.153   8.958   0.776  0.00  0.00    -0.388 OA
ATOM     25  C   UNL d   1       0.963   8.518  -0.327  0.00  0.00     0.187 C 
ATOM     26  C   UNL d   1       0.912   6.989  -0.496  0.00  0.00     0.149 C 
ENDBRANCH   1  21
TORSDOF 3
