REMARK  10 active torsions:
REMARK  status: ('A' for Active; 'I' for Inactive)
REMARK    1  A    between atoms: C_3  and  C_1 
REMARK    2  A    between atoms: C_4  and  C_1 
REMARK    3  A    between atoms: O_7  and  C_1 
REMARK    4  A    between atoms: C_10  and  C_1 
REMARK    5  A    between atoms: C_2  and  C_11 
REMARK    6  A    between atoms: C_5  and  C_2 
REMARK    7  A    between atoms: C_6  and  C_2 
REMARK    8  A    between atoms: O_8  and  C_2 
REMARK    9  A    between atoms: O_9  and  C_10 
REMARK   10  A    between atoms: C_11  and  O_9 
ROOT
ATOM      1  O   UNL d   1       2.973  -0.239   1.322  0.00  0.00    -0.384 OA
ENDROOT
BRANCH   1   2
ATOM      2  C   UNL d   1       2.405  -0.105   0.016  0.00  0.00     0.215 C 
BRANCH   2   3
ATOM      3  C   UNL d   1       0.844  -0.048   0.103  0.00  0.00     0.133 C 
BRANCH   3   4
ATOM      4  C   UNL d   1       0.346  -1.365   0.754  0.00  0.00    -0.017 A 
ATOM      5  C   UNL d   1       0.171  -2.514  -0.055  0.00  0.00     0.011 A 
ATOM      6  C   UNL d   1      -0.082  -3.776   0.495  0.00  0.00     0.001 A 
ATOM      7  C   UNL d   1      -0.146  -3.933   1.872  0.00  0.00     0.000 A 
ATOM      8  C   UNL d   1       0.004  -2.822   2.694  0.00  0.00     0.001 A 
ATOM      9  C   UNL d   1       0.232  -1.556   2.142  0.00  0.00     0.011 A 
ENDBRANCH   3   4
BRANCH   3  10
ATOM     10  C   UNL d   1       0.416   1.315   0.706  0.00  0.00    -0.017 A 
ATOM     11  C   UNL d   1       0.774   1.708   2.009  0.00  0.00     0.011 A 
ATOM     12  C   UNL d   1       0.499   2.984   2.512  0.00  0.00     0.001 A 
ATOM     13  C   UNL d   1      -0.128   3.926   1.708  0.00  0.00     0.000 A 
ATOM     14  C   UNL d   1      -0.478   3.586   0.407  0.00  0.00     0.001 A 
ATOM     15  C   UNL d   1      -0.213   2.302  -0.085  0.00  0.00     0.011 A 
ENDBRANCH   3  10
BRANCH   3  16
ATOM     16  O   UNL d   1       0.359  -0.060  -1.262  0.00  0.00    -0.378 OA
ATOM     17  H   UNL d   1      -0.596  -0.231  -1.188  0.00  0.00     0.211 HD
ENDBRANCH   3  16
ENDBRANCH   2   3
ENDBRANCH   1   2
BRANCH   1  18
ATOM     18  C   UNL d   1       4.405  -0.176   1.352  0.00  0.00     0.215 C 
BRANCH  18  19
ATOM     19  C   UNL d   1       4.852  -0.294   2.842  0.00  0.00     0.133 C 
BRANCH  19  20
ATOM     20  C   UNL d   1       4.429  -1.600   3.539  0.00  0.00    -0.017 A 
ATOM     21  C   UNL d   1       4.072  -2.763   2.835  0.00  0.00     0.011 A 
ATOM     22  C   UNL d   1       3.605  -3.897   3.506  0.00  0.00     0.001 A 
ATOM     23  C   UNL d   1       3.487  -3.895   4.894  0.00  0.00     0.000 A 
ATOM     24  C   UNL d   1       3.858  -2.766   5.613  0.00  0.00     0.001 A 
ATOM     25  C   UNL d   1       4.335  -1.636   4.947  0.00  0.00     0.011 A 
ENDBRANCH  19  20
BRANCH  19  26
ATOM     26  C   UNL d   1       6.342   0.030   2.956  0.00  0.00    -0.017 A 
ATOM     27  C   UNL d   1       6.766   1.363   3.126  0.00  0.00     0.011 A 
ATOM     28  C   UNL d   1       8.121   1.687   3.224  0.00  0.00     0.001 A 
ATOM     29  C   UNL d   1       9.079   0.680   3.142  0.00  0.00     0.000 A 
ATOM     30  C   UNL d   1       8.683  -0.642   2.952  0.00  0.00     0.001 A 
ATOM     31  C   UNL d   1       7.326  -0.966   2.853  0.00  0.00     0.011 A 
ENDBRANCH  19  26
BRANCH  19  32
ATOM     32  O   UNL d   1       4.120   0.747   3.541  0.00  0.00    -0.378 OA
ATOM     33  H   UNL d   1       3.191   0.486   3.412  0.00  0.00     0.211 HD
ENDBRANCH  19  32
ENDBRANCH  18  19
ENDBRANCH   1  18
TORSDOF 10
