REMARK  8 active torsions:
REMARK  status: ('A' for Active; 'I' for Inactive)
REMARK    1  A    between atoms: C_11  and  N_1 
REMARK    2  A    between atoms: S_10  and  C_2 
REMARK    3  A    between atoms: C_14  and  C_3 
REMARK    4  A    between atoms: C_18  and  S_10 
REMARK    5  A    between atoms: C_12  and  O_15 
REMARK    6  A    between atoms: C_13  and  C_18 
REMARK    7  A    between atoms: C_17  and  C_13 
REMARK    8  A    between atoms: O_15  and  C_14 
ROOT
ATOM      1  N   UNL d   1      -0.317  -1.329  -0.113  0.00  0.00    -0.277 N 
ATOM      2  C   UNL d   1       0.928  -0.707  -0.155  0.00  0.00     0.168 A 
ATOM      3  C   UNL d   1      -1.214  -0.260  -0.041  0.00  0.00     0.129 A 
ATOM      4  N   UNL d   1       0.802   0.591  -0.019  0.00  0.00    -0.278 N 
ATOM      5  HN  UNL d   1       1.563   1.269   0.024  1.00  0.00     0.189 HD
ATOM      6  N   UNL d   1      -0.531   0.871   0.054  0.00  0.00    -0.285 N 
ATOM      7  HN  UNL d   1      -0.937   1.801   0.164  1.00  0.00     0.188 HD
ENDROOT
BRANCH   3   8
ATOM      8  C   UNL d   1      -2.701  -0.329   0.093  0.00  0.00     0.254 C 
BRANCH   8   9
ATOM      9  O   UNL d   1      -3.259   0.133  -1.143  0.00  0.00    -0.343 OA
BRANCH   9  10
ATOM     10  C   UNL d   1      -4.617   0.298  -1.194  0.00  0.00     0.076 A 
ATOM     11  C   UNL d   1      -5.131   0.960  -2.309  0.00  0.00    -0.018 A 
ATOM     12  C   UNL d   1      -6.509   1.139  -2.485  0.00  0.00    -0.043 A 
ATOM     13  C   UNL d   1      -4.356   1.573  -3.433  0.00  0.00     0.042 A 
ATOM     14  C   UNL d   1      -6.816   1.864  -3.756  0.00  0.00     0.040 A 
ATOM     15  C   UNL d   1      -7.425   0.665  -1.550  0.00  0.00    -0.055 A 
ATOM     16  C   UNL d   1      -5.437   2.147  -4.360  0.00  0.00     0.009 A 
ATOM     17  C   UNL d   1      -6.913   0.017  -0.419  0.00  0.00     0.010 A 
ATOM     18  C   UNL d   1      -8.901   0.839  -1.741  0.00  0.00     0.049 C 
ATOM     19  C   UNL d   1      -5.528  -0.165  -0.242  0.00  0.00     0.038 A 
ENDBRANCH   9  10
ENDBRANCH   8   9
ENDBRANCH   3   8
BRANCH   1  20
ATOM     20  C   UNL d   1      -0.588  -2.732  -0.128  0.00  0.00     0.043 A 
ATOM     21  C   UNL d   1       0.270  -3.621   0.540  0.00  0.00     0.030 A 
ATOM     22  C   UNL d   1       0.070  -5.001   0.463  0.00  0.00     0.002 A 
ATOM     23  C   UNL d   1      -1.008  -5.506  -0.256  0.00  0.00     0.000 A 
ATOM     24  C   UNL d   1      -1.888  -4.630  -0.892  0.00  0.00     0.002 A 
ATOM     25  C   UNL d   1      -1.682  -3.247  -0.833  0.00  0.00     0.030 A 
ENDBRANCH   1  20
BRANCH   2  26
ATOM     26  S   UNL d   1       2.420  -1.499  -0.560  0.00  0.00    -0.084 SA
BRANCH  26  27
ATOM     27  C   UNL d   1       3.634  -0.165  -0.357  0.00  0.00     0.166 C 
BRANCH  27  28
ATOM     28  C   UNL d   1       5.046  -0.669  -0.636  0.00  0.00     0.169 C 
ATOM     29  O   UNL d   1       5.335  -1.859  -0.764  0.00  0.00    -0.291 OA
BRANCH  28  30
ATOM     30  C   UNL d   1       6.155   0.331  -0.739  0.00  0.00     0.011 A 
ATOM     31  C   UNL d   1       5.981   1.688  -0.435  0.00  0.00     0.018 A 
ATOM     32  C   UNL d   1       7.057   2.579  -0.552  0.00  0.00     0.043 A 
ATOM     33  C   UNL d   1       8.299   2.108  -0.969  0.00  0.00     0.116 A 
ATOM     34  C   UNL d   1       8.492   0.767  -1.267  0.00  0.00     0.043 A 
ATOM     35  F   UNL d   1       9.322   2.966  -1.080  0.00  0.00    -0.206 F 
ATOM     36  C   UNL d   1       7.422  -0.122  -1.150  0.00  0.00     0.018 A 
ENDBRANCH  28  30
ENDBRANCH  27  28
ENDBRANCH  26  27
ENDBRANCH   2  26
TORSDOF 8
