REMARK  2 active torsions:
REMARK  status: ('A' for Active; 'I' for Inactive)
REMARK    1  A    between atoms: N_2  and  C_1 
REMARK    2  A    between atoms: O_11  and  C_3 
ROOT
ATOM      1  C   UNL d   1      -2.283  -0.363  -0.001  0.00  0.00     0.152 A 
ATOM      2  C   UNL d   1      -1.393   0.712   0.000  0.00  0.00     0.112 A 
ATOM      3  C   UNL d   1      -0.003   0.463   0.000  0.00  0.00     0.026 A 
ATOM      4  N   UNL d   1      -0.440  -1.916  -0.002  0.00  0.00    -0.363 N 
ATOM      5  HN  UNL d   1      -0.103  -2.879  -0.002  1.00  0.00     0.165 HD
ATOM      6  C   UNL d   1      -1.767  -1.646  -0.002  0.00  0.00     0.127 A 
ATOM      7  C   UNL d   1       0.424  -0.884  -0.001  0.00  0.00     0.045 A 
ATOM      8  C   UNL d   1       0.965   1.492   0.001  0.00  0.00     0.016 A 
ATOM      9  C   UNL d   1       1.786  -1.152  -0.001  0.00  0.00     0.030 A 
ATOM     10  C   UNL d   1       2.327   1.196   0.001  0.00  0.00     0.001 A 
ATOM     11  C   UNL d   1       2.739  -0.130   0.000  0.00  0.00     0.002 A 
ENDROOT
BRANCH   1  12
ATOM     12  N   UNL d   1      -3.724  -0.186  -0.002  0.00  0.00    -0.111 N 
ATOM     13  O   UNL d   1      -4.156   0.979  -0.002  0.00  0.00    -0.532 OA
ATOM     14  O   UNL d   1      -4.438  -1.197  -0.002  0.00  0.00    -0.532 OA
ENDBRANCH   1  12
BRANCH   2  15
ATOM     15  O   UNL d   1      -1.790   2.030   0.001  0.00  0.00    -0.357 OA
ATOM     16  H   UNL d   1      -2.768   2.096  -0.000  0.00  0.00     0.217 HD
ENDBRANCH   2  15
TORSDOF 2
