REMARK  4 active torsions:
REMARK  status: ('A' for Active; 'I' for Inactive)
REMARK    1  A    between atoms: C_3  and  C_1 
REMARK    2  A    between atoms: N_8  and  C_2 
REMARK    3  A    between atoms: N_6  and  N_8 
REMARK    4  A    between atoms: C_9  and  C_10 
ROOT
ATOM      1  N   UNL d   1      -3.840   0.043  -0.191  0.00  0.00    -0.185 NA
ATOM      2  C   UNL d   1      -4.608  -1.172   0.150  0.00  0.00     0.144 C 
ENDROOT
BRANCH   1   3
ATOM      3  N   UNL d   1      -4.350   1.221   0.314  0.00  0.00    -0.324 N 
ATOM      4  C   UNL d   1      -5.437   1.609  -0.283  0.00  0.00     0.115 C 
ATOM      5  HN  UNL d   1      -3.917   1.736   1.081  1.00  0.00     0.180 HD
BRANCH   4   6
ATOM      6  C   UNL d   1      -6.153   2.848   0.078  0.00  0.00     0.002 A 
ATOM      7  C   UNL d   1      -7.406   3.164  -0.467  0.00  0.00     0.047 A 
ATOM      8  C   UNL d   1      -8.036   4.366  -0.128  0.00  0.00     0.048 A 
ATOM      9 CL   UNL d   1      -8.248   2.116  -1.556  0.00  0.00    -0.083 Cl
ATOM     10  C   UNL d   1      -7.414   5.248   0.752  0.00  0.00     0.035 A 
ATOM     11  C   UNL d   1      -6.173   4.944   1.305  0.00  0.00     0.025 A 
ATOM     12 CL   UNL d   1      -8.185   6.732   1.158  0.00  0.00    -0.084 Cl
ATOM     13  C   UNL d   1      -5.541   3.741   0.970  0.00  0.00     0.016 A 
ENDBRANCH   4   6
ENDBRANCH   1   3
BRANCH   1  14
ATOM     14  C   UNL d   1      -2.439  -0.160  -0.038  0.00  0.00     0.115 A 
ATOM     15  C   UNL d   1      -1.484   0.814  -0.353  0.00  0.00     0.089 A 
ATOM     16  C   UNL d   1      -0.112   0.501  -0.158  0.00  0.00     0.044 A 
ATOM     17  C   UNL d   1       0.277  -0.743   0.305  0.00  0.00     0.050 A 
ATOM     18  C   UNL d   1      -0.714  -1.656   0.565  0.00  0.00     0.113 A 
ATOM     19 CL   UNL d   1       1.931  -1.133   0.518  0.00  0.00    -0.083 Cl
ATOM     20  N   UNL d   1      -2.030  -1.391   0.395  0.00  0.00    -0.353 N 
ATOM     21  HN  UNL d   1      -2.722  -2.115   0.591  1.00  0.00     0.166 HD
BRANCH  15  22
ATOM     22  C   UNL d   1      -1.753   2.174  -0.934  0.00  0.00     0.420 C 
ATOM     23  F   UNL d   1      -3.005   2.491  -1.349  0.00  0.00    -0.166 F 
ATOM     24  F   UNL d   1      -1.374   3.171  -0.079  0.00  0.00    -0.166 F 
ATOM     25  F   UNL d   1      -0.979   2.375  -2.051  0.00  0.00    -0.166 F 
ENDBRANCH  15  22
ENDBRANCH   1  14
TORSDOF 4
