REMARK  7 active torsions:
REMARK  status: ('A' for Active; 'I' for Inactive)
REMARK    1  A    between atoms: C_10  and  C_1 
REMARK    2  A    between atoms: N_9  and  C_2 
REMARK    3  A    between atoms: C_12  and  C_4 
REMARK       I    between atoms: C_6  and  N_9 
REMARK    4  A    between atoms: C_7  and  C_6 
REMARK    5  A    between atoms: O_11  and  C_8 
REMARK    6  A    between atoms: O_19  and  C_10 
REMARK    7  A    between atoms: C_21  and  O_11 
ROOT
ATOM      1  C   UNL d   1       2.686   2.752   0.494  0.00  0.00     0.260 C 
ATOM      2  N   UNL d   1       2.487   1.439   0.138  0.00  0.00    -0.321 N 
ATOM      3  O   UNL d   1       1.834   3.550   0.857  0.00  0.00    -0.267 OA
ATOM      4  H   UNL d   1       3.323   0.889  -0.027  0.00  0.00     0.169 HD
ENDROOT
BRANCH   2   5
ATOM      5  C   UNL d   1       1.307   0.716   0.010  0.00  0.00     0.059 A 
ATOM      6  C   UNL d   1      -0.026   1.085   0.078  0.00  0.00     0.107 A 
ATOM      7  S   UNL d   1      -1.065  -0.265  -0.234  0.00  0.00    -0.081 SA
ATOM      8  C   UNL d   1       0.227  -1.354  -0.383  0.00  0.00     0.018 A 
ATOM      9  C   UNL d   1       1.426  -0.697  -0.246  0.00  0.00     0.051 A 
BRANCH   6  10
ATOM     10  C   UNL d   1      -0.734   2.344   0.218  0.00  0.00     0.302 C 
ATOM     11  O   UNL d   1      -0.667   3.294  -0.552  0.00  0.00    -0.259 OA
BRANCH  10  12
ATOM     12  O   UNL d   1      -1.686   2.193   1.195  0.00  0.00    -0.322 OA
ATOM     13  C   UNL d   1      -2.888   2.952   1.053  0.00  0.00     0.213 C 
ENDBRANCH  10  12
ENDBRANCH   6  10
BRANCH   8  14
ATOM     14  C   UNL d   1      -0.024  -2.773  -0.663  0.00  0.00    -0.019 A 
ATOM     15  C   UNL d   1       0.802  -3.465  -1.564  0.00  0.00     0.014 A 
ATOM     16  C   UNL d   1       0.577  -4.819  -1.837  0.00  0.00     0.024 A 
ATOM     17  C   UNL d   1      -0.474  -5.485  -1.215  0.00  0.00     0.034 A 
ATOM     18  C   UNL d   1      -1.301  -4.817  -0.319  0.00  0.00     0.024 A 
ATOM     19 CL   UNL d   1      -0.749  -7.149  -1.553  0.00  0.00    -0.084 Cl
ATOM     20  C   UNL d   1      -1.076  -3.466  -0.044  0.00  0.00     0.014 A 
ENDBRANCH   8  14
ENDBRANCH   2   5
BRANCH   1  21
ATOM     21  C   UNL d   1       4.101   3.202   0.361  0.00  0.00     0.083 A 
ATOM     22  C   UNL d   1       5.192   2.430   0.760  0.00  0.00     0.163 A 
ATOM     23  N   UNL d   1       6.485   2.799   0.562  0.00  0.00    -0.346 N 
ATOM     24  C   UNL d   1       6.700   3.976  -0.060  0.00  0.00     0.090 A 
ATOM     25  HN  UNL d   1       7.259   2.212   0.872  1.00  0.00     0.167 HD
ATOM     26  C   UNL d   1       5.683   4.815  -0.487  0.00  0.00     0.018 A 
ATOM     27  C   UNL d   1       4.362   4.424  -0.265  0.00  0.00     0.023 A 
BRANCH  22  28
ATOM     28  O   UNL d   1       4.940   1.238   1.432  0.00  0.00    -0.293 OA
BRANCH  28  29
ATOM     29  C   UNL d   1       5.918   0.271   1.403  0.00  0.00     0.077 A 
ATOM     30  C   UNL d   1       6.361  -0.237   2.625  0.00  0.00     0.037 A 
ATOM     31  C   UNL d   1       7.292  -1.277   2.648  0.00  0.00     0.003 A 
ATOM     32  C   UNL d   1       7.762  -1.820   1.452  0.00  0.00     0.000 A 
ATOM     33  C   UNL d   1       7.304  -1.324   0.231  0.00  0.00     0.003 A 
ATOM     34  C   UNL d   1       6.375  -0.282   0.204  0.00  0.00     0.037 A 
ENDBRANCH  28  29
ENDBRANCH  22  28
ENDBRANCH   1  21
TORSDOF 7
