REMARK  7 active torsions:
REMARK  status: ('A' for Active; 'I' for Inactive)
REMARK    1  A    between atoms: C_2  and  C_1 
REMARK    2  A    between atoms: N_22  and  C_4 
REMARK    3  A    between atoms: S_19  and  C_10 
REMARK    4  A    between atoms: C_18  and  C_11 
REMARK    5  A    between atoms: C_27  and  C_16 
REMARK    6  A    between atoms: C_23  and  S_19 
REMARK    7  A    between atoms: C_21  and  C_23 
ROOT
ATOM      1  C   UNL d   1       2.433   0.011  -0.023  0.00  0.00     0.150 A 
ATOM      2  C   UNL d   1       1.695   1.185  -0.040  0.00  0.00     0.079 A 
ATOM      3  C   UNL d   1       0.311   0.845  -0.064  0.00  0.00     0.058 A 
ATOM      4  C   UNL d   1       0.293  -0.549  -0.110  0.00  0.00     0.162 A 
ATOM      5  O   UNL d   1       1.563  -1.045  -0.108  0.00  0.00    -0.287 OA
ATOM      6  C   UNL d   1      -0.942   1.492  -0.022  0.00  0.00     0.017 A 
ATOM      7  N   UNL d   1      -0.785  -1.355  -0.139  0.00  0.00    -0.335 N 
ATOM      8  HN  UNL d   1      -0.712  -2.371  -0.180  1.00  0.00     0.168 HD
ATOM      9  C   UNL d   1      -1.974  -0.710  -0.110  0.00  0.00     0.045 A 
ATOM     10  C   UNL d   1      -2.085   0.679  -0.031  0.00  0.00     0.045 A 
ENDROOT
BRANCH   1  11
ATOM     11  C   UNL d   1       3.853  -0.137   0.109  0.00  0.00     0.161 A 
ATOM     12  N   UNL d   1       4.652  -1.102  -0.453  0.00  0.00    -0.314 N 
ATOM     13  C   UNL d   1       5.907  -0.875   0.049  0.00  0.00     0.163 A 
ATOM     14  C   UNL d   1       4.280  -2.082  -1.440  0.00  0.00     0.160 C 
ATOM     15  N   UNL d   1       5.897   0.200   0.801  0.00  0.00    -0.278 N 
ATOM     16  N   UNL d   1       4.610   0.676   0.824  0.00  0.00    -0.281 N 
ATOM     17  HN  UNL d   1       6.700   0.607   1.282  1.00  0.00     0.189 HD
ATOM     18  HN  UNL d   1       4.292   1.515   1.309  1.00  0.00     0.188 HD
BRANCH  13  19
ATOM     19  S   UNL d   1       7.281  -1.875  -0.276  0.00  0.00    -0.088 SA
BRANCH  19  20
ATOM     20  C   UNL d   1       8.515  -1.105   0.825  0.00  0.00     0.122 C 
BRANCH  20  21
ATOM     21  C   UNL d   1       9.841  -1.832   0.781  0.00  0.00    -0.027 A 
ATOM     22  C   UNL d   1      10.880  -1.475  -0.096  0.00  0.00     0.041 A 
ATOM     23 CL   UNL d   1      10.733  -0.158  -1.206  0.00  0.00    -0.084 Cl
ATOM     24  C   UNL d   1      12.087  -2.183  -0.095  0.00  0.00     0.024 A 
ATOM     25  C   UNL d   1      12.275  -3.258   0.771  0.00  0.00     0.002 A 
ATOM     26  C   UNL d   1      11.253  -3.631   1.642  0.00  0.00     0.001 A 
ATOM     27  C   UNL d   1      10.048  -2.926   1.642  0.00  0.00     0.009 A 
ENDBRANCH  20  21
ENDBRANCH  19  20
ENDBRANCH  13  19
ENDBRANCH   1  11
BRANCH   2  28
ATOM     28  N   UNL d   1       2.215   2.428  -0.026  0.00  0.00    -0.396 N 
ATOM     29  H   UNL d   1       3.219   2.600  -0.029  0.00  0.00     0.156 HD
ATOM     30  H   UNL d   1       1.635   3.251  -0.179  0.00  0.00     0.156 HD
ENDBRANCH   2  28
BRANCH   6  31
ATOM     31  C   UNL d   1      -1.070   2.937   0.091  0.00  0.00     0.086 A 
ATOM     32  O   UNL d   1      -0.150   3.704  -0.566  0.00  0.00    -0.322 OA
ATOM     33  C   UNL d   1      -0.462   5.005  -0.333  0.00  0.00     0.142 A 
ATOM     34  C   UNL d   1      -1.589   5.096   0.447  0.00  0.00     0.027 A 
ATOM     35  C   UNL d   1      -1.991   3.764   0.709  0.00  0.00     0.040 A 
ENDBRANCH   6  31
BRANCH   9  36
ATOM     36  C   UNL d   1      -3.178  -1.574  -0.169  0.00  0.00    -0.009 A 
ATOM     37  C   UNL d   1      -3.203  -2.833   0.456  0.00  0.00     0.013 A 
ATOM     38  C   UNL d   1      -4.337  -3.653   0.404  0.00  0.00     0.001 A 
ATOM     39  C   UNL d   1      -5.475  -3.229  -0.278  0.00  0.00     0.000 A 
ATOM     40  C   UNL d   1      -5.476  -1.991  -0.908  0.00  0.00     0.001 A 
ATOM     41  C   UNL d   1      -4.344  -1.174  -0.855  0.00  0.00     0.013 A 
ENDBRANCH   9  36
TORSDOF 7
