REMARK  3 active torsions:
REMARK  status: ('A' for Active; 'I' for Inactive)
REMARK    1  A    between atoms: N_2  and  C_1 
REMARK    2  A    between atoms: N_3  and  C_1 
REMARK    3  A    between atoms: C_4  and  N_2 
ROOT
ATOM      1  N   UNL d   1       0.684  -0.363   1.022  0.00  0.00    -0.331 N 
ATOM      2  H   UNL d   1      -0.186  -0.881   0.946  0.00  0.00     0.168 HD
ENDROOT
BRANCH   1   3
ATOM      3  C   UNL d   1       1.239  -0.021  -0.204  0.00  0.00     0.174 C 
ATOM      4  S   UNL d   1       2.849  -0.312  -0.605  0.00  0.00    -0.041 SA
BRANCH   3   5
ATOM      5  N   UNL d   1       0.277   0.493  -1.097  0.00  0.00    -0.358 N 
ATOM      6  C   UNL d   1      -0.863   1.282  -0.603  0.00  0.00     0.125 C 
ATOM      7  C   UNL d   1      -2.125   1.006  -1.413  0.00  0.00     0.020 C 
ATOM      8  C   UNL d   1      -1.884   1.206  -2.906  0.00  0.00     0.003 C 
ATOM      9  C   UNL d   1      -0.673   0.405  -3.373  0.00  0.00     0.020 C 
ATOM     10  C   UNL d   1       0.561   0.703  -2.526  0.00  0.00     0.125 C 
ENDBRANCH   3   5
ENDBRANCH   1   3
BRANCH   1  11
ATOM     11  C   UNL d   1       1.291  -0.390   2.292  0.00  0.00     0.073 A 
ATOM     12  C   UNL d   1       0.756  -1.239   3.268  0.00  0.00     0.143 A 
ATOM     13  F   UNL d   1      -0.277  -2.038   2.960  0.00  0.00    -0.204 F 
ATOM     14  C   UNL d   1       1.287  -1.286   4.554  0.00  0.00     0.044 A 
ATOM     15  C   UNL d   1       2.348  -0.448   4.890  0.00  0.00     0.003 A 
ATOM     16  C   UNL d   1       2.869   0.429   3.940  0.00  0.00     0.002 A 
ATOM     17  C   UNL d   1       2.341   0.461   2.645  0.00  0.00     0.033 A 
ENDBRANCH   1  11
TORSDOF 3
