REMARK  7 active torsions:
REMARK  status: ('A' for Active; 'I' for Inactive)
REMARK    1  A    between atoms: C_9  and  C_1 
REMARK    2  A    between atoms: C_8  and  C_2 
REMARK    3  A    between atoms: C_3  and  C_8 
REMARK    4  A    between atoms: C_13  and  C_5 
REMARK    5  A    between atoms: N_11  and  C_7 
REMARK    6  A    between atoms: S_15  and  C_7 
REMARK    7  A    between atoms: C_19  and  N_11 
ROOT
ATOM      1  C   UNL d   1      -1.638  -3.188  -0.017  0.00  0.00     0.129 C 
ATOM      2  C   UNL d   1      -2.009  -4.434   0.405  0.00  0.00     0.095 C 
ATOM      3  C   UNL d   1      -2.602  -2.367  -0.687  0.00  0.00     0.106 C 
ATOM      4  N   UNL d   1      -3.351  -1.681  -1.243  0.00  0.00    -0.191 NA
ENDROOT
BRANCH   1   5
ATOM      5  C   UNL d   1      -0.218  -2.646  -0.020  0.00  0.00     0.212 C 
ATOM      6  O   UNL d   1       0.729  -3.430  -0.098  0.00  0.00    -0.285 OA
BRANCH   5   7
ATOM      7  C   UNL d   1       0.077  -1.204  -0.052  0.00  0.00     0.058 A 
ATOM      8  S   UNL d   1      -0.882   0.006   0.654  0.00  0.00    -0.081 SA
ATOM      9  C   UNL d   1       0.201   1.282   0.205  0.00  0.00     0.100 A 
ATOM     10  C   UNL d   1       1.323   0.782  -0.454  0.00  0.00    -0.003 A 
ATOM     11  C   UNL d   1       1.232  -0.649  -0.574  0.00  0.00     0.036 A 
BRANCH   9  12
ATOM     12  C   UNL d   1      -0.165   2.684   0.600  0.00  0.00     0.424 C 
ATOM     13  F   UNL d   1      -1.276   2.752   1.382  0.00  0.00    -0.166 F 
ATOM     14  F   UNL d   1       0.827   3.291   1.301  0.00  0.00    -0.166 F 
ATOM     15  F   UNL d   1      -0.427   3.470  -0.478  0.00  0.00    -0.166 F 
ENDBRANCH   9  12
BRANCH  10  16
ATOM     16  C   UNL d   1       2.478   1.579  -0.913  0.00  0.00    -0.025 A 
ATOM     17  C   UNL d   1       3.772   1.032  -0.828  0.00  0.00     0.012 A 
ATOM     18  C   UNL d   1       4.893   1.735  -1.288  0.00  0.00     0.001 A 
ATOM     19  C   UNL d   1       4.744   3.009  -1.824  0.00  0.00     0.000 A 
ATOM     20  C   UNL d   1       3.473   3.567  -1.921  0.00  0.00     0.001 A 
ATOM     21  C   UNL d   1       2.349   2.849  -1.491  0.00  0.00     0.012 A 
ENDBRANCH  10  16
ENDBRANCH   5   7
ENDBRANCH   1   5
BRANCH   2  22
ATOM     22  N   UNL d   1      -3.298  -4.949   0.222  0.00  0.00    -0.349 N 
ATOM     23  H   UNL d   1      -3.304  -5.969   0.269  0.00  0.00     0.166 HD
BRANCH  22  24
ATOM     24  C   UNL d   1      -4.501  -4.415   0.736  0.00  0.00     0.032 A 
ATOM     25  C   UNL d   1      -5.697  -4.710   0.069  0.00  0.00     0.029 A 
ATOM     26  C   UNL d   1      -6.904  -4.139   0.477  0.00  0.00     0.002 A 
ATOM     27  C   UNL d   1      -6.933  -3.295   1.584  0.00  0.00     0.000 A 
ATOM     28  C   UNL d   1      -5.761  -3.043   2.294  0.00  0.00     0.002 A 
ATOM     29  C   UNL d   1      -4.551  -3.603   1.874  0.00  0.00     0.029 A 
ENDBRANCH  22  24
ENDBRANCH   2  22
BRANCH   2  30
ATOM     30  S   UNL d   1      -0.817  -5.590   1.029  0.00  0.00    -0.115 SA
ATOM     31  C   UNL d   1      -1.435  -5.882   2.698  0.00  0.00     0.097 C 
ENDBRANCH   2  30
TORSDOF 7
