REMARK  4 active torsions:
REMARK  status: ('A' for Active; 'I' for Inactive)
REMARK    1  A    between atoms: N_2  and  C_1 
REMARK    2  A    between atoms: N_5  and  C_1 
REMARK    3  A    between atoms: C_7  and  N_2 
REMARK    4  A    between atoms: C_10  and  N_5 
ROOT
ATOM      1  C   UNL d   1       0.971   0.006   0.089  0.00  0.00     0.176 C 
ATOM      2  S   UNL d   1       2.500  -0.054  -0.576  0.00  0.00    -0.041 SA
ENDROOT
BRANCH   1   3
ATOM      3  N   UNL d   1       0.384  -0.952   0.887  0.00  0.00    -0.333 N 
ATOM      4  H   UNL d   1      -0.559  -1.174   0.591  0.00  0.00     0.168 HD
BRANCH   3   5
ATOM      5  C   UNL d   1       0.979  -1.843   1.797  0.00  0.00     0.037 A 
ATOM      6  C   UNL d   1       0.361  -3.076   1.998  0.00  0.00     0.072 A 
ATOM      7  C   UNL d   1       0.890  -3.970   2.924  0.00  0.00     0.124 A 
ATOM      8  F   UNL d   1       0.304  -5.167   3.070  0.00  0.00    -0.205 F 
ATOM      9  C   UNL d   1       2.007  -3.646   3.695  0.00  0.00    -0.023 A 
ATOM     10  C   UNL d   1       2.595  -2.388   3.521  0.00  0.00     0.012 A 
ATOM     11  C   UNL d   1       2.548  -4.634   4.681  0.00  0.00     0.051 C 
ATOM     12  C   UNL d   1       2.087  -1.493   2.571  0.00  0.00     0.030 A 
ENDBRANCH   3   5
ENDBRANCH   1   3
BRANCH   1  13
ATOM     13  N   UNL d   1       0.105   1.000  -0.316  0.00  0.00    -0.333 N 
ATOM     14  H   UNL d   1       0.351   1.469  -1.183  0.00  0.00     0.168 HD
BRANCH  13  15
ATOM     15  C   UNL d   1      -0.905   1.599   0.465  0.00  0.00     0.034 A 
ATOM     16  C   UNL d   1      -0.871   1.583   1.864  0.00  0.00     0.031 A 
ATOM     17  C   UNL d   1      -1.852   2.245   2.605  0.00  0.00     0.026 A 
ATOM     18  C   UNL d   1      -2.879   2.912   1.948  0.00  0.00     0.034 A 
ATOM     19  C   UNL d   1      -2.924   2.936   0.550  0.00  0.00     0.026 A 
ATOM     20 CL   UNL d   1      -4.088   3.732   2.856  0.00  0.00    -0.084 Cl
ATOM     21  C   UNL d   1      -1.923   2.298  -0.188  0.00  0.00     0.031 A 
ENDBRANCH  13  15
ENDBRANCH   1  13
TORSDOF 4
