REMARK  1 active torsions:
REMARK  status: ('A' for Active; 'I' for Inactive)
REMARK       I    between atoms: N_2  and  C_1 
REMARK    1  A    between atoms: C_3  and  C_1 
ROOT
ATOM      1  C   UNL d   1       0.133  -1.166   0.348  0.00  0.00     0.035 C 
ATOM      2  C   UNL d   1      -1.568  -2.867   0.060  0.00  0.00     0.103 C 
ATOM      3  C   UNL d   1      -0.817  -1.812  -0.443  0.00  0.00     0.056 C 
ATOM      4  C   UNL d   1      -1.241  -3.425   1.300  0.00  0.00     0.102 C 
ATOM      5  O   UNL d   1      -2.600  -3.259  -0.754  0.00  0.00    -0.348 OA
ATOM      6  C   UNL d   1       0.437  -1.698   1.607  0.00  0.00     0.020 C 
ATOM      7  O   UNL d   1      -1.828  -4.545   1.836  0.00  0.00    -0.348 OA
ATOM      8  C   UNL d   1      -0.241  -2.831   2.075  0.00  0.00     0.040 C 
ATOM      9  C   UNL d   1      -3.649  -5.141   0.329  0.00  0.00     0.053 C 
ATOM     10  C   UNL d   1      -3.756  -3.670  -0.023  0.00  0.00     0.178 C 
ATOM     11  C   UNL d   1      -2.262  -5.488   0.850  0.00  0.00     0.178 C 
ENDROOT
BRANCH   1  12
ATOM     12  C   UNL d   1       0.882   0.016  -0.158  0.00  0.00     0.253 C 
ATOM     13  N   UNL d   1       0.256   0.966  -0.973  0.00  0.00    -0.348 N 
ATOM     14  C   UNL d   1       1.083   1.921  -1.703  0.00  0.00     0.126 C 
ATOM     15  C   UNL d   1      -1.180   1.131  -1.217  0.00  0.00     0.126 C 
ATOM     16  C   UNL d   1       0.858   1.751  -3.206  0.00  0.00     0.020 C 
ATOM     17  C   UNL d   1      -0.627   1.847  -3.572  0.00  0.00     0.003 C 
ATOM     18  C   UNL d   1      -1.484   0.925  -2.704  0.00  0.00     0.020 C 
ATOM     19  O   UNL d   1       2.074   0.096   0.157  0.00  0.00    -0.267 OA
ENDBRANCH   1  12
TORSDOF 1
