REMARK  8 active torsions:
REMARK  status: ('A' for Active; 'I' for Inactive)
REMARK    1  A    between atoms: C_6  and  S_1 
REMARK    2  A    between atoms: N_11  and  S_1 
REMARK    3  A    between atoms: C_2  and  C_3 
REMARK       I    between atoms: C_3  and  N_5 
REMARK    4  A    between atoms: N_5  and  C_15 
REMARK    5  A    between atoms: C_24  and  N_11 
REMARK    6  A    between atoms: C_22  and  C_24 
REMARK    7  A    between atoms: C_25  and  C_22 
REMARK    8  A    between atoms: O_23  and  C_25 
ROOT
ATOM      1  C   UNL d   1       0.405   1.363   0.877  0.00  0.00     0.079 A 
ATOM      2  C   UNL d   1      -0.259   1.151   2.086  0.00  0.00     0.027 A 
ATOM      3  C   UNL d   1       0.694   2.659   0.448  0.00  0.00     0.027 A 
ATOM      4  C   UNL d   1      -0.264   3.552   2.494  0.00  0.00     0.035 A 
ATOM      5  C   UNL d   1      -0.598   2.248   2.887  0.00  0.00     0.031 A 
ATOM      6  C   UNL d   1       0.354   3.749   1.256  0.00  0.00     0.031 A 
ENDROOT
BRANCH   4   7
ATOM      7  N   UNL d   1      -0.550   4.594   3.403  0.00  0.00    -0.323 N 
ATOM      8  C   UNL d   1      -0.157   5.916   3.307  0.00  0.00     0.257 C 
ATOM      9  O   UNL d   1       0.466   6.426   2.382  0.00  0.00    -0.267 OA
ATOM     10  H   UNL d   1      -1.006   4.312   4.263  0.00  0.00     0.169 HD
BRANCH   8  11
ATOM     11  C   UNL d   1      -0.590   6.813   4.417  0.00  0.00     0.054 A 
ATOM     12  C   UNL d   1      -0.648   6.452   5.771  0.00  0.00     0.051 A 
ATOM     13  C   UNL d   1      -1.122   7.365   6.721  0.00  0.00     0.048 A 
ATOM     14 CL   UNL d   1      -0.122   4.917   6.366  0.00  0.00    -0.083 Cl
ATOM     15  C   UNL d   1      -1.522   8.640   6.326  0.00  0.00     0.035 A 
ATOM     16  C   UNL d   1      -1.431   9.026   4.993  0.00  0.00     0.025 A 
ATOM     17 CL   UNL d   1      -2.136   9.743   7.493  0.00  0.00    -0.084 Cl
ATOM     18  C   UNL d   1      -0.962   8.118   4.043  0.00  0.00     0.020 A 
ENDBRANCH   8  11
ENDBRANCH   4   7
BRANCH   1  19
ATOM     19  S   UNL d   1       0.999  -0.012  -0.071  0.00  0.00     0.258 S 
ATOM     20  O   UNL d   1       0.605  -1.238   0.588  0.00  0.00    -0.201 OA
ATOM     21  O   UNL d   1       2.379   0.258  -0.411  0.00  0.00    -0.201 OA
BRANCH  19  22
ATOM     22  N   UNL d   1       0.130   0.114  -1.511  0.00  0.00    -0.315 N 
ATOM     23  H   UNL d   1       0.749   0.016  -2.318  0.00  0.00     0.172 HD
BRANCH  22  24
ATOM     24  C   UNL d   1      -1.172  -0.551  -1.553  0.00  0.00     0.134 C 
BRANCH  24  25
ATOM     25  C   UNL d   1      -1.842  -0.337  -2.903  0.00  0.00     0.046 C 
BRANCH  25  26
ATOM     26  C   UNL d   1      -3.183  -1.062  -2.915  0.00  0.00     0.168 C 
BRANCH  26  27
ATOM     27  O   UNL d   1      -3.815  -0.883  -4.178  0.00  0.00    -0.396 OA
ATOM     28  C   UNL d   1      -5.070  -1.555  -4.216  0.00  0.00     0.201 C 
ENDBRANCH  26  27
ENDBRANCH  25  26
ENDBRANCH  24  25
ENDBRANCH  22  24
ENDBRANCH  19  22
ENDBRANCH   1  19
TORSDOF 8
