REMARK  4 active torsions:
REMARK  status: ('A' for Active; 'I' for Inactive)
REMARK    1  A    between atoms: C_6  and  N_1 
REMARK    2  A    between atoms: N_7  and  C_6 
REMARK    3  A    between atoms: C_10  and  N_7 
REMARK    4  A    between atoms: C_14  and  C_11 
ROOT
ATOM      1  N   UNL d   1       1.963   0.601   0.994  0.00  0.00    -0.263 N 
ATOM      2  C   UNL d   1       1.613   0.451   2.308  0.00  0.00     0.263 A 
ATOM      3  C   UNL d   1       0.903   0.998   0.228  0.00  0.00     0.263 A 
ATOM      4  C   UNL d   1       0.229   0.911   2.423  0.00  0.00     0.048 A 
ATOM      5  C   UNL d   1      -0.196   1.260   1.153  0.00  0.00     0.048 A 
ATOM      6  O   UNL d   1       2.261   0.013   3.239  0.00  0.00    -0.267 OA
ATOM      7  O   UNL d   1       0.805   1.113  -0.976  0.00  0.00    -0.267 OA
ATOM      8  C   UNL d   1      -1.456   1.771   0.915  0.00  0.00     0.018 A 
ATOM      9  C   UNL d   1      -0.594   1.032   3.524  0.00  0.00     0.018 A 
ATOM     10  C   UNL d   1      -1.877   1.547   3.309  0.00  0.00     0.001 A 
ATOM     11  C   UNL d   1      -2.302   1.919   2.017  0.00  0.00     0.001 A 
ENDROOT
BRANCH   1  12
ATOM     12  C   UNL d   1       3.246   0.226   0.465  0.00  0.00     0.258 C 
BRANCH  12  13
ATOM     13  N   UNL d   1       3.881   1.429  -0.040  0.00  0.00    -0.373 N 
ATOM     14  H   UNL d   1       3.431   2.267   0.303  0.00  0.00     0.161 HD
BRANCH  13  15
ATOM     15  C   UNL d   1       5.273   1.529  -0.097  0.00  0.00     0.035 A 
ATOM     16  C   UNL d   1       5.898   2.793  -0.193  0.00  0.00    -0.032 A 
ATOM     17  C   UNL d   1       7.305   2.874  -0.238  0.00  0.00     0.009 A 
ATOM     18  C   UNL d   1       8.093   1.728  -0.253  0.00  0.00     0.001 A 
ATOM     19  C   UNL d   1       7.483   0.483  -0.247  0.00  0.00     0.002 A 
ATOM     20  C   UNL d   1       6.090   0.388  -0.186  0.00  0.00     0.029 A 
BRANCH  16  21
ATOM     21  C   UNL d   1       5.134   4.100  -0.238  0.00  0.00     0.036 C 
ATOM     22  C   UNL d   1       4.979   4.729   1.139  0.00  0.00     0.010 C 
ENDBRANCH  16  21
ENDBRANCH  13  15
ENDBRANCH  12  13
ENDBRANCH   1  12
TORSDOF 4
