REMARK  4 active torsions:
REMARK  status: ('A' for Active; 'I' for Inactive)
REMARK    1  A    between atoms: C_2  and  S_1 
REMARK    2  A    between atoms: C_4  and  S_1 
REMARK    3  A    between atoms: C_5  and  C_3 
REMARK    4  A    between atoms: C_8  and  C_5 
ROOT
ATOM      1  C   UNL d   1       0.629   1.017   1.379  0.00  0.00     0.118 C 
ATOM      2  C   UNL d   1       0.773   0.543   2.625  0.00  0.00     0.067 C 
ENDROOT
BRANCH   1   3
ATOM      3  S   UNL d   1       1.149   0.014   0.070  0.00  0.00     0.197 S 
ATOM      4  O   UNL d   1       0.026  -0.798  -0.357  0.00  0.00    -0.218 OA
ATOM      5  O   UNL d   1       2.410  -0.615   0.419  0.00  0.00    -0.218 OA
BRANCH   3   6
ATOM      6  C   UNL d   1       1.493   1.175  -1.234  0.00  0.00     0.063 A 
ATOM      7  C   UNL d   1       2.768   1.746  -1.330  0.00  0.00     0.025 A 
ATOM      8  C   UNL d   1       3.062   2.601  -2.392  0.00  0.00     0.020 A 
ATOM      9  C   UNL d   1       2.089   2.871  -3.355  0.00  0.00     0.011 A 
ATOM     10  C   UNL d   1       0.820   2.297  -3.266  0.00  0.00     0.020 A 
ATOM     11 BR   UNL d   1       2.499   4.013  -4.805  0.00  0.00    -0.051 Br
ATOM     12  C   UNL d   1       0.521   1.439  -2.204  0.00  0.00     0.025 A 
ENDBRANCH   3   6
ENDBRANCH   1   3
BRANCH   2  13
ATOM     13  C   UNL d   1       0.313   1.363   3.771  0.00  0.00     0.182 C 
ATOM     14  O   UNL d   1       0.137   2.571   3.662  0.00  0.00    -0.288 OA
BRANCH  13  15
ATOM     15  C   UNL d   1       0.094   0.677   5.073  0.00  0.00     0.014 A 
ATOM     16  C   UNL d   1       0.281   1.409   6.254  0.00  0.00     0.017 A 
ATOM     17  C   UNL d   1       0.031   0.817   7.496  0.00  0.00     0.025 A 
ATOM     18  C   UNL d   1      -0.417  -0.501   7.558  0.00  0.00     0.034 A 
ATOM     19  C   UNL d   1      -0.608  -1.237   6.389  0.00  0.00     0.025 A 
ATOM     20 CL   UNL d   1      -0.760  -1.219   9.082  0.00  0.00    -0.084 Cl
ATOM     21  C   UNL d   1      -0.353  -0.650   5.144  0.00  0.00     0.017 A 
ENDBRANCH  13  15
ENDBRANCH   2  13
TORSDOF 4
