REMARK  8 active torsions:
REMARK  status: ('A' for Active; 'I' for Inactive)
REMARK    1  A    between atoms: S_9  and  C_2 
REMARK    2  A    between atoms: S_10  and  C_5 
REMARK    3  A    between atoms: C_15  and  S_9 
REMARK    4  A    between atoms: C_16  and  S_10 
REMARK    5  A    between atoms: C_11  and  C_16 
REMARK    6  A    between atoms: C_13  and  C_11 
REMARK    7  A    between atoms: C_12  and  C_15 
REMARK    8  A    between atoms: C_14  and  C_12 
ROOT
ATOM      1  C   UNL d   1      -0.352  -1.163  -0.006  0.00  0.00     0.103 A 
ATOM      2  C   UNL d   1       0.930  -0.651  -0.180  0.00  0.00     0.082 A 
ATOM      3  N   UNL d   1      -0.805   1.139   0.148  0.00  0.00    -0.319 N 
ATOM      4  HN  UNL d   1      -1.348   1.996   0.255  1.00  0.00     0.175 HD
ATOM      5  C   UNL d   1      -1.295  -0.097   0.182  0.00  0.00     0.099 A 
ATOM      6  S   UNL d   1       0.819   1.060  -0.095  0.00  0.00    -0.005 SA
ATOM      7  C   UNL d   1      -0.668  -2.558  -0.019  0.00  0.00     0.104 C 
ATOM      8  N   UNL d   1      -0.913  -3.691  -0.042  0.00  0.00    -0.191 NA
ENDROOT
BRANCH   2   9
ATOM      9  S   UNL d   1       2.436  -1.544  -0.448  0.00  0.00    -0.112 SA
BRANCH   9  10
ATOM     10  C   UNL d   1       3.685  -0.232  -0.577  0.00  0.00     0.164 C 
BRANCH  10  11
ATOM     11  C   UNL d   1       5.078  -0.789  -0.770  0.00  0.00     0.169 C 
ATOM     12  O   UNL d   1       5.798  -1.076   0.186  0.00  0.00    -0.291 OA
BRANCH  11  13
ATOM     13  C   UNL d   1       5.634  -0.911  -2.149  0.00  0.00     0.011 A 
ATOM     14  C   UNL d   1       7.016  -0.743  -2.326  0.00  0.00     0.017 A 
ATOM     15  C   UNL d   1       7.591  -0.894  -3.591  0.00  0.00     0.025 A 
ATOM     16  C   UNL d   1       6.787  -1.226  -4.679  0.00  0.00     0.034 A 
ATOM     17  C   UNL d   1       5.411  -1.382  -4.516  0.00  0.00     0.025 A 
ATOM     18 CL   UNL d   1       7.496  -1.462  -6.228  0.00  0.00    -0.084 Cl
ATOM     19  C   UNL d   1       4.830  -1.219  -3.253  0.00  0.00     0.017 A 
ENDBRANCH  11  13
ENDBRANCH  10  11
ENDBRANCH   9  10
ENDBRANCH   2   9
BRANCH   5  20
ATOM     20  S   UNL d   1      -3.028  -0.313   0.447  0.00  0.00    -0.102 SA
BRANCH  20  21
ATOM     21  C   UNL d   1      -3.586   1.418   0.602  0.00  0.00     0.164 C 
BRANCH  21  22
ATOM     22  C   UNL d   1      -5.072   1.534   0.901  0.00  0.00     0.169 C 
ATOM     23  O   UNL d   1      -5.814   0.568   1.068  0.00  0.00    -0.291 OA
BRANCH  22  24
ATOM     24  C   UNL d   1      -5.668   2.910   0.995  0.00  0.00     0.011 A 
ATOM     25  C   UNL d   1      -4.901   4.080   0.902  0.00  0.00     0.017 A 
ATOM     26  C   UNL d   1      -5.517   5.336   0.977  0.00  0.00     0.025 A 
ATOM     27  C   UNL d   1      -6.898   5.431   1.145  0.00  0.00     0.034 A 
ATOM     28  C   UNL d   1      -7.670   4.278   1.250  0.00  0.00     0.025 A 
ATOM     29 CL   UNL d   1      -7.649   6.976   1.216  0.00  0.00    -0.084 Cl
ATOM     30  C   UNL d   1      -7.057   3.023   1.178  0.00  0.00     0.017 A 
ENDBRANCH  22  24
ENDBRANCH  21  22
ENDBRANCH  20  21
ENDBRANCH   5  20
TORSDOF 8
