REMARK  3 active torsions:
REMARK  status: ('A' for Active; 'I' for Inactive)
REMARK    1  A    between atoms: N_6  and  N_3 
REMARK    2  A    between atoms: C_13  and  N_6 
REMARK    3  A    between atoms: C_7  and  C_8 
ROOT
ATOM      1  N   UNL d   1       2.509   2.058  -1.550  0.00  0.00    -0.301 N 
ATOM      2  H   UNL d   1       3.085   1.234  -1.339  0.00  0.00     0.187 HD
ENDROOT
BRANCH   1   3
ATOM      3  N   UNL d   1       1.315   2.240  -0.934  0.00  0.00    -0.299 N 
ATOM      4  C   UNL d   1       0.753   1.184  -0.422  0.00  0.00     0.093 C 
ATOM      5  C   UNL d   1       1.391  -0.207  -0.392  0.00  0.00     0.265 C 
ATOM      6  C   UNL d   1      -0.643   1.280   0.137  0.00  0.00     0.066 C 
ATOM      7  N   UNL d   1       0.531  -1.277  -0.402  0.00  0.00    -0.356 N 
ATOM      8  O   UNL d   1       2.607  -0.345  -0.393  0.00  0.00    -0.266 OA
ATOM      9  C   UNL d   1      -0.879  -1.184  -0.097  0.00  0.00     0.123 C 
ATOM     10  H   UNL d   1       0.991  -2.173  -0.333  0.00  0.00     0.162 HD
ATOM     11  C   UNL d   1      -1.478   0.162  -0.471  0.00  0.00     0.026 C 
ATOM     12  HN  UNL d   1       0.878   3.160  -0.875  1.00  0.00     0.186 HD
ENDBRANCH   1   3
BRANCH   1  13
ATOM     13  C   UNL d   1       3.218   3.164  -2.041  0.00  0.00     0.048 A 
ATOM     14  C   UNL d   1       2.968   4.468  -1.608  0.00  0.00     0.032 A 
ATOM     15  C   UNL d   1       3.666   5.549  -2.154  0.00  0.00     0.017 A 
ATOM     16  C   UNL d   1       4.603   5.344  -3.174  0.00  0.00     0.009 A 
ATOM     17  C   UNL d   1       4.826   4.049  -3.648  0.00  0.00     0.017 A 
ATOM     18  C   UNL d   1       4.145   2.969  -3.074  0.00  0.00     0.032 A 
BRANCH  16  19
ATOM     19  C   UNL d   1       5.301   6.537  -3.730  0.00  0.00     0.155 C 
ATOM     20  O   UNL d   1       4.779   7.646  -3.624  0.00  0.00    -0.293 OA
ATOM     21  C   UNL d   1       6.653   6.387  -4.377  0.00  0.00     0.096 C 
ENDBRANCH  16  19
ENDBRANCH   1  13
TORSDOF 3
