REMARK  3 active torsions:
REMARK  status: ('A' for Active; 'I' for Inactive)
REMARK    1  A    between atoms: C_2  and  C_1 
REMARK       I    between atoms: N_4  and  C_2 
REMARK    2  A    between atoms: N_7  and  N_4 
REMARK       I    between atoms: C_6  and  N_7 
REMARK    3  A    between atoms: C_8  and  C_6 
ROOT
ATOM      1  N   UNL d   1      -2.877   7.271  -0.145  0.00  0.00    -0.197 NA
ATOM      2  C   UNL d   1      -1.719   7.337  -0.105  0.00  0.00     0.068 C 
ATOM      3  C   UNL d   1      -0.264   7.410  -0.058  0.00  0.00     0.228 C 
ENDROOT
BRANCH   3   4
ATOM      4  C   UNL d   1       0.438   6.073   0.007  0.00  0.00     0.249 C 
ATOM      5  N   UNL d   1      -0.312   4.917   0.012  0.00  0.00    -0.266 N 
ATOM      6  H   UNL d   1      -1.326   4.850  -0.093  0.00  0.00     0.190 HD
ATOM      7  O   UNL d   1       1.672   6.030   0.061  0.00  0.00    -0.271 OA
BRANCH   5   8
ATOM      8  N   UNL d   1       0.382   3.699   0.071  0.00  0.00    -0.263 N 
ATOM      9  C   UNL d   1      -0.308   2.512  -0.026  0.00  0.00     0.271 C 
ATOM     10  O   UNL d   1      -1.535   2.499  -0.130  0.00  0.00    -0.266 OA
ATOM     11  H   UNL d   1       1.399   3.762   0.134  0.00  0.00     0.190 HD
BRANCH   9  12
ATOM     12  C   UNL d   1       0.467   1.224   0.004  0.00  0.00     0.055 A 
ATOM     13  C   UNL d   1       1.866   1.091   0.029  0.00  0.00     0.049 A 
ATOM     14 CL   UNL d   1       2.981   2.413   0.016  0.00  0.00    -0.083 Cl
ATOM     15  C   UNL d   1       2.457  -0.184   0.056  0.00  0.00     0.025 A 
ATOM     16  C   UNL d   1       1.674  -1.335   0.056  0.00  0.00     0.002 A 
ATOM     17  C   UNL d   1       0.289  -1.222   0.029  0.00  0.00     0.001 A 
ATOM     18  C   UNL d   1      -0.306   0.044   0.003  0.00  0.00     0.019 A 
ENDBRANCH   9  12
ENDBRANCH   5   8
ENDBRANCH   3   4
TORSDOF 3
