REMARK  4 active torsions:
REMARK  status: ('A' for Active; 'I' for Inactive)
REMARK    1  A    between atoms: N_7  and  C_1 
REMARK    2  A    between atoms: C_9  and  C_10 
REMARK    3  A    between atoms: O_21  and  C_12 
REMARK    4  A    between atoms: O_22  and  C_16 
ROOT
ATOM      1  C   UNL d   1      -2.051  -0.865   0.173  0.00  0.00     0.149 A 
ATOM      2  N   UNL d   1      -0.986  -1.636   0.112  0.00  0.00    -0.335 N 
ATOM      3  HN  UNL d   1      -1.007  -2.655   0.111  1.00  0.00     0.168 HD
ATOM      4  S   UNL d   1      -1.715   0.827   0.099  0.00  0.00    -0.052 SA
ATOM      5  C   UNL d   1      -0.028   0.504   0.039  0.00  0.00     0.037 A 
ATOM      6  C   UNL d   1       0.165  -0.874   0.048  0.00  0.00     0.051 A 
ATOM      7  C   UNL d   1       1.052   1.402  -0.008  0.00  0.00     0.058 A 
ATOM      8  C   UNL d   1       1.481  -1.373   0.005  0.00  0.00     0.034 A 
ATOM      9  C   UNL d   1       2.355   0.890  -0.036  0.00  0.00     0.069 A 
ATOM     10  C   UNL d   1       2.566  -0.486  -0.034  0.00  0.00     0.039 A 
ENDROOT
BRANCH   1  11
ATOM     11  N   UNL d   1      -3.351  -1.246   0.313  0.00  0.00    -0.346 N 
ATOM     12  C   UNL d   1      -3.544  -2.525   0.385  0.00  0.00     0.104 C 
ATOM     13  HN  UNL d   1      -4.117  -0.574   0.359  1.00  0.00     0.167 HD
BRANCH  12  14
ATOM     14  C   UNL d   1      -4.893  -3.089   0.604  0.00  0.00     0.014 A 
ATOM     15  C   UNL d   1      -6.031  -2.283   0.739  0.00  0.00     0.077 A 
ATOM     16  C   UNL d   1      -7.277  -2.859   0.975  0.00  0.00     0.039 A 
ATOM     17  C   UNL d   1      -7.394  -4.246   1.083  0.00  0.00     0.022 A 
ATOM     18  C   UNL d   1      -6.261  -5.048   0.948  0.00  0.00     0.011 A 
ATOM     19  C   UNL d   1      -5.009  -4.479   0.706  0.00  0.00     0.034 A 
ATOM     20 BR   UNL d   1      -6.419  -6.925   1.107  0.00  0.00    -0.051 Br
BRANCH  15  21
ATOM     21  O   UNL d   1      -5.997  -0.919   0.659  0.00  0.00    -0.360 OA
ATOM     22  H   UNL d   1      -5.064  -0.651   0.512  0.00  0.00     0.217 HD
ENDBRANCH  15  21
ENDBRANCH  12  14
ENDBRANCH   1  11
BRANCH   9  23
ATOM     23  O   UNL d   1       3.335   1.847  -0.063  0.00  0.00    -0.356 OA
ATOM     24  C   UNL d   1       4.682   1.391  -0.056  0.00  0.00     0.210 C 
ENDBRANCH   9  23
TORSDOF 4
