REMARK  5 active torsions:
REMARK  status: ('A' for Active; 'I' for Inactive)
REMARK    1  A    between atoms: C_7  and  N_1 
REMARK    2  A    between atoms: C_6  and  C_2 
REMARK    3  A    between atoms: C_10  and  C_3 
REMARK    4  A    between atoms: C_8  and  C_4 
REMARK    5  A    between atoms: O_25  and  C_19 
ROOT
ATOM      1  N   UNL d   1       0.996  -0.711   0.009  0.00  0.00    -0.309 N 
ATOM      2  C   UNL d   1      -0.330   1.118   0.043  0.00  0.00     0.011 A 
ATOM      3  C   UNL d   1       1.005   0.705   0.037  0.00  0.00     0.062 A 
ATOM      4  C   UNL d   1      -0.338  -1.163  -0.001  0.00  0.00     0.051 A 
ATOM      5  C   UNL d   1      -1.140  -0.035  -0.006  0.00  0.00     0.046 A 
ENDROOT
BRANCH   1   6
ATOM      6  C   UNL d   1       2.160  -1.550  -0.040  0.00  0.00     0.040 A 
ATOM      7  C   UNL d   1       2.249  -2.689   0.773  0.00  0.00     0.033 A 
ATOM      8  C   UNL d   1       3.361  -3.532   0.681  0.00  0.00     0.039 A 
ATOM      9  C   UNL d   1       4.410  -3.225  -0.191  0.00  0.00     0.068 A 
ATOM     10  C   UNL d   1       4.320  -2.089  -0.993  0.00  0.00     0.039 A 
ATOM     11  C   UNL d   1       3.197  -1.259  -0.929  0.00  0.00     0.033 A 
BRANCH   9  12
ATOM     12  O   UNL d   1       5.545  -3.962  -0.369  0.00  0.00    -0.356 OA
ATOM     13  C   UNL d   1       5.844  -4.919   0.640  0.00  0.00     0.210 C 
ENDBRANCH   9  12
ENDBRANCH   1   6
BRANCH   3  14
ATOM     14  C   UNL d   1       2.232   1.534   0.000  0.00  0.00    -0.008 A 
ATOM     15  C   UNL d   1       3.305   1.309   0.872  0.00  0.00     0.014 A 
ATOM     16  C   UNL d   1       4.484   2.054   0.761  0.00  0.00     0.001 A 
ATOM     17  C   UNL d   1       4.580   3.079  -0.176  0.00  0.00     0.000 A 
ATOM     18  C   UNL d   1       3.508   3.346  -1.022  0.00  0.00     0.001 A 
ATOM     19  C   UNL d   1       2.356   2.559  -0.953  0.00  0.00     0.014 A 
ENDBRANCH   3  14
BRANCH   4  20
ATOM     20  C   UNL d   1      -0.814  -2.560  -0.099  0.00  0.00    -0.009 A 
ATOM     21  C   UNL d   1      -1.935  -2.970   0.645  0.00  0.00     0.015 A 
ATOM     22  C   UNL d   1      -2.381  -4.296   0.608  0.00  0.00     0.024 A 
ATOM     23  C   UNL d   1      -1.704  -5.235  -0.163  0.00  0.00     0.034 A 
ATOM     24  C   UNL d   1      -0.614  -4.846  -0.936  0.00  0.00     0.024 A 
ATOM     25 CL   UNL d   1      -2.211  -6.877  -0.163  0.00  0.00    -0.084 Cl
ATOM     26  C   UNL d   1      -0.198  -3.511  -0.928  0.00  0.00     0.015 A 
ENDBRANCH   4  20
BRANCH   2  27
ATOM     27  C   UNL d   1      -0.852   2.533   0.037  0.00  0.00     0.017 C 
ATOM     28  S   UNL d   1      -2.367   2.962  -0.645  0.00  0.00    -0.101 SA
ATOM     29  C   UNL d   1      -2.057   4.633  -0.454  0.00  0.00     0.050 C 
ATOM     30  C   UNL d   1      -0.883   4.860   0.227  0.00  0.00     0.008 C 
ATOM     31  C   UNL d   1      -0.209   3.643   0.545  0.00  0.00     0.020 C 
ENDBRANCH   2  27
TORSDOF 5
