REMARK  6 active torsions:
REMARK  status: ('A' for Active; 'I' for Inactive)
REMARK    1  A    between atoms: C_2  and  S_1 
REMARK    2  A    between atoms: N_3  and  S_1 
REMARK    3  A    between atoms: C_13  and  N_3 
REMARK       I    between atoms: C_6  and  N_11 
REMARK    4  A    between atoms: C_14  and  C_6 
REMARK    5  A    between atoms: C_15  and  C_7 
REMARK    6  A    between atoms: N_11  and  C_15 
ROOT
ATOM      1  C   UNL d   1       1.238  -1.501  -1.096  0.00  0.00     0.120 A 
ATOM      2  S   UNL d   1       0.496  -1.427  -2.636  0.00  0.00    -0.080 SA
ATOM      3  C   UNL d   1       1.446  -2.816  -0.713  0.00  0.00     0.034 A 
ATOM      4  C   UNL d   1       0.281  -3.127  -2.707  0.00  0.00     0.002 A 
ATOM      5  C   UNL d   1       0.876  -3.750  -1.629  0.00  0.00     0.018 A 
ENDROOT
BRANCH   1   6
ATOM      6  S   UNL d   1       1.417   0.032  -0.176  0.00  0.00     0.267 S 
ATOM      7  O   UNL d   1       2.011  -0.407   1.065  0.00  0.00    -0.200 OA
ATOM      8  O   UNL d   1       0.077   0.589  -0.187  0.00  0.00    -0.200 OA
BRANCH   6   9
ATOM      9  N   UNL d   1       2.451   1.163  -0.948  0.00  0.00    -0.306 N 
ATOM     10  C   UNL d   1       1.952   1.649  -2.248  0.00  0.00     0.163 C 
BRANCH   9  11
ATOM     11  C   UNL d   1       3.937   1.107  -0.712  0.00  0.00     0.095 C 
ATOM     12  C   UNL d   1       4.307   1.471   0.742  0.00  0.00     0.026 C 
ATOM     13  C   UNL d   1       3.897   2.897   1.098  0.00  0.00     0.002 C 
ATOM     14  C   UNL d   1       4.573   3.922   0.194  0.00  0.00     0.000 C 
ATOM     15  C   UNL d   1       4.516   3.568  -1.288  0.00  0.00     0.002 C 
ATOM     16  C   UNL d   1       4.749   2.080  -1.598  0.00  0.00     0.026 C 
ENDBRANCH   9  11
ENDBRANCH   6   9
ENDBRANCH   1   6
BRANCH   4  17
ATOM     17  C   UNL d   1      -0.537  -3.743  -3.803  0.00  0.00     0.169 C 
BRANCH  17  18
ATOM     18  N   UNL d   1      -1.928  -3.652  -3.414  0.00  0.00    -0.352 N 
ATOM     19  C   UNL d   1      -2.936  -4.158  -4.207  0.00  0.00     0.251 C 
ATOM     20  O   UNL d   1      -2.732  -4.722  -5.268  0.00  0.00    -0.268 OA
ATOM     21  H   UNL d   1      -2.136  -3.351  -2.471  0.00  0.00     0.163 HD
BRANCH  19  22
ATOM     22  C   UNL d   1      -4.323  -3.995  -3.672  0.00  0.00     0.032 A 
ATOM     23  C   UNL d   1      -4.672  -2.936  -2.824  0.00  0.00     0.017 A 
ATOM     24  C   UNL d   1      -5.977  -2.826  -2.337  0.00  0.00     0.001 A 
ATOM     25  C   UNL d   1      -6.939  -3.767  -2.702  0.00  0.00     0.000 A 
ATOM     26  C   UNL d   1      -6.604  -4.812  -3.563  0.00  0.00     0.001 A 
ATOM     27  C   UNL d   1      -5.299  -4.924  -4.052  0.00  0.00     0.017 A 
ENDBRANCH  19  22
ENDBRANCH  17  18
ENDBRANCH   4  17
TORSDOF 6
