REMARK  1 active torsions:
REMARK  status: ('A' for Active; 'I' for Inactive)
REMARK    1  A    between atoms: C_13  and  N_5 
ROOT
ATOM      1  C   UNL d   1       0.748  -0.825  -0.116  0.00  0.00     0.173 A 
ATOM      2  C   UNL d   1       0.455   0.525  -0.128  0.00  0.00     0.090 A 
ATOM      3  C   UNL d   1       1.945  -1.581   0.124  0.00  0.00     0.285 C 
ATOM      4  C   UNL d   1      -0.978   0.627  -0.215  0.00  0.00     0.051 A 
ATOM      5  N   UNL d   1       2.935  -0.876   0.818  0.00  0.00    -0.303 N 
ATOM      6  C   UNL d   1      -1.440  -0.689  -0.180  0.00  0.00     0.162 A 
ATOM      7  O   UNL d   1      -0.401  -1.550  -0.204  0.00  0.00    -0.285 OA
ATOM      8  N   UNL d   1       1.340   1.579  -0.001  0.00  0.00    -0.322 N 
ATOM      9  N   UNL d   1      -2.706  -1.117  -0.087  0.00  0.00    -0.340 N 
ATOM     10  HN  UNL d   1      -2.958  -2.106  -0.080  1.00  0.00     0.167 HD
ATOM     11  C   UNL d   1      -1.960   1.647  -0.262  0.00  0.00    -0.043 A 
ATOM     12  C   UNL d   1       2.693   1.567   0.155  0.00  0.00     0.240 C 
ATOM     13  C   UNL d   1       3.514   0.275   0.144  0.00  0.00     0.235 C 
ATOM     14  O   UNL d   1       2.043  -2.782  -0.120  0.00  0.00    -0.265 OA
ATOM     15  C   UNL d   1      -3.298   1.222  -0.117  0.00  0.00     0.032 A 
ATOM     16  C   UNL d   1      -3.614  -0.131  -0.004  0.00  0.00     0.008 A 
ATOM     17  O   UNL d   1       3.269   2.661   0.160  0.00  0.00    -0.271 OA
ATOM     18  C   UNL d   1      -1.697   3.120  -0.386  0.00  0.00     0.049 C 
ATOM     19  C   UNL d   1      -5.030  -0.549   0.268  0.00  0.00     0.068 C 
ATOM     20  H   UNL d   1       0.955   2.515  -0.000  0.00  0.00     0.169 HD
ENDROOT
BRANCH   5  21
ATOM     21  C   UNL d   1       3.590  -1.553   1.900  0.00  0.00     0.039 A 
ATOM     22  C   UNL d   1       2.816  -2.394   2.724  0.00  0.00     0.053 A 
ATOM     23  C   UNL d   1       3.383  -3.061   3.808  0.00  0.00     0.036 A 
ATOM     24 CL   UNL d   1       2.398  -4.056   4.809  0.00  0.00    -0.084 Cl
ATOM     25  C   UNL d   1       4.733  -2.914   4.092  0.00  0.00     0.024 A 
ATOM     26  C   UNL d   1       5.515  -2.087   3.289  0.00  0.00     0.004 A 
ATOM     27  C   UNL d   1       4.947  -1.400   2.207  0.00  0.00     0.030 A 
ENDBRANCH   5  21
TORSDOF 1
