REMARK  2 active torsions:
REMARK  status: ('A' for Active; 'I' for Inactive)
REMARK    1  A    between atoms: C_12  and  N_1 
REMARK    2  A    between atoms: C_14  and  C_12 
ROOT
ATOM      1  N   UNL d   1       0.862  -0.709  -0.103  0.00  0.00    -0.303 N 
ATOM      2  C   UNL d   1       0.872   0.662  -0.082  0.00  0.00     0.142 A 
ATOM      3  N   UNL d   1      -0.324   1.192  -0.088  0.00  0.00    -0.282 N 
ATOM      4  HN  UNL d   1      -0.564   2.183  -0.072  1.00  0.00     0.188 HD
ATOM      5  C   UNL d   1      -0.469  -1.056  -0.112  0.00  0.00     0.194 A 
ATOM      6  N   UNL d   1      -1.177   0.132  -0.120  0.00  0.00    -0.274 N 
ATOM      7  C   UNL d   1       2.071   1.470  -0.051  0.00  0.00     0.050 A 
ATOM      8  S   UNL d   1       2.041   2.961   0.811  0.00  0.00    -0.098 SA
ATOM      9  S   UNL d   1      -1.195  -2.546  -0.098  0.00  0.00    -0.039 SA
ATOM     10  C   UNL d   1       3.306   1.279  -0.642  0.00  0.00     0.023 A 
ATOM     11  C   UNL d   1       3.664   3.313   0.415  0.00  0.00     0.050 A 
ATOM     12  C   UNL d   1       4.227   2.334  -0.366  0.00  0.00     0.009 A 
ATOM     13  H   UNL d   1      -2.184   0.246  -0.099  0.00  0.00     0.189 HD
ENDROOT
BRANCH   1  14
ATOM     14  C   UNL d   1       1.981  -1.628   0.030  0.00  0.00     0.160 C 
BRANCH  14  15
ATOM     15  C   UNL d   1       2.548  -2.060  -1.298  0.00  0.00    -0.017 C 
ATOM     16  C   UNL d   1       2.141  -1.721  -2.529  0.00  0.00     0.008 C 
ENDBRANCH  14  15
ENDBRANCH   1  14
TORSDOF 2
