REMARK  5 active torsions:
REMARK  status: ('A' for Active; 'I' for Inactive)
REMARK    1  A    between atoms: C_4  and  C_1 
REMARK       I    between atoms: C_2  and  N_3 
REMARK    2  A    between atoms: C_8  and  C_2 
REMARK    3  A    between atoms: N_3  and  C_16 
REMARK    4  A    between atoms: C_7  and  O_11 
REMARK    5  A    between atoms: O_11  and  C_12 
ROOT
ATOM      1  N   UNL d   1      -0.809  -3.303  -4.559  0.00  0.00    -0.344 N 
ATOM      2  HN  UNL d   1      -0.358  -3.183  -5.466  1.00  0.00     0.167 HD
ATOM      3  C   UNL d   1      -1.297  -2.252  -3.865  0.00  0.00     0.148 A 
ATOM      4  C   UNL d   1      -1.522  -4.764  -2.744  0.00  0.00     0.050 A 
ATOM      5  C   UNL d   1      -0.949  -4.525  -3.992  0.00  0.00     0.119 A 
ATOM      6  C   UNL d   1      -1.877  -2.377  -2.613  0.00  0.00     0.059 A 
ATOM      7  C   UNL d   1      -1.985  -3.651  -2.047  0.00  0.00     0.035 A 
ENDROOT
BRANCH   3   8
ATOM      8  O   UNL d   1      -1.209  -0.960  -4.379  0.00  0.00    -0.294 OA
BRANCH   8   9
ATOM      9  C   UNL d   1      -0.929  -0.802  -5.717  0.00  0.00     0.078 A 
ATOM     10  C   UNL d   1      -1.534  -1.566  -6.719  0.00  0.00     0.053 A 
ATOM     11  C   UNL d   1      -1.188  -1.383  -8.065  0.00  0.00     0.050 A 
ATOM     12  C   UNL d   1      -0.284  -0.364  -8.400  0.00  0.00     0.016 A 
ATOM     13  C   UNL d   1       0.274   0.443  -7.406  0.00  0.00     0.004 A 
ATOM     14  C   UNL d   1      -0.045   0.221  -6.065  0.00  0.00     0.037 A 
BRANCH  11  15
ATOM     15  C   UNL d   1      -1.749  -2.293  -9.127  0.00  0.00     0.417 C 
ATOM     16  F   UNL d   1      -2.597  -3.246  -8.645  0.00  0.00    -0.166 F 
ATOM     17  F   UNL d   1      -0.775  -2.971  -9.797  0.00  0.00    -0.166 F 
ATOM     18  F   UNL d   1      -2.454  -1.617 -10.076  0.00  0.00    -0.166 F 
ENDBRANCH  11  15
ENDBRANCH   8   9
ENDBRANCH   3   8
BRANCH   4  19
ATOM     19  N   UNL d   1      -1.607  -6.098  -2.285  0.00  0.00    -0.322 N 
ATOM     20  C   UNL d   1      -2.131  -6.531  -1.079  0.00  0.00     0.256 C 
ATOM     21  O   UNL d   1      -2.592  -5.821  -0.195  0.00  0.00    -0.267 OA
ATOM     22  H   UNL d   1      -1.308  -6.807  -2.941  0.00  0.00     0.169 HD
BRANCH  20  23
ATOM     23  C   UNL d   1      -2.171  -8.012  -0.891  0.00  0.00     0.032 A 
ATOM     24  C   UNL d   1      -1.211  -8.873  -1.437  0.00  0.00     0.017 A 
ATOM     25  C   UNL d   1      -1.338 -10.257  -1.273  0.00  0.00     0.007 A 
ATOM     26  C   UNL d   1      -2.412 -10.795  -0.551  0.00  0.00    -0.062 A 
ATOM     27  C   UNL d   1      -3.348  -9.929   0.024  0.00  0.00     0.007 A 
ATOM     28  C   UNL d   1      -2.575 -12.283  -0.438  0.00  0.00     0.048 C 
ATOM     29  C   UNL d   1      -3.225  -8.547  -0.139  0.00  0.00     0.017 A 
ENDBRANCH  20  23
ENDBRANCH   4  19
TORSDOF 5
