REMARK  7 active torsions:
REMARK  status: ('A' for Active; 'I' for Inactive)
REMARK    1  A    between atoms: C_2  and  S_1 
REMARK    2  A    between atoms: N_4  and  S_1 
REMARK    3  A    between atoms: N_3  and  C_10 
REMARK    4  A    between atoms: C_19  and  N_4 
REMARK    5  A    between atoms: O_24  and  C_9 
REMARK    6  A    between atoms: O_25  and  C_18 
REMARK    7  A    between atoms: C_20  and  C_19 
ROOT
ATOM      1  N   UNL d   1       2.009  -2.958  -0.340  0.00  0.00    -0.311 N 
ATOM      2  H   UNL d   1       2.785  -3.543  -0.075  0.00  0.00     0.172 HD
ENDROOT
BRANCH   1   3
ATOM      3  S   UNL d   1       2.400  -1.847  -1.526  0.00  0.00     0.261 S 
ATOM      4  O   UNL d   1       3.569  -2.401  -2.176  0.00  0.00    -0.200 OA
ATOM      5  O   UNL d   1       1.214  -1.536  -2.283  0.00  0.00    -0.200 OA
BRANCH   3   6
ATOM      6  C   UNL d   1       2.946  -0.431  -0.595  0.00  0.00     0.115 A 
ATOM      7  C   UNL d   1       4.299  -0.427  -0.206  0.00  0.00     0.065 A 
ATOM      8  C   UNL d   1       4.878   0.727   0.308  0.00  0.00     0.069 A 
ATOM      9  C   UNL d   1       4.085   1.857   0.491  0.00  0.00     0.039 A 
ATOM     10  C   UNL d   1       2.724   1.833   0.179  0.00  0.00     0.041 A 
ATOM     11  C   UNL d   1       2.140   0.696  -0.392  0.00  0.00     0.091 A 
BRANCH   8  12
ATOM     12  O   UNL d   1       6.195   0.889   0.636  0.00  0.00    -0.356 OA
ATOM     13  C   UNL d   1       7.048  -0.233   0.446  0.00  0.00     0.210 C 
ENDBRANCH   8  12
BRANCH  11  14
ATOM     14  O   UNL d   1       0.816   0.628  -0.713  0.00  0.00    -0.354 OA
ATOM     15  C   UNL d   1       0.144   1.867  -0.932  0.00  0.00     0.210 C 
ENDBRANCH  11  14
ENDBRANCH   3   6
ENDBRANCH   1   3
BRANCH   1  16
ATOM     16  C   UNL d   1       0.967  -2.662   0.634  0.00  0.00     0.170 C 
BRANCH  16  17
ATOM     17  C   UNL d   1       0.562  -3.874   1.448  0.00  0.00    -0.040 A 
ATOM     18  C   UNL d   1       1.143  -5.133   1.278  0.00  0.00     0.011 A 
ATOM     19  C   UNL d   1       0.736  -6.227   2.046  0.00  0.00     0.030 A 
ATOM     20  C   UNL d   1      -0.270  -6.128   3.011  0.00  0.00     0.030 A 
ATOM     21  C   UNL d   1      -0.840  -4.856   3.184  0.00  0.00     0.030 A 
ATOM     22  C   UNL d   1      -0.436  -3.749   2.420  0.00  0.00     0.011 A 
BRANCH  20  23
ATOM     23  N   UNL d   1      -0.685  -7.227   3.731  0.00  0.00    -0.378 N 
ATOM     24  C   UNL d   1      -2.067  -7.365   4.216  0.00  0.00     0.153 C 
ATOM     25  C   UNL d   1      -2.672  -8.717   3.761  0.00  0.00     0.291 C 
ATOM     26  N   UNL d   1      -1.827  -9.874   4.130  0.00  0.00     0.087 N 
ATOM     27  C   UNL d   1      -0.491  -9.694   3.519  0.00  0.00     0.291 C 
ATOM     28  C   UNL d   1      -2.436 -11.126   3.697  0.00  0.00     0.310 C 
ATOM     29  C   UNL d   1       0.179  -8.389   4.001  0.00  0.00     0.153 C 
ENDBRANCH  20  23
ENDBRANCH  16  17
ENDBRANCH   1  16
TORSDOF 7
