REMARK  7 active torsions:
REMARK  status: ('A' for Active; 'I' for Inactive)
REMARK    1  A    between atoms: C_2  and  C_1 
REMARK    2  A    between atoms: N_14  and  C_1 
REMARK    3  A    between atoms: O_8  and  N_3 
REMARK    4  A    between atoms: C_5  and  O_8 
REMARK    5  A    between atoms: C_9  and  C_5 
REMARK    6  A    between atoms: S_15  and  C_10 
REMARK    7  A    between atoms: C_20  and  S_15 
ROOT
ATOM      1  C   UNL d   1       0.801   0.036  -0.018  0.00  0.00     0.110 C 
ATOM      2  N   UNL d   1       0.241   1.199  -0.162  0.00  0.00    -0.246 N 
ATOM      3  HN  UNL d   1       0.757   2.073  -0.261  1.00  0.00     0.196 HD
ENDROOT
BRANCH   1   4
ATOM      4  C   UNL d   1       2.291  -0.014  -0.029  0.00  0.00     0.019 A 
ATOM      5  C   UNL d   1       3.039   1.092   0.354  0.00  0.00     0.103 A 
ATOM      6  N   UNL d   1       4.397   1.119   0.377  0.00  0.00    -0.360 N 
ATOM      7  C   UNL d   1       5.045   0.007  -0.035  0.00  0.00     0.069 A 
ATOM      8  HN  UNL d   1       4.907   1.944   0.692  1.00  0.00     0.166 HD
ATOM      9  C   UNL d   1       4.375  -1.137  -0.458  0.00  0.00     0.038 A 
ATOM     10  C   UNL d   1       2.979  -1.152  -0.445  0.00  0.00     0.019 A 
BRANCH   7  11
ATOM     11  S   UNL d   1       6.828   0.030  -0.091  0.00  0.00    -0.113 SA
BRANCH  11  12
ATOM     12  C   UNL d   1       7.179   1.294   1.172  0.00  0.00     0.076 C 
ATOM     13  C   UNL d   1       8.679   1.517   1.272  0.00  0.00     0.016 C 
ENDBRANCH  11  12
ENDBRANCH   7  11
ENDBRANCH   1   4
BRANCH   1  14
ATOM     14  N   UNL d   1       0.101  -1.138   0.148  0.00  0.00    -0.286 NA
ATOM     15  H   UNL d   1       0.535  -1.831   0.749  0.00  0.00     0.125 HD
ATOM     16  H   UNL d   1      -0.872  -0.979   0.388  0.00  0.00     0.125 HD
ENDBRANCH   1  14
BRANCH   2  17
ATOM     17  O   UNL d   1      -1.166   1.109  -0.164  0.00  0.00    -0.198 OA
BRANCH  17  18
ATOM     18  C   UNL d   1      -1.708   2.320  -0.522  0.00  0.00     0.288 C 
ATOM     19  O   UNL d   1      -1.077   3.341  -0.789  0.00  0.00    -0.262 OA
BRANCH  18  20
ATOM     20  C   UNL d   1      -3.243   2.280  -0.513  0.00  0.00     0.039 C 
ATOM     21  C   UNL d   1      -3.819   0.865  -0.353  0.00  0.00     0.025 C 
ATOM     22  C   UNL d   1      -3.720   3.156   0.653  0.00  0.00     0.025 C 
ATOM     23  C   UNL d   1      -3.744   2.865  -1.843  0.00  0.00     0.025 C 
ENDBRANCH  18  20
ENDBRANCH  17  18
ENDBRANCH   2  17
TORSDOF 7
