REMARK  1 active torsions:
REMARK  status: ('A' for Active; 'I' for Inactive)
REMARK    1  A    between atoms: N_6  and  C_1 
ROOT
ATOM      1  C   UNL d   1       0.955  -0.772   0.005  0.00  0.00     0.150 A 
ATOM      2  C   UNL d   1      -0.359  -1.184  -0.124  0.00  0.00     0.107 A 
ATOM      3  N   UNL d   1      -0.357   1.078   0.127  0.00  0.00    -0.307 N 
ATOM      4  HN  UNL d   1      -0.659   2.048   0.223  1.00  0.00     0.186 HD
ATOM      5  N   UNL d   1       0.906   0.598   0.130  0.00  0.00    -0.280 N 
ATOM      6  C   UNL d   1      -1.118  -0.005  -0.029  0.00  0.00     0.134 A 
ATOM      7  C   UNL d   1      -0.885  -2.502  -0.237  0.00  0.00     0.105 C 
ATOM      8  N   UNL d   1      -1.324  -3.575  -0.327  0.00  0.00    -0.191 NA
ATOM      9  C   UNL d   1       1.987   1.557   0.055  0.00  0.00     0.179 C 
ENDROOT
BRANCH   1  10
ATOM     10  N   UNL d   1       2.119  -1.542  -0.001  0.00  0.00    -0.317 N 
ATOM     11  C   UNL d   1       2.300  -2.750  -0.648  0.00  0.00     0.098 A 
ATOM     12  C   UNL d   1       3.584  -3.200  -0.436  0.00  0.00     0.019 A 
ATOM     13  C   UNL d   1       4.217  -2.265   0.404  0.00  0.00     0.019 A 
ATOM     14  C   UNL d   1       3.304  -1.266   0.656  0.00  0.00     0.098 A 
ENDBRANCH   1  10
TORSDOF 1
