REMARK  8 active torsions:
REMARK  status: ('A' for Active; 'I' for Inactive)
REMARK    1  A    between atoms: C_2  and  C_1 
REMARK    2  A    between atoms: C_8  and  C_3 
REMARK    3  A    between atoms: C_11  and  C_5 
REMARK    4  A    between atoms: C_6  and  N_17 
REMARK    5  A    between atoms: N_14  and  C_6 
REMARK    6  A    between atoms: O_26  and  C_8 
REMARK    7  A    between atoms: N_17  and  N_9 
REMARK    8  A    between atoms: C_15  and  N_14 
ROOT
ATOM      1  N   UNL d   1       5.862   2.425  -2.665  0.00  0.00    -0.300 N 
ATOM      2  HN  UNL d   1       6.585   2.845  -3.250  1.00  0.00     0.186 HD
ATOM      3  C   UNL d   1       5.633   2.885  -1.469  0.00  0.00     0.056 C 
ATOM      4  C   UNL d   1       6.557   3.975  -0.977  0.00  0.00     0.072 C 
ENDROOT
BRANCH   1   5
ATOM      5  N   UNL d   1       5.128   1.381  -3.124  0.00  0.00    -0.276 N 
ATOM      6  H   UNL d   1       4.689   0.759  -2.449  0.00  0.00     0.189 HD
BRANCH   5   7
ATOM      7  C   UNL d   1       4.867   1.184  -4.461  0.00  0.00     0.191 C 
ATOM      8  S   UNL d   1       4.799   2.382  -5.625  0.00  0.00    -0.039 SA
BRANCH   7   9
ATOM      9  N   UNL d   1       4.560  -0.109  -4.812  0.00  0.00    -0.331 N 
ATOM     10  H   UNL d   1       4.003  -0.216  -5.657  0.00  0.00     0.168 HD
BRANCH   9  11
ATOM     11  C   UNL d   1       5.143  -1.296  -4.306  0.00  0.00     0.056 A 
ATOM     12  C   UNL d   1       4.548  -2.538  -4.583  0.00  0.00     0.062 A 
ATOM     13  C   UNL d   1       5.117  -3.724  -4.113  0.00  0.00     0.050 A 
ATOM     14 CL   UNL d   1       3.079  -2.640  -5.492  0.00  0.00    -0.082 Cl
ATOM     15  C   UNL d   1       6.311  -3.677  -3.400  0.00  0.00     0.035 A 
ATOM     16  C   UNL d   1       6.946  -2.461  -3.166  0.00  0.00     0.026 A 
ATOM     17 CL   UNL d   1       7.019  -5.129  -2.808  0.00  0.00    -0.084 Cl
ATOM     18  C   UNL d   1       6.360  -1.274  -3.611  0.00  0.00     0.033 A 
ENDBRANCH   9  11
ENDBRANCH   7   9
ENDBRANCH   5   7
ENDBRANCH   1   5
BRANCH   3  19
ATOM     19  C   UNL d   1       4.534   2.515  -0.592  0.00  0.00     0.099 A 
ATOM     20  O   UNL d   1       3.967   1.268  -0.662  0.00  0.00    -0.308 OA
ATOM     21  C   UNL d   1       2.891   1.246   0.187  0.00  0.00     0.088 A 
ATOM     22  C   UNL d   1       2.791   2.469   0.824  0.00  0.00     0.041 A 
ATOM     23  C   UNL d   1       3.865   3.259   0.362  0.00  0.00     0.042 A 
BRANCH  21  24
ATOM     24  C   UNL d   1       1.947   0.097   0.352  0.00  0.00     0.021 A 
ATOM     25  C   UNL d   1       2.273  -1.221   0.084  0.00  0.00     0.093 A 
ATOM     26  S   UNL d   1       0.893  -2.242   0.212  0.00  0.00    -0.095 SA
ATOM     27  C   UNL d   1      -0.096  -0.958   0.749  0.00  0.00     0.051 A 
ATOM     28  C   UNL d   1       0.592   0.233   0.792  0.00  0.00     0.023 A 
BRANCH  25  29
ATOM     29  C   UNL d   1       3.548  -1.845  -0.193  0.00  0.00     0.300 C 
ATOM     30  O   UNL d   1       3.741  -2.816  -0.916  0.00  0.00    -0.259 OA
BRANCH  29  31
ATOM     31  O   UNL d   1       4.517  -1.248   0.562  0.00  0.00    -0.322 OA
ATOM     32  C   UNL d   1       5.804  -1.852   0.471  0.00  0.00     0.213 C 
ENDBRANCH  29  31
ENDBRANCH  25  29
ENDBRANCH  21  24
ENDBRANCH   3  19
TORSDOF 8
