REMARK  5 active torsions:
REMARK  status: ('A' for Active; 'I' for Inactive)
REMARK    1  A    between atoms: C_12  and  N_1 
REMARK    2  A    between atoms: C_4  and  C_2 
REMARK       I    between atoms: N_11  and  C_4 
REMARK    3  A    between atoms: N_7  and  C_6 
REMARK    4  A    between atoms: C_22  and  N_11 
REMARK    5  A    between atoms: C_13  and  C_12 
ROOT
ATOM      1  C   UNL d   1      -1.660   0.802  -1.629  0.00  0.00     0.228 C 
ATOM      2  N   UNL d   1      -1.723  -0.221  -2.554  0.00  0.00    -0.326 N 
ATOM      3  O   UNL d   1      -1.758   0.661  -0.413  0.00  0.00    -0.273 OA
ATOM      4  H   UNL d   1      -1.466  -0.009  -3.512  0.00  0.00     0.169 HD
ENDROOT
BRANCH   2   5
ATOM      5  C   UNL d   1      -2.130  -1.551  -2.318  0.00  0.00     0.050 A 
ATOM      6  C   UNL d   1      -2.621  -2.049  -1.119  0.00  0.00     0.119 A 
ATOM      7  N   UNL d   1      -3.057  -3.328  -0.941  0.00  0.00    -0.350 N 
ATOM      8  C   UNL d   1      -3.019  -4.184  -1.983  0.00  0.00     0.103 A 
ATOM      9  HN  UNL d   1      -3.407  -3.633  -0.033  1.00  0.00     0.166 HD
ATOM     10  C   UNL d   1      -2.514  -3.756  -3.211  0.00  0.00     0.051 A 
ATOM     11  C   UNL d   1      -2.079  -2.440  -3.383  0.00  0.00     0.035 A 
BRANCH   8  12
ATOM     12  N   UNL d   1      -3.391  -5.514  -1.799  0.00  0.00    -0.363 N 
ATOM     13  C   UNL d   1      -4.260  -6.138  -2.813  0.00  0.00     0.150 C 
ATOM     14  C   UNL d   1      -4.210  -7.663  -2.624  0.00  0.00     0.187 C 
ATOM     15  O   UNL d   1      -4.629  -8.043  -1.304  0.00  0.00    -0.388 OA
ATOM     16  C   UNL d   1      -3.789  -7.421  -0.314  0.00  0.00     0.187 C 
ATOM     17  C   UNL d   1      -3.802  -5.885  -0.430  0.00  0.00     0.150 C 
ENDBRANCH   8  12
ENDBRANCH   2   5
BRANCH   1  18
ATOM     18  C   UNL d   1      -1.489   2.200  -2.222  0.00  0.00     0.105 C 
ATOM     19  C   UNL d   1      -0.232   2.346  -3.061  0.00  0.00     0.140 C 
ATOM     20  N   UNL d   1      -0.697   2.135  -4.414  0.00  0.00    -0.345 N 
ATOM     21  C   UNL d   1      -2.070   2.242  -4.533  0.00  0.00     0.221 C 
ATOM     22  C   UNL d   1      -2.639   2.551  -3.170  0.00  0.00     0.118 C 
ATOM     23  O   UNL d   1      -2.724   2.077  -5.548  0.00  0.00    -0.273 OA
BRANCH  20  24
ATOM     24  C   UNL d   1       0.173   1.731  -5.506  0.00  0.00     0.190 C 
BRANCH  24  25
ATOM     25  C   UNL d   1       1.335   2.636  -5.665  0.00  0.00     0.070 A 
ATOM     26  O   UNL d   1       2.552   2.126  -5.314  0.00  0.00    -0.325 OA
ATOM     27  C   UNL d   1       3.484   3.064  -5.620  0.00  0.00     0.142 A 
ATOM     28  C   UNL d   1       2.883   4.182  -6.149  0.00  0.00     0.027 A 
ATOM     29  C   UNL d   1       1.494   3.913  -6.171  0.00  0.00     0.036 A 
ENDBRANCH  24  25
ENDBRANCH  20  24
ENDBRANCH   1  18
TORSDOF 5
