REMARK  0 active torsions:
REMARK  status: ('A' for Active; 'I' for Inactive)
ROOT
ATOM      1  C   UNL d   1      -0.191   0.365  -0.029  0.00  0.00     0.050 A 
ATOM      2  C   UNL d   1       0.526  -0.810  -0.151  0.00  0.00    -0.018 A 
ATOM      3  N   UNL d   1       0.709   1.387   0.095  0.00  0.00    -0.354 N 
ATOM      4  C   UNL d   1       1.908  -0.494  -0.092  0.00  0.00    -0.001 A 
ATOM      5  C   UNL d   1       1.997   0.892   0.063  0.00  0.00     0.043 A 
ATOM      6  C   UNL d   1      -1.649   0.427  -0.009  0.00  0.00    -0.003 A 
ATOM      7  C   UNL d   1      -0.174  -2.115  -0.322  0.00  0.00     0.046 C 
ATOM      8  C   UNL d   1      -2.334  -0.804   0.146  0.00  0.00    -0.045 A 
ATOM      9  C   UNL d   1      -1.548  -2.089   0.382  0.00  0.00     0.044 C 
ATOM     10  C   UNL d   1       3.095  -1.248  -0.153  0.00  0.00     0.014 A 
ATOM     11  C   UNL d   1      -2.371   1.611  -0.166  0.00  0.00     0.014 A 
ATOM     12  C   UNL d   1       3.224   1.560   0.162  0.00  0.00     0.030 A 
ATOM     13  C   UNL d   1      -3.732  -0.820   0.163  0.00  0.00     0.008 A 
ATOM     14  C   UNL d   1      -3.769   1.578  -0.164  0.00  0.00     0.001 A 
ATOM     15  C   UNL d   1       4.329  -0.596  -0.052  0.00  0.00     0.001 A 
ATOM     16  C   UNL d   1       4.389   0.788   0.102  0.00  0.00     0.002 A 
ATOM     17  C   UNL d   1      -4.446   0.368  -0.000  0.00  0.00     0.001 A 
ATOM     18  H   UNL d   1       0.475   2.361   0.215  0.00  0.00     0.166 HD
ENDROOT
TORSDOF 0
