REMARK  5 active torsions:
REMARK  status: ('A' for Active; 'I' for Inactive)
REMARK    1  A    between atoms: C_2  and  C_1 
REMARK       I    between atoms: N_4  and  C_1 
REMARK       I    between atoms: C_3  and  N_7 
REMARK       I    between atoms: N_5  and  C_3 
REMARK    2  A    between atoms: C_15  and  N_4 
REMARK    3  A    between atoms: C_6  and  N_5 
REMARK    4  A    between atoms: N_7  and  C_16 
REMARK    5  A    between atoms: O_18  and  C_8 
ROOT
ATOM      1  C   UNL d   1      -1.226   0.365  -1.262  0.00  0.00     0.035 A 
ATOM      2  C   UNL d   1      -3.997   0.942  -1.228  0.00  0.00     0.036 A 
ATOM      3  C   UNL d   1      -2.040  -0.068  -0.213  0.00  0.00     0.032 A 
ATOM      4  C   UNL d   1      -1.837   0.980  -2.356  0.00  0.00     0.032 A 
ATOM      5  C   UNL d   1      -3.212   1.264  -2.338  0.00  0.00     0.032 A 
ATOM      6  C   UNL d   1      -3.412   0.211  -0.196  0.00  0.00     0.032 A 
ENDROOT
BRANCH   2   7
ATOM      7  N   UNL d   1      -5.337   1.352  -1.052  0.00  0.00    -0.309 N 
ATOM      8  C   UNL d   1      -6.023   2.264  -1.836  0.00  0.00     0.325 C 
ATOM      9  N   UNL d   1      -7.289   2.525  -1.330  0.00  0.00    -0.309 N 
ATOM     10  O   UNL d   1      -5.567   2.781  -2.848  0.00  0.00    -0.247 OA
ATOM     11  H   UNL d   1      -7.447   2.328  -0.353  0.00  0.00     0.170 HD
ATOM     12  H   UNL d   1      -5.805   1.020  -0.224  0.00  0.00     0.170 HD
BRANCH   9  13
ATOM     13  C   UNL d   1      -8.332   3.184  -2.020  0.00  0.00     0.037 A 
ATOM     14  C   UNL d   1      -8.290   3.407  -3.398  0.00  0.00     0.036 A 
ATOM     15  C   UNL d   1      -9.386   3.944  -4.083  0.00  0.00    -0.059 A 
ATOM     16  C   UNL d   1      -9.364   4.011  -5.581  0.00  0.00     0.048 C 
ATOM     17  C   UNL d   1     -10.533   4.287  -3.367  0.00  0.00     0.013 A 
ATOM     18  C   UNL d   1     -10.598   4.081  -1.982  0.00  0.00    -0.059 A 
ATOM     19  C   UNL d   1      -9.491   3.532  -1.314  0.00  0.00     0.036 A 
ATOM     20  C   UNL d   1     -11.885   4.359  -1.263  0.00  0.00     0.048 C 
ENDBRANCH   9  13
ENDBRANCH   2   7
BRANCH   1  21
ATOM     21  N   UNL d   1       0.186   0.227  -1.278  0.00  0.00    -0.323 N 
ATOM     22  C   UNL d   1       0.959  -0.166  -0.197  0.00  0.00     0.259 C 
ATOM     23  O   UNL d   1       0.526  -0.380   0.933  0.00  0.00    -0.267 OA
ATOM     24  H   UNL d   1       0.641   0.546  -2.116  0.00  0.00     0.169 HD
BRANCH  22  25
ATOM     25  C   UNL d   1       2.442  -0.340  -0.382  0.00  0.00     0.065 A 
ATOM     26  C   UNL d   1       3.209  -0.793   0.712  0.00  0.00     0.081 A 
ATOM     27  C   UNL d   1       4.571  -1.047   0.587  0.00  0.00     0.037 A 
ATOM     28  C   UNL d   1       5.203  -0.847  -0.635  0.00  0.00     0.003 A 
ATOM     29  C   UNL d   1       4.473  -0.372  -1.724  0.00  0.00     0.001 A 
ATOM     30  C   UNL d   1       3.097  -0.117  -1.601  0.00  0.00     0.020 A 
BRANCH  26  31
ATOM     31  O   UNL d   1       2.690  -1.031   1.960  0.00  0.00    -0.360 OA
ATOM     32  H   UNL d   1       1.726  -0.834   1.927  0.00  0.00     0.217 HD
ENDBRANCH  26  31
ENDBRANCH  22  25
ENDBRANCH   1  21
TORSDOF 5
