REMARK  2 active torsions:
REMARK  status: ('A' for Active; 'I' for Inactive)
REMARK    1  A    between atoms: C_9  and  C_4 
REMARK    2  A    between atoms: C_8  and  C_7 
ROOT
ATOM      1  N   UNL d   1       1.503   0.373  -0.048  0.00  0.00    -0.337 N 
ATOM      2  HN  UNL d   1       2.331   0.968  -0.056  1.00  0.00     0.167 HD
ATOM      3  N   UNL d   1       0.210  -1.460  -0.059  0.00  0.00    -0.307 N 
ATOM      4  C   UNL d   1       1.456  -0.926  -0.055  0.00  0.00     0.119 A 
ATOM      5  C   UNL d   1       0.178   0.765  -0.026  0.00  0.00     0.103 A 
ATOM      6  C   UNL d   1      -0.693  -0.450  -0.091  0.00  0.00     0.273 A 
ATOM      7  C   UNL d   1      -0.223   2.039   0.061  0.00  0.00     0.048 C 
ATOM      8  O   UNL d   1      -1.899  -0.543  -0.197  0.00  0.00    -0.266 OA
ATOM      9  H   UNL d   1      -0.056  -2.428  -0.144  0.00  0.00     0.170 HD
ENDROOT
BRANCH   7  10
ATOM     10  C   UNL d   1      -1.624   2.466   0.126  0.00  0.00    -0.012 A 
ATOM     11  C   UNL d   1      -2.311   2.626   1.341  0.00  0.00     0.044 A 
ATOM     12 CL   UNL d   1      -1.524   2.421   2.867  0.00  0.00    -0.083 Cl
ATOM     13  C   UNL d   1      -3.666   2.970   1.346  0.00  0.00     0.024 A 
ATOM     14  C   UNL d   1      -4.342   3.172   0.142  0.00  0.00     0.002 A 
ATOM     15  C   UNL d   1      -3.662   3.042  -1.067  0.00  0.00     0.001 A 
ATOM     16  C   UNL d   1      -2.310   2.688  -1.076  0.00  0.00     0.013 A 
ENDBRANCH   7  10
BRANCH   4  17
ATOM     17  C   UNL d   1       2.630  -1.810  -0.076  0.00  0.00     0.008 A 
ATOM     18  C   UNL d   1       3.817  -1.340  -0.648  0.00  0.00     0.015 A 
ATOM     19  C   UNL d   1       4.954  -2.148  -0.654  0.00  0.00     0.001 A 
ATOM     20  C   UNL d   1       4.908  -3.420  -0.083  0.00  0.00     0.000 A 
ATOM     21  C   UNL d   1       3.724  -3.892   0.485  0.00  0.00     0.001 A 
ATOM     22  C   UNL d   1       2.583  -3.090   0.488  0.00  0.00     0.015 A 
ENDBRANCH   4  17
TORSDOF 2
