REMARK  5 active torsions:
REMARK  status: ('A' for Active; 'I' for Inactive)
REMARK    1  A    between atoms: O_15  and  C_1 
REMARK    2  A    between atoms: O_17  and  C_2 
REMARK    3  A    between atoms: O_16  and  C_3 
REMARK       I    between atoms: N_13  and  C_4 
REMARK       I    between atoms: N_14  and  C_4 
REMARK    4  A    between atoms: N_5  and  N_7 
REMARK    5  A    between atoms: C_12  and  C_11 
ROOT
ATOM      1  C   UNL d   1       1.347  -0.374  -0.066  0.00  0.00     0.135 A 
ATOM      2  C   UNL d   1       0.410  -1.427   0.088  0.00  0.00     0.105 A 
ATOM      3  C   UNL d   1       0.890   0.952  -0.176  0.00  0.00     0.105 A 
ATOM      4  C   UNL d   1      -0.490   1.201  -0.201  0.00  0.00     0.052 A 
ATOM      5  C   UNL d   1      -0.960  -1.159   0.004  0.00  0.00     0.052 A 
ATOM      6  C   UNL d   1      -1.406   0.153  -0.131  0.00  0.00    -0.014 A 
ENDROOT
BRANCH   6   7
ATOM      7  C   UNL d   1      -2.858   0.401  -0.158  0.00  0.00     0.118 C 
ATOM      8  N   UNL d   1      -3.353   1.590  -0.296  0.00  0.00    -0.309 N 
ATOM      9  HN  UNL d   1      -2.804   2.441  -0.414  1.00  0.00     0.186 HD
BRANCH   8  10
ATOM     10  N   UNL d   1      -4.754   1.538  -0.262  0.00  0.00    -0.281 N 
ATOM     11  C   UNL d   1      -5.286   2.692  -0.499  0.00  0.00     0.141 C 
ATOM     12  N   UNL d   1      -4.609   3.832  -0.781  0.00  0.00    -0.278 NA
ATOM     13  N   UNL d   1      -6.621   2.911  -0.490  0.00  0.00    -0.278 NA
ATOM     14  H   UNL d   1      -3.620   3.622  -0.644  0.00  0.00     0.126 HD
ATOM     15  H   UNL d   1      -4.891   4.593  -0.175  0.00  0.00     0.126 HD
ATOM     16  H   UNL d   1      -7.130   2.034  -0.501  0.00  0.00     0.126 HD
ATOM     17  H   UNL d   1      -6.909   3.517  -1.249  0.00  0.00     0.126 HD
ATOM     18  HN  UNL d   1      -5.289   0.691  -0.072  1.00  0.00     0.189 HD
ENDBRANCH   8  10
ENDBRANCH   6   7
BRANCH   3  19
ATOM     19  O   UNL d   1       1.609   2.113  -0.261  0.00  0.00    -0.353 OA
ATOM     20  C   UNL d   1       3.026   2.062  -0.244  0.00  0.00     0.210 C 
ENDBRANCH   3  19
BRANCH   2  21
ATOM     21  O   UNL d   1       0.910  -2.684   0.334  0.00  0.00    -0.353 OA
ATOM     22  C   UNL d   1       0.005  -3.646   0.867  0.00  0.00     0.210 C 
ENDBRANCH   2  21
BRANCH   1  23
ATOM     23  O   UNL d   1       2.696  -0.618   0.014  0.00  0.00    -0.351 OA
ATOM     24  C   UNL d   1       3.192  -1.553  -0.946  0.00  0.00     0.210 C 
ENDBRANCH   1  23
TORSDOF 5
