REMARK  6 active torsions:
REMARK  status: ('A' for Active; 'I' for Inactive)
REMARK    1  A    between atoms: N_5  and  C_1 
REMARK    2  A    between atoms: C_9  and  C_2 
REMARK       I    between atoms: C_7  and  N_5 
REMARK    3  A    between atoms: C_12  and  C_6 
REMARK    4  A    between atoms: C_8  and  C_7 
REMARK    5  A    between atoms: O_14  and  C_9 
REMARK    6  A    between atoms: C_20  and  O_14 
ROOT
ATOM      1  C   UNL d   1       0.192   1.442   0.204  0.00  0.00     0.094 C 
ATOM      2  C   UNL d   1       1.489   0.979   0.228  0.00  0.00     0.074 C 
ATOM      3  S   UNL d   1      -0.962   0.204   0.352  0.00  0.00    -0.071 SA
ATOM      4  C   UNL d   1       1.482  -0.467   0.135  0.00  0.00     0.040 C 
ATOM      5  C   UNL d   1       0.215  -1.024   0.148  0.00  0.00     0.018 C 
ENDROOT
BRANCH   1   6
ATOM      6  N   UNL d   1      -0.420   2.669   0.107  0.00  0.00    -0.316 N 
ATOM      7  C   UNL d   1       0.068   3.698  -0.666  0.00  0.00     0.258 C 
ATOM      8  O   UNL d   1       1.099   3.638  -1.332  0.00  0.00    -0.267 OA
ATOM      9  H   UNL d   1      -1.407   2.670   0.334  0.00  0.00     0.169 HD
BRANCH   7  10
ATOM     10  C   UNL d   1      -0.755   4.956  -0.722  0.00  0.00     0.054 A 
ATOM     11  C   UNL d   1      -2.075   5.116  -0.262  0.00  0.00     0.049 A 
ATOM     12 CL   UNL d   1      -3.047   3.850   0.408  0.00  0.00    -0.083 Cl
ATOM     13  C   UNL d   1      -2.711   6.364  -0.357  0.00  0.00     0.025 A 
ATOM     14  C   UNL d   1      -2.056   7.457  -0.917  0.00  0.00     0.002 A 
ATOM     15  C   UNL d   1      -0.759   7.311  -1.394  0.00  0.00     0.001 A 
ATOM     16  C   UNL d   1      -0.117   6.074  -1.297  0.00  0.00     0.019 A 
ENDBRANCH   7  10
ENDBRANCH   1   6
BRANCH   2  17
ATOM     17  C   UNL d   1       2.715   1.764   0.382  0.00  0.00     0.296 C 
ATOM     18  O   UNL d   1       3.824   1.292   0.159  0.00  0.00    -0.259 OA
BRANCH  17  19
ATOM     19  O   UNL d   1       2.512   2.996   0.941  0.00  0.00    -0.318 OA
BRANCH  19  20
ATOM     20  C   UNL d   1       3.697   3.736   1.265  0.00  0.00     0.174 C 
ATOM     21  C   UNL d   1       4.387   4.303   0.034  0.00  0.00     0.034 C 
ENDBRANCH  19  20
ENDBRANCH  17  19
ENDBRANCH   2  17
BRANCH   5  22
ATOM     22  C   UNL d   1      -0.200  -2.434   0.083  0.00  0.00    -0.019 A 
ATOM     23  C   UNL d   1      -1.351  -2.823  -0.625  0.00  0.00     0.013 A 
ATOM     24  C   UNL d   1      -1.761  -4.158  -0.657  0.00  0.00     0.001 A 
ATOM     25  C   UNL d   1      -1.019  -5.129   0.009  0.00  0.00     0.000 A 
ATOM     26  C   UNL d   1       0.135  -4.766   0.699  0.00  0.00     0.001 A 
ATOM     27  C   UNL d   1       0.545  -3.428   0.733  0.00  0.00     0.013 A 
ENDBRANCH   5  22
TORSDOF 6
