REMARK  1 active torsions:
REMARK  status: ('A' for Active; 'I' for Inactive)
REMARK    1  A    between atoms: C_8  and  C_3 
REMARK       I    between atoms: N_13  and  C_8 
ROOT
ATOM      1  N   UNL d   1      -0.094  -0.730   0.010  0.00  0.00    -0.293 N 
ATOM      2  C   UNL d   1       1.141  -1.330   0.008  0.00  0.00     0.266 A 
ATOM      3  C   UNL d   1       2.299  -0.403   0.011  0.00  0.00     0.115 A 
ATOM      4  C   UNL d   1      -0.220   0.627  -0.006  0.00  0.00     0.149 A 
ATOM      5  N   UNL d   1       0.760   1.463  -0.004  0.00  0.00    -0.345 N 
ATOM      6  HN  UNL d   1       0.610   2.472  -0.011  1.00  0.00     0.167 HD
ATOM      7  C   UNL d   1       2.019   0.911   0.007  0.00  0.00     0.113 A 
ATOM      8  S   UNL d   1      -1.882   1.117  -0.037  0.00  0.00    -0.092 SA
ATOM      9  O   UNL d   1       1.290  -2.552  -0.003  0.00  0.00    -0.267 OA
ATOM     10  C   UNL d   1      -1.315  -1.499  -0.025  0.00  0.00     0.145 A 
ATOM     11  C   UNL d   1      -2.519  -0.576   0.025  0.00  0.00     0.103 A 
ENDROOT
BRANCH   3  12
ATOM     12  C   UNL d   1       3.720  -0.833   0.009  0.00  0.00     0.256 C 
ATOM     13  O   UNL d   1       4.657  -0.043   0.004  0.00  0.00    -0.268 OA
ATOM     14  N   UNL d   1       3.945  -2.174   0.008  0.00  0.00    -0.366 N 
ATOM     15  H   UNL d   1       3.185  -2.851   0.004  0.00  0.00     0.159 HD
ATOM     16  H   UNL d   1       4.899  -2.509   0.000  0.00  0.00     0.159 HD
ENDBRANCH   3  12
TORSDOF 1
