REMARK  3 active torsions:
REMARK  status: ('A' for Active; 'I' for Inactive)
REMARK    1  A    between atoms: C_10  and  N_2 
REMARK    2  A    between atoms: C_4  and  C_10 
REMARK    3  A    between atoms: C_16  and  C_9 
ROOT
ATOM      1  C   UNL d   1       2.195  -3.489  -0.042  0.00  0.00     0.022 A 
ATOM      2  N   UNL d   1       2.202  -5.692   0.544  0.00  0.00    -0.260 N 
ATOM      3  HN  UNL d   1       2.362  -6.568   1.041  1.00  0.00     0.195 HD
ATOM      4  C   UNL d   1       2.588  -4.465   0.938  0.00  0.00     0.075 A 
ATOM      5  O   UNL d   1       1.553  -5.539  -0.658  0.00  0.00    -0.242 OA
ATOM      6  C   UNL d   1       1.543  -4.232  -1.007  0.00  0.00     0.083 A 
ATOM      7  C   UNL d   1       0.860  -3.893  -2.271  0.00  0.00     0.079 C 
ENDROOT
BRANCH   1   8
ATOM      8  C   UNL d   1       2.374  -2.014  -0.052  0.00  0.00     0.188 C 
BRANCH   8   9
ATOM      9  N   UNL d   1       1.207  -1.320   0.476  0.00  0.00    -0.233 N 
ATOM     10  S   UNL d   1       1.020   0.280  -0.010  0.00  0.00     0.268 S 
ATOM     11  C   UNL d   1      -0.362   0.532   1.010  0.00  0.00     0.095 A 
ATOM     12  O   UNL d   1       2.124   1.055   0.496  0.00  0.00    -0.200 OA
ATOM     13  O   UNL d   1       0.598   0.301  -1.390  0.00  0.00    -0.200 OA
ATOM     14  C   UNL d   1      -0.592  -0.586   1.798  0.00  0.00     0.056 A 
ATOM     15  C   UNL d   1      -1.183   1.643   1.034  0.00  0.00     0.026 A 
ATOM     16  C   UNL d   1      -1.675  -0.634   2.659  0.00  0.00     0.018 A 
ATOM     17  C   UNL d   1       0.380  -1.667   1.569  0.00  0.00     0.269 C 
ATOM     18  C   UNL d   1      -2.526   0.474   2.701  0.00  0.00     0.001 A 
ATOM     19  C   UNL d   1      -2.280   1.604   1.898  0.00  0.00     0.002 A 
ATOM     20  O   UNL d   1       0.420  -2.684   2.232  0.00  0.00    -0.266 OA
ENDBRANCH   8   9
ENDBRANCH   1   8
BRANCH   4  21
ATOM     21  C   UNL d   1       3.254  -4.285   2.236  0.00  0.00    -0.007 A 
ATOM     22  C   UNL d   1       4.247  -3.317   2.436  0.00  0.00     0.014 A 
ATOM     23  C   UNL d   1       4.813  -3.118   3.699  0.00  0.00     0.001 A 
ATOM     24  C   UNL d   1       4.426  -3.915   4.772  0.00  0.00     0.000 A 
ATOM     25  C   UNL d   1       3.474  -4.913   4.582  0.00  0.00     0.001 A 
ATOM     26  C   UNL d   1       2.889  -5.092   3.326  0.00  0.00     0.014 A 
ENDBRANCH   4  21
TORSDOF 3
