REMARK  7 active torsions:
REMARK  status: ('A' for Active; 'I' for Inactive)
REMARK    1  A    between atoms: C_10  and  N_1 
REMARK    2  A    between atoms: C_9  and  C_2 
REMARK    3  A    between atoms: C_16  and  C_8 
REMARK    4  A    between atoms: C_13  and  C_9 
REMARK    5  A    between atoms: C_14  and  C_9 
REMARK    6  A    between atoms: N_11  and  C_10 
REMARK    7  A    between atoms: N_12  and  C_13 
ROOT
ATOM      1  N   UNL d   1      -0.710   1.344   0.054  0.00  0.00    -0.226 N 
ATOM      2  C   UNL d   1      -0.538  -1.054   0.128  0.00  0.00     0.091 C 
ATOM      3  C   UNL d   1      -1.241   0.196   0.622  0.00  0.00     0.287 C 
ATOM      4  N   UNL d   1       0.672  -0.981  -0.341  0.00  0.00    -0.339 N 
ATOM      5  HN  UNL d   1       1.149  -1.806  -0.703  1.00  0.00     0.167 HD
ATOM      6  N   UNL d   1       0.642   1.375  -0.235  0.00  0.00    -0.278 N 
ATOM      7  HN  UNL d   1       1.127   2.263  -0.371  1.00  0.00     0.189 HD
ATOM      8  C   UNL d   1       1.280   0.246  -0.330  0.00  0.00     0.131 C 
ATOM      9  O   UNL d   1      -2.157   0.110   1.423  0.00  0.00    -0.264 OA
ENDROOT
BRANCH   2  10
ATOM     10  C   UNL d   1      -1.349  -2.348   0.160  0.00  0.00     0.102 C 
BRANCH  10  11
ATOM     11  C   UNL d   1      -2.013  -2.595  -1.244  0.00  0.00     0.288 C 
BRANCH  11  12
ATOM     12  N   UNL d   1      -1.185  -2.739  -2.465  0.00  0.00     0.093 N 
ATOM     13  C   UNL d   1      -0.204  -3.846  -2.446  0.00  0.00     0.298 C 
ATOM     14  C   UNL d   1      -0.819  -5.247  -2.601  0.00  0.00     0.198 C 
ATOM     15  O   UNL d   1      -1.571  -5.343  -3.817  0.00  0.00    -0.388 OA
ATOM     16  C   UNL d   1      -2.606  -4.352  -3.839  0.00  0.00     0.198 C 
ATOM     17  C   UNL d   1      -2.034  -2.929  -3.671  0.00  0.00     0.298 C 
ENDBRANCH  11  12
ENDBRANCH  10  11
BRANCH  10  18
ATOM     18  C   UNL d   1      -0.683  -3.589   0.757  0.00  0.00    -0.046 C 
ATOM     19  C   UNL d   1       0.651  -3.631   1.181  0.00  0.00     0.008 C 
ATOM     20  C   UNL d   1       1.264  -4.845   1.508  0.00  0.00     0.007 C 
ATOM     21  C   UNL d   1       0.547  -6.042   1.456  0.00  0.00    -0.062 C 
ATOM     22  C   UNL d   1      -0.817  -5.995   1.167  0.00  0.00     0.007 C 
ATOM     23  C   UNL d   1       1.255  -7.352   1.623  0.00  0.00     0.048 C 
ATOM     24  C   UNL d   1      -1.428  -4.780   0.850  0.00  0.00     0.008 C 
ENDBRANCH  10  18
ENDBRANCH   2  10
BRANCH   1  25
ATOM     25  C   UNL d   1      -1.341   2.631   0.301  0.00  0.00     0.424 C 
BRANCH  25  26
ATOM     26  N   UNL d   1      -2.605   2.744  -0.437  0.00  0.00     0.111 N 
ATOM     27  C   UNL d   1      -2.441   2.718  -1.905  0.00  0.00     0.300 C 
ATOM     28  C   UNL d   1      -1.891   4.016  -2.522  0.00  0.00     0.198 C 
ATOM     29  O   UNL d   1      -2.638   5.167  -2.104  0.00  0.00    -0.388 OA
ATOM     30  C   UNL d   1      -2.691   5.258  -0.678  0.00  0.00     0.198 C 
ATOM     31  C   UNL d   1      -3.315   3.990  -0.072  0.00  0.00     0.300 C 
ENDBRANCH  25  26
ENDBRANCH   1  25
BRANCH   8  32
ATOM     32  C   UNL d   1       2.780   0.234  -0.350  0.00  0.00     0.009 A 
ATOM     33  C   UNL d   1       3.481  -0.957  -0.559  0.00  0.00     0.015 A 
ATOM     34  C   UNL d   1       4.873  -0.987  -0.407  0.00  0.00     0.001 A 
ATOM     35  C   UNL d   1       5.560   0.173  -0.050  0.00  0.00     0.000 A 
ATOM     36  C   UNL d   1       4.871   1.370   0.135  0.00  0.00     0.001 A 
ATOM     37  C   UNL d   1       3.482   1.402  -0.019  0.00  0.00     0.015 A 
ENDBRANCH   8  32
TORSDOF 7
