REMARK  7 active torsions:
REMARK  status: ('A' for Active; 'I' for Inactive)
REMARK    1  A    between atoms: C_3  and  C_1 
REMARK    2  A    between atoms: C_2  and  C_4 
REMARK       I    between atoms: N_5  and  C_7 
REMARK    3  A    between atoms: C_8  and  N_5 
REMARK    4  A    between atoms: C_7  and  C_21 
REMARK    5  A    between atoms: S_12  and  C_11 
REMARK    6  A    between atoms: C_21  and  S_12 
REMARK    7  A    between atoms: O_22  and  C_13 
ROOT
ATOM      1  C   UNL d   1       0.874  -4.486   1.801  0.00  0.00     0.050 A 
ATOM      2  C   UNL d   1       0.945  -4.478  -0.642  0.00  0.00     0.050 A 
ATOM      3  C   UNL d   1       1.556  -4.729   0.599  0.00  0.00     0.032 A 
ATOM      4  C   UNL d   1      -0.437  -3.986   1.756  0.00  0.00     0.034 A 
ATOM      5  C   UNL d   1      -0.356  -3.962  -0.664  0.00  0.00     0.034 A 
ATOM      6  C   UNL d   1      -1.061  -3.764   0.528  0.00  0.00     0.002 A 
ENDROOT
BRANCH   6   7
ATOM      7  S   UNL d   1      -2.812  -3.447   0.469  0.00  0.00    -0.121 SA
BRANCH   7   8
ATOM      8  C   UNL d   1      -3.287  -5.091  -0.157  0.00  0.00     0.182 C 
BRANCH   8   9
ATOM      9  C   UNL d   1      -4.773  -5.205  -0.418  0.00  0.00     0.231 C 
ATOM     10  N   UNL d   1      -5.294  -6.399   0.058  0.00  0.00    -0.324 N 
ATOM     11  H   UNL d   1      -4.745  -6.944   0.708  0.00  0.00     0.169 HD
ATOM     12  O   UNL d   1      -5.409  -4.337  -1.007  0.00  0.00    -0.272 OA
BRANCH  10  13
ATOM     13  C   UNL d   1      -6.639  -6.793  -0.067  0.00  0.00     0.068 A 
ATOM     14  C   UNL d   1      -7.237  -7.569   0.941  0.00  0.00     0.095 A 
ATOM     15  C   UNL d   1      -8.544  -8.035   0.768  0.00  0.00     0.039 A 
ATOM     16  C   UNL d   1      -9.254  -7.734  -0.396  0.00  0.00     0.003 A 
ATOM     17  C   UNL d   1      -8.662  -6.969  -1.396  0.00  0.00     0.002 A 
ATOM     18  C   UNL d   1      -7.364  -6.493  -1.226  0.00  0.00     0.032 A 
BRANCH  14  19
ATOM     19  O   UNL d   1      -6.619  -7.966   2.100  0.00  0.00    -0.354 OA
ATOM     20  C   UNL d   1      -5.998  -6.926   2.857  0.00  0.00     0.210 C 
ENDBRANCH  14  19
ENDBRANCH  10  13
ENDBRANCH   8   9
ENDBRANCH   7   8
ENDBRANCH   6   7
BRANCH   2  21
ATOM     21  C   UNL d   1       1.629  -4.809  -1.947  0.00  0.00     0.417 C 
ATOM     22  F   UNL d   1       2.773  -5.529  -1.792  0.00  0.00    -0.166 F 
ATOM     23  F   UNL d   1       0.832  -5.553  -2.766  0.00  0.00    -0.166 F 
ATOM     24  F   UNL d   1       1.968  -3.702  -2.659  0.00  0.00    -0.166 F 
ENDBRANCH   2  21
BRANCH   1  25
ATOM     25  C   UNL d   1       1.502  -4.806   3.140  0.00  0.00     0.417 C 
ATOM     26  F   UNL d   1       2.655  -5.527   3.034  0.00  0.00    -0.166 F 
ATOM     27  F   UNL d   1       0.678  -5.552   3.929  0.00  0.00    -0.166 F 
ATOM     28  F   UNL d   1       1.808  -3.702   3.854  0.00  0.00    -0.166 F 
ENDBRANCH   1  25
TORSDOF 7
