REMARK  2 active torsions:
REMARK  status: ('A' for Active; 'I' for Inactive)
REMARK    1  A    between atoms: C_17  and  C_7 
REMARK    2  A    between atoms: O_22  and  C_17 
ROOT
ATOM      1  C   UNL d   1      11.284   5.405  -5.835  0.00  0.00    -0.034 C 
ATOM      2  C   UNL d   1      10.776   1.796  -3.458  0.00  0.00    -0.029 C 
ATOM      3  C   UNL d   1      10.538   5.249  -4.471  0.00  0.00    -0.002 C 
ATOM      4  C   UNL d   1      11.712   2.986  -3.945  0.00  0.00    -0.001 C 
ATOM      5  C   UNL d   1      11.316   4.403  -3.438  0.00  0.00    -0.005 C 
ATOM      6  C   UNL d   1      10.547   1.853  -1.855  0.00  0.00    -0.036 C 
ATOM      7  C   UNL d   1      11.803   6.878  -5.788  0.00  0.00     0.022 C 
ATOM      8  C   UNL d   1      12.434   4.380  -5.977  0.00  0.00     0.010 C 
ATOM      9  C   UNL d   1      12.037   2.994  -5.460  0.00  0.00     0.006 C 
ATOM     10  C   UNL d   1      10.275   6.683  -3.960  0.00  0.00     0.006 C 
ATOM     11  C   UNL d   1      10.670   7.624  -5.082  0.00  0.00     0.008 C 
ATOM     12  C   UNL d   1      11.474   0.444  -3.844  0.00  0.00     0.043 C 
ATOM     13  C   UNL d   1      10.620   4.383  -2.075  0.00  0.00     0.006 C 
ATOM     14  C   UNL d   1      10.867  -0.725  -3.115  0.00  0.00    -0.088 C 
ATOM     15  C   UNL d   1      11.059   3.188  -1.253  0.00  0.00     0.010 C 
ATOM     16  C   UNL d   1      11.335   0.724  -1.123  0.00  0.00     0.014 C 
ATOM     17  C   UNL d   1      10.188  -1.704  -3.736  0.00  0.00     0.014 C 
ATOM     18  C   UNL d   1      11.015  -0.688  -1.620  0.00  0.00     0.034 C 
ATOM     19  C   UNL d   1      10.268   5.191  -6.984  0.00  0.00     0.016 C 
ATOM     20  C   UNL d   1       9.429   1.833  -4.233  0.00  0.00     0.016 C 
ATOM     21  C   UNL d   1       9.055   1.707  -1.440  0.00  0.00     0.016 C 
ENDROOT
BRANCH   7  22
ATOM     22  C   UNL d   1      12.207   7.530  -7.121  0.00  0.00     0.118 C 
ATOM     23  C   UNL d   1      12.651   8.982  -6.957  0.00  0.00     0.040 C 
BRANCH  22  24
ATOM     24  O   UNL d   1      13.285   6.805  -7.706  0.00  0.00    -0.396 OA
ATOM     25  H   UNL d   1      14.038   6.843  -7.092  0.00  0.00     0.210 HD
ENDBRANCH  22  24
ENDBRANCH   7  22
TORSDOF 2
