REMARK  4 active torsions:
REMARK  status: ('A' for Active; 'I' for Inactive)
REMARK    1  A    between atoms: S_4  and  C_1 
REMARK    2  A    between atoms: N_13  and  C_2 
REMARK    3  A    between atoms: C_8  and  N_3 
REMARK    4  A    between atoms: C_14  and  S_4 
ROOT
ATOM      1  C   UNL d   1       0.044  -1.377   0.030  0.00  0.00     0.187 A 
ATOM      2  C   UNL d   1       1.295  -0.826  -0.186  0.00  0.00     0.159 A 
ATOM      3  N   UNL d   1       1.078   0.546  -0.017  0.00  0.00    -0.222 N 
ATOM      4  N   UNL d   1      -0.854  -0.403   0.358  0.00  0.00    -0.270 N 
ATOM      5  HN  UNL d   1      -1.846  -0.540   0.552  1.00  0.00     0.185 HD
ATOM      6  N   UNL d   1      -0.206   0.753   0.382  0.00  0.00    -0.012 NA
ENDROOT
BRANCH   3   7
ATOM      7  C   UNL d   1       1.944   1.652  -0.241  0.00  0.00     0.059 A 
ATOM      8  C   UNL d   1       3.059   1.544  -1.082  0.00  0.00     0.055 A 
ATOM      9  C   UNL d   1       3.868   2.660  -1.312  0.00  0.00     0.037 A 
ATOM     10 CL   UNL d   1       5.219   2.523  -2.369  0.00  0.00    -0.084 Cl
ATOM     11  C   UNL d   1       3.586   3.884  -0.712  0.00  0.00     0.048 A 
ATOM     12  C   UNL d   1       2.475   3.991   0.120  0.00  0.00     0.037 A 
ATOM     13  C   UNL d   1       1.647   2.891   0.351  0.00  0.00     0.055 A 
ATOM     14 CL   UNL d   1       2.120   5.499   0.869  0.00  0.00    -0.084 Cl
ENDBRANCH   3   7
BRANCH   2  15
ATOM     15  N   UNL d   1       2.501  -1.409  -0.453  0.00  0.00    -0.382 N 
ATOM     16  H   UNL d   1       2.538  -2.437  -0.420  0.00  0.00     0.157 HD
ATOM     17  H   UNL d   1       3.355  -1.012  -0.065  0.00  0.00     0.157 HD
ENDBRANCH   2  15
BRANCH   1  18
ATOM     18  S   UNL d   1      -0.400  -3.044   0.004  0.00  0.00     0.199 S 
ATOM     19  O   UNL d   1       0.790  -3.752  -0.439  0.00  0.00    -0.221 OA
ATOM     20  O   UNL d   1      -0.973  -3.281   1.314  0.00  0.00    -0.221 OA
BRANCH  18  21
ATOM     21  C   UNL d   1      -1.680  -3.174  -1.246  0.00  0.00     0.107 C 
ATOM     22  C   UNL d   1      -1.166  -2.804  -2.633  0.00  0.00     0.026 C 
ATOM     23  C   UNL d   1      -2.243  -4.594  -1.256  0.00  0.00     0.026 C 
ENDBRANCH  18  21
ENDBRANCH   1  18
TORSDOF 4
