REMARK  4 active torsions:
REMARK  status: ('A' for Active; 'I' for Inactive)
REMARK    1  A    between atoms: C_2  and  C_1 
REMARK       I    between atoms: C_3  and  N_6 
REMARK    2  A    between atoms: C_15  and  C_3 
REMARK    3  A    between atoms: N_6  and  N_8 
REMARK    4  A    between atoms: N_8  and  C_7 
ROOT
ATOM      1  C   UNL d   1      -0.036  -0.020  -1.428  0.00  0.00     0.063 A 
ATOM      2  N   UNL d   1      -1.183  -0.783  -3.425  0.00  0.00    -0.355 N 
ATOM      3  HN  UNL d   1      -1.900  -1.368  -3.855  1.00  0.00     0.166 HD
ATOM      4  C   UNL d   1      -0.362  -0.015  -4.180  0.00  0.00     0.098 A 
ATOM      5  C   UNL d   1      -1.021  -0.750  -2.078  0.00  0.00     0.105 A 
ATOM      6  C   UNL d   1       0.826   0.735  -2.224  0.00  0.00     0.021 A 
ATOM      7  C   UNL d   1       0.653   0.748  -3.606  0.00  0.00     0.044 A 
ENDROOT
BRANCH   4   8
ATOM      8  N   UNL d   1      -0.453  -0.023  -5.592  0.00  0.00    -0.188 NA
ATOM      9  H   UNL d   1      -0.605   0.921  -5.955  0.00  0.00     0.154 HD
BRANCH   8  10
ATOM     10  N   UNL d   1      -1.412  -0.921  -6.089  0.00  0.00    -0.285 N 
ATOM     11  C   UNL d   1      -1.743  -0.785  -7.427  0.00  0.00     0.235 C 
ATOM     12  O   UNL d   1      -1.512   0.243  -8.064  0.00  0.00    -0.272 OA
ATOM     13  H   UNL d   1      -1.457  -1.809  -5.597  0.00  0.00     0.184 HD
BRANCH  11  14
ATOM     14  C   UNL d   1      -2.380  -2.030  -8.035  0.00  0.00     0.071 C 
ATOM     15  C   UNL d   1      -3.700  -2.376  -7.352  0.00  0.00     0.019 C 
ATOM     16  C   UNL d   1      -2.590  -1.859  -9.540  0.00  0.00     0.019 C 
ENDBRANCH  11  14
ENDBRANCH   8  10
ENDBRANCH   4   8
BRANCH   1  17
ATOM     17  C   UNL d   1       0.109  -0.064   0.060  0.00  0.00     0.418 C 
ATOM     18  F   UNL d   1      -0.896  -0.733   0.689  0.00  0.00    -0.166 F 
ATOM     19  F   UNL d   1       0.136   1.178   0.619  0.00  0.00    -0.166 F 
ATOM     20  F   UNL d   1       1.264  -0.671   0.451  0.00  0.00    -0.166 F 
ENDBRANCH   1  17
TORSDOF 4
