REMARK  10 active torsions:
REMARK  status: ('A' for Active; 'I' for Inactive)
REMARK    1  A    between atoms: C_5  and  C_1 
REMARK    2  A    between atoms: C_6  and  C_1 
REMARK    3  A    between atoms: N_10  and  C_2 
REMARK    4  A    between atoms: C_3  and  C_9 
REMARK    5  A    between atoms: C_4  and  N_10 
REMARK    6  A    between atoms: O_20  and  C_5 
REMARK    7  A    between atoms: O_19  and  C_6 
REMARK    8  A    between atoms: N_8  and  C_7 
REMARK    9  A    between atoms: C_24  and  O_19 
REMARK   10  A    between atoms: C_23  and  O_20 
ROOT
ATOM      1  C   UNL d   1       0.461   2.832   2.505  0.00  0.00     0.059 A 
ATOM      2  C   UNL d   1      -0.702   2.335   3.169  0.00  0.00     0.057 A 
ATOM      3  C   UNL d   1       0.631   4.683   4.103  0.00  0.00     0.050 A 
ATOM      4  C   UNL d   1       1.115   3.976   2.998  0.00  0.00     0.048 A 
ATOM      5  C   UNL d   1      -1.144   3.039   4.305  0.00  0.00     0.032 A 
ATOM      6  C   UNL d   1      -0.499   4.195   4.762  0.00  0.00     0.018 A 
ENDROOT
BRANCH   1   7
ATOM      7  N   UNL d   1       0.959   2.171   1.358  0.00  0.00    -0.363 N 
ATOM      8  H   UNL d   1       0.250   1.613   0.875  0.00  0.00     0.165 HD
BRANCH   7   9
ATOM      9  C   UNL d   1       2.264   2.066   0.929  0.00  0.00     0.112 C 
ATOM     10  C   UNL d   1       2.777   1.321  -0.066  0.00  0.00     0.129 C 
BRANCH  10  11
ATOM     11  C   UNL d   1       4.239   1.302  -0.311  0.00  0.00     0.300 C 
ATOM     12  O   UNL d   1       4.749   1.142  -1.406  0.00  0.00    -0.259 OA
BRANCH  11  13
ATOM     13  O   UNL d   1       4.914   1.417   0.867  0.00  0.00    -0.318 OA
BRANCH  13  14
ATOM     14  C   UNL d   1       6.327   1.170   0.822  0.00  0.00     0.174 C 
ATOM     15  C   UNL d   1       6.579  -0.255   1.275  0.00  0.00     0.034 C 
ENDBRANCH  13  14
ENDBRANCH  11  13
ENDBRANCH  10  11
BRANCH  10  16
ATOM     16  C   UNL d   1       1.879   0.462  -0.864  0.00  0.00     0.300 C 
ATOM     17  O   UNL d   1       0.675   0.639  -0.981  0.00  0.00    -0.259 OA
BRANCH  16  18
ATOM     18  O   UNL d   1       2.561  -0.627  -1.301  0.00  0.00    -0.318 OA
BRANCH  18  19
ATOM     19  C   UNL d   1       1.775  -1.706  -1.822  0.00  0.00     0.174 C 
ATOM     20  C   UNL d   1       1.637  -2.748  -0.727  0.00  0.00     0.034 C 
ENDBRANCH  18  19
ENDBRANCH  16  18
ENDBRANCH  10  16
ENDBRANCH   7   9
ENDBRANCH   1   7
BRANCH   2  21
ATOM     21  N   UNL d   1      -1.418   1.237   2.662  0.00  0.00    -0.379 N 
ATOM     22  C   UNL d   1      -2.847   1.110   2.991  0.00  0.00     0.123 C 
ATOM     23  C   UNL d   1      -3.542   0.316   1.885  0.00  0.00     0.020 C 
ATOM     24  C   UNL d   1      -2.859  -1.026   1.624  0.00  0.00     0.003 C 
ATOM     25  C   UNL d   1      -1.349  -0.863   1.450  0.00  0.00     0.020 C 
ATOM     26  C   UNL d   1      -0.734  -0.065   2.604  0.00  0.00     0.123 C 
ENDBRANCH   2  21
BRANCH   3  27
ATOM     27  C   UNL d   1       1.282   5.967   4.546  0.00  0.00     0.417 C 
ATOM     28  F   UNL d   1       2.421   6.268   3.858  0.00  0.00    -0.166 F 
ATOM     29  F   UNL d   1       0.463   7.044   4.393  0.00  0.00    -0.166 F 
ATOM     30  F   UNL d   1       1.637   5.950   5.860  0.00  0.00    -0.166 F 
ENDBRANCH   3  27
TORSDOF 10
