REMARK  3 active torsions:
REMARK  status: ('A' for Active; 'I' for Inactive)
REMARK    1  A    between atoms: C_10  and  C_5 
REMARK    2  A    between atoms: N_11  and  C_8 
REMARK    3  A    between atoms: O_12  and  C_9 
ROOT
ATOM      1  N   UNL d   1      -0.658  -0.975   0.665  0.00  0.00    -0.322 N 
ATOM      2  HN  UNL d   1      -1.166  -1.734   1.119  1.00  0.00     0.169 HD
ATOM      3  N   UNL d   1      -0.660   0.991  -0.627  0.00  0.00    -0.311 N 
ATOM      4  HN  UNL d   1      -1.149   1.725  -1.139  1.00  0.00     0.170 HD
ATOM      5  C   UNL d   1      -1.292   0.018   0.028  0.00  0.00     0.094 A 
ATOM      6  N   UNL d   1       1.391   0.010   0.065  0.00  0.00    -0.298 N 
ATOM      7  HN  UNL d   1       2.411   0.021   0.072  1.00  0.00     0.172 HD
ATOM      8  C   UNL d   1       0.667  -0.915   0.672  0.00  0.00     0.159 A 
ATOM      9  C   UNL d   1       0.657   0.918  -0.552  0.00  0.00     0.224 A 
ENDROOT
BRANCH   5  10
ATOM     10  C   UNL d   1      -2.820   0.009   0.007  0.00  0.00     0.008 C 
ATOM     11  C   UNL d   1      -3.297  -0.722  -1.258  0.00  0.00     0.022 C 
ATOM     12  C   UNL d   1      -3.382  -0.711   1.249  0.00  0.00     0.022 C 
ATOM     13  C   UNL d   1      -3.374   1.447   0.003  0.00  0.00     0.022 C 
ENDBRANCH   5  10
BRANCH   9  14
ATOM     14  O   UNL d   1       1.369   1.897  -1.173  0.00  0.00    -0.332 OA
ATOM     15  H   UNL d   1       2.266   1.621  -0.927  0.00  0.00     0.221 HD
ENDBRANCH   9  14
BRANCH   8  16
ATOM     16  N   UNL d   1       1.341  -1.911   1.347  0.00  0.00    -0.274 NA
ATOM     17  H   UNL d   1       2.275  -2.032   0.986  0.00  0.00     0.127 HD
ATOM     18  H   UNL d   1       0.762  -2.736   1.432  0.00  0.00     0.127 HD
ENDBRANCH   8  16
TORSDOF 3
