REMARK  3 active torsions:
REMARK  status: ('A' for Active; 'I' for Inactive)
REMARK    1  A    between atoms: C_2  and  C_1 
REMARK       I    between atoms: N_4  and  C_2 
REMARK    2  A    between atoms: C_12  and  N_4 
REMARK    3  A    between atoms: C_5  and  C_7 
REMARK       I    between atoms: N_15  and  C_5 
ROOT
ATOM      1  C   UNL d   1       1.676  -2.817   0.207  0.00  0.00     0.259 C 
ATOM      2  N   UNL d   1       0.566  -3.590   0.492  0.00  0.00    -0.323 N 
ATOM      3  O   UNL d   1       2.826  -3.243   0.148  0.00  0.00    -0.267 OA
ATOM      4  H   UNL d   1      -0.334  -3.132   0.386  0.00  0.00     0.169 HD
ENDROOT
BRANCH   1   5
ATOM      5  C   UNL d   1       1.451  -1.349  -0.037  0.00  0.00     0.068 A 
ATOM      6  C   UNL d   1       0.201  -0.698  -0.013  0.00  0.00     0.117 A 
ATOM      7  C   UNL d   1       0.150   0.707  -0.140  0.00  0.00     0.103 A 
ATOM      8  O   UNL d   1      -0.932  -1.471   0.136  0.00  0.00    -0.347 OA
ATOM      9  O   UNL d   1      -0.976   1.491  -0.064  0.00  0.00    -0.348 OA
ATOM     10  C   UNL d   1       1.316   1.435  -0.394  0.00  0.00     0.040 A 
ATOM     11  C   UNL d   1      -2.021   0.980   0.759  0.00  0.00     0.178 C 
ATOM     12  C   UNL d   1      -2.869  -0.011  -0.016  0.00  0.00     0.053 C 
ATOM     13  C   UNL d   1      -2.008  -1.051  -0.712  0.00  0.00     0.178 C 
ATOM     14  C   UNL d   1       2.543   0.790  -0.480  0.00  0.00     0.004 A 
ATOM     15  C   UNL d   1       2.610  -0.587  -0.290  0.00  0.00     0.020 A 
ENDBRANCH   1   5
BRANCH   2  16
ATOM     16  C   UNL d   1       0.547  -4.918   0.965  0.00  0.00     0.035 A 
ATOM     17  C   UNL d   1       1.691  -5.611   1.369  0.00  0.00     0.030 A 
ATOM     18  C   UNL d   1       1.592  -6.893   1.918  0.00  0.00     0.019 A 
ATOM     19  C   UNL d   1       0.344  -7.500   2.071  0.00  0.00     0.032 A 
ATOM     20  C   UNL d   1      -0.803  -6.834   1.627  0.00  0.00     0.019 A 
ATOM     21  C   UNL d   1      -0.699  -5.546   1.084  0.00  0.00     0.030 A 
BRANCH  19  22
ATOM     22  C   UNL d   1       0.284  -8.837   2.717  0.00  0.00     0.249 C 
ATOM     23  O   UNL d   1       1.236  -9.605   2.709  0.00  0.00    -0.268 OA
ATOM     24  N   UNL d   1      -0.868  -9.154   3.384  0.00  0.00    -0.366 N 
ATOM     25  H   UNL d   1      -1.546  -8.452   3.644  0.00  0.00     0.159 HD
ATOM     26  H   UNL d   1      -0.835  -9.999   3.939  0.00  0.00     0.159 HD
ENDBRANCH  19  22
ENDBRANCH   2  16
TORSDOF 3
