REMARK  8 active torsions:
REMARK  status: ('A' for Active; 'I' for Inactive)
REMARK    1  A    between atoms: N_2  and  S_1 
REMARK    2  A    between atoms: C_3  and  S_1 
REMARK    3  A    between atoms: N_6  and  N_2 
REMARK       I    between atoms: C_8  and  N_6 
REMARK    4  A    between atoms: C_21  and  C_8 
REMARK    5  A    between atoms: O_22  and  C_9 
REMARK    6  A    between atoms: C_12  and  O_15 
REMARK    7  A    between atoms: O_23  and  C_14 
REMARK    8  A    between atoms: O_15  and  C_21 
ROOT
ATOM      1  N   UNL d   1       0.866   1.608   2.416  0.00  0.00    -0.259 N 
ATOM      2  C   UNL d   1       0.641   2.688   3.268  0.00  0.00     0.260 C 
ATOM      3  O   UNL d   1      -0.271   3.502   3.161  0.00  0.00    -0.269 OA
ATOM      4  H   UNL d   1       1.555   0.906   2.670  0.00  0.00     0.190 HD
ENDROOT
BRANCH   1   5
ATOM      5  N   UNL d   1       0.105   1.379   1.167  0.00  0.00    -0.220 N 
ATOM      6  H   UNL d   1       0.331   0.578   0.576  0.00  0.00     0.200 HD
BRANCH   5   7
ATOM      7  S   UNL d   1      -0.956   2.539   0.501  0.00  0.00     0.276 S 
ATOM      8  O   UNL d   1      -0.174   3.711   0.155  0.00  0.00    -0.199 OA
ATOM      9  O   UNL d   1      -2.163   2.596   1.291  0.00  0.00    -0.199 OA
BRANCH   7  10
ATOM     10  C   UNL d   1      -1.437   1.783  -1.054  0.00  0.00     0.084 A 
ATOM     11  C   UNL d   1      -0.808   2.162  -2.248  0.00  0.00     0.065 A 
ATOM     12  C   UNL d   1      -1.314   1.736  -3.491  0.00  0.00     0.102 A 
ATOM     13  C   UNL d   1      -2.467   0.926  -3.519  0.00  0.00     0.101 A 
ATOM     14  C   UNL d   1      -3.070   0.541  -2.311  0.00  0.00     0.041 A 
ATOM     15  C   UNL d   1      -2.567   0.968  -1.083  0.00  0.00     0.028 A 
BRANCH  12  16
ATOM     16  O   UNL d   1      -0.740   2.074  -4.688  0.00  0.00    -0.353 OA
ATOM     17  C   UNL d   1       0.346   2.991  -4.687  0.00  0.00     0.210 C 
ENDBRANCH  12  16
BRANCH  13  18
ATOM     18  O   UNL d   1      -3.143   0.430  -4.605  0.00  0.00    -0.353 OA
ATOM     19  C   UNL d   1      -2.793   0.879  -5.906  0.00  0.00     0.210 C 
ENDBRANCH  13  18
ENDBRANCH   7  10
ENDBRANCH   5   7
ENDBRANCH   1   5
BRANCH   2  20
ATOM     20  C   UNL d   1       1.699   2.840   4.369  0.00  0.00     0.280 C 
BRANCH  20  21
ATOM     21  O   UNL d   1       1.400   2.114   5.559  0.00  0.00    -0.341 OA
BRANCH  21  22
ATOM     22  C   UNL d   1       1.985   2.633   6.687  0.00  0.00     0.076 A 
ATOM     23  C   UNL d   1       1.310   2.507   7.895  0.00  0.00    -0.018 A 
ATOM     24  C   UNL d   1       1.795   3.109   9.071  0.00  0.00    -0.043 A 
ATOM     25  C   UNL d   1       0.050   1.753   8.195  0.00  0.00     0.042 C 
ATOM     26  C   UNL d   1       0.809   2.948  10.193  0.00  0.00     0.040 C 
ATOM     27  C   UNL d   1       3.031   3.744   9.106  0.00  0.00    -0.055 A 
ATOM     28  C   UNL d   1      -0.449   2.517   9.426  0.00  0.00     0.009 C 
ATOM     29  C   UNL d   1       3.736   3.836   7.900  0.00  0.00     0.010 A 
ATOM     30  C   UNL d   1       3.598   4.293  10.378  0.00  0.00     0.049 C 
ATOM     31  C   UNL d   1       3.215   3.298   6.708  0.00  0.00     0.038 A 
ENDBRANCH  21  22
ENDBRANCH  20  21
ENDBRANCH   2  20
TORSDOF 8
