REMARK  4 active torsions:
REMARK  status: ('A' for Active; 'I' for Inactive)
REMARK    1  A    between atoms: C_4  and  C_1 
REMARK    2  A    between atoms: N_6  and  N_2 
REMARK       I    between atoms: N_14  and  C_4 
REMARK    3  A    between atoms: C_8  and  N_6 
REMARK    4  A    between atoms: O_16  and  C_9 
ROOT
ATOM      1  C   UNL d   1       1.161  -0.606   0.398  0.00  0.00     0.196 C 
ATOM      2  N   UNL d   1       0.495   0.106   1.270  0.00  0.00    -0.286 N 
ATOM      3  HN  UNL d   1      -0.485  -0.105   1.455  1.00  0.00     0.188 HD
ATOM      4  C   UNL d   1       2.560  -0.338   0.188  0.00  0.00     0.125 C 
ATOM      5  N   UNL d   1       3.690  -0.073   0.076  0.00  0.00    -0.190 NA
ENDROOT
BRANCH   1   6
ATOM      6  C   UNL d   1       0.427  -1.670  -0.392  0.00  0.00     0.278 C 
ATOM      7  O   UNL d   1       1.026  -2.411  -1.154  0.00  0.00    -0.265 OA
ATOM      8  N   UNL d   1      -0.930  -1.716  -0.207  0.00  0.00    -0.364 N 
ATOM      9  H   UNL d   1      -1.391  -1.057   0.410  0.00  0.00     0.159 HD
ATOM     10  H   UNL d   1      -1.482  -2.378  -0.737  0.00  0.00     0.159 HD
ENDBRANCH   1   6
BRANCH   2  11
ATOM     11  N   UNL d   1       1.108   1.127   1.930  0.00  0.00    -0.297 N 
ATOM     12  H   UNL d   1       2.115   1.152   2.116  0.00  0.00     0.187 HD
BRANCH  11  13
ATOM     13  C   UNL d   1       0.366   1.875   2.870  0.00  0.00     0.081 A 
ATOM     14  C   UNL d   1       0.757   3.175   3.251  0.00  0.00     0.097 A 
ATOM     15  C   UNL d   1      -0.006   3.900   4.177  0.00  0.00     0.063 A 
ATOM     16  C   UNL d   1      -1.163   3.347   4.721  0.00  0.00     0.036 A 
ATOM     17  C   UNL d   1      -1.567   2.069   4.355  0.00  0.00     0.026 A 
ATOM     18 CL   UNL d   1      -2.094   4.243   5.856  0.00  0.00    -0.084 Cl
ATOM     19  C   UNL d   1      -0.816   1.349   3.423  0.00  0.00     0.035 A 
BRANCH  14  20
ATOM     20  O   UNL d   1       1.906   3.814   2.853  0.00  0.00    -0.354 OA
ATOM     21  C   UNL d   1       2.188   3.797   1.457  0.00  0.00     0.210 C 
ENDBRANCH  14  20
ENDBRANCH  11  13
ENDBRANCH   2  11
TORSDOF 4
