REMARK  1 active torsions:
REMARK  status: ('A' for Active; 'I' for Inactive)
REMARK    1  A    between atoms: C_8  and  C_2 
ROOT
ATOM      1  N   UNL d   1      -1.464   1.096  -0.212  0.00  0.00    -0.333 N 
ATOM      2  C   UNL d   1      -0.792   2.404  -0.069  0.00  0.00     0.217 C 
ATOM      3  C   UNL d   1      -0.765  -0.089  -0.338  0.00  0.00     0.048 C 
ATOM      4  N   UNL d   1       0.681   2.351   0.083  0.00  0.00    -0.265 NA
ATOM      5  C   UNL d   1       0.694  -0.085  -0.303  0.00  0.00     0.012 A 
ATOM      6  C   UNL d   1       1.361   1.147  -0.147  0.00  0.00     0.022 A 
ATOM      7  C   UNL d   1      -2.792   0.811   0.004  0.00  0.00     0.093 C 
ATOM      8  C   UNL d   1      -1.702  -1.103  -0.431  0.00  0.00     0.032 C 
ATOM      9  C   UNL d   1      -2.979  -0.534  -0.218  0.00  0.00     0.020 C 
ATOM     10  C   UNL d   1       1.428  -1.278  -0.374  0.00  0.00     0.015 A 
ATOM     11  C   UNL d   1       2.761   1.143  -0.058  0.00  0.00     0.024 A 
ATOM     12  C   UNL d   1       2.819  -1.260  -0.282  0.00  0.00     0.001 A 
ATOM     13  C   UNL d   1       3.486  -0.048  -0.127  0.00  0.00     0.002 A 
ATOM     14  H   UNL d   1       1.110   3.151  -0.386  0.00  0.00     0.130 HD
ENDROOT
BRANCH   2  15
ATOM     15  C   UNL d   1      -1.165   3.467  -1.132  0.00  0.00     0.048 A 
ATOM     16  N   UNL d   1      -0.230   4.449  -1.352  0.00  0.00    -0.356 N 
ATOM     17  C   UNL d   1      -0.549   5.525  -2.100  0.00  0.00     0.042 A 
ATOM     18  HN  UNL d   1       0.704   4.365  -0.950  1.00  0.00     0.166 HD
ATOM     19  C   UNL d   1       0.388   6.528  -2.309  0.00  0.00     0.030 A 
ATOM     20  C   UNL d   1      -1.825   5.691  -2.666  0.00  0.00    -0.009 A 
ATOM     21  C   UNL d   1       0.086   7.684  -3.035  0.00  0.00     0.002 A 
ATOM     22  C   UNL d   1      -1.186   7.851  -3.575  0.00  0.00     0.001 A 
ATOM     23  C   UNL d   1      -2.141   6.854  -3.396  0.00  0.00     0.013 A 
ATOM     24  C   UNL d   1      -2.760   4.675  -2.473  0.00  0.00     0.016 A 
ATOM     25  C   UNL d   1      -2.430   3.559  -1.706  0.00  0.00     0.029 A 
ENDBRANCH   2  15
TORSDOF 1
