REMARK  5 active torsions:
REMARK  status: ('A' for Active; 'I' for Inactive)
REMARK    1  A    between atoms: C_6  and  C_1 
REMARK    2  A    between atoms: O_10  and  C_2 
REMARK    3  A    between atoms: O_11  and  C_3 
REMARK    4  A    between atoms: O_12  and  C_6 
REMARK    5  A    between atoms: C_14  and  O_12 
ROOT
ATOM      1  C   UNL d   1      -0.694   1.267  -0.041  0.00  0.00     0.123 A 
ATOM      2  C   UNL d   1      -1.331   0.028  -0.062  0.00  0.00     0.159 A 
ATOM      3  C   UNL d   1       0.705   1.255  -0.044  0.00  0.00     0.088 A 
ATOM      4  N   UNL d   1      -0.673  -1.149  -0.072  0.00  0.00    -0.340 N 
ATOM      5  HN  UNL d   1      -1.183  -2.032  -0.092  1.00  0.00     0.167 HD
ATOM      6  C   UNL d   1       1.403   0.052  -0.051  0.00  0.00     0.062 A 
ATOM      7  C   UNL d   1       0.681  -1.130  -0.055  0.00  0.00     0.010 A 
ATOM      8  C   UNL d   1       1.370  -2.459  -0.019  0.00  0.00     0.068 C 
ENDROOT
BRANCH   1   9
ATOM      9  C   UNL d   1      -1.395   2.563   0.061  0.00  0.00     0.300 C 
ATOM     10  O   UNL d   1      -0.794   3.626   0.110  0.00  0.00    -0.259 OA
BRANCH   9  11
ATOM     11  O   UNL d   1      -2.733   2.394   0.195  0.00  0.00    -0.318 OA
BRANCH  11  12
ATOM     12  C   UNL d   1      -3.451   3.535   0.696  0.00  0.00     0.174 C 
ATOM     13  C   UNL d   1      -3.477   3.442   2.211  0.00  0.00     0.034 C 
ENDBRANCH  11  12
ENDBRANCH   9  11
ENDBRANCH   1   9
BRANCH   2  14
ATOM     14  O   UNL d   1      -2.685  -0.138  -0.066  0.00  0.00    -0.345 OA
ATOM     15  H   UNL d   1      -3.104   0.739  -0.023  0.00  0.00     0.219 HD
ENDBRANCH   2  14
BRANCH   3  16
ATOM     16  O   UNL d   1       1.480   2.387  -0.022  0.00  0.00    -0.359 OA
ATOM     17  H   UNL d   1       0.898   3.179   0.012  0.00  0.00     0.217 HD
ENDBRANCH   3  16
TORSDOF 5
