REMARK  6 active torsions:
REMARK  status: ('A' for Active; 'I' for Inactive)
REMARK    1  A    between atoms: C_14  and  N_2 
REMARK    2  A    between atoms: C_11  and  C_4 
REMARK    3  A    between atoms: C_15  and  N_5 
REMARK       I    between atoms: N_13  and  C_11 
REMARK    4  A    between atoms: C_18  and  C_12 
REMARK    5  A    between atoms: C_19  and  N_13 
REMARK    6  A    between atoms: O_25  and  C_20 
ROOT
ATOM      1  C   UNL d   1       0.059  -0.192  -0.347  0.00  0.00     0.247 C 
ATOM      2  N   UNL d   1       1.193  -1.034  -0.662  0.00  0.00    -0.265 N 
ATOM      3  S   UNL d   1      -0.640  -0.592   1.314  0.00  0.00    -0.037 SA
ATOM      4  C   UNL d   1      -2.170  -0.078   0.690  0.00  0.00     0.158 C 
ATOM      5  N   UNL d   1      -1.134  -0.189  -1.231  0.00  0.00    -0.241 N 
ATOM      6  N   UNL d   1      -2.341   0.082  -0.579  0.00  0.00    -0.283 N 
ATOM      7  HN  UNL d   1      -3.212   0.361  -1.031  1.00  0.00     0.188 HD
ATOM      8  S   UNL d   1       0.740   1.522  -0.160  0.00  0.00    -0.056 SA
ATOM      9  C   UNL d   1       2.398  -0.572  -0.106  0.00  0.00     0.268 C 
ATOM     10  C   UNL d   1       2.324   0.904   0.148  0.00  0.00     0.074 C 
ATOM     11  C   UNL d   1       3.336   1.712   0.496  0.00  0.00     0.035 C 
ATOM     12  O   UNL d   1       3.376  -1.251   0.148  0.00  0.00    -0.266 OA
ENDROOT
BRANCH   2  13
ATOM     13  C   UNL d   1       1.159  -2.327  -1.255  0.00  0.00     0.041 A 
ATOM     14  C   UNL d   1       0.135  -3.251  -1.043  0.00  0.00     0.030 A 
ATOM     15  C   UNL d   1       0.166  -4.502  -1.680  0.00  0.00     0.002 A 
ATOM     16  C   UNL d   1       1.190  -4.827  -2.568  0.00  0.00     0.000 A 
ATOM     17  C   UNL d   1       2.226  -3.925  -2.778  0.00  0.00     0.002 A 
ATOM     18  C   UNL d   1       2.220  -2.700  -2.107  0.00  0.00     0.030 A 
ENDBRANCH   2  13
BRANCH   5  19
ATOM     19  C   UNL d   1      -1.188  -0.190  -2.623  0.00  0.00     0.055 A 
ATOM     20  C   UNL d   1      -2.304  -0.777  -3.254  0.00  0.00     0.031 A 
ATOM     21  C   UNL d   1      -2.410  -0.884  -4.643  0.00  0.00     0.002 A 
ATOM     22  C   UNL d   1      -1.413  -0.353  -5.448  0.00  0.00     0.000 A 
ATOM     23  C   UNL d   1      -0.332   0.297  -4.858  0.00  0.00     0.002 A 
ATOM     24  C   UNL d   1      -0.213   0.365  -3.459  0.00  0.00     0.031 A 
ENDBRANCH   5  19
BRANCH   4  25
ATOM     25  C   UNL d   1      -3.139   0.161   1.813  0.00  0.00     0.281 C 
ATOM     26  N   UNL d   1      -4.002   1.235   1.633  0.00  0.00    -0.321 N 
ATOM     27  H   UNL d   1      -4.065   1.628   0.699  0.00  0.00     0.169 HD
ATOM     28  O   UNL d   1      -3.135  -0.617   2.762  0.00  0.00    -0.265 OA
BRANCH  26  29
ATOM     29  C   UNL d   1      -4.962   1.648   2.592  0.00  0.00     0.035 A 
ATOM     30  C   UNL d   1      -4.879   1.290   3.945  0.00  0.00     0.029 A 
ATOM     31  C   UNL d   1      -5.901   1.615   4.842  0.00  0.00     0.002 A 
ATOM     32  C   UNL d   1      -7.008   2.331   4.402  0.00  0.00     0.000 A 
ATOM     33  C   UNL d   1      -7.069   2.757   3.076  0.00  0.00     0.002 A 
ATOM     34  C   UNL d   1      -6.046   2.429   2.177  0.00  0.00     0.029 A 
ENDBRANCH  26  29
ENDBRANCH   4  25
BRANCH  11  35
ATOM     35  C   UNL d   1       4.728   1.291   0.668  0.00  0.00    -0.035 A 
ATOM     36  C   UNL d   1       5.583   1.248  -0.439  0.00  0.00     0.014 A 
ATOM     37  C   UNL d   1       6.909   0.831  -0.291  0.00  0.00     0.037 A 
ATOM     38  C   UNL d   1       7.386   0.453   0.964  0.00  0.00     0.068 A 
ATOM     39  C   UNL d   1       6.542   0.526   2.073  0.00  0.00     0.037 A 
ATOM     40  C   UNL d   1       5.213   0.933   1.928  0.00  0.00     0.014 A 
BRANCH  38  41
ATOM     41  O   UNL d   1       8.664   0.039   1.222  0.00  0.00    -0.356 OA
ATOM     42  C   UNL d   1       9.299  -0.659   0.156  0.00  0.00     0.210 C 
ENDBRANCH  38  41
ENDBRANCH  11  35
TORSDOF 6
