REMARK  4 active torsions:
REMARK  status: ('A' for Active; 'I' for Inactive)
REMARK    1  A    between atoms: C_7  and  C_1 
REMARK    2  A    between atoms: C_8  and  C_3 
REMARK    3  A    between atoms: O_13  and  C_7 
REMARK    4  A    between atoms: C_18  and  O_13 
ROOT
ATOM      1  C   UNL d   1       1.429   0.978   0.044  0.00  0.00     0.066 C 
ATOM      2  C   UNL d   1       1.314  -0.369   0.068  0.00  0.00     0.024 C 
ATOM      3  C   UNL d   1       0.208   1.869  -0.050  0.00  0.00     0.162 C 
ATOM      4  C   UNL d   1      -1.123  -0.221   0.082  0.00  0.00     0.321 C 
ATOM      5  N   UNL d   1       0.047  -0.913   0.047  0.00  0.00    -0.312 N 
ATOM      6  N   UNL d   1      -1.017   1.123   0.186  0.00  0.00    -0.330 N 
ATOM      7  O   UNL d   1      -2.209  -0.782   0.049  0.00  0.00    -0.247 OA
ATOM      8  C   UNL d   1       2.395  -1.419   0.036  0.00  0.00     0.069 C 
ATOM      9  H   UNL d   1      -0.071  -1.919   0.000  0.00  0.00     0.170 HD
ATOM     10  H   UNL d   1      -1.898   1.615   0.165  0.00  0.00     0.165 HD
ENDROOT
BRANCH   3  11
ATOM     11  C   UNL d   1       0.208   3.077   0.863  0.00  0.00    -0.015 A 
ATOM     12  C   UNL d   1       0.057   4.357   0.331  0.00  0.00     0.097 A 
ATOM     13  N   UNL d   1       0.016   5.492   1.068  0.00  0.00    -0.375 N 
ATOM     14  C   UNL d   1       0.143   5.351   2.404  0.00  0.00     0.087 A 
ATOM     15  HN  UNL d   1      -0.106   6.407   0.635  1.00  0.00     0.164 HD
ATOM     16  C   UNL d   1       0.296   4.129   3.036  0.00  0.00     0.018 A 
ATOM     17  C   UNL d   1       0.323   2.977   2.255  0.00  0.00     0.012 A 
ENDBRANCH   3  11
BRANCH   1  18
ATOM     18  C   UNL d   1       2.709   1.709  -0.128  0.00  0.00     0.293 C 
ATOM     19  O   UNL d   1       2.793   2.732  -0.796  0.00  0.00    -0.259 OA
BRANCH  18  20
ATOM     20  O   UNL d   1       3.740   1.090   0.486  0.00  0.00    -0.318 OA
BRANCH  20  21
ATOM     21  C   UNL d   1       5.049   1.496   0.053  0.00  0.00     0.174 C 
ATOM     22  C   UNL d   1       5.344   0.913  -1.323  0.00  0.00     0.034 C 
ENDBRANCH  20  21
ENDBRANCH  18  20
ENDBRANCH   1  18
TORSDOF 4
