REMARK  4 active torsions:
REMARK  status: ('A' for Active; 'I' for Inactive)
REMARK    1  A    between atoms: C_5  and  C_1 
REMARK    2  A    between atoms: N_10  and  N_6 
REMARK       I    between atoms: C_9  and  N_10 
REMARK    3  A    between atoms: O_12  and  C_9 
REMARK    4  A    between atoms: C_16  and  O_12 
ROOT
ATOM      1  C   UNL d   1       2.162  -1.439  -0.058  0.00  0.00     0.056 C 
ATOM      2  N   UNL d   1       3.404  -1.045  -0.107  0.00  0.00    -0.298 N 
ATOM      3  HN  UNL d   1       4.167  -1.721  -0.124  1.00  0.00     0.187 HD
ATOM      4  C   UNL d   1       0.996  -0.466  -0.001  0.00  0.00     0.072 C 
ENDROOT
BRANCH   1   5
ATOM      5  C   UNL d   1       1.859  -2.861  -0.040  0.00  0.00     0.105 A 
ATOM      6  C   UNL d   1       2.636  -4.016  -0.038  0.00  0.00    -0.024 A 
ATOM      7  C   UNL d   1       1.717  -5.109  -0.019  0.00  0.00     0.042 A 
ATOM      8  C   UNL d   1       4.114  -4.163  -0.057  0.00  0.00     0.051 C 
ATOM      9  C   UNL d   1       0.454  -4.569  -0.005  0.00  0.00     0.050 A 
ATOM     10  O   UNL d   1       0.532  -3.217  -0.018  0.00  0.00    -0.313 OA
ATOM     11  C   UNL d   1      -0.902  -5.152   0.020  0.00  0.00     0.076 C 
ENDBRANCH   1   5
BRANCH   2  12
ATOM     12  N   UNL d   1       3.658   0.297  -0.135  0.00  0.00    -0.245 N 
ATOM     13  C   UNL d   1       4.913   0.809   0.070  0.00  0.00     0.379 C 
ATOM     14  O   UNL d   1       5.953   0.185   0.219  0.00  0.00    -0.237 OA
ATOM     15  H   UNL d   1       2.911   0.978  -0.151  0.00  0.00     0.192 HD
BRANCH  13  16
ATOM     16  O   UNL d   1       4.799   2.164   0.151  0.00  0.00    -0.303 OA
BRANCH  16  17
ATOM     17  C   UNL d   1       5.953   2.864   0.633  0.00  0.00     0.176 C 
ATOM     18  C   UNL d   1       5.880   2.941   2.147  0.00  0.00     0.034 C 
ENDBRANCH  16  17
ENDBRANCH  13  16
ENDBRANCH   2  12
TORSDOF 4
