REMARK  8 active torsions:
REMARK  status: ('A' for Active; 'I' for Inactive)
REMARK    1  A    between atoms: N_4  and  C_1 
REMARK    2  A    between atoms: C_15  and  C_2 
REMARK    3  A    between atoms: O_22  and  C_3 
REMARK    4  A    between atoms: N_9  and  C_7 
REMARK    5  A    between atoms: C_11  and  C_13 
REMARK    6  A    between atoms: C_12  and  C_14 
REMARK    7  A    between atoms: O_30  and  C_16 
REMARK    8  A    between atoms: O_29  and  C_17 
ROOT
ATOM      1  C   UNL d   1      -1.122   1.364   0.009  0.00  0.00     0.074 A 
ATOM      2  C   UNL d   1       0.933  -0.034   0.053  0.00  0.00    -0.013 A 
ATOM      3  C   UNL d   1       0.306   1.244   0.092  0.00  0.00     0.102 A 
ATOM      4  C   UNL d   1      -1.914   0.178  -0.133  0.00  0.00    -0.006 A 
ATOM      5  C   UNL d   1      -1.310  -1.091  -0.062  0.00  0.00     0.040 A 
ATOM      6  C   UNL d   1       0.085  -1.164   0.005  0.00  0.00     0.040 A 
ATOM      7  C   UNL d   1      -3.407   0.258  -0.363  0.00  0.00     0.053 C 
ENDROOT
BRANCH   1   8
ATOM      8  N   UNL d   1      -1.764   2.642  -0.046  0.00  0.00    -0.362 N 
ATOM      9  C   UNL d   1      -2.711   2.886   0.812  0.00  0.00     0.102 C 
ATOM     10  HN  UNL d   1      -1.488   3.340  -0.737  1.00  0.00     0.165 HD
BRANCH   9  11
ATOM     11  C   UNL d   1      -3.542   4.111   0.747  0.00  0.00     0.014 A 
ATOM     12  C   UNL d   1      -3.130   5.262   0.066  0.00  0.00     0.077 A 
ATOM     13  C   UNL d   1      -3.926   6.409   0.067  0.00  0.00     0.039 A 
ATOM     14  C   UNL d   1      -5.165   6.394   0.703  0.00  0.00     0.022 A 
ATOM     15  C   UNL d   1      -5.602   5.230   1.335  0.00  0.00     0.011 A 
ATOM     16  C   UNL d   1      -4.795   4.091   1.370  0.00  0.00     0.034 A 
ATOM     17 BR   UNL d   1      -7.316   5.188   2.133  0.00  0.00    -0.051 Br
BRANCH  12  18
ATOM     18  O   UNL d   1      -1.963   5.321  -0.637  0.00  0.00    -0.360 OA
ATOM     19  H   UNL d   1      -1.654   4.395  -0.734  0.00  0.00     0.217 HD
ENDBRANCH  12  18
ENDBRANCH   9  11
ENDBRANCH   1   8
BRANCH   3  20
ATOM     20  O   UNL d   1       1.191   2.280   0.231  0.00  0.00    -0.353 OA
ATOM     21  C   UNL d   1       0.801   3.633   0.131  0.00  0.00     0.210 C 
ENDBRANCH   3  20
BRANCH   2  22
ATOM     22  C   UNL d   1       2.470  -0.317   0.013  0.00  0.00    -0.021 C 
ATOM     23  C   UNL d   1       3.430   0.896   0.042  0.00  0.00     0.019 C 
ATOM     24  C   UNL d   1       2.871  -1.204   1.219  0.00  0.00     0.019 C 
ATOM     25  C   UNL d   1       2.816  -1.083  -1.292  0.00  0.00     0.019 C 
ENDBRANCH   2  22
BRANCH   5  26
ATOM     26  N   UNL d   1      -1.984  -2.330  -0.164  0.00  0.00    -0.364 N 
ATOM     27  C   UNL d   1      -2.953  -2.593   0.657  0.00  0.00     0.102 C 
ATOM     28  HN  UNL d   1      -1.712  -3.009  -0.875  1.00  0.00     0.165 HD
BRANCH  27  29
ATOM     29  C   UNL d   1      -3.666  -3.889   0.619  0.00  0.00     0.014 A 
ATOM     30  C   UNL d   1      -3.120  -5.024   0.010  0.00  0.00     0.077 A 
ATOM     31  C   UNL d   1      -3.793  -6.242   0.050  0.00  0.00     0.039 A 
ATOM     32  C   UNL d   1      -5.034  -6.332   0.684  0.00  0.00     0.022 A 
ATOM     33  C   UNL d   1      -5.589  -5.194   1.273  0.00  0.00     0.011 A 
ATOM     34  C   UNL d   1      -4.912  -3.975   1.252  0.00  0.00     0.034 A 
ATOM     35 BR   UNL d   1      -7.277  -5.312   2.118  0.00  0.00    -0.051 Br
BRANCH  30  36
ATOM     36  O   UNL d   1      -1.909  -5.006  -0.633  0.00  0.00    -0.360 OA
ATOM     37  H   UNL d   1      -1.619  -4.071  -0.678  0.00  0.00     0.217 HD
ENDBRANCH  30  36
ENDBRANCH  27  29
ENDBRANCH   5  26
TORSDOF 8
