REMARK  13 active torsions:
REMARK  status: ('A' for Active; 'I' for Inactive)
REMARK    1  A    between atoms: C_4  and  C_1 
REMARK    2  A    between atoms: C_5  and  C_1 
REMARK    3  A    between atoms: C_2  and  C_6 
REMARK    4  A    between atoms: N_7  and  C_3 
REMARK    5  A    between atoms: O_20  and  C_4 
REMARK    6  A    between atoms: O_19  and  C_5 
REMARK    7  A    between atoms: C_8  and  N_7 
REMARK    8  A    between atoms: N_18  and  C_10 
REMARK    9  A    between atoms: C_21  and  N_18 
REMARK   10  A    between atoms: C_25  and  O_19 
REMARK   11  A    between atoms: C_24  and  O_20 
REMARK   12  A    between atoms: C_23  and  C_21 
REMARK   13  A    between atoms: C_22  and  C_23 
ROOT
ATOM      1  C   UNL d   1      -1.646  -1.402   4.825  0.00  0.00     0.050 A 
ATOM      2  C   UNL d   1       0.237  -0.557   3.499  0.00  0.00     0.054 A 
ATOM      3  C   UNL d   1      -0.922  -1.342   3.627  0.00  0.00     0.047 A 
ATOM      4  C   UNL d   1       0.703   0.169   4.629  0.00  0.00     0.035 A 
ATOM      5  C   UNL d   1      -1.206  -0.646   5.914  0.00  0.00     0.018 A 
ATOM      6  C   UNL d   1      -0.054   0.138   5.811  0.00  0.00     0.026 A 
ENDROOT
BRANCH   2   7
ATOM      7  N   UNL d   1       0.982  -0.501   2.296  0.00  0.00    -0.363 N 
ATOM      8  H   UNL d   1       1.771   0.152   2.346  0.00  0.00     0.165 HD
BRANCH   7   9
ATOM      9  C   UNL d   1       0.693  -1.063   1.074  0.00  0.00     0.112 C 
ATOM     10  C   UNL d   1       1.296  -0.932  -0.125  0.00  0.00     0.129 C 
BRANCH  10  11
ATOM     11  C   UNL d   1       0.682  -1.565  -1.325  0.00  0.00     0.300 C 
ATOM     12  O   UNL d   1       0.843  -1.163  -2.469  0.00  0.00    -0.259 OA
BRANCH  11  13
ATOM     13  O   UNL d   1      -0.167  -2.571  -0.978  0.00  0.00    -0.318 OA
BRANCH  13  14
ATOM     14  C   UNL d   1      -1.086  -2.989  -1.999  0.00  0.00     0.174 C 
ATOM     15  C   UNL d   1      -2.299  -2.073  -1.973  0.00  0.00     0.034 C 
ENDBRANCH  13  14
ENDBRANCH  11  13
ENDBRANCH  10  11
BRANCH  10  16
ATOM     16  C   UNL d   1       2.440  -0.011  -0.264  0.00  0.00     0.300 C 
ATOM     17  O   UNL d   1       2.680   0.912   0.507  0.00  0.00    -0.259 OA
BRANCH  16  18
ATOM     18  O   UNL d   1       3.154  -0.306  -1.377  0.00  0.00    -0.318 OA
BRANCH  18  19
ATOM     19  C   UNL d   1       3.981   0.750  -1.882  0.00  0.00     0.174 C 
ATOM     20  C   UNL d   1       3.132   1.639  -2.776  0.00  0.00     0.034 C 
ENDBRANCH  18  19
ENDBRANCH  16  18
ENDBRANCH  10  16
ENDBRANCH   7   9
ENDBRANCH   2   7
BRANCH   4  21
ATOM     21  N   UNL d   1       1.849   0.989   4.478  0.00  0.00    -0.291 NA
ATOM     22  H   UNL d   1       1.562   1.840   3.991  0.00  0.00     0.127 HD
BRANCH  21  23
ATOM     23  C   UNL d   1       2.648   1.317   5.669  0.00  0.00     0.097 C 
BRANCH  23  24
ATOM     24  C   UNL d   1       3.369   0.079   6.220  0.00  0.00     0.053 C 
BRANCH  24  25
ATOM     25  C   UNL d   1       4.139   0.362   7.487  0.00  0.00    -0.057 A 
ATOM     26  C   UNL d   1       3.534   0.188   8.740  0.00  0.00     0.007 A 
ATOM     27  C   UNL d   1       4.255   0.421   9.913  0.00  0.00     0.001 A 
ATOM     28  C   UNL d   1       5.583   0.836   9.846  0.00  0.00     0.000 A 
ATOM     29  C   UNL d   1       6.190   1.025   8.605  0.00  0.00     0.001 A 
ATOM     30  C   UNL d   1       5.471   0.793   7.431  0.00  0.00     0.007 A 
ENDBRANCH  24  25
ENDBRANCH  23  24
ENDBRANCH  21  23
ENDBRANCH   4  21
BRANCH   1  31
ATOM     31  C   UNL d   1      -2.874  -2.269   4.939  0.00  0.00     0.417 C 
ATOM     32  F   UNL d   1      -3.202  -2.909   3.781  0.00  0.00    -0.166 F 
ATOM     33  F   UNL d   1      -2.733  -3.248   5.876  0.00  0.00    -0.166 F 
ATOM     34  F   UNL d   1      -3.981  -1.563   5.299  0.00  0.00    -0.166 F 
ENDBRANCH   1  31
TORSDOF 13
