REMARK  5 active torsions:
REMARK  status: ('A' for Active; 'I' for Inactive)
REMARK    1  A    between atoms: O_3  and  S_1 
REMARK    2  A    between atoms: C_5  and  S_1 
REMARK    3  A    between atoms: C_12  and  O_3 
REMARK    4  A    between atoms: C_4  and  C_12 
REMARK    5  A    between atoms: O_17  and  C_6 
ROOT
ATOM      1  O   UNL d   1       1.040   0.203  -1.734  0.00  0.00    -0.272 OA
ENDROOT
BRANCH   1   2
ATOM      2  S   UNL d   1       1.671  -0.113  -0.258  0.00  0.00     0.298 S 
ATOM      3  O   UNL d   1       0.741   0.400   0.727  0.00  0.00    -0.193 OA
ATOM      4  O   UNL d   1       3.061   0.304  -0.268  0.00  0.00    -0.193 OA
BRANCH   2   5
ATOM      5  C   UNL d   1       1.673  -1.880  -0.118  0.00  0.00     0.086 A 
ATOM      6  C   UNL d   1       1.874  -2.672  -1.250  0.00  0.00     0.026 A 
ATOM      7  C   UNL d   1       1.812  -4.062  -1.130  0.00  0.00     0.008 A 
ATOM      8  C   UNL d   1       1.545  -4.660   0.111  0.00  0.00    -0.062 A 
ATOM      9  C   UNL d   1       1.367  -3.851   1.241  0.00  0.00     0.008 A 
ATOM     10  C   UNL d   1       1.436  -6.154   0.215  0.00  0.00     0.048 C 
ATOM     11  C   UNL d   1       1.429  -2.462   1.129  0.00  0.00     0.026 A 
ENDBRANCH   2   5
ENDBRANCH   1   2
BRANCH   1  12
ATOM     12  C   UNL d   1       0.929   1.577  -2.074  0.00  0.00     0.195 C 
BRANCH  12  13
ATOM     13  C   UNL d   1       0.332   1.766  -3.477  0.00  0.00     0.018 C 
ATOM     14  C   UNL d   1      -1.075   1.138  -3.675  0.00  0.00     0.020 C 
ATOM     15  C   UNL d   1      -2.086   1.833  -2.737  0.00  0.00     0.123 C 
ATOM     16  C   UNL d   1      -1.496   1.382  -5.146  0.00  0.00     0.008 C 
ATOM     17  C   UNL d   1      -2.120   3.344  -3.025  0.00  0.00     0.036 C 
ATOM     18  C   UNL d   1      -1.172   3.686  -4.192  0.00  0.00    -0.012 C 
ATOM     19  C   UNL d   1       0.265   3.273  -3.823  0.00  0.00     0.012 C 
ATOM     20  C   UNL d   1      -1.606   2.887  -5.428  0.00  0.00     0.005 C 
BRANCH  15  21
ATOM     21  O   UNL d   1      -3.384   1.264  -2.881  0.00  0.00    -0.395 OA
ATOM     22  H   UNL d   1      -3.748   1.526  -3.742  0.00  0.00     0.210 HD
ENDBRANCH  15  21
ENDBRANCH  12  13
ENDBRANCH   1  12
TORSDOF 5
