REMARK  6 active torsions:
REMARK  status: ('A' for Active; 'I' for Inactive)
REMARK    1  A    between atoms: C_2  and  C_1 
REMARK    2  A    between atoms: C_3  and  C_1 
REMARK    3  A    between atoms: N_4  and  C_1 
REMARK       I    between atoms: N_13  and  C_3 
REMARK       I    between atoms: C_5  and  N_4 
REMARK    4  A    between atoms: C_18  and  C_5 
REMARK    5  A    between atoms: C_7  and  C_12 
REMARK    6  A    between atoms: N_8  and  N_13 
ROOT
ATOM      1  C   UNL d   1       1.047  -0.082   0.003  0.00  0.00     0.106 C 
ENDROOT
BRANCH   1   2
ATOM      2  C   UNL d   1       0.383  -0.259  -1.159  0.00  0.00     0.054 C 
ATOM      3  C   UNL d   1       0.994  -0.523  -2.421  0.00  0.00     0.007 A 
ATOM      4  S   UNL d   1       0.224   0.044  -3.858  0.00  0.00    -0.102 SA
ATOM      5  C   UNL d   1       2.132  -1.244  -2.748  0.00  0.00     0.019 A 
ATOM      6  C   UNL d   1       1.457  -0.575  -4.862  0.00  0.00     0.050 A 
ATOM      7  C   UNL d   1       2.419  -1.245  -4.143  0.00  0.00     0.008 A 
ENDBRANCH   1   2
BRANCH   1   8
ATOM      8  C   UNL d   1       0.309   0.041   1.315  0.00  0.00     0.286 C 
ATOM      9  N   UNL d   1      -0.963   0.582   1.249  0.00  0.00    -0.265 N 
ATOM     10  H   UNL d   1      -1.322   0.973   0.386  0.00  0.00     0.190 HD
ATOM     11  O   UNL d   1       0.897  -0.285   2.347  0.00  0.00    -0.264 OA
BRANCH   9  12
ATOM     12  N   UNL d   1      -1.691   0.730   2.395  0.00  0.00    -0.308 N 
ATOM     13  C   UNL d   1      -2.894   1.185   2.257  0.00  0.00     0.126 C 
ATOM     14  HN  UNL d   1      -1.307   0.496   3.310  1.00  0.00     0.186 HD
BRANCH  13  15
ATOM     15  C   UNL d   1      -3.731   1.388   3.413  0.00  0.00     0.021 A 
ATOM     16  S   UNL d   1      -5.354   1.881   3.212  0.00  0.00    -0.101 SA
ATOM     17  C   UNL d   1      -5.627   1.884   4.902  0.00  0.00     0.050 A 
ATOM     18  C   UNL d   1      -4.499   1.527   5.608  0.00  0.00     0.008 A 
ATOM     19  C   UNL d   1      -3.402   1.240   4.747  0.00  0.00     0.021 A 
ENDBRANCH  13  15
ENDBRANCH   9  12
ENDBRANCH   1   8
BRANCH   1  20
ATOM     20  N   UNL d   1       2.430  -0.095   0.133  0.00  0.00    -0.318 N 
ATOM     21  C   UNL d   1       3.200   0.954  -0.350  0.00  0.00     0.256 C 
ATOM     22  O   UNL d   1       2.754   1.970  -0.870  0.00  0.00    -0.267 OA
ATOM     23  H   UNL d   1       2.737  -0.390   1.062  0.00  0.00     0.169 HD
BRANCH  21  24
ATOM     24  C   UNL d   1       4.662   0.808  -0.127  0.00  0.00     0.032 A 
ATOM     25  C   UNL d   1       5.297  -0.423  -0.338  0.00  0.00     0.017 A 
ATOM     26  C   UNL d   1       6.681  -0.527  -0.187  0.00  0.00     0.001 A 
ATOM     27  C   UNL d   1       7.429   0.589   0.187  0.00  0.00     0.000 A 
ATOM     28  C   UNL d   1       6.798   1.814   0.403  0.00  0.00     0.001 A 
ATOM     29  C   UNL d   1       5.416   1.929   0.237  0.00  0.00     0.017 A 
ENDBRANCH  21  24
ENDBRANCH   1  20
TORSDOF 6
