REMARK  6 active torsions:
REMARK  status: ('A' for Active; 'I' for Inactive)
REMARK    1  A    between atoms: C_12  and  C_5 
REMARK    2  A    between atoms: S_13  and  C_9 
REMARK    3  A    between atoms: O_18  and  C_12 
REMARK    4  A    between atoms: C_17  and  S_13 
REMARK    5  A    between atoms: C_16  and  C_17 
REMARK    6  A    between atoms: C_22  and  O_18 
ROOT
ATOM      1  C   UNL d   1       1.554  -0.913  -0.030  0.00  0.00     0.161 A 
ATOM      2  N   UNL d   1       0.878   0.289  -0.063  0.00  0.00    -0.221 N 
ATOM      3  N   UNL d   1       0.912  -2.114   0.011  0.00  0.00    -0.333 N 
ATOM      4  HN  UNL d   1       1.431  -2.992   0.008  1.00  0.00     0.168 HD
ATOM      5  C   UNL d   1       2.883  -0.522  -0.019  0.00  0.00     0.167 A 
ATOM      6  N   UNL d   1       1.718   1.335  -0.130  0.00  0.00    -0.013 NA
ATOM      7  N   UNL d   1       2.951   0.854  -0.098  0.00  0.00    -0.275 N 
ATOM      8  HN  UNL d   1       3.808   1.407  -0.126  1.00  0.00     0.184 HD
ATOM      9  C   UNL d   1      -0.391  -2.100   0.056  0.00  0.00     0.084 A 
ATOM     10  C   UNL d   1      -1.213  -0.842   0.038  0.00  0.00     0.026 A 
ATOM     11  C   UNL d   1      -0.516   0.376  -0.025  0.00  0.00     0.069 A 
ATOM     12  C   UNL d   1      -2.610  -0.805   0.071  0.00  0.00     0.016 A 
ATOM     13  C   UNL d   1      -1.175   1.608  -0.043  0.00  0.00     0.032 A 
ATOM     14  C   UNL d   1      -3.281   0.425   0.044  0.00  0.00     0.001 A 
ATOM     15  C   UNL d   1      -2.567   1.625  -0.009  0.00  0.00     0.002 A 
ENDROOT
BRANCH   5  16
ATOM     16  C   UNL d   1       4.049  -1.370   0.122  0.00  0.00     0.315 C 
ATOM     17  O   UNL d   1       4.008  -2.587   0.271  0.00  0.00    -0.257 OA
BRANCH  16  18
ATOM     18  O   UNL d   1       5.201  -0.636   0.151  0.00  0.00    -0.317 OA
BRANCH  18  19
ATOM     19  C   UNL d   1       6.360  -1.313   0.650  0.00  0.00     0.175 C 
ATOM     20  C   UNL d   1       6.376  -1.188   2.163  0.00  0.00     0.034 C 
ENDBRANCH  18  19
ENDBRANCH  16  18
ENDBRANCH   5  16
BRANCH   9  21
ATOM     21  S   UNL d   1      -1.226  -3.646   0.080  0.00  0.00    -0.104 SA
BRANCH  21  22
ATOM     22  C   UNL d   1       0.066  -4.717   0.768  0.00  0.00     0.158 C 
BRANCH  22  23
ATOM     23  C   UNL d   1       0.396  -4.407   2.221  0.00  0.00     0.132 C 
ATOM     24  O   UNL d   1      -0.128  -3.502   2.873  0.00  0.00    -0.298 OA
ATOM     25  C   UNL d   1       1.409  -5.326   2.861  0.00  0.00     0.091 C 
ENDBRANCH  22  23
ENDBRANCH  21  22
ENDBRANCH   9  21
TORSDOF 6
