REMARK  7 active torsions:
REMARK  status: ('A' for Active; 'I' for Inactive)
REMARK    1  A    between atoms: C_2  and  S_1 
REMARK    2  A    between atoms: N_4  and  S_1 
REMARK    3  A    between atoms: C_5  and  N_4 
REMARK    4  A    between atoms: C_15  and  C_5 
REMARK    5  A    between atoms: C_16  and  C_5 
REMARK    6  A    between atoms: C_6  and  C_16 
REMARK    7  A    between atoms: O_25  and  C_15 
ROOT
ATOM      1  N   UNL d   1       0.460   1.444  -0.153  0.00  0.00    -0.301 N 
ATOM      2  H   UNL d   1       0.393   0.453   0.081  0.00  0.00     0.173 HD
ENDROOT
BRANCH   1   3
ATOM      3  S   UNL d   1       0.489   1.745  -1.800  0.00  0.00     0.262 S 
ATOM      4  O   UNL d   1      -0.653   1.071  -2.375  0.00  0.00    -0.200 OA
ATOM      5  O   UNL d   1       0.690   3.160  -1.995  0.00  0.00    -0.200 OA
BRANCH   3   6
ATOM      6  C   UNL d   1       1.907   0.939  -2.433  0.00  0.00     0.110 A 
ATOM      7  C   UNL d   1       2.097  -0.451  -2.371  0.00  0.00     0.108 A 
ATOM      8  C   UNL d   1       3.257  -1.087  -2.994  0.00  0.00     0.086 A 
ATOM      9  N   UNL d   1       1.369  -1.414  -1.788  0.00  0.00    -0.238 N 
ATOM     10  N   UNL d   1       3.183  -2.405  -2.783  0.00  0.00    -0.239 N 
ATOM     11  C   UNL d   1       4.246  -0.357  -3.682  0.00  0.00     0.034 A 
ATOM     12  O   UNL d   1       2.019  -2.606  -2.063  0.00  0.00    -0.156 OA
ATOM     13  HN  UNL d   1       3.848  -3.115  -3.088  1.00  0.00     0.197 HD
ATOM     14  C   UNL d   1       4.030   1.032  -3.728  0.00  0.00     0.004 A 
ATOM     15  C   UNL d   1       2.905   1.658  -3.133  0.00  0.00     0.028 A 
ATOM     16  HN  UNL d   1       0.510  -1.294  -1.252  1.00  0.00     0.197 HD
ENDBRANCH   3   6
ENDBRANCH   1   3
BRANCH   1  17
ATOM     17  C   UNL d   1       1.172   2.298   0.844  0.00  0.00     0.197 C 
BRANCH  17  18
ATOM     18  C   UNL d   1       2.680   2.389   0.648  0.00  0.00     0.282 C 
ATOM     19  O   UNL d   1       3.369   3.371   0.887  0.00  0.00    -0.263 OA
BRANCH  18  20
ATOM     20  O   UNL d   1       3.179   1.175   0.266  0.00  0.00    -0.325 OA
ATOM     21  C   UNL d   1       4.601   1.104   0.122  0.00  0.00     0.213 C 
ENDBRANCH  18  20
ENDBRANCH  17  18
BRANCH  17  22
ATOM     22  C   UNL d   1       0.557   3.704   1.005  0.00  0.00     0.077 C 
BRANCH  22  23
ATOM     23  C   UNL d   1      -0.888   3.713   1.421  0.00  0.00    -0.028 A 
ATOM     24  C   UNL d   1      -1.972   3.671   0.565  0.00  0.00     0.096 A 
ATOM     25  N   UNL d   1      -3.117   3.730   1.308  0.00  0.00    -0.365 N 
ATOM     26  C   UNL d   1      -2.812   3.833   2.644  0.00  0.00     0.042 A 
ATOM     27  H   UNL d   1      -4.055   3.719   0.933  0.00  0.00     0.165 HD
ATOM     28  C   UNL d   1      -1.419   3.822   2.750  0.00  0.00    -0.002 A 
ATOM     29  C   UNL d   1      -3.661   3.942   3.753  0.00  0.00     0.030 A 
ATOM     30  C   UNL d   1      -0.850   3.930   4.038  0.00  0.00     0.014 A 
ATOM     31  C   UNL d   1      -1.686   4.041   5.158  0.00  0.00     0.001 A 
ATOM     32  C   UNL d   1      -3.071   4.047   5.015  0.00  0.00     0.002 A 
ENDBRANCH  22  23
ENDBRANCH  17  22
ENDBRANCH   1  17
TORSDOF 7
