REMARK  3 active torsions:
REMARK  status: ('A' for Active; 'I' for Inactive)
REMARK    1  A    between atoms: C_7  and  N_1 
REMARK    2  A    between atoms: C_8  and  C_5 
REMARK    3  A    between atoms: N_15  and  C_7 
ROOT
ATOM      1  N   UNL d   1      -3.072   1.123  -0.087  0.00  0.00    -0.257 N 
ATOM      2  N   UNL d   1      -1.752   1.532  -0.263  0.00  0.00    -0.298 N 
ATOM      3  HN  UNL d   1      -1.428   2.449  -0.570  1.00  0.00     0.187 HD
ATOM      4  C   UNL d   1      -1.020   0.507   0.043  0.00  0.00     0.043 C 
ATOM      5  C   UNL d   1      -3.177  -0.341   0.172  0.00  0.00     0.155 C 
ATOM      6  C   UNL d   1      -1.752  -0.679   0.617  0.00  0.00     0.068 C 
ATOM      7  C   UNL d   1       0.445   0.445  -0.030  0.00  0.00    -0.005 A 
ATOM      8  C   UNL d   1      -1.114  -2.038   0.343  0.00  0.00     0.018 C 
ATOM      9  C   UNL d   1       1.022  -0.815  -0.231  0.00  0.00    -0.046 A 
ATOM     10  C   UNL d   1       0.137  -1.995  -0.536  0.00  0.00     0.040 C 
ATOM     11  C   UNL d   1       1.229   1.586   0.136  0.00  0.00     0.014 A 
ATOM     12  C   UNL d   1       2.416  -0.925  -0.245  0.00  0.00     0.008 A 
ATOM     13  C   UNL d   1       2.619   1.461   0.131  0.00  0.00     0.001 A 
ATOM     14  C   UNL d   1       3.210   0.209  -0.051  0.00  0.00     0.001 A 
ENDROOT
BRANCH   5  15
ATOM     15  C   UNL d   1      -3.754  -1.101  -1.016  0.00  0.00    -0.011 A 
ATOM     16  C   UNL d   1      -4.519  -2.268  -0.832  0.00  0.00     0.042 A 
ATOM     17 CL   UNL d   1      -4.695  -3.015   0.720  0.00  0.00    -0.084 Cl
ATOM     18  C   UNL d   1      -5.184  -2.871  -1.906  0.00  0.00     0.024 A 
ATOM     19  C   UNL d   1      -5.101  -2.320  -3.182  0.00  0.00     0.002 A 
ATOM     20  C   UNL d   1      -4.319  -1.190  -3.395  0.00  0.00     0.001 A 
ATOM     21  C   UNL d   1      -3.638  -0.598  -2.328  0.00  0.00     0.011 A 
ENDBRANCH   5  15
BRANCH   1  22
ATOM     22  C   UNL d   1      -4.130   2.035  -0.210  0.00  0.00     0.189 C 
ATOM     23  S   UNL d   1      -5.743   1.659   0.053  0.00  0.00    -0.039 SA
BRANCH  22  24
ATOM     24  N   UNL d   1      -3.676   3.284  -0.582  0.00  0.00    -0.370 N 
ATOM     25  C   UNL d   1      -4.436   4.486  -0.842  0.00  0.00     0.148 C 
ATOM     26  H   UNL d   1      -2.661   3.313  -0.647  0.00  0.00     0.161 HD
ENDBRANCH  22  24
ENDBRANCH   1  22
TORSDOF 3
