REMARK  3 active torsions:
REMARK  status: ('A' for Active; 'I' for Inactive)
REMARK    1  A    between atoms: C_12  and  N_1 
REMARK    2  A    between atoms: N_13  and  N_7 
REMARK    3  A    between atoms: C_15  and  N_13 
ROOT
ATOM      1  N   UNL d   1      -0.372   8.808  -3.372  0.00  0.00    -0.191 NA
ATOM      2  C   UNL d   1      -0.498   7.789  -2.834  0.00  0.00     0.099 C 
ATOM      3  C   UNL d   1      -0.658   6.529  -2.165  0.00  0.00     0.044 A 
ATOM      4  C   UNL d   1      -0.923   4.069  -0.805  0.00  0.00     0.027 A 
ATOM      5  C   UNL d   1       0.129   5.435  -2.531  0.00  0.00     0.024 A 
ATOM      6  C   UNL d   1      -1.603   6.384  -1.145  0.00  0.00     0.024 A 
ATOM      7  C   UNL d   1      -0.012   4.214  -1.861  0.00  0.00     0.026 A 
ATOM      8  C   UNL d   1      -1.748   5.157  -0.485  0.00  0.00     0.026 A 
ENDROOT
BRANCH   4   9
ATOM      9  N   UNL d   1      -1.096   2.822  -0.140  0.00  0.00    -0.205 NA
ATOM     10  H   UNL d   1      -1.568   2.995   0.752  0.00  0.00     0.153 HD
BRANCH   9  11
ATOM     11  N   UNL d   1       0.048   2.085  -0.023  0.00  0.00    -0.310 N 
ATOM     12  C   UNL d   1      -0.053   0.795   0.033  0.00  0.00     0.137 A 
ATOM     13  C   UNL d   1       1.135  -0.126   0.146  0.00  0.00     0.296 A 
ATOM     14  C   UNL d   1      -1.236  -0.110  -0.036  0.00  0.00     0.056 A 
ATOM     15  N   UNL d   1       0.537  -1.380   0.067  0.00  0.00    -0.218 N 
ATOM     16  O   UNL d   1       2.280   0.248   0.283  0.00  0.00    -0.264 OA
ATOM     17  N   UNL d   1      -0.860  -1.354  -0.039  0.00  0.00    -0.293 N 
ATOM     18  HN  UNL d   1      -1.472  -2.166  -0.105  1.00  0.00     0.187 HD
ATOM     19  C   UNL d   1      -2.647   0.343  -0.036  0.00  0.00     0.072 C 
ATOM     20  HN  UNL d   1       0.960   2.540   0.020  1.00  0.00     0.181 HD
BRANCH  15  21
ATOM     21  C   UNL d   1       1.159  -2.646   0.203  0.00  0.00     0.060 A 
ATOM     22  C   UNL d   1       2.515  -2.775   0.528  0.00  0.00     0.031 A 
ATOM     23  C   UNL d   1       3.089  -4.037   0.715  0.00  0.00     0.002 A 
ATOM     24  C   UNL d   1       2.321  -5.189   0.559  0.00  0.00     0.000 A 
ATOM     25  C   UNL d   1       0.979  -5.081   0.213  0.00  0.00     0.002 A 
ATOM     26  C   UNL d   1       0.403  -3.820   0.040  0.00  0.00     0.031 A 
ENDBRANCH  15  21
ENDBRANCH   9  11
ENDBRANCH   4   9
TORSDOF 3
