REMARK  8 active torsions:
REMARK  status: ('A' for Active; 'I' for Inactive)
REMARK    1  A    between atoms: N_10  and  C_1 
REMARK    2  A    between atoms: C_11  and  C_2 
REMARK    3  A    between atoms: C_16  and  C_5 
REMARK    4  A    between atoms: C_6  and  S_15 
REMARK       I    between atoms: C_14  and  N_10 
REMARK    5  A    between atoms: O_20  and  C_11 
REMARK    6  A    between atoms: C_19  and  C_14 
REMARK    7  A    between atoms: S_15  and  C_19 
REMARK    8  A    between atoms: C_25  and  O_20 
ROOT
ATOM      1  C   UNL d   1       0.368   1.380   0.099  0.00  0.00     0.093 A 
ATOM      2  C   UNL d   1       1.622   0.850  -0.116  0.00  0.00     0.074 A 
ATOM      3  S   UNL d   1      -0.823   0.196   0.321  0.00  0.00    -0.071 SA
ATOM      4  C   UNL d   1       1.520  -0.593  -0.219  0.00  0.00     0.040 A 
ATOM      5  C   UNL d   1       0.244  -1.095  -0.008  0.00  0.00     0.018 A 
ENDROOT
BRANCH   1   6
ATOM      6  N   UNL d   1      -0.153   2.651   0.199  0.00  0.00    -0.320 N 
ATOM      7  C   UNL d   1       0.150   3.629  -0.733  0.00  0.00     0.232 C 
ATOM      8  O   UNL d   1       0.943   3.503  -1.664  0.00  0.00    -0.272 OA
ATOM      9  H   UNL d   1      -1.091   2.705   0.595  0.00  0.00     0.169 HD
BRANCH   7  10
ATOM     10  C   UNL d   1      -0.648   4.910  -0.521  0.00  0.00     0.184 C 
BRANCH  10  11
ATOM     11  S   UNL d   1      -2.202   4.909  -1.462  0.00  0.00    -0.096 SA
BRANCH  11  12
ATOM     12  C   UNL d   1      -3.103   3.627  -0.681  0.00  0.00     0.113 A 
ATOM     13  N   UNL d   1      -2.889   3.301   0.575  0.00  0.00    -0.344 N 
ATOM     14  C   UNL d   1      -3.634   2.171   0.893  0.00  0.00     0.050 A 
ATOM     15  HN  UNL d   1      -2.272   3.800   1.216  1.00  0.00     0.167 HD
ATOM     16  C   UNL d   1      -3.613   1.489   2.129  0.00  0.00     0.031 A 
ATOM     17  C   UNL d   1      -4.388   1.639  -0.155  0.00  0.00     0.034 A 
ATOM     18  C   UNL d   1      -4.291   0.272   2.261  0.00  0.00     0.002 A 
ATOM     19  C   UNL d   1      -5.016  -0.250   1.195  0.00  0.00     0.002 A 
ATOM     20  C   UNL d   1      -5.096   0.434  -0.022  0.00  0.00     0.021 A 
ATOM     21  S   UNL d   1      -4.241   2.671  -1.525  0.00  0.00    -0.063 SA
ENDBRANCH  11  12
ENDBRANCH  10  11
ENDBRANCH   7  10
ENDBRANCH   1   6
BRANCH   2  22
ATOM     22  C   UNL d   1       2.903   1.554  -0.139  0.00  0.00     0.296 C 
ATOM     23  O   UNL d   1       3.936   1.013  -0.521  0.00  0.00    -0.259 OA
BRANCH  22  24
ATOM     24  O   UNL d   1       2.867   2.773   0.479  0.00  0.00    -0.318 OA
BRANCH  24  25
ATOM     25  C   UNL d   1       4.140   3.315   0.858  0.00  0.00     0.174 C 
ATOM     26  C   UNL d   1       4.773   4.122  -0.259  0.00  0.00     0.034 C 
ENDBRANCH  24  25
ENDBRANCH  22  24
ENDBRANCH   2  22
BRANCH   5  27
ATOM     27  C   UNL d   1      -0.238  -2.492  -0.030  0.00  0.00    -0.019 A 
ATOM     28  C   UNL d   1       0.478  -3.471  -0.737  0.00  0.00     0.013 A 
ATOM     29  C   UNL d   1       0.043  -4.801  -0.780  0.00  0.00     0.001 A 
ATOM     30  C   UNL d   1      -1.125  -5.174  -0.118  0.00  0.00     0.000 A 
ATOM     31  C   UNL d   1      -1.853  -4.223   0.588  0.00  0.00     0.001 A 
ATOM     32  C   UNL d   1      -1.411  -2.894   0.634  0.00  0.00     0.013 A 
ENDBRANCH   5  27
TORSDOF 8
