REMARK  3 active torsions:
REMARK  status: ('A' for Active; 'I' for Inactive)
REMARK    1  A    between atoms: N_10  and  C_3 
REMARK    2  A    between atoms: C_11  and  C_4 
REMARK    3  A    between atoms: C_15  and  N_10 
ROOT
ATOM      1  C   UNL d   1       0.477  -0.362  -0.012  0.00  0.00     0.141 A 
ATOM      2  N   UNL d   1      -1.542   0.958   0.040  0.00  0.00    -0.154 N 
ATOM      3  C   UNL d   1      -2.290  -0.187   0.009  0.00  0.00     0.686 A 
ATOM      4  C   UNL d   1      -0.345  -1.425  -0.010  0.00  0.00     0.085 A 
ATOM      5  C   UNL d   1      -0.177   0.964   0.004  0.00  0.00     0.282 A 
ATOM      6  N   UNL d   1      -1.715  -1.349  -0.013  0.00  0.00    -0.189 N 
ATOM      7  HN  UNL d   1      -2.277  -2.200  -0.032  1.00  0.00     0.184 HD
ATOM      8  C   UNL d   1       1.892  -0.436  -0.038  0.00  0.00     0.107 C 
ATOM      9  N   UNL d   1       3.051  -0.527  -0.062  0.00  0.00    -0.191 NA
ATOM     10  O   UNL d   1       0.448   2.016  -0.019  0.00  0.00    -0.266 OA
ATOM     11  H   UNL d   1      -1.978   1.866   0.033  0.00  0.00     0.187 HD
ENDROOT
BRANCH   4  12
ATOM     12  C   UNL d   1       0.197  -2.803  -0.006  0.00  0.00    -0.007 A 
ATOM     13  C   UNL d   1       0.467  -3.453   1.208  0.00  0.00     0.015 A 
ATOM     14  C   UNL d   1       0.945  -4.766   1.212  0.00  0.00     0.024 A 
ATOM     15  C   UNL d   1       1.149  -5.433   0.006  0.00  0.00     0.034 A 
ATOM     16  C   UNL d   1       0.888  -4.797  -1.206  0.00  0.00     0.024 A 
ATOM     17 CL   UNL d   1       1.716  -7.058   0.013  0.00  0.00    -0.084 Cl
ATOM     18  C   UNL d   1       0.410  -3.483  -1.213  0.00  0.00     0.015 A 
ENDBRANCH   4  12
BRANCH   3  19
ATOM     19  N   UNL d   1      -3.650  -0.019   0.013  0.00  0.00    -0.192 N 
ATOM     20  H   UNL d   1      -4.022   0.915   0.106  0.00  0.00     0.184 HD
BRANCH  19  21
ATOM     21  C   UNL d   1      -4.562  -0.893  -0.614  0.00  0.00     0.049 A 
ATOM     22  C   UNL d   1      -5.861  -1.013  -0.101  0.00  0.00     0.032 A 
ATOM     23  C   UNL d   1      -6.790  -1.868  -0.705  0.00  0.00     0.026 A 
ATOM     24  C   UNL d   1      -6.428  -2.598  -1.834  0.00  0.00     0.034 A 
ATOM     25  C   UNL d   1      -5.145  -2.491  -2.358  0.00  0.00     0.026 A 
ATOM     26 CL   UNL d   1      -7.574  -3.633  -2.591  0.00  0.00    -0.084 Cl
ATOM     27  C   UNL d   1      -4.215  -1.649  -1.743  0.00  0.00     0.032 A 
ENDBRANCH  19  21
ENDBRANCH   3  19
TORSDOF 3
