REMARK  9 active torsions:
REMARK  status: ('A' for Active; 'I' for Inactive)
REMARK    1  A    between atoms: O_8  and  N_1 
REMARK    2  A    between atoms: C_5  and  C_3 
REMARK    3  A    between atoms: N_15  and  C_3 
REMARK    4  A    between atoms: C_4  and  O_8 
REMARK    5  A    between atoms: C_9  and  C_4 
REMARK    6  A    between atoms: C_6  and  C_7 
REMARK    7  A    between atoms: C_18  and  C_9 
REMARK    8  A    between atoms: C_17  and  O_24 
REMARK    9  A    between atoms: O_24  and  C_18 
ROOT
ATOM      1  N   UNL d   1       0.930  -0.166   0.012  0.00  0.00    -0.246 N 
ATOM      2  HN  UNL d   1       1.908  -0.455   0.009  1.00  0.00     0.196 HD
ATOM      3  C   UNL d   1       0.191  -0.120  -1.054  0.00  0.00     0.109 C 
ENDROOT
BRANCH   1   4
ATOM      4  O   UNL d   1       0.233   0.226   1.178  0.00  0.00    -0.198 OA
BRANCH   4   5
ATOM      5  C   UNL d   1       0.592  -0.616   2.189  0.00  0.00     0.283 C 
ATOM      6  O   UNL d   1       0.659  -1.841   2.086  0.00  0.00    -0.263 OA
BRANCH   5   7
ATOM      7  C   UNL d   1       0.882   0.080   3.493  0.00  0.00     0.140 C 
BRANCH   7   8
ATOM      8  C   UNL d   1       1.058   1.590   3.445  0.00  0.00     0.185 C 
BRANCH   8   9
ATOM      9  O   UNL d   1      -0.218   2.236   3.373  0.00  0.00    -0.351 OA
BRANCH   9  10
ATOM     10  C   UNL d   1      -0.166   3.607   3.363  0.00  0.00     0.069 A 
ATOM     11  C   UNL d   1      -1.165   4.249   2.624  0.00  0.00     0.040 A 
ATOM     12  C   UNL d   1      -1.201   5.644   2.549  0.00  0.00     0.045 A 
ATOM     13  C   UNL d   1      -0.249   6.392   3.230  0.00  0.00     0.116 A 
ATOM     14  C   UNL d   1       0.731   5.770   3.994  0.00  0.00     0.045 A 
ATOM     15  F   UNL d   1      -0.278   7.729   3.157  0.00  0.00    -0.206 F 
ATOM     16  C   UNL d   1       0.769   4.375   4.066  0.00  0.00     0.040 A 
ENDBRANCH   9  10
ENDBRANCH   8   9
ENDBRANCH   7   8
ENDBRANCH   5   7
ENDBRANCH   4   5
ENDBRANCH   1   4
BRANCH   3  17
ATOM     17  C   UNL d   1       0.867  -0.398  -2.361  0.00  0.00     0.004 A 
ATOM     18  C   UNL d   1       1.991  -1.226  -2.417  0.00  0.00     0.015 A 
ATOM     19  C   UNL d   1       2.666  -1.417  -3.629  0.00  0.00     0.009 A 
ATOM     20  C   UNL d   1       2.250  -0.778  -4.814  0.00  0.00    -0.051 A 
ATOM     21  C   UNL d   1       1.100   0.034  -4.737  0.00  0.00     0.009 A 
ATOM     22  C   UNL d   1       0.419   0.222  -3.527  0.00  0.00     0.015 A 
BRANCH  20  23
ATOM     23  C   UNL d   1       3.053  -0.951  -6.119  0.00  0.00    -0.024 C 
ATOM     24  C   UNL d   1       2.473  -0.154  -7.311  0.00  0.00     0.019 C 
ATOM     25  C   UNL d   1       4.502  -0.459  -5.906  0.00  0.00     0.019 C 
ATOM     26  C   UNL d   1       3.084  -2.437  -6.535  0.00  0.00     0.019 C 
ENDBRANCH  20  23
ENDBRANCH   3  17
BRANCH   3  27
ATOM     27  N   UNL d   1      -1.159   0.159  -1.057  0.00  0.00    -0.286 NA
ATOM     28  H   UNL d   1      -1.573   0.039  -0.137  0.00  0.00     0.125 HD
ATOM     29  H   UNL d   1      -1.690  -0.319  -1.774  0.00  0.00     0.125 HD
ENDBRANCH   3  27
TORSDOF 9
