REMARK  3 active torsions:
REMARK  status: ('A' for Active; 'I' for Inactive)
REMARK    1  A    between atoms: C_2  and  N_1 
REMARK    2  A    between atoms: O_9  and  C_8 
REMARK    3  A    between atoms: C_11  and  O_9 
ROOT
ATOM      1  C   UNL d   1       0.277   1.118   0.178  0.00  0.00     0.108 A 
ATOM      2  C   UNL d   1       0.623   2.321  -0.463  0.00  0.00    -0.026 A 
ATOM      3  C   UNL d   1      -0.804   1.034   1.068  0.00  0.00     0.039 A 
ATOM      4  C   UNL d   1      -0.165   3.451  -0.184  0.00  0.00     0.046 A 
ATOM      5  C   UNL d   1      -1.265   3.372   0.678  0.00  0.00     0.076 A 
ATOM      6  C   UNL d   1      -1.562   2.173   1.333  0.00  0.00     0.040 A 
ATOM      7  C   UNL d   1       1.784   2.479  -1.401  0.00  0.00     0.050 C 
ENDROOT
BRANCH   5   8
ATOM      8  O   UNL d   1      -1.968   4.539   0.876  0.00  0.00    -0.311 OA
BRANCH   8   9
ATOM      9  C   UNL d   1      -3.340   4.483   0.980  0.00  0.00     0.076 A 
ATOM     10  C   UNL d   1      -3.932   5.434   1.814  0.00  0.00     0.037 A 
ATOM     11  C   UNL d   1      -5.317   5.454   1.980  0.00  0.00     0.003 A 
ATOM     12  C   UNL d   1      -6.113   4.528   1.307  0.00  0.00     0.000 A 
ATOM     13  C   UNL d   1      -5.528   3.600   0.446  0.00  0.00     0.003 A 
ATOM     14  C   UNL d   1      -4.144   3.591   0.265  0.00  0.00     0.037 A 
ENDBRANCH   8   9
ENDBRANCH   5   8
BRANCH   1  15
ATOM     15  N   UNL d   1       1.032  -0.101  -0.053  0.00  0.00    -0.115 N 
ATOM     16  O   UNL d   1       2.226  -0.099   0.276  0.00  0.00    -0.532 OA
ATOM     17  O   UNL d   1       0.417  -1.059  -0.541  0.00  0.00    -0.532 OA
ENDBRANCH   1  15
TORSDOF 3
