REMARK  2 active torsions:
REMARK  status: ('A' for Active; 'I' for Inactive)
REMARK    1  A    between atoms: C_9  and  C_3 
REMARK    2  A    between atoms: N_7  and  C_11 
ROOT
ATOM      1  N   UNL d   1      -0.459   2.710   0.984  0.00  0.00    -0.330 N 
ATOM      2  C   UNL d   1      -0.947   2.976   2.244  0.00  0.00     0.048 A 
ATOM      3  C   UNL d   1      -1.181   1.869   0.013  0.00  0.00     0.223 C 
ATOM      4  N   UNL d   1      -2.364   1.158   0.522  0.00  0.00    -0.364 N 
ATOM      5  C   UNL d   1      -2.229   2.404   2.653  0.00  0.00     0.017 A 
ATOM      6  C   UNL d   1      -2.918   1.566   1.746  0.00  0.00     0.042 A 
ATOM      7  C   UNL d   1       0.744   3.342   0.797  0.00  0.00     0.094 A 
ATOM      8  C   UNL d   1      -0.029   3.807   2.860  0.00  0.00     0.032 A 
ATOM      9  C   UNL d   1       1.033   4.038   1.949  0.00  0.00     0.020 A 
ATOM     10  C   UNL d   1      -2.787   2.694   3.904  0.00  0.00     0.016 A 
ATOM     11  C   UNL d   1      -4.140   1.006   2.145  0.00  0.00     0.030 A 
ATOM     12  C   UNL d   1      -4.016   2.142   4.273  0.00  0.00     0.001 A 
ATOM     13  C   UNL d   1      -4.690   1.300   3.394  0.00  0.00     0.002 A 
ATOM     14  H   UNL d   1      -3.062   0.977  -0.192  0.00  0.00     0.162 HD
ENDROOT
BRANCH   3  15
ATOM     15  C   UNL d   1      -1.556   2.681  -1.216  0.00  0.00    -0.016 A 
ATOM     16  C   UNL d   1      -1.083   2.316  -2.481  0.00  0.00     0.013 A 
ATOM     17  C   UNL d   1      -1.323   3.130  -3.597  0.00  0.00     0.030 A 
ATOM     18  C   UNL d   1      -2.037   4.332  -3.499  0.00  0.00     0.030 A 
ATOM     19  C   UNL d   1      -2.577   4.634  -2.238  0.00  0.00     0.030 A 
ATOM     20  C   UNL d   1      -2.348   3.830  -1.117  0.00  0.00     0.013 A 
BRANCH  18  21
ATOM     21  N   UNL d   1      -2.219   5.184  -4.570  0.00  0.00    -0.377 N 
ATOM     22  C   UNL d   1      -2.203   6.649  -4.384  0.00  0.00     0.149 C 
ATOM     23  C   UNL d   1      -1.034   7.274  -5.170  0.00  0.00     0.187 C 
ATOM     24  O   UNL d   1      -1.053   6.894  -6.555  0.00  0.00    -0.388 OA
ATOM     25  C   UNL d   1      -0.954   5.465  -6.674  0.00  0.00     0.187 C 
ATOM     26  C   UNL d   1      -2.127   4.763  -5.976  0.00  0.00     0.149 C 
ENDBRANCH  18  21
ENDBRANCH   3  15
TORSDOF 2
