REMARK  2 active torsions:
REMARK  status: ('A' for Active; 'I' for Inactive)
REMARK    1  A    between atoms: C_11  and  C_6 
REMARK    2  A    between atoms: O_10  and  C_11 
ROOT
ATOM      1  C   UNL d   1       0.224   0.002  -0.009  0.00  0.00     0.022 A 
ATOM      2  C   UNL d   1       0.914  -1.227  -0.003  0.00  0.00    -0.043 A 
ATOM      3  C   UNL d   1       0.940   1.218  -0.004  0.00  0.00    -0.043 A 
ATOM      4  C   UNL d   1       2.323  -1.219   0.016  0.00  0.00     0.017 A 
ATOM      5  C   UNL d   1       2.348   1.181   0.015  0.00  0.00     0.017 A 
ATOM      6  C   UNL d   1       3.053  -0.027   0.041  0.00  0.00    -0.034 A 
ATOM      7 BR   UNL d   1      -1.686   0.022  -0.024  0.00  0.00    -0.050 Br
ATOM      8  C   UNL d   1       0.259  -2.584  -0.013  0.00  0.00     0.049 C 
ATOM      9  C   UNL d   1       0.311   2.587  -0.018  0.00  0.00     0.049 C 
ENDROOT
BRANCH   6  10
ATOM     10  C   UNL d   1       4.559  -0.018   0.025  0.00  0.00     0.202 C 
BRANCH  10  11
ATOM     11  O   UNL d   1       5.086  -1.162   0.683  0.00  0.00    -0.396 OA
ATOM     12  H   UNL d   1       6.053  -1.067   0.675  0.00  0.00     0.209 HD
ENDBRANCH  10  11
ENDBRANCH   6  10
TORSDOF 2
