REMARK  3 active torsions:
REMARK  status: ('A' for Active; 'I' for Inactive)
REMARK    1  A    between atoms: C_4  and  C_1 
REMARK    2  A    between atoms: N_6  and  C_2 
REMARK       I    between atoms: C_3  and  N_5 
REMARK       I    between atoms: N_7  and  C_3 
REMARK    3  A    between atoms: C_8  and  N_7 
ROOT
ATOM      1  C   UNL d   1      -3.153   6.220  -0.309  0.00  0.00     0.323 C 
ATOM      2  N   UNL d   1      -2.585   4.960  -0.170  0.00  0.00    -0.331 N 
ATOM      3  N   UNL d   1      -1.172   2.484  -0.084  0.00  0.00    -0.363 N 
ATOM      4  N   UNL d   1      -4.215   6.501   0.512  0.00  0.00    -0.309 N 
ATOM      5  O   UNL d   1      -2.713   7.005  -1.154  0.00  0.00    -0.247 OA
ATOM      6  C   UNL d   1      -1.372   4.729  -0.976  0.00  0.00     0.147 C 
ATOM      7  C   UNL d   1      -2.749   4.033   0.973  0.00  0.00     0.147 C 
ATOM      8  C   UNL d   1      -2.475   2.555   0.597  0.00  0.00     0.144 C 
ATOM      9  C   UNL d   1      -1.190   3.251  -1.342  0.00  0.00     0.144 C 
ATOM     10  H   UNL d   1      -4.471   5.814   1.198  0.00  0.00     0.170 HD
ENDROOT
BRANCH   4  11
ATOM     11  C   UNL d   1      -4.973   7.691   0.527  0.00  0.00     0.039 A 
ATOM     12  C   UNL d   1      -4.783   8.757  -0.368  0.00  0.00     0.053 A 
ATOM     13  C   UNL d   1      -5.549   9.920  -0.259  0.00  0.00     0.037 A 
ATOM     14 CL   UNL d   1      -5.281  11.222  -1.352  0.00  0.00    -0.084 Cl
ATOM     15  C   UNL d   1      -6.521  10.041   0.726  0.00  0.00     0.048 A 
ATOM     16  C   UNL d   1      -6.733   8.981   1.598  0.00  0.00     0.037 A 
ATOM     17  C   UNL d   1      -5.970   7.813   1.503  0.00  0.00     0.053 A 
ATOM     18 CL   UNL d   1      -7.943   9.108   2.816  0.00  0.00    -0.084 Cl
ENDBRANCH   4  11
BRANCH   3  19
ATOM     19  C   UNL d   1      -0.528   1.260  -0.107  0.00  0.00     0.118 A 
ATOM     20  C   UNL d   1       0.860   1.164  -0.236  0.00  0.00     0.091 A 
ATOM     21  C   UNL d   1       1.453  -0.114  -0.219  0.00  0.00     0.021 A 
ATOM     22  C   UNL d   1       0.674  -1.242  -0.033  0.00  0.00     0.018 A 
ATOM     23  C   UNL d   1      -0.682  -1.059   0.117  0.00  0.00     0.089 A 
ATOM     24  N   UNL d   1      -1.285   0.151   0.082  0.00  0.00    -0.352 N 
ATOM     25  HN  UNL d   1      -2.295   0.228   0.197  1.00  0.00     0.166 HD
BRANCH  20  26
ATOM     26  C   UNL d   1       1.784   2.344  -0.348  0.00  0.00     0.421 C 
ATOM     27  F   UNL d   1       1.266   3.570  -0.079  0.00  0.00    -0.166 F 
ATOM     28  F   UNL d   1       2.861   2.233   0.490  0.00  0.00    -0.166 F 
ATOM     29  F   UNL d   1       2.322   2.446  -1.601  0.00  0.00    -0.166 F 
ENDBRANCH  20  26
ENDBRANCH   3  19
TORSDOF 3
