REMARK  3 active torsions:
REMARK  status: ('A' for Active; 'I' for Inactive)
REMARK    1  A    between atoms: N_8  and  S_1 
REMARK    2  A    between atoms: C_16  and  S_1 
REMARK    3  A    between atoms: C_11  and  N_8 
ROOT
ATOM      1  C   UNL d   1       0.203   1.168  -4.562  0.00  0.00     0.069 A 
ATOM      2  S   UNL d   1       0.239   2.435  -6.614  0.00  0.00     0.068 SA
ATOM      3  C   UNL d   1       1.597   1.103  -5.129  0.00  0.00     0.067 A 
ATOM      4  C   UNL d   1      -0.123   0.511  -3.353  0.00  0.00     0.062 A 
ATOM      5  N   UNL d   1      -0.640   1.894  -5.311  0.00  0.00    -0.310 N 
ATOM      6  HN  UNL d   1      -1.625   2.078  -5.120  1.00  0.00     0.176 HD
ATOM      7  N   UNL d   1       1.728   1.774  -6.283  0.00  0.00    -0.310 N 
ATOM      8  HN  UNL d   1       2.573   1.860  -6.847  1.00  0.00     0.176 HD
ATOM      9  C   UNL d   1       0.931  -0.170  -2.721  0.00  0.00     0.044 A 
ATOM     10  C   UNL d   1       2.619   0.392  -4.457  0.00  0.00     0.035 A 
ATOM     11  C   UNL d   1       2.247  -0.220  -3.244  0.00  0.00     0.032 A 
ENDROOT
BRANCH   9  12
ATOM     12  N   UNL d   1       0.680  -0.794  -1.464  0.00  0.00    -0.281 N 
ATOM     13  H   UNL d   1      -0.173  -1.345  -1.369  0.00  0.00     0.179 HD
BRANCH  12  14
ATOM     14  S   UNL d   1       1.024   0.066  -0.043  0.00  0.00     0.263 S 
ATOM     15  O   UNL d   1       2.425   0.431  -0.043  0.00  0.00    -0.200 OA
ATOM     16  O   UNL d   1       0.441  -0.698   1.038  0.00  0.00    -0.200 OA
BRANCH  14  17
ATOM     17  C   UNL d   1       0.063   1.553  -0.230  0.00  0.00     0.079 A 
ATOM     18  C   UNL d   1      -1.266   1.579   0.204  0.00  0.00     0.025 A 
ATOM     19  C   UNL d   1      -2.029   2.730   0.000  0.00  0.00     0.002 A 
ATOM     20  C   UNL d   1      -1.464   3.842  -0.626  0.00  0.00     0.000 A 
ATOM     21  C   UNL d   1      -0.128   3.820  -1.032  0.00  0.00     0.002 A 
ATOM     22  C   UNL d   1       0.645   2.679  -0.822  0.00  0.00     0.025 A 
ENDBRANCH  14  17
ENDBRANCH  12  14
ENDBRANCH   9  12
TORSDOF 3
