REMARK  4 active torsions:
REMARK  status: ('A' for Active; 'I' for Inactive)
REMARK    1  A    between atoms: C_6  and  C_1 
REMARK    2  A    between atoms: C_7  and  N_2 
REMARK    3  A    between atoms: O_11  and  C_6 
REMARK    4  A    between atoms: C_13  and  C_7 
ROOT
ATOM      1  C   UNL d   1      -0.486  -1.267   0.019  0.00  0.00     0.061 A 
ATOM      2  N   UNL d   1       0.899   0.504   0.055  0.00  0.00    -0.349 N 
ATOM      3  C   UNL d   1       0.846  -0.876   0.132  0.00  0.00     0.025 A 
ATOM      4  C   UNL d   1      -1.250  -0.066  -0.049  0.00  0.00     0.045 A 
ATOM      5  C   UNL d   1      -0.386   1.009  -0.004  0.00  0.00     0.009 A 
ATOM      6  C   UNL d   1       2.052  -1.743   0.299  0.00  0.00     0.069 C 
ATOM      7  C   UNL d   1      -0.700   2.465  -0.030  0.00  0.00     0.068 C 
ENDROOT
BRANCH   2   8
ATOM      8  C   UNL d   1       2.123   1.309  -0.029  0.00  0.00     0.167 C 
BRANCH   8   9
ATOM      9  C   UNL d   1       2.565   1.932   1.274  0.00  0.00    -0.037 A 
ATOM     10  C   UNL d   1       2.023   1.606   2.521  0.00  0.00     0.026 A 
ATOM     11  C   UNL d   1       2.496   2.256   3.651  0.00  0.00     0.088 A 
ATOM     12  N   UNL d   1       3.472   3.187   3.630  0.00  0.00    -0.375 N 
ATOM     13  C   UNL d   1       4.003   3.478   2.426  0.00  0.00     0.088 A 
ATOM     14  HN  UNL d   1       3.792   3.648   4.482  1.00  0.00     0.164 HD
ATOM     15  C   UNL d   1       3.592   2.886   1.240  0.00  0.00     0.026 A 
ENDBRANCH   8   9
ENDBRANCH   2   8
BRANCH   1  16
ATOM     16  C   UNL d   1      -0.957  -2.653  -0.028  0.00  0.00     0.178 C 
ATOM     17  O   UNL d   1      -0.272  -3.598  -0.388  0.00  0.00    -0.646 OA
BRANCH  16  18
ATOM     18  O   UNL d   1      -2.241  -2.822   0.381  0.00  0.00    -0.773 OA
ATOM     19  H   UNL d   1      -2.612  -2.002   0.750  0.00  0.00     0.167 HD
ENDBRANCH  16  18
ENDBRANCH   1  16
TORSDOF 4
