REMARK  4 active torsions:
REMARK  status: ('A' for Active; 'I' for Inactive)
REMARK    1  A    between atoms: C_4  and  N_1 
REMARK       I    between atoms: C_2  and  N_6 
REMARK    2  A    between atoms: C_3  and  C_2 
REMARK    3  A    between atoms: C_5  and  C_9 
REMARK       I    between atoms: N_8  and  C_5 
REMARK    4  A    between atoms: N_6  and  N_8 
ROOT
ATOM      1  C   UNL d   1      -1.802  -4.556  -2.042  0.00  0.00     0.270 C 
ATOM      2  N   UNL d   1      -2.903  -4.407  -2.864  0.00  0.00    -0.263 N 
ATOM      3  O   UNL d   1      -1.371  -5.670  -1.751  0.00  0.00    -0.266 OA
ATOM      4  H   UNL d   1      -3.304  -3.526  -3.173  0.00  0.00     0.190 HD
ENDROOT
BRANCH   1   5
ATOM      5  C   UNL d   1      -1.133  -3.324  -1.516  0.00  0.00     0.034 A 
ATOM      6  C   UNL d   1      -0.018  -3.507  -0.681  0.00  0.00     0.019 A 
ATOM      7  C   UNL d   1       0.670  -2.413  -0.154  0.00  0.00     0.037 A 
ATOM      8  C   UNL d   1       0.246  -1.117  -0.470  0.00  0.00     0.108 A 
ATOM      9  C   UNL d   1      -0.852  -0.889  -1.319  0.00  0.00    -0.028 A 
ATOM     10  C   UNL d   1      -1.544  -2.014  -1.823  0.00  0.00     0.026 A 
ATOM     11  C   UNL d   1      -1.314   0.477  -1.751  0.00  0.00     0.050 C 
BRANCH   8  12
ATOM     12  N   UNL d   1       0.990  -0.016   0.124  0.00  0.00    -0.115 N 
ATOM     13  O   UNL d   1       0.364   0.756   0.861  0.00  0.00    -0.532 OA
ATOM     14  O   UNL d   1       2.198   0.049  -0.135  0.00  0.00    -0.532 OA
ENDBRANCH   8  12
ENDBRANCH   1   5
BRANCH   2  15
ATOM     15  N   UNL d   1      -3.493  -5.571  -3.384  0.00  0.00    -0.260 N 
ATOM     16  C   UNL d   1      -4.505  -5.447  -4.327  0.00  0.00     0.343 C 
ATOM     17  O   UNL d   1      -4.930  -4.335  -4.659  0.00  0.00    -0.262 OA
ATOM     18  H   UNL d   1      -3.072  -6.465  -3.117  0.00  0.00     0.190 HD
BRANCH  16  19
ATOM     19  C   UNL d   1      -5.035  -6.782  -4.876  0.00  0.00     0.473 C 
ATOM     20  F   UNL d   1      -4.284  -7.845  -4.464  0.00  0.00    -0.162 F 
ATOM     21  F   UNL d   1      -6.309  -7.038  -4.473  0.00  0.00    -0.162 F 
ATOM     22  F   UNL d   1      -5.040  -6.824  -6.237  0.00  0.00    -0.162 F 
ENDBRANCH  16  19
ENDBRANCH   2  15
TORSDOF 4
