REMARK  5 active torsions:
REMARK  status: ('A' for Active; 'I' for Inactive)
REMARK    1  A    between atoms: N_10  and  C_1 
REMARK    2  A    between atoms: C_4  and  C_8 
REMARK    3  A    between atoms: C_11  and  CA_6 
REMARK       I    between atoms: C_8  and  N_10 
REMARK    4  A    between atoms: C_17  and  C_9 
REMARK    5  A    between atoms: OXT_19  and  C_11 
ROOT
ATOM      1  C   UNL d   1       0.194  -3.487  -0.356  0.00  0.00     0.276 C 
ATOM      2  N   UNL d   1      -0.488  -2.247  -0.118  0.00  0.00    -0.306 N 
ATOM      3  O   UNL d   1       1.419  -3.499  -0.327  0.00  0.00    -0.266 OA
ATOM      4  H   UNL d   1      -1.508  -2.218  -0.129  0.00  0.00     0.170 HD
ENDROOT
BRANCH   2   5
ATOM      5  C   UNL d   1       0.139  -1.011   0.036  0.00  0.00     0.126 A 
ATOM      6  C   UNL d   1       1.477  -0.691  -0.004  0.00  0.00     0.082 A 
ATOM      7  C   UNL d   1       1.551   0.730   0.088  0.00  0.00     0.062 A 
ATOM      8  N   UNL d   1       0.323   1.243   0.264  0.00  0.00    -0.296 N 
ATOM      9  N   UNL d   1      -0.503   0.190   0.208  0.00  0.00    -0.281 N 
ATOM     10  HN  UNL d   1       0.074   2.221   0.410  1.00  0.00     0.187 HD
ATOM     11  C   UNL d   1      -1.927   0.422   0.243  0.00  0.00     0.179 C 
BRANCH   7  12
ATOM     12  C   UNL d   1       2.726   1.601  -0.049  0.00  0.00    -0.008 A 
ATOM     13  C   UNL d   1       3.983   1.087  -0.401  0.00  0.00     0.014 A 
ATOM     14  C   UNL d   1       5.067   1.944  -0.624  0.00  0.00     0.001 A 
ATOM     15  C   UNL d   1       4.910   3.322  -0.492  0.00  0.00     0.000 A 
ATOM     16  C   UNL d   1       3.675   3.846  -0.120  0.00  0.00     0.001 A 
ATOM     17  C   UNL d   1       2.594   2.991   0.103  0.00  0.00     0.014 A 
ENDBRANCH   7  12
ENDBRANCH   2   5
BRANCH   1  18
ATOM     18  C   UNL d   1      -0.549  -4.770  -0.626  0.00  0.00     0.134 A 
ATOM     19  CA  UNL d   1      -1.854  -4.933  -1.074  0.00  0.00     0.139 A 
ATOM     20  N   UNL d   1      -2.383  -6.163  -1.411  0.00  0.00    -0.357 N 
ATOM     21  C   UNL d   1      -1.567  -7.229  -1.254  0.00  0.00     0.105 A 
ATOM     22  HN  UNL d   1      -3.336  -6.261  -1.759  1.00  0.00     0.165 HD
ATOM     23  C   UNL d   1      -0.278  -7.091  -0.787  0.00  0.00     0.105 A 
ATOM     24  N   UNL d   1       0.244  -5.883  -0.476  0.00  0.00    -0.358 N 
ATOM     25  HN  UNL d   1       1.203  -5.799  -0.137  1.00  0.00     0.165 HD
BRANCH  19  26
ATOM     26  C   UNL d   1      -2.846  -3.843  -1.245  0.00  0.00     0.196 C 
ATOM     27  O   UNL d   1      -2.719  -2.710  -0.817  0.00  0.00    -0.645 OA
BRANCH  26  28
ATOM     28  OXT UNL d   1      -3.946  -4.272  -1.901  0.00  0.00    -0.772 OA
ATOM     29  HXT UNL d   1      -3.888  -5.242  -2.086  0.00  0.00     0.167 HD
ENDBRANCH  26  28
ENDBRANCH  19  26
ENDBRANCH   1  18
TORSDOF 5
