REMARK  3 active torsions:
REMARK  status: ('A' for Active; 'I' for Inactive)
REMARK    1  A    between atoms: C_2  and  C_1 
REMARK       I    between atoms: N_7  and  C_2 
REMARK    2  A    between atoms: C_10  and  N_7 
REMARK    3  A    between atoms: N_9  and  C_11 
ROOT
ATOM      1  C   UNL d   1       2.110  -3.141   0.106  0.00  0.00     0.056 A 
ATOM      2  C   UNL d   1       2.351  -1.995   0.914  0.00  0.00     0.037 A 
ATOM      3  C   UNL d   1       3.173  -3.850  -0.467  0.00  0.00     0.031 A 
ATOM      4  C   UNL d   1       3.689  -1.604   1.098  0.00  0.00     0.026 A 
ATOM      5  C   UNL d   1       4.486  -3.430  -0.271  0.00  0.00     0.002 A 
ATOM      6  C   UNL d   1       4.744  -2.309   0.509  0.00  0.00     0.002 A 
ENDROOT
BRANCH   1   7
ATOM      7  N   UNL d   1       0.763  -3.486  -0.149  0.00  0.00    -0.321 N 
ATOM      8  C   UNL d   1       0.270  -4.728  -0.501  0.00  0.00     0.266 C 
ATOM      9  O   UNL d   1       0.970  -5.732  -0.634  0.00  0.00    -0.267 OA
ATOM     10  H   UNL d   1       0.109  -2.763   0.137  0.00  0.00     0.169 HD
BRANCH   8  11
ATOM     11  C   UNL d   1      -1.167  -4.800  -0.614  0.00  0.00     0.110 A 
ATOM     12  C   UNL d   1      -2.034  -5.859  -0.377  0.00  0.00     0.043 A 
ATOM     13  N   UNL d   1      -3.374  -5.574  -0.629  0.00  0.00    -0.296 N 
ATOM     14  C   UNL d   1      -1.712  -7.218   0.131  0.00  0.00     0.071 C 
ATOM     15  N   UNL d   1      -3.547  -4.336  -1.056  0.00  0.00    -0.061 NA
ATOM     16  HN  UNL d   1      -4.133  -6.243  -0.499  1.00  0.00     0.183 HD
ATOM     17  S   UNL d   1      -2.117  -3.483  -1.164  0.00  0.00     0.007 SA
ENDBRANCH   8  11
ENDBRANCH   1   7
BRANCH   2  18
ATOM     18  N   UNL d   1       1.265  -1.288   1.490  0.00  0.00    -0.281 NA
ATOM     19  C   UNL d   1       1.516   0.116   1.873  0.00  0.00     0.096 C 
ATOM     20  C   UNL d   1       0.179   0.827   2.092  0.00  0.00     0.015 C 
ATOM     21  C   UNL d   1      -0.713   0.081   3.084  0.00  0.00     0.002 C 
ATOM     22  C   UNL d   1      -0.822  -1.403   2.731  0.00  0.00     0.015 C 
ATOM     23  C   UNL d   1       0.565  -2.028   2.564  0.00  0.00     0.096 C 
ENDBRANCH   2  18
TORSDOF 3
