REMARK  7 active torsions:
REMARK  status: ('A' for Active; 'I' for Inactive)
REMARK    1  A    between atoms: C_6  and  C_1 
REMARK    2  A    between atoms: C_7  and  C_2 
REMARK    3  A    between atoms: S_4  and  C_3 
REMARK    4  A    between atoms: C_5  and  S_4 
REMARK    5  A    between atoms: O_16  and  C_6 
REMARK    6  A    between atoms: O_17  and  C_7 
REMARK       I    between atoms: C_9  and  N_10 
REMARK    7  A    between atoms: N_10  and  C_11 
ROOT
ATOM      1  C   UNL d   1       1.361  -0.064  -0.243  0.00  0.00     0.057 A 
ATOM      2  C   UNL d   1       0.598  -1.249  -0.236  0.00  0.00     0.022 A 
ATOM      3  C   UNL d   1       0.695   1.175  -0.098  0.00  0.00     0.049 A 
ATOM      4  C   UNL d   1      -0.689   1.278   0.033  0.00  0.00     0.035 A 
ATOM      5  C   UNL d   1      -0.804  -1.138  -0.107  0.00  0.00     0.022 A 
ATOM      6  C   UNL d   1      -1.440   0.107   0.020  0.00  0.00     0.031 A 
ENDROOT
BRANCH   2   7
ATOM      7  S   UNL d   1       1.258  -2.929  -0.186  0.00  0.00    -0.088 SA
BRANCH   7   8
ATOM      8  C   UNL d   1       1.326  -3.441  -1.907  0.00  0.00     0.022 A 
ATOM      9  C   UNL d   1       2.480  -3.995  -2.505  0.00  0.00     0.054 A 
ATOM     10  C   UNL d   1       2.496  -4.227  -3.892  0.00  0.00     0.020 A 
ATOM     11  C   UNL d   1       1.377  -3.961  -4.677  0.00  0.00     0.001 A 
ATOM     12  C   UNL d   1       0.209  -3.509  -4.076  0.00  0.00     0.001 A 
ATOM     13  C   UNL d   1       0.180  -3.268  -2.702  0.00  0.00     0.020 A 
BRANCH   9  14
ATOM     14  C   UNL d   1       3.750  -4.336  -1.801  0.00  0.00     0.177 C 
ATOM     15  O   UNL d   1       4.835  -4.296  -2.363  0.00  0.00    -0.646 OA
BRANCH  14  16
ATOM     16  O   UNL d   1       3.618  -4.761  -0.531  0.00  0.00    -0.773 OA
ATOM     17  H   UNL d   1       2.704  -4.826  -0.194  0.00  0.00     0.167 HD
ENDBRANCH  14  16
ENDBRANCH   9  14
ENDBRANCH   7   8
ENDBRANCH   2   7
BRANCH   1  18
ATOM     18  C   UNL d   1       2.850   0.074  -0.371  0.00  0.00     0.177 C 
ATOM     19  O   UNL d   1       3.421   1.145  -0.243  0.00  0.00    -0.646 OA
BRANCH  18  20
ATOM     20  O   UNL d   1       3.538  -1.035  -0.685  0.00  0.00    -0.773 OA
ATOM     21  H   UNL d   1       3.017  -1.851  -0.667  0.00  0.00     0.167 HD
ENDBRANCH  18  20
ENDBRANCH   1  18
BRANCH   4  22
ATOM     22  N   UNL d   1      -1.348   2.518   0.217  0.00  0.00    -0.327 N 
ATOM     23  C   UNL d   1      -0.793   3.773   0.019  0.00  0.00     0.218 C 
ATOM     24  O   UNL d   1       0.311   4.014  -0.453  0.00  0.00    -0.274 OA
ATOM     25  C   UNL d   1      -1.690   4.915   0.418  0.00  0.00     0.117 C 
ATOM     26  H   UNL d   1      -2.331   2.478   0.466  0.00  0.00     0.169 HD
ENDBRANCH   4  22
TORSDOF 7
