REMARK  7 active torsions:
REMARK  status: ('A' for Active; 'I' for Inactive)
REMARK    1  A    between atoms: C_9  and  N_1 
REMARK    2  A    between atoms: S_16  and  C_2 
REMARK    3  A    between atoms: O_19  and  C_3 
REMARK    4  A    between atoms: S_4  and  C_13 
REMARK    5  A    between atoms: C_12  and  S_4 
REMARK    6  A    between atoms: C_13  and  C_20 
REMARK    7  A    between atoms: C_20  and  S_16 
ROOT
ATOM      1  S   UNL d   1       2.572  -1.202  -0.418  0.00  0.00    -0.091 SA
ENDROOT
BRANCH   1   2
ATOM      2  C   UNL d   1       0.876  -0.861  -0.576  0.00  0.00     0.164 A 
ATOM      3  N   UNL d   1       0.287   0.375  -0.741  0.00  0.00    -0.286 N 
ATOM      4  C   UNL d   1      -1.066   0.108  -0.797  0.00  0.00     0.240 A 
ATOM      5  N   UNL d   1      -1.269  -1.188  -0.716  0.00  0.00    -0.263 N 
ATOM      6  N   UNL d   1      -0.051  -1.794  -0.568  0.00  0.00    -0.277 N 
ATOM      7  HN  UNL d   1      -2.174  -1.658  -0.757  1.00  0.00     0.190 HD
ATOM      8  HN  UNL d   1       0.110  -2.797  -0.469  1.00  0.00     0.189 HD
BRANCH   3   9
ATOM      9  C   UNL d   1       0.971   1.653  -0.902  0.00  0.00     0.096 A 
ATOM     10  C   UNL d   1       0.425   3.014  -0.491  0.00  0.00     0.028 A 
ATOM     11  C   UNL d   1       0.492   2.665  -1.937  0.00  0.00     0.028 A 
ENDBRANCH   3   9
BRANCH   4  12
ATOM     12  O   UNL d   1      -2.072   0.959  -0.926  0.00  0.00    -0.331 OA
ATOM     13  H   UNL d   1      -1.745   1.860  -0.817  0.00  0.00     0.221 HD
ENDBRANCH   4  12
ENDBRANCH   1   2
BRANCH   1  14
ATOM     14  C   UNL d   1       2.475  -3.004  -0.074  0.00  0.00     0.098 C 
BRANCH  14  15
ATOM     15  C   UNL d   1       3.794  -3.721   0.141  0.00  0.00     0.156 C 
BRANCH  15  16
ATOM     16  S   UNL d   1       4.642  -3.352   1.654  0.00  0.00     0.176 S 
ATOM     17  O   UNL d   1       5.707  -4.324   1.808  0.00  0.00    -0.223 OA
ATOM     18  O   UNL d   1       4.944  -1.931   1.697  0.00  0.00    -0.223 OA
BRANCH  16  19
ATOM     19  C   UNL d   1       3.476  -3.693   2.953  0.00  0.00     0.059 A 
ATOM     20  C   UNL d   1       3.126  -5.022   3.225  0.00  0.00     0.026 A 
ATOM     21  C   UNL d   1       2.221  -5.295   4.252  0.00  0.00     0.044 A 
ATOM     22  C   UNL d   1       1.693  -4.246   5.000  0.00  0.00     0.116 A 
ATOM     23  C   UNL d   1       2.057  -2.927   4.748  0.00  0.00     0.044 A 
ATOM     24  F   UNL d   1       0.828  -4.512   5.987  0.00  0.00    -0.206 F 
ATOM     25  C   UNL d   1       2.959  -2.643   3.721  0.00  0.00     0.026 A 
ENDBRANCH  16  19
ENDBRANCH  15  16
ENDBRANCH  14  15
ENDBRANCH   1  14
TORSDOF 7
