REMARK  2 active torsions:
REMARK  status: ('A' for Active; 'I' for Inactive)
REMARK    1  A    between atoms: C_2  and  C_8 
REMARK    2  A    between atoms: C_10  and  C_3 
ROOT
ATOM      1  C   UNL d   1      -0.170   0.814   0.024  0.00  0.00    -0.007 A 
ATOM      2  C   UNL d   1      -1.581   1.327   0.155  0.00  0.00     0.287 C 
ATOM      3  C   UNL d   1       0.117  -0.531  -0.125  0.00  0.00    -0.007 A 
ATOM      4  S   UNL d   1       1.782  -0.854  -0.215  0.00  0.00    -0.106 SA
ATOM      5  N   UNL d   1      -2.545   0.337  -0.368  0.00  0.00     0.097 N 
ATOM      6  C   UNL d   1       1.033   1.593   0.032  0.00  0.00     0.018 A 
ATOM      7  C   UNL d   1       2.162   0.810  -0.075  0.00  0.00     0.051 A 
ATOM      8  C   UNL d   1      -0.923  -1.602  -0.213  0.00  0.00     0.076 C 
ATOM      9  C   UNL d   1      -2.307  -1.025   0.152  0.00  0.00     0.276 C 
ATOM     10  H   UNL d   1      -2.419   0.310  -1.379  0.00  0.00     0.317 HD
ENDROOT
BRANCH   2  11
ATOM     11  C   UNL d   1      -1.839   1.716   1.607  0.00  0.00    -0.021 A 
ATOM     12  C   UNL d   1      -2.766   2.740   1.869  0.00  0.00     0.010 A 
ATOM     13  C   UNL d   1      -3.079   3.120   3.178  0.00  0.00     0.017 A 
ATOM     14  C   UNL d   1      -2.481   2.476   4.269  0.00  0.00     0.047 A 
ATOM     15  C   UNL d   1      -1.558   1.453   4.021  0.00  0.00     0.017 A 
ATOM     16  C   UNL d   1      -1.247   1.076   2.712  0.00  0.00     0.010 A 
BRANCH  14  17
ATOM     17  C   UNL d   1      -2.824   2.847   5.689  0.00  0.00     0.417 C 
ATOM     18  F   UNL d   1      -3.726   3.864   5.788  0.00  0.00    -0.166 F 
ATOM     19  F   UNL d   1      -3.361   1.805   6.384  0.00  0.00    -0.166 F 
ATOM     20  F   UNL d   1      -1.734   3.247   6.402  0.00  0.00    -0.166 F 
ENDBRANCH  14  17
ENDBRANCH   2  11
TORSDOF 2
