REMARK  5 active torsions:
REMARK  status: ('A' for Active; 'I' for Inactive)
REMARK    1  A    between atoms: C_2  and  C_1 
REMARK       I    between atoms: N_5  and  C_1 
REMARK    2  A    between atoms: C_3  and  C_4 
REMARK    3  A    between atoms: O_11  and  C_3 
REMARK    4  A    between atoms: C_8  and  N_5 
REMARK    5  A    between atoms: S_10  and  C_9 
ROOT
ATOM      1  C   UNL d   1       1.043  -0.244   0.643  0.00  0.00     0.245 C 
ATOM      2  N   UNL d   1       0.191   0.839   0.590  0.00  0.00    -0.324 N 
ATOM      3  O   UNL d   1       0.748  -1.416   0.844  0.00  0.00    -0.268 OA
ATOM      4  H   UNL d   1       0.596   1.747   0.402  0.00  0.00     0.169 HD
ENDROOT
BRANCH   2   5
ATOM      5  C   UNL d   1      -1.211   0.821   0.761  0.00  0.00     0.035 A 
ATOM      6  C   UNL d   1      -1.945  -0.333   1.031  0.00  0.00     0.031 A 
ATOM      7  C   UNL d   1      -3.339  -0.283   1.164  0.00  0.00     0.021 A 
ATOM      8  C   UNL d   1      -4.028   0.921   1.022  0.00  0.00    -0.000 A 
ATOM      9  C   UNL d   1      -3.290   2.085   0.788  0.00  0.00     0.021 A 
ATOM     10  C   UNL d   1      -1.896   2.037   0.655  0.00  0.00     0.031 A 
BRANCH   8  11
ATOM     11  S   UNL d   1      -5.803   1.055   1.168  0.00  0.00    -0.134 SA
ATOM     12  C   UNL d   1      -6.357  -0.530   0.477  0.00  0.00     0.095 C 
ENDBRANCH   8  11
ENDBRANCH   2   5
BRANCH   1  13
ATOM     13  C   UNL d   1       2.463   0.137   0.429  0.00  0.00     0.081 C 
ATOM     14  C   UNL d   1       3.408  -0.807   0.548  0.00  0.00     0.086 C 
BRANCH  14  15
ATOM     15  C   UNL d   1       4.815  -0.436   0.345  0.00  0.00     0.165 C 
ATOM     16  O   UNL d   1       5.190   0.684   0.046  0.00  0.00    -0.647 OA
BRANCH  15  17
ATOM     17  O   UNL d   1       5.650  -1.475   0.533  0.00  0.00    -0.773 OA
ATOM     18  H   UNL d   1       5.228  -2.320   0.776  0.00  0.00     0.167 HD
ENDBRANCH  15  17
ENDBRANCH  14  15
ENDBRANCH   1  13
TORSDOF 5
