REMARK  5 active torsions:
REMARK  status: ('A' for Active; 'I' for Inactive)
REMARK    1  A    between atoms: C_13  and  C_1 
REMARK    2  A    between atoms: C_14  and  C_5 
REMARK    3  A    between atoms: C_6  and  C_19 
REMARK    4  A    between atoms: C_21  and  N_9 
REMARK       I    between atoms: N_22  and  C_13 
REMARK    5  A    between atoms: N_16  and  N_22 
ROOT
ATOM      1  N   UNL d   1      -0.347  -4.291  -1.542  0.00  0.00    -0.308 N 
ATOM      2  HN  UNL d   1      -0.856  -4.072  -2.398  1.00  0.00     0.186 HD
ATOM      3  C   UNL d   1      -0.948  -4.503  -0.415  0.00  0.00     0.122 C 
ENDROOT
BRANCH   3   4
ATOM      4  C   UNL d   1      -2.374  -4.301  -0.316  0.00  0.00     0.028 A 
ATOM      5  C   UNL d   1      -3.307  -4.771   0.644  0.00  0.00     0.078 A 
ATOM      6  N   UNL d   1      -4.504  -4.183   0.499  0.00  0.00    -0.292 N 
ATOM      7  N   UNL d   1      -4.389  -3.407  -0.611  0.00  0.00    -0.266 N 
ATOM      8  HN  UNL d   1      -5.325  -4.294   1.094  1.00  0.00     0.187 HD
ATOM      9  C   UNL d   1      -3.122  -3.483  -1.137  0.00  0.00     0.132 A 
BRANCH   5  10
ATOM     10  C   UNL d   1      -3.082  -5.804   1.719  0.00  0.00     0.034 A 
ATOM     11  S   UNL d   1      -1.847  -6.989   1.686  0.00  0.00    -0.100 SA
ATOM     12  C   UNL d   1      -2.386  -7.698   3.144  0.00  0.00     0.050 A 
ATOM     13  C   UNL d   1      -3.463  -7.024   3.673  0.00  0.00     0.008 A 
ATOM     14  C   UNL d   1      -3.882  -5.946   2.836  0.00  0.00     0.021 A 
ENDBRANCH   5  10
BRANCH   7  15
ATOM     15  C   UNL d   1      -5.466  -2.597  -1.075  0.00  0.00     0.056 A 
ATOM     16  C   UNL d   1      -5.302  -1.735  -2.173  0.00  0.00     0.031 A 
ATOM     17  C   UNL d   1      -6.346  -0.909  -2.586  0.00  0.00     0.002 A 
ATOM     18  C   UNL d   1      -7.569  -0.935  -1.917  0.00  0.00     0.000 A 
ATOM     19  C   UNL d   1      -7.750  -1.803  -0.840  0.00  0.00     0.002 A 
ATOM     20  C   UNL d   1      -6.708  -2.632  -0.417  0.00  0.00     0.031 A 
ENDBRANCH   7  15
ENDBRANCH   3   4
BRANCH   1  21
ATOM     21  N   UNL d   1       1.021  -4.382  -1.504  0.00  0.00    -0.265 N 
ATOM     22  C   UNL d   1       1.776  -4.320  -2.671  0.00  0.00     0.289 C 
ATOM     23  O   UNL d   1       1.291  -4.434  -3.793  0.00  0.00    -0.264 OA
ATOM     24  H   UNL d   1       1.485  -4.450  -0.607  0.00  0.00     0.190 HD
BRANCH  22  25
ATOM     25  C   UNL d   1       3.196  -4.141  -2.443  0.00  0.00     0.132 A 
ATOM     26  N   UNL d   1       4.209  -4.614  -3.268  0.00  0.00    -0.302 N 
ATOM     27  C   UNL d   1       5.415  -4.257  -2.667  0.00  0.00     0.112 A 
ATOM     28  C   UNL d   1       4.157  -5.329  -4.471  0.00  0.00     0.099 A 
ATOM     29  C   UNL d   1       6.622  -4.672  -3.299  0.00  0.00     0.049 A 
ATOM     30  N   UNL d   1       5.225  -3.548  -1.579  0.00  0.00    -0.344 N 
ATOM     31  C   UNL d   1       6.571  -5.364  -4.453  0.00  0.00     0.005 A 
ATOM     32  C   UNL d   1       5.301  -5.699  -5.075  0.00  0.00     0.018 A 
ATOM     33  C   UNL d   1       3.865  -3.422  -1.455  0.00  0.00     0.040 A 
ATOM     34  HN  UNL d   1       5.939  -3.170  -0.957  1.00  0.00     0.167 HD
ATOM     35  C   UNL d   1       3.332  -2.545  -0.382  0.00  0.00     0.071 C 
ENDBRANCH  22  25
ENDBRANCH   1  21
TORSDOF 5
