REMARK  4 active torsions:
REMARK  status: ('A' for Active; 'I' for Inactive)
REMARK    1  A    between atoms: S_14  and  C_2 
REMARK    2  A    between atoms: C_8  and  C_15 
REMARK    3  A    between atoms: C_18  and  S_14 
REMARK    4  A    between atoms: C_20  and  C_18 
ROOT
ATOM      1  C   UNL d   1       3.463   7.103  -0.323  0.00  0.00    -0.008 A 
ATOM      2  C   UNL d   1       4.210   6.046  -0.857  0.00  0.00     0.014 A 
ATOM      3  C   UNL d   1       2.241   6.810   0.291  0.00  0.00     0.014 A 
ATOM      4  C   UNL d   1       2.501   4.432  -0.193  0.00  0.00    -0.048 A 
ATOM      5  C   UNL d   1       1.775   5.491   0.371  0.00  0.00     0.009 A 
ATOM      6  C   UNL d   1       3.739   4.727  -0.787  0.00  0.00     0.009 A 
ENDROOT
BRANCH   4   7
ATOM      7  C   UNL d   1       2.041   2.988  -0.107  0.00  0.00     0.121 C 
BRANCH   7   8
ATOM      8  S   UNL d   1       0.237   2.765  -0.259  0.00  0.00    -0.088 SA
BRANCH   8   9
ATOM      9  C   UNL d   1       0.093   1.062  -0.017  0.00  0.00     0.162 A 
ATOM     10  N   UNL d   1      -1.096   0.395   0.045  0.00  0.00    -0.326 N 
ATOM     11  C   UNL d   1      -0.771  -0.919   0.220  0.00  0.00     0.201 A 
ATOM     12  C   UNL d   1      -2.443   0.891  -0.041  0.00  0.00     0.159 C 
ATOM     13  N   UNL d   1       0.537  -1.047   0.275  0.00  0.00    -0.294 N 
ATOM     14  N   UNL d   1       1.082   0.208   0.126  0.00  0.00    -0.279 N 
ATOM     15  HN  UNL d   1       1.053  -1.918   0.405  1.00  0.00     0.187 HD
ATOM     16  HN  UNL d   1       2.076   0.435   0.127  1.00  0.00     0.189 HD
ENDBRANCH   8   9
ENDBRANCH   7   8
ENDBRANCH   4   7
BRANCH   1  17
ATOM     17  C   UNL d   1       3.957   8.472  -0.423  0.00  0.00     0.063 A 
ATOM     18  N   UNL d   1       4.805   8.862  -1.457  0.00  0.00    -0.292 N 
ATOM     19  N   UNL d   1       5.124  10.143  -1.380  0.00  0.00    -0.061 NA
ATOM     20  HN  UNL d   1       5.141   8.233  -2.187  1.00  0.00     0.183 HD
ATOM     21  S   UNL d   1       4.434  10.907  -0.063  0.00  0.00    -0.010 SA
ATOM     22  C   UNL d   1       3.647   9.480   0.474  0.00  0.00     0.096 A 
ENDBRANCH   1  17
TORSDOF 4
