REMARK  2 active torsions:
REMARK  status: ('A' for Active; 'I' for Inactive)
REMARK    1  A    between atoms: C_2  and  C_1 
REMARK    2  A    between atoms: C_13  and  C_10 
ROOT
ATOM      1  C   UNL d   1      -0.600   2.625   0.046  0.00  0.00     0.104 A 
ATOM      2  N   UNL d   1      -1.495   2.943   0.960  0.00  0.00    -0.348 N 
ATOM      3  HN  UNL d   1      -1.846   2.306   1.675  1.00  0.00     0.167 HD
ATOM      4  C   UNL d   1      -1.892   4.261   0.816  0.00  0.00     0.050 A 
ATOM      5  S   UNL d   1      -0.251   3.876  -1.086  0.00  0.00    -0.080 SA
ATOM      6  C   UNL d   1      -1.347   4.912  -0.273  0.00  0.00     0.082 A 
ENDROOT
BRANCH   1   7
ATOM      7  C   UNL d   1       0.085   1.279   0.010  0.00  0.00     0.105 A 
ATOM      8  C   UNL d   1      -0.190   0.163   0.844  0.00  0.00     0.082 A 
ATOM      9  C   UNL d   1       0.713  -0.802   0.466  0.00  0.00     0.136 A 
ATOM     10 CL   UNL d   1      -1.363   0.004   2.059  0.00  0.00    -0.080 Cl
ATOM     11  N   UNL d   1       1.465  -0.243  -0.521  0.00  0.00    -0.305 N 
ATOM     12  N   UNL d   1       1.088   1.005  -0.846  0.00  0.00    -0.295 N 
ATOM     13  C   UNL d   1       2.595  -0.852  -1.180  0.00  0.00     0.177 C 
ATOM     14  HN  UNL d   1       1.474   1.607  -1.573  1.00  0.00     0.187 HD
ENDBRANCH   1   7
BRANCH   4  15
ATOM     15  C   UNL d   1      -2.817   4.873   1.764  0.00  0.00    -0.009 A 
ATOM     16  C   UNL d   1      -2.787   6.249   2.035  0.00  0.00     0.015 A 
ATOM     17  C   UNL d   1      -3.662   6.809   2.972  0.00  0.00     0.024 A 
ATOM     18  C   UNL d   1      -4.571   5.995   3.644  0.00  0.00     0.034 A 
ATOM     19  C   UNL d   1      -4.611   4.626   3.391  0.00  0.00     0.024 A 
ATOM     20 CL   UNL d   1      -5.643   6.685   4.799  0.00  0.00    -0.084 Cl
ATOM     21  C   UNL d   1      -3.732   4.067   2.458  0.00  0.00     0.015 A 
ENDBRANCH   4  15
TORSDOF 2
