REMARK  6 active torsions:
REMARK  status: ('A' for Active; 'I' for Inactive)
REMARK    1  A    between atoms: C_9  and  N_1 
REMARK    2  A    between atoms: C_8  and  C_5 
REMARK    3  A    between atoms: C_12  and  C_9 
REMARK    4  A    between atoms: C_15  and  C_12 
REMARK    5  A    between atoms: C_13  and  C_14 
REMARK    6  A    between atoms: C_14  and  C_15 
ROOT
ATOM      1  N   UNL d   1       0.001   0.842  -0.088  0.00  0.00    -0.268 N 
ATOM      2  C   UNL d   1       1.093   0.029  -0.016  0.00  0.00     0.326 C 
ATOM      3  C   UNL d   1      -1.149   0.094  -0.092  0.00  0.00     0.255 C 
ATOM      4  N   UNL d   1       0.674  -1.279  -0.098  0.00  0.00    -0.325 N 
ATOM      5  C   UNL d   1      -0.759  -1.386  -0.028  0.00  0.00     0.212 C 
ATOM      6  O   UNL d   1       2.257   0.353   0.134  0.00  0.00    -0.247 OA
ATOM      7  O   UNL d   1      -2.295   0.527  -0.102  0.00  0.00    -0.270 OA
ATOM      8  H   UNL d   1       1.320  -2.041   0.055  0.00  0.00     0.165 HD
ENDROOT
BRANCH   1   9
ATOM      9  C   UNL d   1       0.028   2.283   0.058  0.00  0.00     0.137 C 
BRANCH   9  10
ATOM     10  C   UNL d   1       0.852   3.002  -1.008  0.00  0.00     0.020 C 
BRANCH  10  11
ATOM     11  C   UNL d   1       0.351   2.749  -2.431  0.00  0.00     0.002 C 
BRANCH  11  12
ATOM     12  C   UNL d   1       1.205   3.524  -3.435  0.00  0.00    -0.000 C 
BRANCH  12  13
ATOM     13  C   UNL d   1       0.756   3.284  -4.874  0.00  0.00    -0.005 C 
ATOM     14  C   UNL d   1       1.626   4.062  -5.849  0.00  0.00     0.005 C 
ENDBRANCH  12  13
ENDBRANCH  11  12
ENDBRANCH  10  11
ENDBRANCH   9  10
ENDBRANCH   1   9
BRANCH   5  15
ATOM     15  C   UNL d   1      -1.210  -2.067   1.243  0.00  0.00    -0.026 A 
ATOM     16  C   UNL d   1      -2.112  -3.139   1.182  0.00  0.00     0.010 A 
ATOM     17  C   UNL d   1      -2.519  -3.792   2.348  0.00  0.00     0.001 A 
ATOM     18  C   UNL d   1      -2.036  -3.378   3.588  0.00  0.00     0.000 A 
ATOM     19  C   UNL d   1      -1.154  -2.304   3.667  0.00  0.00     0.001 A 
ATOM     20  C   UNL d   1      -0.745  -1.652   2.504  0.00  0.00     0.010 A 
ENDBRANCH   5  15
TORSDOF 6
