REMARK  4 active torsions:
REMARK  status: ('A' for Active; 'I' for Inactive)
REMARK    1  A    between atoms: S_2  and  C_1 
REMARK    2  A    between atoms: C_4  and  C_3 
REMARK    3  A    between atoms: C_9  and  N_5 
REMARK    4  A    between atoms: C_6  and  C_10 
ROOT
ATOM      1  C   UNL d   1       1.096   0.431   2.035  0.00  0.00     0.140 C 
ATOM      2  C   UNL d   1       0.336   0.469   0.927  0.00  0.00     0.065 C 
ATOM      3  C   UNL d   1       0.612   0.539   3.364  0.00  0.00     0.111 C 
ATOM      4  N   UNL d   1       0.208   0.671   4.442  0.00  0.00    -0.191 NA
ENDROOT
BRANCH   1   5
ATOM      5  S   UNL d   1       2.817   0.278   1.828  0.00  0.00     0.181 S 
ATOM      6  O   UNL d   1       3.404  -0.361   2.990  0.00  0.00    -0.222 OA
ATOM      7  O   UNL d   1       3.105  -0.243   0.502  0.00  0.00    -0.222 OA
ATOM      8  C   UNL d   1       3.347   1.974   1.836  0.00  0.00     0.168 C 
ENDBRANCH   1   5
BRANCH   2   9
ATOM      9  C   UNL d   1      -1.073   0.634   0.960  0.00  0.00     0.041 A 
ATOM     10  N   UNL d   1      -1.971  -0.441   0.961  0.00  0.00    -0.322 N 
ATOM     11  C   UNL d   1      -3.244   0.109   1.039  0.00  0.00     0.097 A 
ATOM     12  C   UNL d   1      -3.166   1.480   1.064  0.00  0.00     0.020 A 
ATOM     13  C   UNL d   1      -1.800   1.811   1.022  0.00  0.00     0.031 A 
BRANCH  10  14
ATOM     14  C   UNL d   1      -1.732  -1.852   0.862  0.00  0.00     0.039 A 
ATOM     15  C   UNL d   1      -2.679  -2.744   1.393  0.00  0.00     0.031 A 
ATOM     16  C   UNL d   1      -2.543  -4.125   1.216  0.00  0.00     0.018 A 
ATOM     17  C   UNL d   1      -1.459  -4.646   0.501  0.00  0.00     0.048 A 
ATOM     18  C   UNL d   1      -0.491  -3.758   0.011  0.00  0.00     0.018 A 
ATOM     19  C   UNL d   1      -0.623  -2.374   0.190  0.00  0.00     0.031 A 
BRANCH  17  20
ATOM     20  C   UNL d   1      -1.349  -6.124   0.218  0.00  0.00     0.417 C 
ATOM     21  F   UNL d   1      -2.355  -6.861   0.766  0.00  0.00    -0.166 F 
ATOM     22  F   UNL d   1      -1.377  -6.395  -1.117  0.00  0.00    -0.166 F 
ATOM     23  F   UNL d   1      -0.191  -6.665   0.685  0.00  0.00    -0.166 F 
ENDBRANCH  17  20
ENDBRANCH  10  14
ENDBRANCH   2   9
TORSDOF 4
