REMARK  3 active torsions:
REMARK  status: ('A' for Active; 'I' for Inactive)
REMARK    1  A    between atoms: C_10  and  C_3 
REMARK    2  A    between atoms: C_11  and  C_4 
REMARK    3  A    between atoms: N_12  and  C_9 
ROOT
ATOM      1  C   UNL d   1       0.220   0.691   0.010  0.00  0.00     0.077 A 
ATOM      2  C   UNL d   1      -0.090  -0.615  -0.023  0.00  0.00     0.071 A 
ATOM      3  C   UNL d   1      -2.184   0.343   0.085  0.00  0.00     0.103 A 
ATOM      4  C   UNL d   1      -1.493  -0.875  -0.021  0.00  0.00     0.025 A 
ATOM      5  S   UNL d   1      -1.089   1.709   0.044  0.00  0.00    -0.075 SA
ATOM      6  S   UNL d   1       1.871   0.948   0.019  0.00  0.00    -0.045 SA
ATOM      7  N   UNL d   1       0.969  -1.483  -0.038  0.00  0.00    -0.335 N 
ATOM      8  HN  UNL d   1       0.909  -2.500  -0.080  1.00  0.00     0.168 HD
ATOM      9  C   UNL d   1       2.078  -0.774   0.012  0.00  0.00     0.143 A 
ENDROOT
BRANCH   4  10
ATOM     10  C   UNL d   1      -2.131  -2.196  -0.035  0.00  0.00    -0.022 A 
ATOM     11  C   UNL d   1      -1.562  -3.250   0.699  0.00  0.00     0.012 A 
ATOM     12  C   UNL d   1      -2.154  -4.516   0.717  0.00  0.00     0.001 A 
ATOM     13  C   UNL d   1      -3.328  -4.745   0.007  0.00  0.00     0.000 A 
ATOM     14  C   UNL d   1      -3.894  -3.717  -0.744  0.00  0.00     0.001 A 
ATOM     15  C   UNL d   1      -3.287  -2.457  -0.782  0.00  0.00     0.012 A 
ENDBRANCH   4  10
BRANCH   3  16
ATOM     16  C   UNL d   1      -3.641   0.660   0.217  0.00  0.00     0.424 C 
ATOM     17  F   UNL d   1      -4.385  -0.368   0.693  0.00  0.00    -0.166 F 
ATOM     18  F   UNL d   1      -3.868   1.702   1.062  0.00  0.00    -0.166 F 
ATOM     19  F   UNL d   1      -4.178   1.009  -0.981  0.00  0.00    -0.166 F 
ENDBRANCH   3  16
BRANCH   9  20
ATOM     20  N   UNL d   1       3.303  -1.325   0.053  0.00  0.00    -0.380 N 
ATOM     21  H   UNL d   1       4.099  -0.761  -0.211  0.00  0.00     0.158 HD
ATOM     22  H   UNL d   1       3.366  -2.304  -0.210  0.00  0.00     0.158 HD
ENDBRANCH   9  20
TORSDOF 3
