REMARK  7 active torsions:
REMARK  status: ('A' for Active; 'I' for Inactive)
REMARK    1  A    between atoms: C_9  and  C_1 
REMARK    2  A    between atoms: C_11  and  N_2 
REMARK    3  A    between atoms: C_7  and  C_3 
REMARK    4  A    between atoms: C_16  and  C_4 
REMARK    5  A    between atoms: N_8  and  C_12 
REMARK    6  A    between atoms: O_26  and  C_9 
REMARK    7  A    between atoms: C_30  and  O_26 
ROOT
ATOM      1  C   UNL d   1      -0.301  -1.183   0.025  0.00  0.00     0.098 A 
ATOM      2  N   UNL d   1      -0.425   1.032   0.015  0.00  0.00    -0.254 N 
ATOM      3  C   UNL d   1       0.996  -0.584  -0.096  0.00  0.00     0.079 A 
ATOM      4  C   UNL d   1      -1.215  -0.120   0.086  0.00  0.00     0.085 A 
ATOM      5  N   UNL d   1       0.884   0.745  -0.136  0.00  0.00    -0.291 N 
ATOM      6  HN  UNL d   1       1.643   1.416  -0.256  1.00  0.00     0.187 HD
ENDROOT
BRANCH   2   7
ATOM      7  C   UNL d   1      -0.797   2.409   0.064  0.00  0.00     0.057 A 
ATOM      8  C   UNL d   1      -1.879   2.850   0.837  0.00  0.00     0.034 A 
ATOM      9  C   UNL d   1      -2.269   4.191   0.799  0.00  0.00     0.038 A 
ATOM     10  C   UNL d   1      -1.568   5.099  -0.006  0.00  0.00     0.103 A 
ATOM     11  C   UNL d   1      -0.460   4.678  -0.753  0.00  0.00     0.038 A 
ATOM     12  C   UNL d   1      -0.066   3.336  -0.703  0.00  0.00     0.034 A 
BRANCH  10  13
ATOM     13  N   UNL d   1      -2.002   6.501  -0.070  0.00  0.00    -0.116 N 
ATOM     14  O   UNL d   1      -1.358   7.273  -0.792  0.00  0.00    -0.532 OA
ATOM     15  O   UNL d   1      -2.995   6.826   0.599  0.00  0.00    -0.532 OA
ENDBRANCH  10  13
ENDBRANCH   2   7
BRANCH   4  16
ATOM     16  C   UNL d   1      -2.698  -0.130   0.055  0.00  0.00    -0.006 A 
ATOM     17  C   UNL d   1      -3.416   0.710  -0.815  0.00  0.00     0.014 A 
ATOM     18  C   UNL d   1      -4.814   0.764  -0.787  0.00  0.00     0.001 A 
ATOM     19  C   UNL d   1      -5.527  -0.081   0.055  0.00  0.00     0.000 A 
ATOM     20  C   UNL d   1      -4.840  -0.962   0.883  0.00  0.00     0.001 A 
ATOM     21  C   UNL d   1      -3.440  -0.963   0.904  0.00  0.00     0.014 A 
ENDBRANCH   4  16
BRANCH   1  22
ATOM     22  C   UNL d   1      -0.611  -2.608   0.056  0.00  0.00     0.298 C 
ATOM     23  O   UNL d   1      -1.409  -3.115   0.825  0.00  0.00    -0.259 OA
BRANCH  22  24
ATOM     24  O   UNL d   1       0.153  -3.328  -0.820  0.00  0.00    -0.318 OA
BRANCH  24  25
ATOM     25  C   UNL d   1       0.005  -4.753  -0.746  0.00  0.00     0.174 C 
ATOM     26  C   UNL d   1      -1.085  -5.205  -1.695  0.00  0.00     0.034 C 
ENDBRANCH  24  25
ENDBRANCH  22  24
ENDBRANCH   1  22
BRANCH   3  27
ATOM     27  C   UNL d   1       2.330  -1.219  -0.143  0.00  0.00     0.015 A 
ATOM     28  C   UNL d   1       3.406  -0.730  -0.919  0.00  0.00     0.048 A 
ATOM     29  C   UNL d   1       4.637  -1.405  -0.947  0.00  0.00     0.048 A 
ATOM     30 CL   UNL d   1       3.314   0.683  -1.920  0.00  0.00    -0.083 Cl
ATOM     31  C   UNL d   1       4.809  -2.579  -0.223  0.00  0.00     0.035 A 
ATOM     32  C   UNL d   1       3.779  -3.067   0.569  0.00  0.00     0.025 A 
ATOM     33 CL   UNL d   1       6.298  -3.434  -0.313  0.00  0.00    -0.084 Cl
ATOM     34  C   UNL d   1       2.564  -2.376   0.630  0.00  0.00     0.017 A 
ENDBRANCH   3  27
TORSDOF 7
