REMARK  4 active torsions:
REMARK  status: ('A' for Active; 'I' for Inactive)
REMARK    1  A    between atoms: N_3  and  C_1 
REMARK    2  A    between atoms: C_8  and  C_1 
REMARK       I    between atoms: C_2  and  N_4 
REMARK       I    between atoms: N_5  and  C_2 
REMARK    3  A    between atoms: N_4  and  N_3 
REMARK    4  A    between atoms: C_12  and  N_5 
ROOT
ATOM      1  N   UNL d   1       0.722  -1.244   0.648  0.00  0.00    -0.202 NA
ATOM      2  H   UNL d   1      -0.240  -1.294   1.022  0.00  0.00     0.149 HD
ENDROOT
BRANCH   1   3
ATOM      3  C   UNL d   1       0.968  -0.043   0.003  0.00  0.00     0.115 C 
ATOM      4  N   UNL d   1       1.965   0.116  -0.819  0.00  0.00    -0.387 N 
ATOM      5  H   UNL d   1       2.444  -0.786  -0.867  0.00  0.00     0.157 HD
ATOM      6  HN  UNL d   1       2.218   0.970  -1.316  1.00  0.00     0.157 HD
BRANCH   3   7
ATOM      7  C   UNL d   1       0.039   1.108   0.290  0.00  0.00     0.071 A 
ATOM      8  N   UNL d   1      -1.008   0.813   1.107  0.00  0.00    -0.363 N 
ATOM      9  C   UNL d   1      -1.865   1.828   1.363  0.00  0.00     0.088 A 
ATOM     10  HN  UNL d   1      -1.139  -0.118   1.504  1.00  0.00     0.165 HD
ATOM     11  C   UNL d   1      -1.725   3.110   0.853  0.00  0.00     0.017 A 
ATOM     12  C   UNL d   1      -0.639   3.377   0.023  0.00  0.00     0.004 A 
ATOM     13  C   UNL d   1       0.265   2.360  -0.269  0.00  0.00     0.033 A 
ENDBRANCH   3   7
ENDBRANCH   1   3
BRANCH   1  14
ATOM     14  N   UNL d   1       1.089  -2.417  -0.068  0.00  0.00    -0.171 NA
ATOM     15  C   UNL d   1       0.105  -3.405  -0.107  0.00  0.00     0.312 C 
ATOM     16  N   UNL d   1       0.552  -4.530  -0.771  0.00  0.00    -0.313 N 
ATOM     17  O   UNL d   1      -1.006  -3.226   0.382  0.00  0.00    -0.252 OA
ATOM     18  H   UNL d   1       1.469  -4.457  -1.187  0.00  0.00     0.170 HD
ATOM     19  H   UNL d   1       2.024  -2.735   0.161  0.00  0.00     0.152 HD
BRANCH  16  20
ATOM     20  C   UNL d   1      -0.179  -5.700  -1.067  0.00  0.00     0.036 A 
ATOM     21  C   UNL d   1      -1.500  -5.913  -0.665  0.00  0.00     0.031 A 
ATOM     22  C   UNL d   1      -2.177  -7.083  -1.033  0.00  0.00     0.026 A 
ATOM     23  C   UNL d   1      -1.532  -8.049  -1.798  0.00  0.00     0.034 A 
ATOM     24  C   UNL d   1      -0.210  -7.859  -2.192  0.00  0.00     0.026 A 
ATOM     25 CL   UNL d   1      -2.370  -9.475  -2.266  0.00  0.00    -0.084 Cl
ATOM     26  C   UNL d   1       0.463  -6.688  -1.825  0.00  0.00     0.031 A 
ENDBRANCH  16  20
ENDBRANCH   1  14
TORSDOF 4
