REMARK  6 active torsions:
REMARK  status: ('A' for Active; 'I' for Inactive)
REMARK    1  A    between atoms: S_6  and  C_3 
REMARK    2  A    between atoms: C_8  and  S_6 
REMARK    3  A    between atoms: C_13  and  C_8 
REMARK    4  A    between atoms: C_14  and  C_8 
REMARK    5  A    between atoms: O_18  and  C_13 
REMARK    6  A    between atoms: C_22  and  O_18 
ROOT
ATOM      1  C   UNL d   1       0.503  -0.693   0.214  0.00  0.00     0.039 A 
ATOM      2  C   UNL d   1       1.083   0.576   0.316  0.00  0.00     0.089 A 
ATOM      3  C   UNL d   1       1.458  -1.722   0.008  0.00  0.00     0.085 A 
ATOM      4  S   UNL d   1      -0.025   1.850   0.475  0.00  0.00    -0.075 SA
ATOM      5  C   UNL d   1      -0.950  -0.554   0.369  0.00  0.00    -0.029 C 
ATOM      6  C   UNL d   1      -1.332   0.784   0.399  0.00  0.00    -0.008 C 
ATOM      7  N   UNL d   1       2.385   0.896   0.283  0.00  0.00    -0.346 N 
ATOM      8  HN  UNL d   1       2.734   1.847   0.405  1.00  0.00     0.167 HD
ATOM      9  N   UNL d   1       2.772  -1.408  -0.081  0.00  0.00    -0.346 N 
ATOM     10  HN  UNL d   1       3.460  -2.138  -0.269  1.00  0.00     0.167 HD
ATOM     11  C   UNL d   1       3.168  -0.147   0.077  0.00  0.00     0.182 A 
ATOM     12  C   UNL d   1      -2.014  -1.616   0.493  0.00  0.00     0.040 C 
ATOM     13  C   UNL d   1      -2.729   1.324   0.340  0.00  0.00     0.047 C 
ATOM     14  C   UNL d   1      -3.412  -1.095   0.084  0.00  0.00     0.005 C 
ATOM     15  C   UNL d   1      -3.748   0.257   0.730  0.00  0.00     0.005 C 
ENDROOT
BRANCH   3  16
ATOM     16  S   UNL d   1       1.104  -3.453  -0.237  0.00  0.00    -0.088 SA
BRANCH  16  17
ATOM     17  C   UNL d   1       2.772  -4.179   0.227  0.00  0.00     0.222 C 
BRANCH  17  18
ATOM     18  C   UNL d   1       2.882  -4.149   1.730  0.00  0.00     0.280 C 
ATOM     19  O   UNL d   1       2.298  -4.930   2.485  0.00  0.00    -0.263 OA
BRANCH  18  20
ATOM     20  O   UNL d   1       3.617  -3.083   2.151  0.00  0.00    -0.321 OA
BRANCH  20  21
ATOM     21  C   UNL d   1       3.448  -2.723   3.527  0.00  0.00     0.174 C 
ATOM     22  C   UNL d   1       2.284  -1.754   3.638  0.00  0.00     0.034 C 
ENDBRANCH  20  21
ENDBRANCH  18  20
ENDBRANCH  17  18
BRANCH  17  23
ATOM     23  C   UNL d   1       3.013  -5.569  -0.335  0.00  0.00     0.146 C 
ATOM     24  O   UNL d   1       4.014  -5.806  -1.014  0.00  0.00    -0.297 OA
ATOM     25  C   UNL d   1       2.068  -6.700  -0.007  0.00  0.00     0.092 C 
ENDBRANCH  17  23
ENDBRANCH  16  17
ENDBRANCH   3  16
TORSDOF 6
