REMARK  4 active torsions:
REMARK  status: ('A' for Active; 'I' for Inactive)
REMARK    1  A    between atoms: C_8  and  C_1 
REMARK    2  A    between atoms: C_2  and  N_11 
REMARK    3  A    between atoms: C_18  and  N_5 
REMARK    4  A    between atoms: C_17  and  C_6 
REMARK       I    between atoms: N_11  and  C_8 
ROOT
ATOM      1  C   UNL d   1      -0.554  -2.602  -0.310  0.00  0.00     0.279 C 
ATOM      2  N   UNL d   1       0.465  -3.574  -0.489  0.00  0.00    -0.296 N 
ATOM      3  O   UNL d   1      -1.750  -2.878  -0.230  0.00  0.00    -0.265 OA
ATOM      4  C   UNL d   1       1.891  -3.229  -0.421  0.00  0.00     0.162 C 
ENDROOT
BRANCH   1   5
ATOM      5  C   UNL d   1      -0.185  -1.165  -0.187  0.00  0.00     0.142 A 
ATOM      6  N   UNL d   1       1.060  -0.675  -0.294  0.00  0.00    -0.272 N 
ATOM      7  N   UNL d   1       0.909   0.650  -0.072  0.00  0.00    -0.196 N 
ATOM      8  HN  UNL d   1       1.920  -1.184  -0.497  1.00  0.00     0.189 HD
ATOM      9  N   UNL d   1      -0.358   1.072   0.145  0.00  0.00    -0.281 N 
ATOM     10  C   UNL d   1      -1.062  -0.064   0.038  0.00  0.00     0.057 A 
ATOM     11  HN  UNL d   1      -0.693   2.015   0.340  1.00  0.00     0.189 HD
ATOM     12  C   UNL d   1      -2.540  -0.043   0.151  0.00  0.00     0.072 C 
BRANCH   7  13
ATOM     13  C   UNL d   1       2.024   1.526  -0.082  0.00  0.00     0.074 A 
ATOM     14  C   UNL d   1       3.290   1.038  -0.446  0.00  0.00     0.033 A 
ATOM     15  C   UNL d   1       4.388   1.896  -0.478  0.00  0.00     0.002 A 
ATOM     16  C   UNL d   1       4.232   3.238  -0.135  0.00  0.00     0.000 A 
ATOM     17  C   UNL d   1       2.979   3.726   0.239  0.00  0.00     0.002 A 
ATOM     18  C   UNL d   1       1.871   2.875   0.262  0.00  0.00     0.033 A 
ENDBRANCH   7  13
ENDBRANCH   1   5
BRANCH   2  19
ATOM     19  C   UNL d   1       0.164  -4.926  -0.720  0.00  0.00     0.170 A 
ATOM     20  S   UNL d   1      -1.408  -5.539  -1.007  0.00  0.00    -0.029 SA
ATOM     21  C   UNL d   1      -0.721  -7.100  -1.212  0.00  0.00     0.177 A 
ATOM     22  N   UNL d   1       0.588  -7.115  -1.064  0.00  0.00    -0.288 N 
ATOM     23  N   UNL d   1       1.089  -5.866  -0.792  0.00  0.00    -0.279 N 
ATOM     24  HN  UNL d   1       1.162  -7.955  -1.142  1.00  0.00     0.187 HD
ATOM     25  HN  UNL d   1       2.083  -5.680  -0.657  1.00  0.00     0.189 HD
BRANCH  21  26
ATOM     26  C   UNL d   1      -1.561  -8.289  -1.536  0.00  0.00     0.440 C 
ATOM     27  F   UNL d   1      -2.887  -8.001  -1.650  0.00  0.00    -0.164 F 
ATOM     28  F   UNL d   1      -1.196  -8.861  -2.715  0.00  0.00    -0.164 F 
ATOM     29  F   UNL d   1      -1.463  -9.258  -0.587  0.00  0.00    -0.164 F 
ENDBRANCH  21  26
ENDBRANCH   2  19
TORSDOF 4
