REMARK  2 active torsions:
REMARK  status: ('A' for Active; 'I' for Inactive)
REMARK    1  A    between atoms: C_3  and  C_9 
REMARK    2  A    between atoms: C_10  and  C_5 
ROOT
ATOM      1  S   UNL d   1      -0.467  -1.754   0.610  0.00  0.00    -0.118 SA
ATOM      2  N   UNL d   1      -0.679   1.399   0.453  0.00  0.00    -0.326 N 
ATOM      3  C   UNL d   1      -1.875   0.973  -0.067  0.00  0.00     0.223 C 
ATOM      4  C   UNL d   1      -1.660  -1.474  -0.759  0.00  0.00     0.094 C 
ATOM      5  C   UNL d   1      -1.828  -0.024  -1.200  0.00  0.00     0.123 C 
ATOM      6  C   UNL d   1       0.799  -0.569   0.184  0.00  0.00     0.028 A 
ATOM      7  C   UNL d   1       0.587   0.822   0.243  0.00  0.00     0.051 A 
ATOM      8  O   UNL d   1      -2.932   1.491   0.293  0.00  0.00    -0.273 OA
ATOM      9  C   UNL d   1       2.088  -1.061  -0.055  0.00  0.00     0.021 A 
ATOM     10  C   UNL d   1       1.677   1.691   0.124  0.00  0.00     0.031 A 
ATOM     11  C   UNL d   1       2.953   1.189  -0.139  0.00  0.00     0.002 A 
ATOM     12  C   UNL d   1       3.157  -0.185  -0.239  0.00  0.00     0.002 A 
ATOM     13  H   UNL d   1      -0.735   2.285   0.940  0.00  0.00     0.169 HD
ENDROOT
BRANCH   4  14
ATOM     14  C   UNL d   1      -1.318  -2.422  -1.906  0.00  0.00    -0.043 A 
ATOM     15  C   UNL d   1      -1.912  -3.693  -1.957  0.00  0.00     0.009 A 
ATOM     16  C   UNL d   1      -1.529  -4.626  -2.926  0.00  0.00     0.017 A 
ATOM     17  C   UNL d   1      -0.541  -4.311  -3.868  0.00  0.00     0.047 A 
ATOM     18  C   UNL d   1       0.037  -3.036  -3.838  0.00  0.00     0.017 A 
ATOM     19  C   UNL d   1      -0.342  -2.107  -2.867  0.00  0.00     0.009 A 
BRANCH  17  20
ATOM     20  C   UNL d   1      -0.069  -5.322  -4.882  0.00  0.00     0.417 C 
ATOM     21  F   UNL d   1      -0.690  -6.530  -4.782  0.00  0.00    -0.166 F 
ATOM     22  F   UNL d   1      -0.265  -4.906  -6.164  0.00  0.00    -0.166 F 
ATOM     23  F   UNL d   1       1.265  -5.580  -4.775  0.00  0.00    -0.166 F 
ENDBRANCH  17  20
ENDBRANCH   4  14
TORSDOF 2
