REMARK  4 active torsions:
REMARK  status: ('A' for Active; 'I' for Inactive)
REMARK    1  A    between atoms: C_2  and  C_1 
REMARK    2  A    between atoms: C_6  and  C_2 
REMARK    3  A    between atoms: S_8  and  C_3 
REMARK    4  A    between atoms: C_7  and  S_8 
ROOT
ATOM      1  C   UNL d   1       0.994   0.075  -0.007  0.00  0.00     0.063 C 
ATOM      2  C   UNL d   1       2.328   0.201  -0.029  0.00  0.00     0.056 C 
ENDROOT
BRANCH   1   3
ATOM      3  C   UNL d   1       0.322  -0.924  -0.875  0.00  0.00     0.182 C 
ATOM      4  O   UNL d   1       0.846  -1.361  -1.893  0.00  0.00    -0.288 OA
BRANCH   3   5
ATOM      5  C   UNL d   1      -1.053  -1.347  -0.494  0.00  0.00     0.014 A 
ATOM      6  C   UNL d   1      -1.941  -1.734  -1.509  0.00  0.00     0.018 A 
ATOM      7  C   UNL d   1      -3.230  -2.166  -1.187  0.00  0.00     0.043 A 
ATOM      8  C   UNL d   1      -3.622  -2.220   0.146  0.00  0.00     0.116 A 
ATOM      9  C   UNL d   1      -2.751  -1.849   1.164  0.00  0.00     0.043 A 
ATOM     10  F   UNL d   1      -4.853  -2.646   0.455  0.00  0.00    -0.206 F 
ATOM     11  C   UNL d   1      -1.462  -1.413   0.847  0.00  0.00     0.018 A 
ENDBRANCH   3   5
ENDBRANCH   1   3
BRANCH   2  12
ATOM     12  S   UNL d   1       3.108   1.391   0.961  0.00  0.00    -0.084 SA
BRANCH  12  13
ATOM     13  C   UNL d   1       4.703   0.637   1.251  0.00  0.00     0.073 A 
ATOM     14  N   UNL d   1       4.802  -0.712   1.242  0.00  0.00    -0.360 N 
ATOM     15  C   UNL d   1       6.011  -1.244   1.526  0.00  0.00     0.089 A 
ATOM     16  HN  UNL d   1       3.998  -1.302   1.029  1.00  0.00     0.166 HD
ATOM     17  C   UNL d   1       7.135  -0.494   1.828  0.00  0.00     0.017 A 
ATOM     18  C   UNL d   1       7.016   0.889   1.837  0.00  0.00     0.004 A 
ATOM     19  C   UNL d   1       5.782   1.466   1.546  0.00  0.00     0.037 A 
ENDBRANCH  12  13
ENDBRANCH   2  12
TORSDOF 4
