REMARK  2 active torsions:
REMARK  status: ('A' for Active; 'I' for Inactive)
REMARK    1  A    between atoms: C_7  and  C_1 
REMARK    2  A    between atoms: N_8  and  C_12 
ROOT
ATOM      1  C   UNL d   1       1.634  -1.588  -0.041  0.00  0.00     0.164 A 
ATOM      2  N   UNL d   1       0.386  -1.903  -0.097  0.00  0.00    -0.335 N 
ATOM      3  HN  UNL d   1       0.092  -2.877  -0.173  1.00  0.00     0.168 HD
ATOM      4  C   UNL d   1      -0.151   0.452  -0.016  0.00  0.00     0.069 A 
ATOM      5  O   UNL d   1       2.136  -0.335   0.027  0.00  0.00    -0.256 OA
ATOM      6  C   UNL d   1       1.292   0.727   0.004  0.00  0.00     0.302 A 
ATOM      7  C   UNL d   1      -0.544  -0.877  -0.051  0.00  0.00     0.050 A 
ATOM      8  C   UNL d   1      -1.097   1.486   0.007  0.00  0.00     0.056 A 
ATOM      9  C   UNL d   1      -2.458   1.155   0.006  0.00  0.00     0.104 A 
ATOM     10  O   UNL d   1       1.707   1.879   0.008  0.00  0.00    -0.259 OA
ATOM     11  C   UNL d   1      -1.903  -1.196  -0.043  0.00  0.00     0.033 A 
ATOM     12  C   UNL d   1      -2.867  -0.186  -0.013  0.00  0.00     0.038 A 
ENDROOT
BRANCH   1  13
ATOM     13  C   UNL d   1       2.726  -2.592  -0.064  0.00  0.00     0.037 A 
ATOM     14  C   UNL d   1       2.580  -3.872   0.500  0.00  0.00     0.050 A 
ATOM     15  C   UNL d   1       3.609  -4.814   0.384  0.00  0.00     0.048 A 
ATOM     16 CL   UNL d   1       1.190  -4.371   1.402  0.00  0.00    -0.083 Cl
ATOM     17  C   UNL d   1       4.785  -4.483  -0.283  0.00  0.00     0.035 A 
ATOM     18  C   UNL d   1       4.952  -3.215  -0.832  0.00  0.00     0.025 A 
ATOM     19 CL   UNL d   1       6.040  -5.649  -0.430  0.00  0.00    -0.084 Cl
ATOM     20  C   UNL d   1       3.926  -2.271  -0.726  0.00  0.00     0.019 A 
ENDBRANCH   1  13
BRANCH   9  21
ATOM     21  N   UNL d   1      -3.471   2.218   0.025  0.00  0.00    -0.116 N 
ATOM     22  O   UNL d   1      -3.073   3.390   0.037  0.00  0.00    -0.532 OA
ATOM     23  O   UNL d   1      -4.662   1.877   0.024  0.00  0.00    -0.532 OA
ENDBRANCH   9  21
TORSDOF 2
