REMARK  4 active torsions:
REMARK  status: ('A' for Active; 'I' for Inactive)
REMARK       I    between atoms: N_2  and  C_1 
REMARK    1  A    between atoms: C_5  and  C_1 
REMARK    2  A    between atoms: C_3  and  N_2 
REMARK    3  A    between atoms: O_6  and  C_5 
REMARK    4  A    between atoms: C_10  and  O_6 
ROOT
ATOM      1  C   UNL d   1       0.825  -0.279   0.296  0.00  0.00     0.251 C 
ATOM      2  N   UNL d   1       0.776  -0.395  -1.085  0.00  0.00    -0.324 N 
ATOM      3  O   UNL d   1       1.333  -1.093   1.068  0.00  0.00    -0.270 OA
ATOM      4  H   UNL d   1       0.555   0.457  -1.587  0.00  0.00     0.169 HD
ENDROOT
BRANCH   1   5
ATOM      5  C   UNL d   1       0.182   1.000   0.857  0.00  0.00     0.217 C 
ATOM      6  C   UNL d   1      -1.319   0.983   0.582  0.00  0.00     0.050 C 
BRANCH   5   7
ATOM      7  O   UNL d   1       0.725   2.189   0.279  0.00  0.00    -0.337 OA
BRANCH   7   8
ATOM      8  C   UNL d   1       1.679   2.797   1.054  0.00  0.00     0.070 A 
ATOM      9  C   UNL d   1       2.760   2.118   1.620  0.00  0.00     0.038 A 
ATOM     10  C   UNL d   1       3.703   2.813   2.384  0.00  0.00     0.021 A 
ATOM     11  C   UNL d   1       3.570   4.189   2.568  0.00  0.00     0.006 A 
ATOM     12  C   UNL d   1       2.504   4.876   1.987  0.00  0.00     0.021 A 
ATOM     13  I   UNL d   1       4.972   5.218   3.706  0.00  0.00    -0.045 I 
ATOM     14  C   UNL d   1       1.565   4.178   1.222  0.00  0.00     0.038 A 
ENDBRANCH   7   8
ENDBRANCH   5   7
ENDBRANCH   1   5
BRANCH   2  15
ATOM     15  C   UNL d   1       1.177  -1.523  -1.842  0.00  0.00     0.040 A 
ATOM     16  C   UNL d   1       1.428  -1.406  -3.225  0.00  0.00    -0.034 A 
ATOM     17  C   UNL d   1       1.817  -2.552  -3.953  0.00  0.00     0.028 A 
ATOM     18  C   UNL d   1       1.286  -0.127  -4.005  0.00  0.00     0.050 C 
ATOM     19  C   UNL d   1       1.968  -3.785  -3.323  0.00  0.00     0.011 A 
ATOM     20  C   UNL d   1       1.709  -3.909  -1.968  0.00  0.00     0.021 A 
ATOM     21 BR   UNL d   1       2.524  -5.294  -4.315  0.00  0.00    -0.051 Br
ATOM     22  C   UNL d   1       1.310  -2.786  -1.239  0.00  0.00     0.031 A 
ENDBRANCH   2  15
TORSDOF 4
