REMARK  6 active torsions:
REMARK  status: ('A' for Active; 'I' for Inactive)
REMARK    1  A    between atoms: C_4  and  C_2 
REMARK    2  A    between atoms: C_22  and  C_13 
REMARK    3  A    between atoms: C_17  and  C_24 
REMARK    4  A    between atoms: O_23  and  C_17 
REMARK    5  A    between atoms: S_20  and  C_22 
REMARK    6  A    between atoms: C_24  and  S_20 
ROOT
ATOM      1  C   UNL d   1       3.655  -0.894  -0.028  0.00  0.00     0.144 A 
ATOM      2  N   UNL d   1       4.472  -0.633   1.042  0.00  0.00    -0.322 N 
ATOM      3  HN  UNL d   1       4.262  -0.096   1.883  1.00  0.00     0.169 HD
ATOM      4  N   UNL d   1       4.234  -1.652  -0.975  0.00  0.00    -0.242 N 
ATOM      5  HN  UNL d   1       3.830  -1.980  -1.853  1.00  0.00     0.196 HD
ATOM      6  C   UNL d   1       5.590  -1.239   0.721  0.00  0.00     0.157 A 
ATOM      7  O   UNL d   1       5.520  -1.887  -0.475  0.00  0.00    -0.222 OA
ENDROOT
BRANCH   1   8
ATOM      8  C   UNL d   1       2.339  -0.338  -0.051  0.00  0.00     0.093 A 
ATOM      9  C   UNL d   1       1.742   0.212   1.207  0.00  0.00     0.265 A 
ATOM     10  N   UNL d   1       0.437   0.634   1.104  0.00  0.00    -0.293 N 
ATOM     11  O   UNL d   1       2.376   0.308   2.261  0.00  0.00    -0.267 OA
ATOM     12  C   UNL d   1      -0.203   0.664  -0.097  0.00  0.00     0.149 A 
ATOM     13  C   UNL d   1      -0.303   1.104   2.251  0.00  0.00     0.145 A 
ATOM     14  N   UNL d   1       0.298   0.263  -1.213  0.00  0.00    -0.345 N 
ATOM     15  S   UNL d   1      -1.800   1.320   0.042  0.00  0.00    -0.092 SA
ATOM     16  C   UNL d   1       1.569  -0.254  -1.150  0.00  0.00     0.111 A 
ATOM     17  HN  UNL d   1      -0.218   0.327  -2.091  1.00  0.00     0.167 HD
ATOM     18  C   UNL d   1      -1.663   1.625   1.821  0.00  0.00     0.103 A 
ENDBRANCH   1   8
BRANCH   6  19
ATOM     19  C   UNL d   1       6.870  -1.261   1.464  0.00  0.00     0.161 C 
BRANCH  19  20
ATOM     20  S   UNL d   1       7.620   0.408   1.563  0.00  0.00    -0.150 SA
BRANCH  20  21
ATOM     21  C   UNL d   1       6.311   1.333   2.450  0.00  0.00     0.184 C 
BRANCH  21  22
ATOM     22  C   UNL d   1       5.939   0.687   3.765  0.00  0.00     0.149 C 
ATOM     23  O   UNL d   1       6.717   0.553   4.700  0.00  0.00    -0.649 OA
BRANCH  22  24
ATOM     24  O   UNL d   1       4.666   0.233   3.840  0.00  0.00    -0.776 OA
ATOM     25  H   UNL d   1       4.098   0.310   3.032  0.00  0.00     0.167 HD
ENDBRANCH  22  24
ENDBRANCH  21  22
ENDBRANCH  20  21
ENDBRANCH  19  20
ENDBRANCH   6  19
TORSDOF 6
