REMARK  3 active torsions:
REMARK  status: ('A' for Active; 'I' for Inactive)
REMARK       I    between atoms: N_3  and  C_1 
REMARK       I    between atoms: N_9  and  C_1 
REMARK    1  A    between atoms: C_2  and  C_4 
REMARK    2  A    between atoms: C_6  and  N_5 
REMARK    3  A    between atoms: C_19  and  N_9 
ROOT
ATOM      1  C   UNL d   1       0.592  -0.184   0.051  0.00  0.00     0.322 C 
ATOM      2  N   UNL d   1       0.080  -0.388  -1.230  0.00  0.00    -0.332 N 
ATOM      3  N   UNL d   1      -2.071  -1.263  -2.995  0.00  0.00    -0.366 N 
ATOM      4  N   UNL d   1       1.540  -1.104   0.443  0.00  0.00    -0.309 N 
ATOM      5  O   UNL d   1       0.217   0.760   0.741  0.00  0.00    -0.247 OA
ATOM      6  C   UNL d   1      -0.949   0.546  -1.732  0.00  0.00     0.147 C 
ATOM      7  C   UNL d   1      -2.295  -0.113  -2.103  0.00  0.00     0.144 C 
ATOM      8  C   UNL d   1      -0.225  -2.680  -2.172  0.00  0.00     0.040 C 
ATOM      9  C   UNL d   1       0.562  -1.372  -2.202  0.00  0.00     0.129 C 
ATOM     10  C   UNL d   1      -1.738  -2.520  -2.328  0.00  0.00     0.126 C 
ATOM     11  H   UNL d   1       1.610  -1.942  -0.108  0.00  0.00     0.170 HD
ENDROOT
BRANCH   3  12
ATOM     12  C   UNL d   1      -2.779  -1.330  -4.184  0.00  0.00     0.102 A 
ATOM     13  N   UNL d   1      -3.937  -0.654  -4.319  0.00  0.00    -0.352 N 
ATOM     14  C   UNL d   1      -4.587  -0.711  -5.508  0.00  0.00     0.106 A 
ATOM     15  HN  UNL d   1      -4.318  -0.111  -3.544  1.00  0.00     0.166 HD
ATOM     16  C   UNL d   1      -4.125  -1.403  -6.615  0.00  0.00     0.063 A 
ATOM     17  C   UNL d   1      -2.917  -2.084  -6.476  0.00  0.00     0.021 A 
ATOM     18  C   UNL d   1      -2.250  -2.053  -5.254  0.00  0.00     0.049 A 
BRANCH  16  19
ATOM     19  C   UNL d   1      -4.881  -1.403  -7.905  0.00  0.00     0.418 C 
ATOM     20  F   UNL d   1      -6.061  -0.728  -7.848  0.00  0.00    -0.166 F 
ATOM     21  F   UNL d   1      -4.175  -0.835  -8.922  0.00  0.00    -0.166 F 
ATOM     22  F   UNL d   1      -5.191  -2.661  -8.325  0.00  0.00    -0.166 F 
ENDBRANCH  16  19
ENDBRANCH   3  12
BRANCH   4  23
ATOM     23  C   UNL d   1       2.395  -1.048   1.563  0.00  0.00     0.036 A 
ATOM     24  C   UNL d   1       2.406  -0.005   2.491  0.00  0.00     0.029 A 
ATOM     25  C   UNL d   1       3.326   0.001   3.544  0.00  0.00     0.002 A 
ATOM     26  C   UNL d   1       4.249  -1.034   3.676  0.00  0.00     0.000 A 
ATOM     27  C   UNL d   1       4.242  -2.085   2.764  0.00  0.00     0.002 A 
ATOM     28  C   UNL d   1       3.317  -2.094   1.716  0.00  0.00     0.029 A 
ENDBRANCH   4  23
TORSDOF 3
