REMARK  7 active torsions:
REMARK  status: ('A' for Active; 'I' for Inactive)
REMARK    1  A    between atoms: C_7  and  C_1 
REMARK    2  A    between atoms: C_2  and  C_5 
REMARK    3  A    between atoms: C_3  and  C_4 
REMARK    4  A    between atoms: C_8  and  O_17 
REMARK       I    between atoms: N_15  and  C_8 
REMARK    5  A    between atoms: C_25  and  C_13 
REMARK    6  A    between atoms: C_24  and  N_15 
REMARK    7  A    between atoms: O_17  and  C_25 
ROOT
ATOM      1  C   UNL d   1       0.064   1.134   0.058  0.00  0.00     0.086 A 
ATOM      2  O   UNL d   1      -0.791   0.071   0.144  0.00  0.00    -0.312 OA
ATOM      3  C   UNL d   1       1.366   0.672   0.070  0.00  0.00     0.040 A 
ATOM      4  C   UNL d   1      -0.042  -1.067   0.142  0.00  0.00     0.078 A 
ATOM      5  C   UNL d   1       1.297  -0.744   0.114  0.00  0.00     0.038 A 
ENDROOT
BRANCH   1   6
ATOM      6  C   UNL d   1      -0.565   2.440  -0.126  0.00  0.00    -0.001 A 
ATOM      7  C   UNL d   1      -1.957   2.589  -0.024  0.00  0.00     0.030 A 
ATOM      8  C   UNL d   1      -2.595   3.789  -0.377  0.00  0.00     0.049 A 
ATOM      9  C   UNL d   1      -1.814   4.870  -0.808  0.00  0.00     0.032 A 
ATOM     10  C   UNL d   1      -0.418   4.758  -0.898  0.00  0.00     0.049 A 
ATOM     11  C   UNL d   1       0.195   3.546  -0.532  0.00  0.00     0.030 A 
BRANCH   8  12
ATOM     12  C   UNL d   1      -4.103   3.865  -0.355  0.00  0.00     0.417 C 
ATOM     13  F   UNL d   1      -4.591   5.048  -0.820  0.00  0.00    -0.166 F 
ATOM     14  F   UNL d   1      -4.679   2.898  -1.122  0.00  0.00    -0.166 F 
ATOM     15  F   UNL d   1      -4.619   3.712   0.895  0.00  0.00    -0.166 F 
ENDBRANCH   8  12
BRANCH  10  16
ATOM     16  C   UNL d   1       0.424   5.883  -1.451  0.00  0.00     0.417 C 
ATOM     17  F   UNL d   1      -0.309   6.940  -1.898  0.00  0.00    -0.166 F 
ATOM     18  F   UNL d   1       1.293   6.387  -0.534  0.00  0.00    -0.166 F 
ATOM     19  F   UNL d   1       1.183   5.484  -2.509  0.00  0.00    -0.166 F 
ENDBRANCH  10  16
ENDBRANCH   1   6
BRANCH   4  20
ATOM     20  C   UNL d   1      -0.786  -2.351   0.159  0.00  0.00     0.245 C 
BRANCH  20  21
ATOM     21  O   UNL d   1      -1.602  -2.391  -1.020  0.00  0.00    -0.297 OA
BRANCH  21  22
ATOM     22  C   UNL d   1      -1.343  -3.359  -1.921  0.00  0.00     0.365 C 
ATOM     23  N   UNL d   1      -2.189  -3.410  -2.999  0.00  0.00    -0.303 N 
ATOM     24  H   UNL d   1      -1.962  -4.191  -3.602  0.00  0.00     0.171 HD
ATOM     25  O   UNL d   1      -0.440  -4.188  -1.811  0.00  0.00    -0.238 OA
BRANCH  23  26
ATOM     26  C   UNL d   1      -3.336  -2.663  -3.328  0.00  0.00     0.037 A 
ATOM     27  C   UNL d   1      -3.784  -1.536  -2.630  0.00  0.00     0.032 A 
ATOM     28  C   UNL d   1      -4.989  -0.915  -2.977  0.00  0.00     0.044 A 
ATOM     29  C   UNL d   1      -5.740  -1.409  -4.034  0.00  0.00     0.116 A 
ATOM     30  C   UNL d   1      -5.291  -2.493  -4.774  0.00  0.00     0.044 A 
ATOM     31  F   UNL d   1      -6.909  -0.834  -4.343  0.00  0.00    -0.206 F 
ATOM     32  C   UNL d   1      -4.088  -3.114  -4.426  0.00  0.00     0.032 A 
ENDBRANCH  23  26
ENDBRANCH  21  22
ENDBRANCH  20  21
ENDBRANCH   4  20
TORSDOF 7
