REMARK  5 active torsions:
REMARK  status: ('A' for Active; 'I' for Inactive)
REMARK       I    between atoms: N_3  and  C_1 
REMARK    1  A    between atoms: C_4  and  C_1 
REMARK    2  A    between atoms: C_2  and  C_5 
REMARK    3  A    between atoms: C_13  and  N_3 
REMARK    4  A    between atoms: C_10  and  C_4 
REMARK    5  A    between atoms: C_16  and  C_4 
ROOT
ATOM      1  C   UNL d   1       1.085   0.080  -0.029  0.00  0.00     0.230 C 
ATOM      2  N   UNL d   1       0.730  -1.040   0.706  0.00  0.00    -0.327 N 
ATOM      3  O   UNL d   1       2.085   0.775   0.173  0.00  0.00    -0.272 OA
ATOM      4  H   UNL d   1      -0.002  -1.627   0.329  0.00  0.00     0.169 HD
ENDROOT
BRANCH   2   5
ATOM      5  C   UNL d   1       1.381  -1.518   1.868  0.00  0.00     0.034 A 
ATOM      6  C   UNL d   1       2.357  -0.789   2.550  0.00  0.00     0.030 A 
ATOM      7  C   UNL d   1       2.980  -1.306   3.689  0.00  0.00     0.018 A 
ATOM      8  C   UNL d   1       2.636  -2.570   4.180  0.00  0.00     0.048 A 
ATOM      9  C   UNL d   1       1.649  -3.302   3.504  0.00  0.00     0.018 A 
ATOM     10  C   UNL d   1       1.023  -2.777   2.363  0.00  0.00     0.030 A 
BRANCH   8  11
ATOM     11  C   UNL d   1       3.308  -3.124   5.412  0.00  0.00     0.417 C 
ATOM     12  F   UNL d   1       4.227  -2.280   5.960  0.00  0.00    -0.166 F 
ATOM     13  F   UNL d   1       2.421  -3.402   6.408  0.00  0.00    -0.166 F 
ATOM     14  F   UNL d   1       3.972  -4.288   5.169  0.00  0.00    -0.166 F 
ENDBRANCH   8  11
ENDBRANCH   2   5
BRANCH   1  15
ATOM     15  C   UNL d   1       0.172   0.422  -1.216  0.00  0.00     0.111 C 
BRANCH  15  16
ATOM     16  C   UNL d   1       0.565  -0.395  -2.439  0.00  0.00    -0.045 A 
ATOM     17  C   UNL d   1      -0.035  -1.623  -2.755  0.00  0.00     0.008 A 
ATOM     18  C   UNL d   1       0.375  -2.347  -3.877  0.00  0.00     0.001 A 
ATOM     19  C   UNL d   1       1.393  -1.859  -4.694  0.00  0.00     0.000 A 
ATOM     20  C   UNL d   1       2.006  -0.648  -4.388  0.00  0.00     0.001 A 
ATOM     21  C   UNL d   1       1.600   0.075  -3.268  0.00  0.00     0.008 A 
ENDBRANCH  15  16
BRANCH  15  22
ATOM     22  C   UNL d   1      -1.337   0.405  -0.908  0.00  0.00     0.014 C 
ATOM     23  C   UNL d   1      -1.733   1.382   0.191  0.00  0.00     0.006 C 
ENDBRANCH  15  22
ENDBRANCH   1  15
TORSDOF 5
