REMARK  19 active torsions:
REMARK  status: ('A' for Active; 'I' for Inactive)
REMARK    1  A    between atoms: C_1  and  O_5 
REMARK    2  A    between atoms: C_1  and  C_3 
REMARK    3  A    between atoms: C_1  and  C_2 
REMARK    4  A    between atoms: C_2  and  C_8 
REMARK    5  A    between atoms: C_2  and  O_6 
REMARK    6  A    between atoms: C_3  and  O_7 
REMARK    7  A    between atoms: C_4  and  C_3 
REMARK    8  A    between atoms: C_15  and  C_4 
REMARK    9  A    between atoms: C_4  and  O_9 
REMARK   10  A    between atoms: C_10  and  O_5 
REMARK   11  A    between atoms: C_11  and  O_6 
REMARK   12  A    between atoms: C_12  and  O_7 
REMARK   13  A    between atoms: S_22  and  C_8 
REMARK   14  A    between atoms: S_23  and  C_8 
REMARK   15  A    between atoms: C_13  and  O_9 
REMARK   16  A    between atoms: C_14  and  O_16 
REMARK   17  A    between atoms: O_16  and  C_15 
REMARK   18  A    between atoms: C_29  and  S_22 
REMARK   19  A    between atoms: C_30  and  S_23 
ROOT
ATOM      1  C   UNL d   1      -1.396   3.825  -0.978  0.00  0.00     0.195 C 
ENDROOT
BRANCH   1   2
ATOM      2  O   UNL d   1      -1.227   4.903  -1.950  0.00  0.00    -0.311 OA
BRANCH   2   3
ATOM      3  C   UNL d   1       0.010   5.383  -2.251  0.00  0.00     0.255 C 
ATOM      4  O   UNL d   1       1.068   5.007  -1.764  0.00  0.00    -0.266 OA
ATOM      5  C   UNL d   1      -0.074   6.447  -3.295  0.00  0.00     0.126 C 
ENDBRANCH   2   3
ENDBRANCH   1   2
BRANCH   1   6
ATOM      6  C   UNL d   1      -0.504   2.577  -1.351  0.00  0.00     0.195 C 
BRANCH   6   7
ATOM      7  O   UNL d   1      -0.545   1.425  -0.475  0.00  0.00    -0.311 OA
BRANCH   7   8
ATOM      8  C   UNL d   1      -1.686   0.941   0.060  0.00  0.00     0.255 C 
ATOM      9  O   UNL d   1      -2.805   1.407  -0.123  0.00  0.00    -0.266 OA
ATOM     10  C   UNL d   1      -1.371  -0.183   1.004  0.00  0.00     0.126 C 
ENDBRANCH   7   8
ENDBRANCH   6   7
BRANCH   6  11
ATOM     11  C   UNL d   1      -0.645   2.176  -2.853  0.00  0.00     0.188 C 
BRANCH  11  12
ATOM     12  C   UNL d   1       0.376   1.139  -3.363  0.00  0.00     0.213 C 
BRANCH  12  13
ATOM     13  O   UNL d   1       1.739   1.469  -3.039  0.00  0.00    -0.319 OA
BRANCH  13  14
ATOM     14  C   UNL d   1       2.332   2.431  -3.793  0.00  0.00     0.254 C 
ATOM     15  O   UNL d   1       1.769   3.103  -4.649  0.00  0.00    -0.266 OA
ATOM     16  C   UNL d   1       3.792   2.528  -3.468  0.00  0.00     0.126 C 
ENDBRANCH  13  14
ENDBRANCH  12  13
ENDBRANCH  11  12
BRANCH  11  17
ATOM     17  O   UNL d   1      -2.014   1.919  -3.269  0.00  0.00    -0.311 OA
BRANCH  17  18
ATOM     18  C   UNL d   1      -2.555   0.676  -3.218  0.00  0.00     0.255 C 
ATOM     19  O   UNL d   1      -2.022  -0.320  -2.754  0.00  0.00    -0.266 OA
ATOM     20  C   UNL d   1      -3.884   0.663  -3.917  0.00  0.00     0.126 C 
ENDBRANCH  17  18
ENDBRANCH  11  17
ENDBRANCH   6  11
ENDBRANCH   1   6
BRANCH   1  21
ATOM     21  C   UNL d   1      -1.302   4.372   0.487  0.00  0.00     0.187 C 
BRANCH  21  22
ATOM     22  C   UNL d   1      -2.485   5.318   0.902  0.00  0.00     0.140 C 
BRANCH  22  23
ATOM     23  S   UNL d   1      -2.820   6.883  -0.034  0.00  0.00    -0.151 SA
BRANCH  23  24
ATOM     24  C   UNL d   1      -1.441   8.035   0.317  0.00  0.00     0.070 C 
ATOM     25  C   UNL d   1      -1.243   8.521   1.743  0.00  0.00     0.016 C 
ENDBRANCH  23  24
ENDBRANCH  22  23
BRANCH  22  26
ATOM     26  S   UNL d   1      -2.484   5.592   2.731  0.00  0.00    -0.151 SA
BRANCH  26  27
ATOM     27  C   UNL d   1      -4.171   6.239   2.978  0.00  0.00     0.070 C 
ATOM     28  C   UNL d   1      -4.379   6.573   4.446  0.00  0.00     0.016 C 
ENDBRANCH  26  27
ENDBRANCH  22  26
ENDBRANCH  21  22
BRANCH  21  29
ATOM     29  O   UNL d   1      -0.056   5.063   0.713  0.00  0.00    -0.312 OA
BRANCH  29  30
ATOM     30  C   UNL d   1       0.968   4.323   1.213  0.00  0.00     0.255 C 
ATOM     31  O   UNL d   1       0.901   3.146   1.534  0.00  0.00    -0.266 OA
ATOM     32  C   UNL d   1       2.217   5.145   1.301  0.00  0.00     0.126 C 
ENDBRANCH  29  30
ENDBRANCH  21  29
ENDBRANCH   1  21
TORSDOF 19
