REMARK  6 active torsions:
REMARK  status: ('A' for Active; 'I' for Inactive)
REMARK    1  A    between atoms: C_12  and  C_1 
REMARK    2  A    between atoms: C_5  and  C_2 
REMARK    3  A    between atoms: N_11  and  C_2 
REMARK    4  A    between atoms: N_3  and  O_10 
REMARK    5  A    between atoms: O_10  and  C_12 
REMARK    6  A    between atoms: O_18  and  C_15 
ROOT
ATOM      1  C   UNL d   1      -2.801   4.425  -0.094  0.00  0.00     0.108 C 
ATOM      2  N   UNL d   1      -1.591   3.975   0.077  0.00  0.00    -0.255 N 
ATOM      3  HN  UNL d   1      -1.346   2.994   0.210  1.00  0.00     0.195 HD
ENDROOT
BRANCH   1   4
ATOM      4  C   UNL d   1      -3.945   3.464  -0.043  0.00  0.00     0.004 A 
ATOM      5  C   UNL d   1      -3.850   2.292   0.712  0.00  0.00     0.017 A 
ATOM      6  C   UNL d   1      -4.938   1.412   0.787  0.00  0.00     0.037 A 
ATOM      7  C   UNL d   1      -6.117   1.696   0.096  0.00  0.00     0.068 A 
ATOM      8  C   UNL d   1      -6.210   2.870  -0.656  0.00  0.00     0.037 A 
ATOM      9  C   UNL d   1      -5.128   3.749  -0.734  0.00  0.00     0.017 A 
BRANCH   7  10
ATOM     10  O   UNL d   1      -7.249   0.929   0.105  0.00  0.00    -0.356 OA
ATOM     11  C   UNL d   1      -7.061  -0.452   0.390  0.00  0.00     0.210 C 
ENDBRANCH   7  10
ENDBRANCH   1   4
BRANCH   1  12
ATOM     12  N   UNL d   1      -3.072   5.756  -0.318  0.00  0.00    -0.286 NA
ATOM     13  H   UNL d   1      -2.244   6.320  -0.145  0.00  0.00     0.125 HD
ATOM     14  H   UNL d   1      -3.890   6.117   0.161  0.00  0.00     0.125 HD
ENDBRANCH   1  12
BRANCH   2  15
ATOM     15  O   UNL d   1      -0.668   5.043   0.053  0.00  0.00    -0.274 OA
BRANCH  15  16
ATOM     16  C   UNL d   1       0.567   4.585  -0.504  0.00  0.00     0.243 C 
BRANCH  16  17
ATOM     17  C   UNL d   1       1.516   5.756  -0.610  0.00  0.00     0.011 A 
ATOM     18  C   UNL d   1       2.730   5.801   0.101  0.00  0.00     0.044 A 
ATOM     19 CL   UNL d   1       3.253   4.516   1.134  0.00  0.00    -0.084 Cl
ATOM     20  C   UNL d   1       3.591   6.903  -0.003  0.00  0.00     0.024 A 
ATOM     21  C   UNL d   1       3.260   7.984  -0.815  0.00  0.00     0.003 A 
ATOM     22  C   UNL d   1       2.071   7.958  -1.533  0.00  0.00     0.024 A 
ATOM     23  C   UNL d   1       1.211   6.856  -1.439  0.00  0.00     0.044 A 
ATOM     24 CL   UNL d   1      -0.226   6.916  -2.403  0.00  0.00    -0.084 Cl
ENDBRANCH  16  17
ENDBRANCH  15  16
ENDBRANCH   2  15
TORSDOF 6
