REMARK  5 active torsions:
REMARK  status: ('A' for Active; 'I' for Inactive)
REMARK    1  A    between atoms: C_5  and  N_1 
REMARK       I    between atoms: C_2  and  N_4 
REMARK    2  A    between atoms: C_6  and  C_2 
REMARK    3  A    between atoms: N_4  and  C_16 
REMARK    4  A    between atoms: C_16  and  C_17 
REMARK    5  A    between atoms: O_23  and  C_18 
ROOT
ATOM      1  C   UNL d   1      -3.076   0.001   0.756  0.00  0.00     0.030 A 
ATOM      2  C   UNL d   1      -3.237  -0.601   2.014  0.00  0.00     0.030 A 
ATOM      3  C   UNL d   1      -4.199   0.668   0.243  0.00  0.00     0.030 A 
ATOM      4  C   UNL d   1      -5.559   0.114   2.179  0.00  0.00    -0.040 A 
ATOM      5  C   UNL d   1      -5.416   0.727   0.933  0.00  0.00     0.011 A 
ATOM      6  C   UNL d   1      -4.454  -0.554   2.714  0.00  0.00     0.011 A 
ENDROOT
BRANCH   4   7
ATOM      7  C   UNL d   1      -6.889   0.124   2.883  0.00  0.00     0.161 C 
BRANCH   7   8
ATOM      8  N   UNL d   1      -7.645  -1.069   2.566  0.00  0.00    -0.353 N 
ATOM      9  C   UNL d   1      -8.940  -1.231   3.009  0.00  0.00     0.251 C 
ATOM     10  O   UNL d   1      -9.520  -0.404   3.704  0.00  0.00    -0.268 OA
ATOM     11  H   UNL d   1      -7.266  -1.678   1.856  0.00  0.00     0.163 HD
BRANCH   9  12
ATOM     12  C   UNL d   1      -9.638  -2.477   2.572  0.00  0.00     0.032 A 
ATOM     13  C   UNL d   1      -8.939  -3.626   2.190  0.00  0.00     0.020 A 
ATOM     14  C   UNL d   1      -9.627  -4.771   1.770  0.00  0.00     0.038 A 
ATOM     15  C   UNL d   1     -11.021  -4.781   1.739  0.00  0.00     0.068 A 
ATOM     16  C   UNL d   1     -11.724  -3.654   2.167  0.00  0.00     0.038 A 
ATOM     17  C   UNL d   1     -11.041  -2.502   2.574  0.00  0.00     0.020 A 
BRANCH  15  18
ATOM     18  O   UNL d   1     -11.786  -5.851   1.365  0.00  0.00    -0.356 OA
ATOM     19  C   UNL d   1     -11.207  -6.703   0.380  0.00  0.00     0.210 C 
ENDBRANCH  15  18
ENDBRANCH   9  12
ENDBRANCH   7   8
ENDBRANCH   4   7
BRANCH   1  20
ATOM     20  N   UNL d   1      -1.914  -0.106   0.015  0.00  0.00    -0.378 N 
ATOM     21  C   UNL d   1      -0.890  -1.127   0.289  0.00  0.00     0.153 C 
ATOM     22  C   UNL d   1      -0.272  -1.619  -1.044  0.00  0.00     0.291 C 
ATOM     23  N   UNL d   1       0.269  -0.513  -1.867  0.00  0.00     0.087 N 
ATOM     24  C   UNL d   1      -0.820   0.455  -2.130  0.00  0.00     0.291 C 
ATOM     25  C   UNL d   1       0.829  -1.019  -3.115  0.00  0.00     0.310 C 
ATOM     26  C   UNL d   1      -1.424   1.010  -0.819  0.00  0.00     0.153 C 
ENDBRANCH   1  20
TORSDOF 5
