REMARK  7 active torsions:
REMARK  status: ('A' for Active; 'I' for Inactive)
REMARK    1  A    between atoms: C_2  and  N_1 
REMARK    2  A    between atoms: C_3  and  O_13 
REMARK    3  A    between atoms: C_6  and  C_3 
REMARK    4  A    between atoms: C_8  and  C_4 
REMARK    5  A    between atoms: C_19  and  C_10 
REMARK    6  A    between atoms: O_13  and  C_18 
REMARK    7  A    between atoms: C_18  and  C_19 
ROOT
ATOM      1  C   UNL d   1      -1.075  -2.830  -1.965  0.00  0.00     0.066 C 
ENDROOT
BRANCH   1   2
ATOM      2  C   UNL d   1      -0.215  -1.554  -2.071  0.00  0.00     0.183 C 
BRANCH   2   3
ATOM      3  O   UNL d   1       1.096  -1.759  -2.641  0.00  0.00    -0.317 OA
BRANCH   3   4
ATOM      4  C   UNL d   1       1.145  -2.042  -3.966  0.00  0.00     0.293 C 
ATOM      5  O   UNL d   1       0.186  -2.103  -4.718  0.00  0.00    -0.259 OA
BRANCH   4   6
ATOM      6  C   UNL d   1       2.549  -2.301  -4.400  0.00  0.00     0.039 A 
ATOM      7  C   UNL d   1       2.751  -2.770  -5.707  0.00  0.00     0.019 A 
ATOM      8  C   UNL d   1       4.044  -3.001  -6.187  0.00  0.00     0.025 A 
ATOM      9  C   UNL d   1       5.140  -2.764  -5.362  0.00  0.00     0.034 A 
ATOM     10  C   UNL d   1       4.954  -2.314  -4.054  0.00  0.00     0.025 A 
ATOM     11 CL   UNL d   1       6.732  -3.022  -5.961  0.00  0.00    -0.084 Cl
ATOM     12  C   UNL d   1       3.660  -2.084  -3.570  0.00  0.00     0.019 A 
ENDBRANCH   4   6
ENDBRANCH   3   4
ENDBRANCH   2   3
ENDBRANCH   1   2
BRANCH   1  13
ATOM     13  C   UNL d   1      -0.607  -3.912  -1.003  0.00  0.00    -0.046 A 
ATOM     14  C   UNL d   1      -1.519  -4.759  -0.332  0.00  0.00    -0.028 A 
ATOM     15  C   UNL d   1      -1.043  -5.770   0.523  0.00  0.00     0.012 A 
ATOM     16  C   UNL d   1       0.322  -5.970   0.702  0.00  0.00     0.001 A 
ATOM     17  C   UNL d   1       1.228  -5.171   0.019  0.00  0.00     0.001 A 
ATOM     18  C   UNL d   1       0.766  -4.161  -0.822  0.00  0.00     0.008 A 
BRANCH  14  19
ATOM     19  C   UNL d   1      -2.974  -4.704  -0.537  0.00  0.00     0.035 C 
ATOM     20  C   UNL d   1      -3.936  -4.156   0.219  0.00  0.00     0.168 C 
BRANCH  20  21
ATOM     21  N   UNL d   1      -3.701  -3.396   1.425  0.00  0.00    -0.127 N 
ATOM     22  O   UNL d   1      -4.726  -3.018   2.012  0.00  0.00    -0.532 OA
ATOM     23  O   UNL d   1      -2.550  -3.147   1.789  0.00  0.00    -0.532 OA
ENDBRANCH  20  21
ENDBRANCH  14  19
ENDBRANCH   1  13
TORSDOF 7
