REMARK  2 active torsions:
REMARK  status: ('A' for Active; 'I' for Inactive)
REMARK       I    between atoms: C_3  and  N_1 
REMARK    1  A    between atoms: N_2  and  C_5 
REMARK    2  A    between atoms: C_5  and  C_3 
ROOT
ATOM      1  N   UNL d   1       1.239   1.335   0.643  0.00  0.00    -0.316 N 
ATOM      2  C   UNL d   1       1.844   2.331  -0.098  0.00  0.00     0.237 C 
ATOM      3  C   UNL d   1      -0.157   1.156   0.770  0.00  0.00     0.043 A 
ATOM      4  C   UNL d   1       1.882   0.280   1.449  0.00  0.00     0.137 C 
ATOM      5  C   UNL d   1      -0.424  -0.096   1.330  0.00  0.00    -0.030 A 
ATOM      6  O   UNL d   1       1.217   3.105  -0.827  0.00  0.00    -0.272 OA
ATOM      7  C   UNL d   1       0.847  -0.848   1.564  0.00  0.00     0.061 C 
ATOM      8  C   UNL d   1      -1.187   2.021   0.445  0.00  0.00     0.030 A 
ATOM      9  C   UNL d   1      -1.725  -0.535   1.522  0.00  0.00     0.009 A 
ATOM     10  C   UNL d   1      -2.503   1.604   0.672  0.00  0.00     0.002 A 
ATOM     11  C   UNL d   1      -2.770   0.330   1.195  0.00  0.00     0.001 A 
ENDROOT
BRANCH   2  12
ATOM     12  C   UNL d   1       3.364   2.513   0.024  0.00  0.00     0.199 C 
BRANCH  12  13
ATOM     13  N   UNL d   1       4.190   1.353  -0.376  0.00  0.00    -0.274 NA
ATOM     14  C   UNL d   1       5.552   1.691  -0.616  0.00  0.00     0.017 A 
ATOM     15  C   UNL d   1       6.100   0.992  -1.695  0.00  0.00    -0.036 A 
ATOM     16  C   UNL d   1       6.337   2.594   0.086  0.00  0.00     0.024 A 
ATOM     17  C   UNL d   1       7.402   1.202  -2.123  0.00  0.00     0.009 A 
ATOM     18  C   UNL d   1       5.094   0.036  -2.227  0.00  0.00     0.055 C 
ATOM     19  C   UNL d   1       8.177   2.138  -1.441  0.00  0.00     0.001 A 
ATOM     20  C   UNL d   1       7.652   2.822  -0.336  0.00  0.00     0.002 A 
ATOM     21  C   UNL d   1       3.809   0.612  -1.605  0.00  0.00     0.101 C 
ENDBRANCH  12  13
ENDBRANCH   2  12
TORSDOF 2
