REMARK  2 active torsions:
REMARK  status: ('A' for Active; 'I' for Inactive)
REMARK    1  A    between atoms: C_2  and  S_1 
REMARK    2  A    between atoms: N_5  and  S_1 
ROOT
ATOM      1  C   UNL d   1       0.665  -1.756  -0.304  0.00  0.00     0.116 A 
ATOM      2  S   UNL d   1       1.746  -2.936   0.295  0.00  0.00    -0.074 SA
ATOM      3  C   UNL d   1       0.780  -4.231  -0.271  0.00  0.00     0.042 A 
ATOM      4  C   UNL d   1       1.158  -5.606  -0.091  0.00  0.00     0.117 A 
ATOM      5  C   UNL d   1      -0.420  -2.341  -0.928  0.00  0.00     0.034 A 
ATOM      6  C   UNL d   1      -0.353  -3.765  -0.909  0.00  0.00     0.024 A 
ATOM      7  N   UNL d   1       1.003  -7.856  -0.281  0.00  0.00    -0.272 N 
ATOM      8  HN  UNL d   1       0.667  -8.788  -0.520  1.00  0.00     0.194 HD
ATOM      9  O   UNL d   1       0.404  -6.645  -0.579  0.00  0.00    -0.237 OA
ATOM     10  C   UNL d   1       2.258  -6.155   0.541  0.00  0.00     0.059 A 
ATOM     11  C   UNL d   1       2.113  -7.543   0.386  0.00  0.00     0.117 A 
ENDROOT
BRANCH   1  12
ATOM     12  S   UNL d   1       1.102  -0.046  -0.055  0.00  0.00     0.250 S 
ATOM     13  O   UNL d   1       0.385   0.648  -1.105  0.00  0.00    -0.205 OA
ATOM     14  O   UNL d   1       2.545   0.013   0.020  0.00  0.00    -0.205 OA
BRANCH  12  15
ATOM     15  N   UNL d   1       0.445   0.458   1.433  0.00  0.00    -0.202 NA
ATOM     16  C   UNL d   1       1.050  -0.113   2.676  0.00  0.00     0.134 C 
ATOM     17  C   UNL d   1       2.351   0.605   3.062  0.00  0.00     0.183 C 
ATOM     18  O   UNL d   1       2.151   2.020   3.187  0.00  0.00    -0.389 OA
ATOM     19  C   UNL d   1       1.653   2.578   1.961  0.00  0.00     0.183 C 
ATOM     20  C   UNL d   1       0.312   1.943   1.583  0.00  0.00     0.134 C 
ENDBRANCH  12  15
ENDBRANCH   1  12
TORSDOF 2
