REMARK  1 active torsions:
REMARK  status: ('A' for Active; 'I' for Inactive)
REMARK    1  A    between atoms: O_12  and  C_2 
ROOT
ATOM      1  C   UNL d   1       0.019  -0.757   0.054  0.00  0.00     0.042 A 
ATOM      2  C   UNL d   1       1.291  -1.341   0.085  0.00  0.00     0.153 A 
ATOM      3  N   UNL d   1       2.443  -0.660   0.083  0.00  0.00    -0.332 N 
ATOM      4  HN  UNL d   1       3.351  -1.124   0.117  1.00  0.00     0.168 HD
ATOM      5  C   UNL d   1       0.038   0.642  -0.004  0.00  0.00     0.047 A 
ATOM      6  N   UNL d   1       1.171   1.354  -0.017  0.00  0.00    -0.352 N 
ATOM      7  HN  UNL d   1       1.160   2.373  -0.061  1.00  0.00     0.166 HD
ATOM      8  C   UNL d   1       2.321   0.667   0.032  0.00  0.00     0.182 A 
ATOM      9  C   UNL d   1      -1.228  -1.443   0.081  0.00  0.00     0.024 A 
ATOM     10  C   UNL d   1      -1.173   1.320  -0.052  0.00  0.00     0.031 A 
ATOM     11  C   UNL d   1      -2.437  -0.743   0.032  0.00  0.00    -0.061 A 
ATOM     12  C   UNL d   1      -2.400   0.648  -0.042  0.00  0.00     0.009 A 
ATOM     13  C   UNL d   1      -3.753  -1.462   0.035  0.00  0.00     0.048 C 
ENDROOT
BRANCH   2  14
ATOM     14  O   UNL d   1       1.478  -2.695   0.115  0.00  0.00    -0.345 OA
ATOM     15  H   UNL d   1       0.665  -3.126  -0.175  0.00  0.00     0.219 HD
ENDBRANCH   2  14
TORSDOF 1
