REMARK  4 active torsions:
REMARK  status: ('A' for Active; 'I' for Inactive)
REMARK    1  A    between atoms: N_12  and  C_1 
REMARK    2  A    between atoms: C_17  and  C_2 
REMARK    3  A    between atoms: C_3  and  C_15 
REMARK       I    between atoms: C_11  and  N_12 
REMARK       I    between atoms: N_16  and  C_11 
REMARK    4  A    between atoms: C_21  and  N_16 
ROOT
ATOM      1  C   UNL d   1       1.688  -2.650   0.239  0.00  0.00     0.325 C 
ATOM      2  N   UNL d   1       1.854  -3.774  -0.535  0.00  0.00    -0.304 N 
ATOM      3  N   UNL d   1       2.783  -1.809   0.186  0.00  0.00    -0.309 N 
ATOM      4  O   UNL d   1       0.658  -2.433   0.872  0.00  0.00    -0.247 OA
ATOM      5  H   UNL d   1       2.481  -3.696  -1.320  0.00  0.00     0.171 HD
ATOM      6  H   UNL d   1       3.604  -2.150  -0.291  0.00  0.00     0.170 HD
ENDROOT
BRANCH   3   7
ATOM      7  C   UNL d   1       2.955  -0.625   0.952  0.00  0.00     0.036 A 
ATOM      8  C   UNL d   1       1.959  -0.102   1.774  0.00  0.00     0.030 A 
ATOM      9  C   UNL d   1       2.232   0.936   2.661  0.00  0.00     0.016 A 
ATOM     10  C   UNL d   1       3.511   1.498   2.760  0.00  0.00    -0.002 A 
ATOM     11  C   UNL d   1       4.473   1.063   1.837  0.00  0.00     0.016 A 
ATOM     12  C   UNL d   1       4.202   0.013   0.939  0.00  0.00     0.030 A 
BRANCH  10  13
ATOM     13  C   UNL d   1       3.879   2.430   3.851  0.00  0.00     0.085 A 
ATOM     14  N   UNL d   1       5.090   2.915   4.053  0.00  0.00    -0.349 N 
ATOM     15  C   UNL d   1       5.145   3.592   5.266  0.00  0.00     0.050 A 
ATOM     16  HN  UNL d   1       5.875   2.808   3.410  1.00  0.00     0.166 HD
ATOM     17  C   UNL d   1       6.286   4.192   5.839  0.00  0.00     0.031 A 
ATOM     18  C   UNL d   1       3.946   3.650   5.972  0.00  0.00     0.033 A 
ATOM     19  C   UNL d   1       6.194   4.813   7.093  0.00  0.00     0.002 A 
ATOM     20  C   UNL d   1       4.985   4.844   7.779  0.00  0.00     0.002 A 
ATOM     21  C   UNL d   1       3.839   4.267   7.230  0.00  0.00     0.021 A 
ATOM     22  S   UNL d   1       2.727   2.869   5.063  0.00  0.00    -0.070 SA
ENDBRANCH  10  13
ENDBRANCH   3   7
BRANCH   2  23
ATOM     23  C   UNL d   1       0.925  -4.814  -0.599  0.00  0.00     0.097 C 
ATOM     24  C   UNL d   1       0.660  -5.512  -1.762  0.00  0.00     0.137 C 
ATOM     25  O   UNL d   1      -0.199  -6.527  -1.499  0.00  0.00    -0.235 OA
ATOM     26  N   UNL d   1      -0.628  -6.440  -0.192  0.00  0.00    -0.263 N 
ATOM     27  C   UNL d   1      -0.023  -5.358   0.323  0.00  0.00     0.058 C 
ATOM     28  HN  UNL d   1      -1.273  -7.069   0.286  1.00  0.00     0.194 HD
ATOM     29  C   UNL d   1      -0.421  -4.921   1.681  0.00  0.00     0.072 C 
BRANCH  24  30
ATOM     30  C   UNL d   1       0.878  -5.230  -3.171  0.00  0.00     0.002 A 
ATOM     31  C   UNL d   1       1.047  -6.247  -4.113  0.00  0.00     0.014 A 
ATOM     32  C   UNL d   1       1.077  -5.938  -5.479  0.00  0.00     0.001 A 
ATOM     33  C   UNL d   1       0.937  -4.616  -5.906  0.00  0.00     0.000 A 
ATOM     34  C   UNL d   1       0.785  -3.594  -4.971  0.00  0.00     0.001 A 
ATOM     35  C   UNL d   1       0.757  -3.900  -3.616  0.00  0.00     0.014 A 
ENDBRANCH  24  30
ENDBRANCH   2  23
TORSDOF 4
