REMARK  12 active torsions:
REMARK  status: ('A' for Active; 'I' for Inactive)
REMARK    1  A    between atoms: C1_1  and  C2_3 
REMARK    2  A    between atoms: O2_8  and  C2_3 
REMARK    3  A    between atoms: C5_9  and  C3_5 
REMARK    4  A    between atoms: C6_10  and  C5_9 
REMARK    5  A    between atoms: C13_17  and  C6_10 
REMARK    6  A    between atoms: C7_11  and  C8_12 
REMARK    7  A    between atoms: C8_12  and  C12_16 
REMARK    8  A    between atoms: C9_13  and  C14_18 
REMARK    9  A    between atoms: C10_14  and  C9_13 
REMARK   10  A    between atoms: C11_15  and  C10_14 
REMARK   11  A    between atoms: C12_16  and  C11_15 
REMARK   12  A    between atoms: C14_18  and  C13_17 
ROOT
ATOM      1  C5  <1> d   1       0.170  -2.568   0.170  0.00  0.00     0.046 C 
ENDROOT
BRANCH   1   2
ATOM      2  C3  <1> d   1      -0.130  -1.162  -0.343  0.00  0.00     0.282 C 
ATOM      3  N1  <1> d   1       0.958  -0.240  -0.028  0.00  0.00     0.113 N 
ATOM      4  C1  <1> d   1       0.859   0.945  -0.914  0.00  0.00     0.327 C 
ATOM      5  H3  <1> d   1       0.852   0.060   0.946  0.00  0.00     0.318 HD
ATOM      6  C4  <1> d   1       0.018   0.656  -2.160  0.00  0.00     0.122 C 
ATOM      7  S1  <1> d   1      -0.298  -1.118  -2.134  0.00  0.00    -0.131 SA
BRANCH   4   8
ATOM      8  C2  <1> d   1       0.261   2.125  -0.142  0.00  0.00     0.175 C 
ATOM      9  O1  <1> d   1      -0.495   2.003   0.817  0.00  0.00    -0.648 OA
BRANCH   8  10
ATOM     10  O2  <1> d   1       0.649   3.336  -0.598  0.00  0.00    -0.775 OA
ATOM     11  H6  <1> d   1       1.314   3.316  -1.312  0.00  0.00     0.167 HD
ENDBRANCH   8  10
ENDBRANCH   4   8
ENDBRANCH   1   2
BRANCH   1  12
ATOM     12  C6  <1> d   1       0.279  -2.568   1.694  0.00  0.00     0.003 C 
BRANCH  12  13
ATOM     13  C13 <1> d   1       0.564  -3.961   2.224  0.00  0.00     0.000 C 
BRANCH  13  14
ATOM     14  C14 <1> d   1       0.681  -3.912   3.739  0.00  0.00     0.000 C 
BRANCH  14  15
ATOM     15  C9  <1> d   1       0.976  -5.297   4.283  0.00  0.00     0.000 C 
BRANCH  15  16
ATOM     16  C10 <1> d   1       1.089  -5.247   5.797  0.00  0.00     0.000 C 
BRANCH  16  17
ATOM     17  C11 <1> d   1       1.382  -6.636   6.339  0.00  0.00     0.000 C 
BRANCH  17  18
ATOM     18  C12 <1> d   1       1.496  -6.596   7.855  0.00  0.00     0.000 C 
BRANCH  18  19
ATOM     19  C8  <1> d   1       1.790  -7.988   8.396  0.00  0.00    -0.000 C 
BRANCH  19  20
ATOM     20  C7  <1> d   1       1.907  -7.960   9.914  0.00  0.00    -0.005 C 
ATOM     21  C15 <1> d   1       2.201  -9.348  10.453  0.00  0.00     0.005 C 
ENDBRANCH  19  20
ENDBRANCH  18  19
ENDBRANCH  17  18
ENDBRANCH  16  17
ENDBRANCH  15  16
ENDBRANCH  14  15
ENDBRANCH  13  14
ENDBRANCH  12  13
ENDBRANCH   1  12
TORSDOF 12
