REMARK  2 active torsions:
REMARK  status: ('A' for Active; 'I' for Inactive)
REMARK    1  A    between atoms: C_12  and  N_3 
REMARK    2  A    between atoms: C_14  and  C_12 
ROOT
ATOM      1  C   UNL d   1       1.136   0.343  -1.122  0.00  0.00     0.153 A 
ATOM      2  C   UNL d   1       0.606  -0.802  -0.568  0.00  0.00     0.129 A 
ATOM      3  N   UNL d   1       1.447   1.106  -0.032  0.00  0.00    -0.254 N 
ATOM      4  N   UNL d   1       0.647  -0.737   0.791  0.00  0.00    -0.278 N 
ATOM      5  HN  UNL d   1       0.326  -1.456   1.440  1.00  0.00     0.184 HD
ATOM      6  N   UNL d   1       1.184   0.438   1.119  0.00  0.00    -0.018 NA
ATOM      7  N   UNL d   1       1.282   0.658  -2.435  0.00  0.00    -0.336 N 
ATOM      8  HN  UNL d   1       1.692   1.532  -2.767  1.00  0.00     0.168 HD
ATOM      9  C   UNL d   1       0.124  -1.806  -1.471  0.00  0.00     0.133 A 
ATOM     10  N   UNL d   1       0.278  -1.476  -2.807  0.00  0.00    -0.341 N 
ATOM     11  C   UNL d   1       0.842  -0.279  -3.222  0.00  0.00     0.183 A 
ATOM     12  S   UNL d   1      -0.554  -3.218  -0.940  0.00  0.00    -0.058 SA
ATOM     13  H   UNL d   1      -0.046  -2.148  -3.490  0.00  0.00     0.167 HD
ENDROOT
BRANCH   3  14
ATOM     14  C   UNL d   1       1.958   2.461  -0.006  0.00  0.00     0.187 C 
BRANCH  14  15
ATOM     15  C   UNL d   1       0.820   3.453   0.026  0.00  0.00    -0.039 A 
ATOM     16  C   UNL d   1       0.274   3.868   1.249  0.00  0.00     0.009 A 
ATOM     17  C   UNL d   1      -0.835   4.713   1.277  0.00  0.00     0.001 A 
ATOM     18  C   UNL d   1      -1.411   5.150   0.086  0.00  0.00     0.000 A 
ATOM     19  C   UNL d   1      -0.871   4.752  -1.137  0.00  0.00     0.001 A 
ATOM     20  C   UNL d   1       0.240   3.908  -1.167  0.00  0.00     0.009 A 
ENDBRANCH  14  15
ENDBRANCH   3  14
TORSDOF 2
