REMARK  4 active torsions:
REMARK  status: ('A' for Active; 'I' for Inactive)
REMARK    1  A    between atoms: C_17  and  C_5 
REMARK    2  A    between atoms: N_18  and  C_6 
REMARK    3  A    between atoms: C_11  and  C_16 
REMARK    4  A    between atoms: N_12  and  N_18 
ROOT
ATOM      1  C   UNL d   1       0.257   1.009  -0.023  0.00  0.00     0.044 A 
ATOM      2  C   UNL d   1      -0.010  -0.346  -0.035  0.00  0.00     0.089 A 
ATOM      3  C   UNL d   1      -0.968   1.761  -0.028  0.00  0.00     0.038 A 
ATOM      4  S   UNL d   1      -1.674  -0.693  -0.018  0.00  0.00    -0.071 SA
ATOM      5  C   UNL d   1      -2.105   0.970  -0.025  0.00  0.00     0.018 A 
ATOM      6  C   UNL d   1       1.619   1.380  -0.020  0.00  0.00     0.134 A 
ATOM      7  N   UNL d   1       0.890  -1.343  -0.049  0.00  0.00    -0.346 N 
ATOM      8  HN  UNL d   1       0.644  -2.332  -0.054  1.00  0.00     0.167 HD
ATOM      9  N   UNL d   1       2.548   0.391  -0.042  0.00  0.00    -0.337 N 
ATOM     10  HN  UNL d   1       3.543   0.617  -0.048  1.00  0.00     0.168 HD
ATOM     11  C   UNL d   1       2.145  -0.888  -0.056  0.00  0.00     0.182 A 
ENDROOT
BRANCH   6  12
ATOM     12  N   UNL d   1       2.013   2.733   0.030  0.00  0.00    -0.285 N 
ATOM     13  H   UNL d   1       1.244   3.391  -0.026  0.00  0.00     0.188 HD
BRANCH  12  14
ATOM     14  N   UNL d   1       3.223   3.057  -0.502  0.00  0.00    -0.309 N 
ATOM     15  C   UNL d   1       3.509   4.321  -0.500  0.00  0.00     0.126 C 
ATOM     16  HN  UNL d   1       3.861   2.354  -0.877  1.00  0.00     0.186 HD
BRANCH  15  17
ATOM     17  C   UNL d   1       4.753   4.791  -1.054  0.00  0.00     0.021 A 
ATOM     18  S   UNL d   1       5.134   6.456  -0.971  0.00  0.00    -0.101 SA
ATOM     19  C   UNL d   1       6.647   6.210  -1.732  0.00  0.00     0.050 A 
ATOM     20  C   UNL d   1       6.850   4.888  -2.063  0.00  0.00     0.008 A 
ATOM     21  C   UNL d   1       5.751   4.069  -1.676  0.00  0.00     0.021 A 
ENDBRANCH  15  17
ENDBRANCH  12  14
ENDBRANCH   6  12
BRANCH   5  22
ATOM     22  C   UNL d   1      -3.518   1.390   0.016  0.00  0.00    -0.019 A 
ATOM     23  C   UNL d   1      -4.536   0.645  -0.600  0.00  0.00     0.013 A 
ATOM     24  C   UNL d   1      -5.872   1.050  -0.520  0.00  0.00     0.001 A 
ATOM     25  C   UNL d   1      -6.210   2.214   0.165  0.00  0.00     0.000 A 
ATOM     26  C   UNL d   1      -5.213   2.978   0.764  0.00  0.00     0.001 A 
ATOM     27  C   UNL d   1      -3.878   2.570   0.688  0.00  0.00     0.013 A 
ENDBRANCH   5  22
TORSDOF 4
