REMARK  6 active torsions:
REMARK  status: ('A' for Active; 'I' for Inactive)
REMARK    1  A    between atoms: C_23  and  N_3 
REMARK    2  A    between atoms: C_24  and  N_5 
REMARK    3  A    between atoms: C_22  and  C_6 
REMARK    4  A    between atoms: C_20  and  C_10 
REMARK    5  A    between atoms: C_13  and  N_25 
REMARK    6  A    between atoms: N_25  and  N_18 
ROOT
ATOM      1  N   UNL d   1      -2.737   3.047  -1.538  0.00  0.00    -0.326 N 
ATOM      2  HN  UNL d   1      -3.450   2.319  -1.590  1.00  0.00     0.180 HD
ATOM      3  C   UNL d   1      -1.520   2.848  -1.130  0.00  0.00     0.117 C 
ENDROOT
BRANCH   1   4
ATOM      4  N   UNL d   1      -2.946   4.359  -1.891  0.00  0.00    -0.190 NA
ATOM      5  H   UNL d   1      -2.559   5.083  -1.281  0.00  0.00     0.154 HD
BRANCH   4   6
ATOM      6  C   UNL d   1      -4.251   4.790  -2.182  0.00  0.00     0.115 A 
ATOM      7  C   UNL d   1      -5.241   4.051  -2.834  0.00  0.00     0.067 A 
ATOM      8  C   UNL d   1      -6.505   4.608  -2.873  0.00  0.00     0.143 A 
ATOM      9  C   UNL d   1      -5.383   2.827  -3.516  0.00  0.00     0.126 C 
ATOM     10  N   UNL d   1      -7.343   3.605  -3.332  0.00  0.00    -0.239 N 
ATOM     11  N   UNL d   1      -6.851   5.845  -2.461  0.00  0.00    -0.336 N 
ATOM     12  N   UNL d   1      -6.637   2.606  -3.939  0.00  0.00    -0.302 N 
ATOM     13  HN  UNL d   1      -6.978   1.872  -4.560  1.00  0.00     0.186 HD
ATOM     14  C   UNL d   1      -5.804   6.514  -1.968  0.00  0.00     0.183 A 
ATOM     15  HN  UNL d   1      -7.796   6.223  -2.518  1.00  0.00     0.168 HD
ATOM     16  N   UNL d   1      -4.554   6.054  -1.783  0.00  0.00    -0.341 N 
ATOM     17  HN  UNL d   1      -3.844   6.644  -1.349  1.00  0.00     0.167 HD
BRANCH  10  18
ATOM     18  C   UNL d   1      -8.716   3.442  -3.020  0.00  0.00     0.058 A 
ATOM     19  C   UNL d   1      -9.553   2.688  -3.846  0.00  0.00     0.031 A 
ATOM     20  C   UNL d   1     -10.877   2.464  -3.457  0.00  0.00     0.002 A 
ATOM     21  C   UNL d   1     -11.345   2.945  -2.232  0.00  0.00     0.000 A 
ATOM     22  C   UNL d   1     -10.504   3.680  -1.401  0.00  0.00     0.002 A 
ATOM     23  C   UNL d   1      -9.198   3.949  -1.803  0.00  0.00     0.031 A 
ENDBRANCH  10  18
ENDBRANCH   4   6
ENDBRANCH   1   4
BRANCH   3  24
ATOM     24  C   UNL d   1      -1.053   1.554  -0.691  0.00  0.00     0.027 A 
ATOM     25  C   UNL d   1       0.273   1.187  -0.319  0.00  0.00     0.071 A 
ATOM     26  N   UNL d   1       0.340  -0.113  -0.012  0.00  0.00    -0.292 N 
ATOM     27  N   UNL d   1      -0.895  -0.614  -0.229  0.00  0.00    -0.266 N 
ATOM     28  HN  UNL d   1       1.159  -0.623   0.319  1.00  0.00     0.187 HD
ATOM     29  C   UNL d   1      -1.779   0.381  -0.582  0.00  0.00     0.132 A 
BRANCH  25  30
ATOM     30  C   UNL d   1       1.504   1.978  -0.287  0.00  0.00    -0.007 A 
ATOM     31  C   UNL d   1       1.554   3.262   0.267  0.00  0.00     0.015 A 
ATOM     32  C   UNL d   1       2.756   3.980   0.276  0.00  0.00     0.024 A 
ATOM     33  C   UNL d   1       3.915   3.409  -0.250  0.00  0.00     0.034 A 
ATOM     34  C   UNL d   1       3.886   2.125  -0.784  0.00  0.00     0.024 A 
ATOM     35 CL   UNL d   1       5.392   4.289  -0.225  0.00  0.00    -0.084 Cl
ATOM     36  C   UNL d   1       2.685   1.414  -0.802  0.00  0.00     0.015 A 
ENDBRANCH  25  30
BRANCH  27  37
ATOM     37  C   UNL d   1      -1.108  -2.016  -0.116  0.00  0.00     0.056 A 
ATOM     38  C   UNL d   1      -0.026  -2.849   0.220  0.00  0.00     0.031 A 
ATOM     39  C   UNL d   1      -0.184  -4.234   0.300  0.00  0.00     0.002 A 
ATOM     40  C   UNL d   1      -1.427  -4.800   0.034  0.00  0.00     0.000 A 
ATOM     41  C   UNL d   1      -2.509  -3.981  -0.295  0.00  0.00     0.002 A 
ATOM     42  C   UNL d   1      -2.358  -2.591  -0.369  0.00  0.00     0.031 A 
ENDBRANCH  27  37
ENDBRANCH   3  24
TORSDOF 6
