REMARK  5 active torsions:
REMARK  status: ('A' for Active; 'I' for Inactive)
REMARK    1  A    between atoms: C_2  and  C_1 
REMARK       I    between atoms: N_4  and  C_1 
REMARK    2  A    between atoms: C_13  and  N_4 
REMARK    3  A    between atoms: O_15  and  C_6 
REMARK    4  A    between atoms: O_18  and  C_8 
REMARK    5  A    between atoms: C_14  and  C_13 
ROOT
ATOM      1  N   UNL d   1      -3.132   7.204  -1.016  0.00  0.00    -0.191 NA
ATOM      2  C   UNL d   1      -2.459   6.272  -1.194  0.00  0.00     0.099 C 
ATOM      3  C   UNL d   1      -1.640   5.116  -1.413  0.00  0.00     0.044 A 
ATOM      4  C   UNL d   1      -0.070   2.811  -1.830  0.00  0.00    -0.040 A 
ATOM      5  C   UNL d   1      -1.638   4.481  -2.659  0.00  0.00     0.023 A 
ATOM      6  C   UNL d   1      -0.846   4.610  -0.380  0.00  0.00     0.023 A 
ATOM      7  C   UNL d   1      -0.064   3.467  -0.589  0.00  0.00     0.010 A 
ATOM      8  C   UNL d   1      -0.858   3.336  -2.866  0.00  0.00     0.010 A 
ENDROOT
BRANCH   4   9
ATOM      9  C   UNL d   1       0.752   1.559  -2.035  0.00  0.00     0.161 C 
BRANCH   9  10
ATOM     10  N   UNL d   1       0.237   0.471  -1.227  0.00  0.00    -0.353 N 
ATOM     11  C   UNL d   1       0.967  -0.089  -0.201  0.00  0.00     0.252 C 
ATOM     12  O   UNL d   1       2.135   0.206   0.032  0.00  0.00    -0.268 OA
ATOM     13  H   UNL d   1      -0.751   0.281  -1.309  0.00  0.00     0.163 HD
BRANCH  11  14
ATOM     14  C   UNL d   1       0.247  -1.041   0.700  0.00  0.00     0.034 A 
ATOM     15  C   UNL d   1       0.745  -1.221   2.002  0.00  0.00     0.056 A 
ATOM     16  C   UNL d   1       0.063  -2.010   2.944  0.00  0.00     0.102 A 
ATOM     17  C   UNL d   1      -1.133  -2.639   2.558  0.00  0.00     0.101 A 
ATOM     18  C   UNL d   1      -1.604  -2.487   1.246  0.00  0.00     0.040 A 
ATOM     19  C   UNL d   1      -0.914  -1.710   0.314  0.00  0.00     0.020 A 
BRANCH  16  20
ATOM     20  O   UNL d   1       0.481  -2.163   4.239  0.00  0.00    -0.353 OA
ATOM     21  C   UNL d   1       1.684  -1.519   4.640  0.00  0.00     0.210 C 
ENDBRANCH  16  20
BRANCH  17  22
ATOM     22  O   UNL d   1      -1.990  -3.367   3.342  0.00  0.00    -0.353 OA
ATOM     23  C   UNL d   1      -1.429  -4.111   4.415  0.00  0.00     0.210 C 
ENDBRANCH  17  22
ENDBRANCH  11  14
ENDBRANCH   9  10
ENDBRANCH   4   9
TORSDOF 5
