REMARK  6 active torsions:
REMARK  status: ('A' for Active; 'I' for Inactive)
REMARK    1  A    between atoms: C_20  and  C_2 
REMARK    2  A    between atoms: C_15  and  N_3 
REMARK    3  A    between atoms: N_6  and  N_14 
REMARK    4  A    between atoms: S_17  and  C_7 
REMARK       I    between atoms: N_14  and  C_16 
REMARK    5  A    between atoms: C_16  and  C_25 
REMARK    6  A    between atoms: C_25  and  S_17 
ROOT
ATOM      1  N   UNL d   1       1.817  -5.234  -0.335  0.00  0.00    -0.264 N 
ATOM      2  C   UNL d   1       2.734  -4.309   0.142  0.00  0.00     0.245 C 
ATOM      3  O   UNL d   1       3.892  -4.604   0.448  0.00  0.00    -0.271 OA
ATOM      4  H   UNL d   1       0.824  -5.018  -0.237  0.00  0.00     0.190 HD
ENDROOT
BRANCH   2   5
ATOM      5  C   UNL d   1       2.302  -2.849   0.181  0.00  0.00     0.186 C 
BRANCH   5   6
ATOM      6  S   UNL d   1       0.514  -2.573   0.101  0.00  0.00    -0.083 SA
BRANCH   6   7
ATOM      7  C   UNL d   1       0.474  -0.843  -0.051  0.00  0.00     0.163 A 
ATOM      8  N   UNL d   1      -0.683  -0.113  -0.174  0.00  0.00    -0.315 N 
ATOM      9  C   UNL d   1      -0.285   1.196  -0.388  0.00  0.00     0.134 A 
ATOM     10  C   UNL d   1      -2.018  -0.646  -0.128  0.00  0.00     0.160 C 
ATOM     11  N   UNL d   1       1.040   1.227  -0.327  0.00  0.00    -0.283 N 
ATOM     12  N   UNL d   1       1.509  -0.046  -0.109  0.00  0.00    -0.278 N 
ATOM     13  HN  UNL d   1       1.617   2.062  -0.427  1.00  0.00     0.188 HD
ATOM     14  HN  UNL d   1       2.486  -0.320  -0.010  1.00  0.00     0.189 HD
BRANCH   9  15
ATOM     15  C   UNL d   1      -1.124   2.346  -0.757  0.00  0.00     0.012 A 
ATOM     16  C   UNL d   1      -2.417   2.547  -0.268  0.00  0.00     0.032 A 
ATOM     17  C   UNL d   1      -3.175   3.585  -0.790  0.00  0.00     0.088 A 
ATOM     18  N   UNL d   1      -2.723   4.456  -1.714  0.00  0.00    -0.375 N 
ATOM     19  C   UNL d   1      -1.446   4.299  -2.116  0.00  0.00     0.088 A 
ATOM     20  HN  UNL d   1      -3.317   5.195  -2.089  1.00  0.00     0.164 HD
ATOM     21  C   UNL d   1      -0.621   3.279  -1.671  0.00  0.00     0.032 A 
ENDBRANCH   9  15
ENDBRANCH   6   7
ENDBRANCH   5   6
ENDBRANCH   2   5
BRANCH   1  22
ATOM     22  N   UNL d   1       2.110  -6.629  -0.415  0.00  0.00    -0.248 N 
ATOM     23  C   UNL d   1       1.235  -7.525   0.187  0.00  0.00     0.257 C 
ATOM     24  C   UNL d   1       1.801  -8.944   0.242  0.00  0.00     0.236 C 
ATOM     25  O   UNL d   1       0.174  -7.194   0.711  0.00  0.00    -0.270 OA
ATOM     26  N   UNL d   1       2.509  -9.278  -1.007  0.00  0.00    -0.308 N 
ATOM     27  C   UNL d   1       3.521  -8.374  -1.414  0.00  0.00     0.244 C 
ATOM     28  C   UNL d   1       3.486  -7.022  -0.693  0.00  0.00     0.255 C 
ATOM     29  O   UNL d   1       4.418  -8.601  -2.221  0.00  0.00    -0.271 OA
BRANCH  26  30
ATOM     30  C   UNL d   1       2.310 -10.561  -1.627  0.00  0.00     0.039 A 
ATOM     31  C   UNL d   1       3.306 -11.185  -2.394  0.00  0.00     0.053 A 
ATOM     32  C   UNL d   1       3.075 -12.417  -3.014  0.00  0.00     0.036 A 
ATOM     33 CL   UNL d   1       4.324 -13.153  -3.948  0.00  0.00    -0.084 Cl
ATOM     34  C   UNL d   1       1.849 -13.059  -2.885  0.00  0.00     0.024 A 
ATOM     35  C   UNL d   1       0.849 -12.457  -2.135  0.00  0.00     0.004 A 
ATOM     36  C   UNL d   1       1.076 -11.221  -1.516  0.00  0.00     0.030 A 
ENDBRANCH  26  30
ENDBRANCH   1  22
TORSDOF 6
