REMARK  1 active torsions:
REMARK  status: ('A' for Active; 'I' for Inactive)
REMARK    1  A    between atoms: C_8  and  C_4 
ROOT
ATOM      1  S   UNL d   1      -0.426  -1.820   0.544  0.00  0.00    -0.118 SA
ATOM      2  N   UNL d   1      -0.669   1.363   0.499  0.00  0.00    -0.326 N 
ATOM      3  C   UNL d   1      -1.865   0.951  -0.027  0.00  0.00     0.223 C 
ATOM      4  C   UNL d   1      -1.661  -1.476  -0.770  0.00  0.00     0.094 C 
ATOM      5  C   UNL d   1      -1.821  -0.021  -1.180  0.00  0.00     0.123 C 
ATOM      6  C   UNL d   1       0.823  -0.591   0.186  0.00  0.00     0.028 A 
ATOM      7  C   UNL d   1       0.598   0.796   0.268  0.00  0.00     0.051 A 
ATOM      8  O   UNL d   1      -2.920   1.457   0.350  0.00  0.00    -0.273 OA
ATOM      9  C   UNL d   1       2.123  -1.062  -0.050  0.00  0.00     0.021 A 
ATOM     10  C   UNL d   1       1.677   1.679   0.151  0.00  0.00     0.031 A 
ATOM     11  C   UNL d   1       3.181  -0.172  -0.229  0.00  0.00     0.002 A 
ATOM     12  C   UNL d   1       2.959   1.198  -0.123  0.00  0.00     0.002 A 
ATOM     13  H   UNL d   1      -0.724   2.243   0.998  0.00  0.00     0.169 HD
ENDROOT
BRANCH   4  14
ATOM     14  C   UNL d   1      -1.417  -2.339  -2.006  0.00  0.00    -0.042 A 
ATOM     15  C   UNL d   1      -0.213  -2.266  -2.731  0.00  0.00     0.027 A 
ATOM     16  C   UNL d   1      -0.022  -3.033  -3.878  0.00  0.00     0.011 A 
ATOM     17 BR   UNL d   1       1.616  -2.920  -4.814  0.00  0.00    -0.051 Br
ATOM     18  C   UNL d   1      -1.030  -3.872  -4.340  0.00  0.00     0.019 A 
ATOM     19  C   UNL d   1      -2.234  -3.947  -3.641  0.00  0.00     0.002 A 
ATOM     20  C   UNL d   1      -2.426  -3.191  -2.480  0.00  0.00     0.008 A 
ENDBRANCH   4  14
TORSDOF 1
