REMARK  1 active torsions:
REMARK  status: ('A' for Active; 'I' for Inactive)
REMARK       I    between atoms: N_2  and  C_1 
REMARK       I    between atoms: N_3  and  C_1 
REMARK    1  A    between atoms: C_4  and  N_2 
ROOT
ATOM      1  C   UNL d   1       1.155   0.124   0.109  0.00  0.00     0.322 C 
ATOM      2  N   UNL d   1       0.535  -0.687  -0.820  0.00  0.00    -0.307 N 
ATOM      3  N   UNL d   1       0.299   0.586   1.099  0.00  0.00    -0.334 N 
ATOM      4  O   UNL d   1       2.323   0.485   0.038  0.00  0.00    -0.247 OA
ATOM      5  C   UNL d   1       0.678   1.761   1.873  0.00  0.00     0.127 C 
ATOM      6  C   UNL d   1      -0.903  -0.102   1.568  0.00  0.00     0.127 C 
ATOM      7  C   UNL d   1      -2.093   0.852   1.574  0.00  0.00     0.020 C 
ATOM      8  C   UNL d   1      -0.469   2.772   1.862  0.00  0.00     0.020 C 
ATOM      9  C   UNL d   1      -1.774   2.136   2.345  0.00  0.00     0.003 C 
ATOM     10  H   UNL d   1      -0.433  -0.442  -0.980  0.00  0.00     0.170 HD
ENDROOT
BRANCH   2  11
ATOM     11  C   UNL d   1       1.200  -1.242  -1.939  0.00  0.00     0.058 A 
ATOM     12  C   UNL d   1       0.530  -1.326  -3.170  0.00  0.00     0.062 A 
ATOM     13  C   UNL d   1       1.177  -1.827  -4.301  0.00  0.00     0.050 A 
ATOM     14 CL   UNL d   1      -1.095  -0.756  -3.338  0.00  0.00    -0.082 Cl
ATOM     15  C   UNL d   1       2.489  -2.280  -4.193  0.00  0.00     0.035 A 
ATOM     16  C   UNL d   1       3.155  -2.241  -2.969  0.00  0.00     0.026 A 
ATOM     17 CL   UNL d   1       3.297  -2.892  -5.583  0.00  0.00    -0.084 Cl
ATOM     18  C   UNL d   1       2.513  -1.718  -1.844  0.00  0.00     0.033 A 
ENDBRANCH   2  11
TORSDOF 1
