REMARK  6 active torsions:
REMARK  status: ('A' for Active; 'I' for Inactive)
REMARK    1  A    between atoms: S_13  and  C_1 
REMARK    2  A    between atoms: C_2  and  S_14 
REMARK    3  A    between atoms: C_15  and  S_13 
REMARK    4  A    between atoms: S_14  and  C_16 
REMARK    5  A    between atoms: C_17  and  C_15 
REMARK    6  A    between atoms: C_16  and  C_18 
ROOT
ATOM      1  C   UNL d   1      -6.207  -0.858  -0.087  0.00  0.00    -0.049 A 
ATOM      2  C   UNL d   1      -8.863  -1.884  -0.040  0.00  0.00    -0.049 A 
ATOM      3  C   UNL d   1      -7.758  -2.744  -0.116  0.00  0.00     0.008 A 
ATOM      4  C   UNL d   1      -6.449  -2.239  -0.134  0.00  0.00     0.008 A 
ATOM      5  C   UNL d   1      -7.306   0.000   0.034  0.00  0.00     0.008 A 
ATOM      6  C   UNL d   1      -8.610  -0.506   0.078  0.00  0.00     0.008 A 
ENDROOT
BRANCH   1   7
ATOM      7  C   UNL d   1      -4.800  -0.298  -0.136  0.00  0.00     0.120 C 
BRANCH   7   8
ATOM      8  S   UNL d   1      -3.967  -0.669  -1.708  0.00  0.00    -0.100 SA
BRANCH   8   9
ATOM      9  C   UNL d   1      -2.406   0.086  -1.453  0.00  0.00     0.113 A 
ATOM     10  N   UNL d   1      -2.125   0.778  -0.374  0.00  0.00    -0.344 N 
ATOM     11  C   UNL d   1      -0.830   1.268  -0.458  0.00  0.00     0.050 A 
ATOM     12  HN  UNL d   1      -2.762   0.932   0.408  1.00  0.00     0.167 HD
ATOM     13  C   UNL d   1      -0.177   2.065   0.506  0.00  0.00     0.031 A 
ATOM     14  C   UNL d   1      -0.134   0.926  -1.620  0.00  0.00     0.034 A 
ATOM     15  C   UNL d   1       1.135   2.494   0.289  0.00  0.00     0.002 A 
ATOM     16  C   UNL d   1       1.807   2.139  -0.875  0.00  0.00     0.002 A 
ATOM     17  C   UNL d   1       1.187   1.349  -1.848  0.00  0.00     0.021 A 
ATOM     18  S   UNL d   1      -1.154  -0.037  -2.616  0.00  0.00    -0.063 SA
ENDBRANCH   8   9
ENDBRANCH   7   8
ENDBRANCH   1   7
BRANCH   2  19
ATOM     19  C   UNL d   1     -10.277  -2.450  -0.034  0.00  0.00     0.120 C 
BRANCH  19  20
ATOM     20  S   UNL d   1     -11.422  -1.472  -1.049  0.00  0.00    -0.100 SA
BRANCH  20  21
ATOM     21  C   UNL d   1     -12.968  -2.244  -0.797  0.00  0.00     0.113 A 
ATOM     22  N   UNL d   1     -13.123  -3.410  -0.213  0.00  0.00    -0.344 N 
ATOM     23  C   UNL d   1     -14.469  -3.771  -0.252  0.00  0.00     0.050 A 
ATOM     24  HN  UNL d   1     -12.375  -3.965   0.204  1.00  0.00     0.167 HD
ATOM     25  C   UNL d   1     -15.032  -4.968   0.242  0.00  0.00     0.031 A 
ATOM     26  C   UNL d   1     -15.322  -2.844  -0.856  0.00  0.00     0.034 A 
ATOM     27  C   UNL d   1     -16.408  -5.205   0.109  0.00  0.00     0.002 A 
ATOM     28  C   UNL d   1     -17.231  -4.263  -0.500  0.00  0.00     0.002 A 
ATOM     29  C   UNL d   1     -16.703  -3.065  -0.987  0.00  0.00     0.021 A 
ATOM     30  S   UNL d   1     -14.399  -1.490  -1.368  0.00  0.00    -0.063 SA
ENDBRANCH  20  21
ENDBRANCH  19  20
ENDBRANCH   2  19
TORSDOF 6
