REMARK  6 active torsions:
REMARK  status: ('A' for Active; 'I' for Inactive)
REMARK    1  A    between atoms: C_7  and  C_1 
REMARK    2  A    between atoms: C_10  and  N_3 
REMARK    3  A    between atoms: O_9  and  C_4 
REMARK    4  A    between atoms: C_11  and  C_7 
REMARK    5  A    between atoms: C_16  and  C_10 
REMARK    6  A    between atoms: C_17  and  C_16 
ROOT
ATOM      1  C   UNL d   1       2.400  -0.745  -0.143  0.00  0.00     0.048 A 
ATOM      2  C   UNL d   1       2.384   0.746  -0.261  0.00  0.00     0.257 A 
ATOM      3  N   UNL d   1       1.168   1.408  -0.116  0.00  0.00    -0.313 N 
ATOM      4  C   UNL d   1       1.243  -1.412   0.005  0.00  0.00     0.090 A 
ATOM      5  C   UNL d   1      -0.045  -0.706   0.025  0.00  0.00     0.025 A 
ATOM      6  C   UNL d   1      -0.067   0.697  -0.002  0.00  0.00     0.050 A 
ATOM      7  O   UNL d   1       3.445   1.342  -0.455  0.00  0.00    -0.267 OA
ATOM      8  C   UNL d   1      -1.256  -1.421   0.072  0.00  0.00     0.016 A 
ATOM      9  C   UNL d   1      -1.310   1.351   0.053  0.00  0.00     0.031 A 
ATOM     10  C   UNL d   1      -2.481  -0.758   0.100  0.00  0.00     0.001 A 
ATOM     11  C   UNL d   1      -2.507   0.630   0.099  0.00  0.00     0.002 A 
ENDROOT
BRANCH   1  12
ATOM     12  C   UNL d   1       3.771  -1.385  -0.138  0.00  0.00     0.085 C 
BRANCH  12  13
ATOM     13  C   UNL d   1       4.107  -2.106  -1.428  0.00  0.00    -0.054 A 
ATOM     14  C   UNL d   1       4.223  -1.393  -2.629  0.00  0.00     0.007 A 
ATOM     15  C   UNL d   1       4.508  -2.059  -3.823  0.00  0.00     0.001 A 
ATOM     16  C   UNL d   1       4.687  -3.441  -3.827  0.00  0.00     0.000 A 
ATOM     17  C   UNL d   1       4.594  -4.157  -2.635  0.00  0.00     0.001 A 
ATOM     18  C   UNL d   1       4.312  -3.493  -1.440  0.00  0.00     0.007 A 
ENDBRANCH  12  13
ENDBRANCH   1  12
BRANCH   4  19
ATOM     19  O   UNL d   1       1.157  -2.783   0.150  0.00  0.00    -0.359 OA
ATOM     20  H   UNL d   1       2.013  -3.183  -0.073  0.00  0.00     0.217 HD
ENDBRANCH   4  19
BRANCH   3  21
ATOM     21  C   UNL d   1       1.194   2.874  -0.105  0.00  0.00     0.132 C 
BRANCH  21  22
ATOM     22  C   UNL d   1       1.111   3.478   1.304  0.00  0.00     0.020 C 
BRANCH  22  23
ATOM     23  C   UNL d   1       2.329   3.155   2.173  0.00  0.00    -0.003 C 
ATOM     24  C   UNL d   1       2.263   3.875   3.512  0.00  0.00     0.005 C 
ENDBRANCH  22  23
ENDBRANCH  21  22
ENDBRANCH   3  21
TORSDOF 6
