REMARK  5 active torsions:
REMARK  status: ('A' for Active; 'I' for Inactive)
REMARK    1  A    between atoms: C_2  and  C_1 
REMARK    2  A    between atoms: N_5  and  C_2 
REMARK    3  A    between atoms: C_3  and  C_4 
REMARK    4  A    between atoms: C_6  and  N_5 
REMARK    5  A    between atoms: O_19  and  N_7 
ROOT
ATOM      1  C   UNL d   1       1.280   2.628   0.160  0.00  0.00     0.138 C 
ATOM      2  N   UNL d   1       0.553   3.712   0.237  0.00  0.00    -0.252 N 
ATOM      3  HN  UNL d   1      -0.465   3.708   0.172  1.00  0.00     0.196 HD
ENDROOT
BRANCH   1   4
ATOM      4  C   UNL d   1       2.779   2.662   0.160  0.00  0.00     0.040 A 
ATOM      5  C   UNL d   1       3.564   3.398  -0.738  0.00  0.00     0.064 A 
ATOM      6  C   UNL d   1       4.964   3.346  -0.585  0.00  0.00     0.034 A 
ATOM      7  C   UNL d   1       5.512   2.534   0.395  0.00  0.00     0.088 A 
ATOM      8  N   UNL d   1       4.774   1.784   1.234  0.00  0.00    -0.374 N 
ATOM      9  C   UNL d   1       3.429   1.878   1.111  0.00  0.00     0.103 A 
ATOM     10  HN  UNL d   1       5.206   1.175   1.929  1.00  0.00     0.164 HD
BRANCH   5  11
ATOM     11  C   UNL d   1       2.999   4.231  -1.856  0.00  0.00     0.418 C 
ATOM     12  F   UNL d   1       1.795   3.814  -2.331  0.00  0.00    -0.166 F 
ATOM     13  F   UNL d   1       2.877   5.550  -1.549  0.00  0.00    -0.166 F 
ATOM     14  F   UNL d   1       3.823   4.206  -2.952  0.00  0.00    -0.166 F 
ENDBRANCH   5  11
ENDBRANCH   1   4
BRANCH   1  15
ATOM     15  N   UNL d   1       0.701   1.366   0.148  0.00  0.00    -0.340 N 
ATOM     16  H   UNL d   1       1.309   0.588  -0.087  0.00  0.00     0.167 HD
BRANCH  15  17
ATOM     17  C   UNL d   1      -0.613   1.087  -0.305  0.00  0.00     0.039 A 
ATOM     18  C   UNL d   1      -1.409   0.148   0.381  0.00  0.00    -0.035 A 
ATOM     19  C   UNL d   1      -2.616  -0.291  -0.198  0.00  0.00     0.015 A 
ATOM     20  C   UNL d   1      -1.024  -0.417   1.720  0.00  0.00     0.050 C 
ATOM     21  C   UNL d   1      -3.046   0.198  -1.435  0.00  0.00    -0.061 A 
ATOM     22  C   UNL d   1      -2.263   1.145  -2.097  0.00  0.00     0.009 A 
ATOM     23  C   UNL d   1      -4.310  -0.328  -2.050  0.00  0.00     0.048 C 
ATOM     24  C   UNL d   1      -1.057   1.579  -1.541  0.00  0.00     0.030 A 
ENDBRANCH  15  17
ENDBRANCH   1  15
BRANCH   2  25
ATOM     25  O   UNL d   1       1.304   4.874   0.416  0.00  0.00    -0.288 OA
ATOM     26  H   UNL d   1       0.617   5.568   0.393  0.00  0.00     0.244 HD
ENDBRANCH   2  25
TORSDOF 5
