REMARK  5 active torsions:
REMARK  status: ('A' for Active; 'I' for Inactive)
REMARK    1  A    between atoms: C_7  and  C_1 
REMARK    2  A    between atoms: C_15  and  C_3 
REMARK    3  A    between atoms: S_11  and  C_6 
REMARK    4  A    between atoms: C_8  and  C_14 
REMARK    5  A    between atoms: C_17  and  S_11 
ROOT
ATOM      1  C   UNL d   1       2.146   0.902  -0.059  0.00  0.00     0.102 A 
ATOM      2  C   UNL d   1       0.113  -0.556   0.001  0.00  0.00     0.067 A 
ATOM      3  C   UNL d   1       0.974   1.659  -0.012  0.00  0.00     0.024 A 
ATOM      4  S   UNL d   1       1.805  -0.784  -0.005  0.00  0.00    -0.080 SA
ATOM      5  C   UNL d   1      -0.198   0.798  -0.007  0.00  0.00     0.065 A 
ATOM      6  C   UNL d   1      -0.928  -1.486   0.017  0.00  0.00     0.095 A 
ATOM      7  N   UNL d   1      -2.207  -1.049   0.017  0.00  0.00    -0.345 N 
ATOM      8  HN  UNL d   1      -2.988  -1.705   0.024  1.00  0.00     0.167 HD
ATOM      9  N   UNL d   1      -1.490   1.230   0.009  0.00  0.00    -0.350 N 
ATOM     10  HN  UNL d   1      -1.734   2.221   0.020  1.00  0.00     0.166 HD
ATOM     11  C   UNL d   1      -2.414   0.269   0.009  0.00  0.00     0.181 A 
ENDROOT
BRANCH   6  12
ATOM     12  S   UNL d   1      -0.646  -3.232   0.103  0.00  0.00    -0.071 SA
BRANCH  12  13
ATOM     13  C   UNL d   1      -0.533  -3.652  -1.626  0.00  0.00     0.007 A 
ATOM     14  C   UNL d   1      -1.643  -3.531  -2.471  0.00  0.00     0.035 A 
ATOM     15  C   UNL d   1      -1.561  -3.908  -3.822  0.00  0.00     0.049 A 
ATOM     16  C   UNL d   1      -0.346  -4.408  -4.316  0.00  0.00     0.016 A 
ATOM     17  C   UNL d   1       0.760  -4.537  -3.475  0.00  0.00     0.002 A 
ATOM     18  C   UNL d   1       0.665  -4.164  -2.133  0.00  0.00     0.019 A 
BRANCH  15  19
ATOM     19  C   UNL d   1      -2.755  -3.793  -4.737  0.00  0.00     0.417 C 
ATOM     20  F   UNL d   1      -3.873  -3.318  -4.121  0.00  0.00    -0.166 F 
ATOM     21  F   UNL d   1      -2.526  -2.957  -5.787  0.00  0.00    -0.166 F 
ATOM     22  F   UNL d   1      -3.109  -4.989  -5.282  0.00  0.00    -0.166 F 
ENDBRANCH  15  19
ENDBRANCH  12  13
ENDBRANCH   6  12
BRANCH   1  23
ATOM     23  C   UNL d   1       3.600   1.264  -0.126  0.00  0.00     0.424 C 
ATOM     24  F   UNL d   1       3.847   2.562  -0.431  0.00  0.00    -0.166 F 
ATOM     25  F   UNL d   1       4.216   1.020   1.062  0.00  0.00    -0.166 F 
ATOM     26  F   UNL d   1       4.262   0.533  -1.062  0.00  0.00    -0.166 F 
ENDBRANCH   1  23
BRANCH   3  27
ATOM     27  C   UNL d   1       0.944   3.135  -0.009  0.00  0.00    -0.022 A 
ATOM     28  C   UNL d   1      -0.026   3.824  -0.755  0.00  0.00     0.012 A 
ATOM     29  C   UNL d   1      -0.085   5.223  -0.753  0.00  0.00     0.001 A 
ATOM     30  C   UNL d   1       0.848   5.958  -0.030  0.00  0.00     0.000 A 
ATOM     31  C   UNL d   1       1.814   5.294   0.721  0.00  0.00     0.001 A 
ATOM     32  C   UNL d   1       1.839   3.894   0.758  0.00  0.00     0.012 A 
ENDBRANCH   3  27
TORSDOF 5
