REMARK  3 active torsions:
REMARK  status: ('A' for Active; 'I' for Inactive)
REMARK    1  A    between atoms: C_2  and  S_1 
REMARK    2  A    between atoms: N_7  and  S_1 
REMARK    3  A    between atoms: C_15  and  N_7 
ROOT
ATOM      1  S   UNL d   1       1.068  -0.287   0.057  0.00  0.00     0.253 S 
ATOM      2  O   UNL d   1       0.409  -1.049   1.096  0.00  0.00    -0.205 OA
ATOM      3  O   UNL d   1       2.509  -0.161   0.029  0.00  0.00    -0.205 OA
ENDROOT
BRANCH   1   4
ATOM      4  C   UNL d   1       0.431   1.391   0.185  0.00  0.00     0.122 A 
ATOM      5  S   UNL d   1      -1.140   1.518   0.849  0.00  0.00    -0.076 SA
ATOM      6  C   UNL d   1      -1.168   3.226   0.713  0.00  0.00     0.017 A 
ATOM      7  C   UNL d   1      -2.209   4.090   1.114  0.00  0.00     0.021 A 
ATOM      8  C   UNL d   1       0.003   3.707   0.126  0.00  0.00    -0.009 A 
ATOM      9  C   UNL d   1      -2.070   5.464   0.905  0.00  0.00     0.025 A 
ATOM     10  C   UNL d   1      -0.922   5.964   0.311  0.00  0.00     0.035 A 
ATOM     11  C   UNL d   1       0.111   5.109  -0.078  0.00  0.00     0.037 A 
ATOM     12 CL   UNL d   1      -0.766   7.658   0.048  0.00  0.00    -0.084 Cl
ATOM     13  C   UNL d   1       0.932   2.636  -0.184  0.00  0.00    -0.021 A 
ATOM     14  C   UNL d   1       2.260   2.884  -0.831  0.00  0.00     0.051 C 
ENDBRANCH   1   4
BRANCH   1  15
ATOM     15  N   UNL d   1       0.527  -0.935  -1.413  0.00  0.00    -0.181 NA
ATOM     16  H   UNL d   1      -0.461  -1.182  -1.349  0.00  0.00     0.146 HD
BRANCH  15  17
ATOM     17  C   UNL d   1       0.920  -0.282  -2.617  0.00  0.00     0.023 A 
ATOM     18  C   UNL d   1       0.108   0.715  -3.165  0.00  0.00     0.038 A 
ATOM     19  C   UNL d   1       0.508   1.343  -4.362  0.00  0.00    -0.006 A 
ATOM     20  C   UNL d   1      -0.054   2.363  -5.178  0.00  0.00     0.030 A 
ATOM     21  C   UNL d   1       1.702   0.946  -4.964  0.00  0.00     0.042 A 
ATOM     22  C   UNL d   1       0.788   2.554  -6.250  0.00  0.00     0.089 A 
ATOM     23  N   UNL d   1       1.843   1.691  -6.114  0.00  0.00    -0.365 N 
ATOM     24  H   UNL d   1       2.615   1.609  -6.762  0.00  0.00     0.165 HD
ATOM     25  C   UNL d   1       2.531  -0.042  -4.420  0.00  0.00     0.032 A 
ATOM     26  C   UNL d   1       2.123  -0.641  -3.222  0.00  0.00     0.027 A 
ENDBRANCH  15  17
ENDBRANCH   1  15
TORSDOF 3
