REMARK  8 active torsions:
REMARK  status: ('A' for Active; 'I' for Inactive)
REMARK    1  A    between atoms: C_2  and  C_1 
REMARK    2  A    between atoms: C_7  and  C_2 
REMARK    3  A    between atoms: C_9  and  C_24 
REMARK    4  A    between atoms: C_16  and  C_15 
REMARK       I    between atoms: N_18  and  C_16 
REMARK       I    between atoms: C_17  and  N_19 
REMARK    5  A    between atoms: C_27  and  C_17 
REMARK    6  A    between atoms: N_19  and  N_18 
REMARK    7  A    between atoms: S_23  and  C_27 
REMARK    8  A    between atoms: C_24  and  S_23 
ROOT
ATOM      1  C   UNL d   1      -3.524   0.012   2.455  0.00  0.00     0.271 C 
ATOM      2  N   UNL d   1      -3.342  -1.322   2.784  0.00  0.00    -0.263 N 
ATOM      3  O   UNL d   1      -2.914   0.948   2.966  0.00  0.00    -0.266 OA
ATOM      4  H   UNL d   1      -4.128  -1.946   2.621  0.00  0.00     0.190 HD
ENDROOT
BRANCH   1   5
ATOM      5  C   UNL d   1      -4.494   0.320   1.359  0.00  0.00     0.047 A 
ATOM      6  C   UNL d   1      -5.830  -0.130   1.270  0.00  0.00     0.031 A 
ATOM      7  C   UNL d   1      -6.655   0.387   0.250  0.00  0.00     0.016 A 
ATOM      8  C   UNL d   1      -6.135   1.240  -0.729  0.00  0.00     0.001 A 
ATOM      9  C   UNL d   1      -4.799   1.617  -0.686  0.00  0.00     0.001 A 
ATOM     10  C   UNL d   1      -3.993   1.184   0.365  0.00  0.00     0.018 A 
BRANCH   6  11
ATOM     11  C   UNL d   1      -6.376  -1.180   2.180  0.00  0.00     0.194 C 
ATOM     12  O   UNL d   1      -5.852  -1.348   3.279  0.00  0.00    -0.287 OA
BRANCH  11  13
ATOM     13  C   UNL d   1      -7.468  -2.133   1.800  0.00  0.00     0.028 C 
ATOM     14  C   UNL d   1      -8.447  -2.465   2.783  0.00  0.00    -0.041 C 
ATOM     15  C   UNL d   1      -9.362  -3.509   2.534  0.00  0.00    -0.049 C 
ATOM     16  C   UNL d   1      -8.488  -1.756   4.125  0.00  0.00     0.050 C 
ATOM     17  C   UNL d   1     -10.270  -4.042   3.622  0.00  0.00     0.049 C 
ATOM     18  C   UNL d   1      -9.432  -4.096   1.241  0.00  0.00    -0.049 C 
ATOM     19  C   UNL d   1      -8.521  -3.695   0.234  0.00  0.00    -0.049 C 
ATOM     20  C   UNL d   1     -10.459  -5.179   0.987  0.00  0.00     0.049 C 
ATOM     21  C   UNL d   1      -7.459  -2.812   0.554  0.00  0.00    -0.041 C 
ATOM     22  C   UNL d   1      -8.664  -4.260  -1.165  0.00  0.00     0.049 C 
ATOM     23  C   UNL d   1      -6.330  -2.665  -0.446  0.00  0.00     0.050 C 
ENDBRANCH  11  13
ENDBRANCH   6  11
ENDBRANCH   1   5
BRANCH   2  24
ATOM     24  N   UNL d   1      -2.604  -1.625   3.946  0.00  0.00    -0.267 N 
ATOM     25  C   UNL d   1      -1.217  -1.598   3.914  0.00  0.00     0.245 C 
ATOM     26  O   UNL d   1      -0.541  -1.250   2.951  0.00  0.00    -0.271 OA
ATOM     27  H   UNL d   1      -3.102  -2.105   4.690  0.00  0.00     0.190 HD
BRANCH  25  28
ATOM     28  C   UNL d   1      -0.585  -2.043   5.224  0.00  0.00     0.178 C 
BRANCH  28  29
ATOM     29  S   UNL d   1      -0.615  -3.866   5.349  0.00  0.00    -0.155 SA
BRANCH  29  30
ATOM     30  C   UNL d   1       0.438  -4.045   6.823  0.00  0.00     0.114 C 
BRANCH  30  31
ATOM     31  C   UNL d   1       0.580  -5.489   7.310  0.00  0.00    -0.036 A 
ATOM     32  C   UNL d   1       1.699  -6.280   6.903  0.00  0.00    -0.048 A 
ATOM     33  C   UNL d   1       1.831  -7.610   7.382  0.00  0.00    -0.049 A 
ATOM     34  C   UNL d   1       2.727  -5.662   5.979  0.00  0.00     0.049 C 
ATOM     35  C   UNL d   1       2.963  -8.523   6.953  0.00  0.00     0.049 C 
ATOM     36  C   UNL d   1       0.901  -8.114   8.334  0.00  0.00    -0.049 A 
ATOM     37  C   UNL d   1      -0.193  -7.318   8.769  0.00  0.00    -0.049 A 
ATOM     38  C   UNL d   1       1.109  -9.518   8.880  0.00  0.00     0.049 C 
ATOM     39  C   UNL d   1      -0.392  -6.032   8.205  0.00  0.00    -0.048 A 
ATOM     40  C   UNL d   1      -1.118  -7.877   9.829  0.00  0.00     0.049 C 
ATOM     41  C   UNL d   1      -1.599  -5.192   8.571  0.00  0.00     0.049 C 
ENDBRANCH  30  31
ENDBRANCH  29  30
ENDBRANCH  28  29
ENDBRANCH  25  28
ENDBRANCH   2  24
TORSDOF 8
