REMARK  2 active torsions:
REMARK  status: ('A' for Active; 'I' for Inactive)
REMARK    1  A    between atoms: N_2  and  S_1 
REMARK    2  A    between atoms: C_9  and  S_1 
ROOT
ATOM      1  C   UNL d   1      -0.145   0.085   1.189  0.00  0.00     0.080 A 
ATOM      2  N   UNL d   1      -3.443  -0.259   5.455  0.00  0.00    -0.191 NA
ATOM      3  C   UNL d   1      -2.735  -0.185   4.537  0.00  0.00     0.099 C 
ATOM      4  C   UNL d   1      -0.979  -1.031   1.342  0.00  0.00     0.027 A 
ATOM      5  C   UNL d   1      -0.131   1.083   2.171  0.00  0.00     0.027 A 
ATOM      6  C   UNL d   1      -1.858  -0.096   3.404  0.00  0.00     0.044 A 
ATOM      7  C   UNL d   1      -1.000   0.998   3.263  0.00  0.00     0.024 A 
ATOM      8  C   UNL d   1      -1.839  -1.118   2.444  0.00  0.00     0.024 A 
ENDROOT
BRANCH   1   9
ATOM      9  S   UNL d   1       1.035   0.150  -0.156  0.00  0.00     0.265 S 
ATOM     10  O   UNL d   1       2.288   0.580   0.434  0.00  0.00    -0.200 OA
ATOM     11  O   UNL d   1       0.951  -1.118  -0.852  0.00  0.00    -0.200 OA
BRANCH   9  12
ATOM     12  N   UNL d   1       0.480   1.362  -1.221  0.00  0.00    -0.265 N 
ATOM     13  C   UNL d   1       0.528   2.720  -0.785  0.00  0.00     0.072 A 
ATOM     14  C   UNL d   1      -0.606   3.411  -0.340  0.00  0.00     0.062 A 
ATOM     15  C   UNL d   1       1.765   3.374  -0.868  0.00  0.00     0.033 A 
ATOM     16  N   UNL d   1      -1.929   2.936  -0.360  0.00  0.00    -0.325 N 
ATOM     17  C   UNL d   1      -0.451   4.735   0.101  0.00  0.00     0.032 A 
ATOM     18  C   UNL d   1      -2.550   1.921  -1.008  0.00  0.00     0.224 C 
ATOM     19  H   UNL d   1      -2.625   3.545   0.056  0.00  0.00     0.169 HD
ATOM     20  C   UNL d   1      -1.867   0.813  -1.765  0.00  0.00     0.129 C 
ATOM     21  O   UNL d   1      -3.785   1.897  -0.922  0.00  0.00    -0.273 OA
ATOM     22  C   UNL d   1      -0.473   1.034  -2.297  0.00  0.00     0.107 C 
ATOM     23  C   UNL d   1      -0.418   2.064  -3.436  0.00  0.00     0.034 C 
ATOM     24  C   UNL d   1       0.779   5.390  -0.005  0.00  0.00     0.002 A 
ATOM     25  C   UNL d   1       1.884   4.713  -0.508  0.00  0.00     0.002 A 
ENDBRANCH   9  12
ENDBRANCH   1   9
TORSDOF 2
