REMARK  2 active torsions:
REMARK  status: ('A' for Active; 'I' for Inactive)
REMARK    1  A    between atoms: C_19  and  N_12 
REMARK    2  A    between atoms: C_22  and  C_19 
ROOT
ATOM      1  C   UNL d   1      -0.344   0.720  -0.295  0.00  0.00     0.160 A 
ATOM      2  C   UNL d   1      -0.346  -0.598   0.073  0.00  0.00     0.162 A 
ATOM      3  N   UNL d   1       0.811   1.440  -0.474  0.00  0.00    -0.287 N 
ATOM      4  N   UNL d   1       2.045  -0.573   0.010  0.00  0.00    -0.269 N 
ATOM      5  C   UNL d   1       2.080   0.773  -0.318  0.00  0.00     0.332 A 
ATOM      6  N   UNL d   1      -1.652   1.075  -0.396  0.00  0.00    -0.174 N 
ATOM      7  N   UNL d   1      -1.639  -1.036   0.266  0.00  0.00    -0.182 N 
ATOM      8  HN  UNL d   1      -1.936  -1.959   0.583  1.00  0.00     0.184 HD
ATOM      9  C   UNL d   1      -2.409  -0.016  -0.044  0.00  0.00     0.682 A 
ATOM     10  C   UNL d   1       0.889  -1.326   0.247  0.00  0.00     0.282 A 
ATOM     11  N   UNL d   1      -3.749   0.116   0.053  0.00  0.00    -0.214 N 
ATOM     12  N   UNL d   1      -6.405  -1.022  -0.604  0.00  0.00     0.095 N 
ATOM     13  O   UNL d   1       3.088   1.443  -0.486  0.00  0.00    -0.246 OA
ATOM     14  O   UNL d   1       0.923  -2.511   0.567  0.00  0.00    -0.265 OA
ATOM     15  C   UNL d   1      -4.474  -0.727   1.021  0.00  0.00     0.171 C 
ATOM     16  C   UNL d   1      -4.537   0.668  -1.064  0.00  0.00     0.171 C 
ATOM     17  C   UNL d   1       0.835   2.874  -0.782  0.00  0.00     0.163 C 
ATOM     18  C   UNL d   1       3.311  -1.269   0.143  0.00  0.00     0.164 C 
ATOM     19  C   UNL d   1      -5.466  -1.683   0.334  0.00  0.00     0.293 C 
ATOM     20  C   UNL d   1      -5.574  -0.340  -1.624  0.00  0.00     0.293 C 
ATOM     21  H   UNL d   1      -2.037   1.982  -0.598  0.00  0.00     0.186 HD
ENDROOT
BRANCH  12  22
ATOM     22  C   UNL d   1      -7.320  -0.059   0.048  0.00  0.00     0.311 C 
BRANCH  22  23
ATOM     23  C   UNL d   1      -8.214  -0.648   1.120  0.00  0.00    -0.030 A 
ATOM     24  C   UNL d   1      -8.130  -0.196   2.447  0.00  0.00     0.009 A 
ATOM     25  C   UNL d   1      -8.927  -0.763   3.444  0.00  0.00     0.001 A 
ATOM     26  C   UNL d   1      -9.835  -1.769   3.122  0.00  0.00     0.000 A 
ATOM     27  C   UNL d   1      -9.960  -2.194   1.800  0.00  0.00     0.001 A 
ATOM     28  C   UNL d   1      -9.153  -1.638   0.805  0.00  0.00     0.009 A 
ENDBRANCH  22  23
ENDBRANCH  12  22
TORSDOF 2
