REMARK  7 active torsions:
REMARK  status: ('A' for Active; 'I' for Inactive)
REMARK    1  A    between atoms: N_2  and  C_1 
REMARK    2  A    between atoms: N_3  and  C_1 
REMARK    3  A    between atoms: C_8  and  N_3 
REMARK    4  A    between atoms: N_5  and  C_10 
REMARK    5  A    between atoms: C_7  and  C_6 
REMARK    6  A    between atoms: C_10  and  C_7 
REMARK    7  A    between atoms: S_13  and  C_12 
ROOT
ATOM      1  N   UNL d   1       0.369  -1.008  -0.804  0.00  0.00    -0.353 N 
ATOM      2  C   UNL d   1      -0.706  -0.688  -1.775  0.00  0.00     0.088 C 
ATOM      3  C   UNL d   1       0.647  -2.441  -0.676  0.00  0.00     0.125 C 
ATOM      4  C   UNL d   1      -2.007  -1.409  -1.411  0.00  0.00     0.025 C 
ATOM      5  C   UNL d   1      -0.616  -3.226  -0.314  0.00  0.00     0.020 C 
ATOM      6  C   UNL d   1      -1.770  -2.919  -1.268  0.00  0.00     0.004 C 
ENDROOT
BRANCH   1   7
ATOM      7  C   UNL d   1       0.781  -0.199   0.276  0.00  0.00     0.174 C 
ATOM      8  S   UNL d   1      -0.251   0.655   1.279  0.00  0.00    -0.041 SA
BRANCH   7   9
ATOM      9  N   UNL d   1       2.178  -0.176   0.285  0.00  0.00    -0.333 N 
ATOM     10  H   UNL d   1       2.558  -0.365  -0.634  0.00  0.00     0.168 HD
BRANCH   9  11
ATOM     11  C   UNL d   1       3.064   0.402   1.209  0.00  0.00     0.035 A 
ATOM     12  C   UNL d   1       2.835   0.398   2.587  0.00  0.00     0.048 A 
ATOM     13  C   UNL d   1       3.748   0.979   3.469  0.00  0.00     0.002 A 
ATOM     14  C   UNL d   1       4.897   1.587   2.949  0.00  0.00     0.018 A 
ATOM     15  C   UNL d   1       5.156   1.562   1.577  0.00  0.00     0.004 A 
ATOM     16  C   UNL d   1       4.254   0.950   0.712  0.00  0.00     0.029 A 
BRANCH  13  17
ATOM     17  S   UNL d   1       3.530   1.025   5.243  0.00  0.00    -0.134 SA
ATOM     18  C   UNL d   1       2.489  -0.432   5.547  0.00  0.00     0.095 C 
ENDBRANCH  13  17
ENDBRANCH   9  11
ENDBRANCH   7   9
ENDBRANCH   1   7
BRANCH   2  19
ATOM     19  C   UNL d   1      -0.909   0.808  -2.113  0.00  0.00     0.055 C 
BRANCH  19  20
ATOM     20  C   UNL d   1       0.386   1.513  -2.564  0.00  0.00     0.274 C 
BRANCH  20  21
ATOM     21  N   UNL d   1       0.193   2.881  -3.071  0.00  0.00     0.092 N 
ATOM     22  C   UNL d   1       1.467   3.472  -3.554  0.00  0.00     0.298 C 
ATOM     23  C   UNL d   1       2.379   4.089  -2.471  0.00  0.00     0.198 C 
ATOM     24  O   UNL d   1       1.669   4.986  -1.612  0.00  0.00    -0.388 OA
ATOM     25  C   UNL d   1       0.557   4.312  -1.011  0.00  0.00     0.198 C 
ATOM     26  C   UNL d   1      -0.411   3.816  -2.096  0.00  0.00     0.298 C 
ENDBRANCH  20  21
ENDBRANCH  19  20
ENDBRANCH   2  19
TORSDOF 7
