REMARK  4 active torsions:
REMARK  status: ('A' for Active; 'I' for Inactive)
REMARK    1  A    between atoms: C_2  and  C_1 
REMARK    2  A    between atoms: C_8  and  C_2 
REMARK    3  A    between atoms: C_5  and  C_10 
REMARK       I    between atoms: N_11  and  C_5 
REMARK    4  A    between atoms: C_14  and  N_11 
ROOT
ATOM      1  C   UNL d   1      -3.869   1.129   0.168  0.00  0.00     0.030 A 
ATOM      2  C   UNL d   1      -5.057   1.425  -0.533  0.00  0.00     0.046 A 
ATOM      3  C   UNL d   1      -3.937   0.280   1.283  0.00  0.00     0.016 A 
ATOM      4  C   UNL d   1      -6.262   0.797  -0.174  0.00  0.00     0.018 A 
ATOM      5  C   UNL d   1      -5.141  -0.341   1.632  0.00  0.00     0.001 A 
ATOM      6  C   UNL d   1      -6.298  -0.094   0.897  0.00  0.00     0.001 A 
ENDROOT
BRANCH   1   7
ATOM      7  C   UNL d   1      -2.555   1.711  -0.234  0.00  0.00     0.194 C 
ATOM      8  O   UNL d   1      -2.564   2.886  -0.591  0.00  0.00    -0.287 OA
BRANCH   7   9
ATOM      9  C   UNL d   1      -1.244   0.937  -0.145  0.00  0.00     0.028 C 
ATOM     10  C   UNL d   1      -0.048   1.644   0.181  0.00  0.00    -0.041 C 
ATOM     11  C   UNL d   1       1.208   0.975   0.136  0.00  0.00    -0.049 C 
ATOM     12  C   UNL d   1      -0.063   3.118   0.532  0.00  0.00     0.050 C 
ATOM     13  C   UNL d   1       2.517   1.735   0.243  0.00  0.00     0.049 C 
ATOM     14  C   UNL d   1       1.257  -0.434  -0.009  0.00  0.00    -0.049 C 
ATOM     15  C   UNL d   1       0.061  -1.157  -0.218  0.00  0.00    -0.049 C 
ATOM     16  C   UNL d   1       2.605  -1.128   0.021  0.00  0.00     0.049 C 
ATOM     17  C   UNL d   1      -1.165  -0.458  -0.422  0.00  0.00    -0.041 C 
ATOM     18  C   UNL d   1       0.111  -2.670  -0.271  0.00  0.00     0.049 C 
ATOM     19  C   UNL d   1      -2.332  -1.247  -0.973  0.00  0.00     0.050 C 
ENDBRANCH   7   9
ENDBRANCH   1   7
BRANCH   2  20
ATOM     20  C   UNL d   1      -5.101   2.338  -1.707  0.00  0.00     0.257 C 
ATOM     21  N   UNL d   1      -6.014   3.373  -1.576  0.00  0.00    -0.323 N 
ATOM     22  H   UNL d   1      -6.570   3.385  -0.730  0.00  0.00     0.169 HD
ATOM     23  O   UNL d   1      -4.414   2.066  -2.686  0.00  0.00    -0.267 OA
BRANCH  21  24
ATOM     24  C   UNL d   1      -6.192   4.480  -2.436  0.00  0.00     0.036 A 
ATOM     25  C   UNL d   1      -5.387   4.736  -3.549  0.00  0.00     0.055 A 
ATOM     26  C   UNL d   1      -5.552   5.916  -4.288  0.00  0.00     0.058 A 
ATOM     27 CL   UNL d   1      -4.491   6.183  -5.628  0.00  0.00    -0.082 Cl
ATOM     28  C   UNL d   1      -6.534   6.844  -3.925  0.00  0.00     0.055 A 
ATOM     29  C   UNL d   1      -7.369   6.574  -2.839  0.00  0.00     0.028 A 
ATOM     30 CL   UNL d   1      -6.755   8.343  -4.755  0.00  0.00    -0.083 Cl
ATOM     31  C   UNL d   1      -7.197   5.398  -2.101  0.00  0.00     0.031 A 
ENDBRANCH  21  24
ENDBRANCH   2  20
TORSDOF 4
