REMARK  5 active torsions:
REMARK  status: ('A' for Active; 'I' for Inactive)
REMARK    1  A    between atoms: N_19  and  C_8 
REMARK    2  A    between atoms: S_18  and  C_11 
REMARK       I    between atoms: N_12  and  C_16 
REMARK       I    between atoms: C_13  and  N_12 
REMARK       I    between atoms: N_23  and  C_13 
REMARK    3  A    between atoms: C_16  and  C_24 
REMARK    4  A    between atoms: C_24  and  S_18 
REMARK    5  A    between atoms: C_26  and  N_19 
ROOT
ATOM      1  C   UNL d   1       1.221  -0.616  -0.094  0.00  0.00     0.091 A 
ATOM      2  C   UNL d   1       0.625   0.636  -0.064  0.00  0.00     0.049 A 
ATOM      3  C   UNL d   1      -1.208  -0.819   0.003  0.00  0.00     0.020 A 
ATOM      4  N   UNL d   1       2.533  -0.875  -0.201  0.00  0.00    -0.330 N 
ATOM      5  HN  UNL d   1       2.925  -1.816  -0.224  1.00  0.00     0.168 HD
ATOM      6  N   UNL d   1       2.826   1.499  -0.195  0.00  0.00    -0.322 N 
ATOM      7  HN  UNL d   1       3.487   2.275  -0.234  1.00  0.00     0.169 HD
ATOM      8  C   UNL d   1       1.504   1.740  -0.062  0.00  0.00     0.116 A 
ATOM      9  C   UNL d   1      -0.810   0.505  -0.062  0.00  0.00    -0.025 A 
ATOM     10  S   UNL d   1       0.099  -1.897  -0.017  0.00  0.00    -0.074 SA
ATOM     11  C   UNL d   1       3.263   0.234  -0.275  0.00  0.00     0.147 A 
ATOM     12  N   UNL d   1      -3.559  -0.194   0.457  0.00  0.00     0.089 N 
ATOM     13  C   UNL d   1      -2.638  -1.281   0.048  0.00  0.00     0.318 C 
ATOM     14  C   UNL d   1      -1.835   1.601  -0.096  0.00  0.00     0.071 C 
ATOM     15  C   UNL d   1      -3.261   1.043  -0.297  0.00  0.00     0.277 C 
ATOM     16  C   UNL d   1      -3.522   0.024   1.903  0.00  0.00     0.310 C 
ENDROOT
BRANCH  11  17
ATOM     17  S   UNL d   1       4.918   0.086  -0.904  0.00  0.00    -0.085 SA
BRANCH  17  18
ATOM     18  C   UNL d   1       4.588  -1.024  -2.299  0.00  0.00     0.185 C 
BRANCH  18  19
ATOM     19  C   UNL d   1       3.509  -0.598  -3.288  0.00  0.00     0.235 C 
ATOM     20  N   UNL d   1       3.117   0.728  -3.295  0.00  0.00    -0.279 N 
ATOM     21  C   UNL d   1       2.094   1.307  -4.009  0.00  0.00     0.322 C 
ATOM     22  H   UNL d   1       3.435   1.334  -2.547  0.00  0.00     0.173 HD
ATOM     23  O   UNL d   1       1.686   2.424  -3.708  0.00  0.00    -0.247 OA
ATOM     24  N   UNL d   1       1.599   0.574  -5.044  0.00  0.00    -0.347 N 
ATOM     25  C   UNL d   1       0.543   1.035  -5.906  0.00  0.00     0.151 C 
ATOM     26  H   UNL d   1       1.905  -0.395  -5.109  0.00  0.00     0.163 HD
ATOM     27  O   UNL d   1       3.086  -1.415  -4.113  0.00  0.00    -0.272 OA
ENDBRANCH  18  19
ENDBRANCH  17  18
ENDBRANCH  11  17
BRANCH   8  28
ATOM     28  N   UNL d   1       1.052   3.052   0.004  0.00  0.00    -0.376 N 
ATOM     29  H   UNL d   1       0.098   3.128   0.329  0.00  0.00     0.161 HD
BRANCH  28  30
ATOM     30  C   UNL d   1       1.944   4.045   0.577  0.00  0.00     0.116 C 
ATOM     31  C   UNL d   1       1.291   5.413   0.453  0.00  0.00     0.026 C 
ENDBRANCH  28  30
ENDBRANCH   8  28
TORSDOF 5
