REMARK  4 active torsions:
REMARK  status: ('A' for Active; 'I' for Inactive)
REMARK    1  A    between atoms: C_9  and  O_13 
REMARK    2  A    between atoms: C_22  and  C_9 
REMARK    3  A    between atoms: O_13  and  C_10 
REMARK    4  A    between atoms: O_26  and  C_23 
ROOT
ATOM      1  C   UNL d   1      -1.994   1.986  -0.925  0.00  0.00     0.005 C 
ATOM      2  C   UNL d   1      -1.479   0.594  -1.328  0.00  0.00     0.056 C 
ATOM      3  C   UNL d   1      -4.135   1.611  -2.438  0.00  0.00    -0.002 C 
ATOM      4  C   UNL d   1      -5.664   3.764  -2.610  0.00  0.00    -0.013 C 
ATOM      5  C   UNL d   1      -3.564   2.085  -1.065  0.00  0.00     0.002 C 
ATOM      6  C   UNL d   1      -4.743   2.728  -3.336  0.00  0.00     0.001 C 
ATOM      7  C   UNL d   1      -1.726   0.679  -2.829  0.00  0.00     0.142 C 
ATOM      8  C   UNL d   1      -3.193   0.692  -3.263  0.00  0.00     0.039 C 
ATOM      9  C   UNL d   1      -7.081   3.487  -3.187  0.00  0.00     0.140 C 
ATOM     10  O   UNL d   1      -1.205   1.980  -3.191  0.00  0.00    -0.383 OA
ATOM     11  C   UNL d   1      -1.342   2.838  -2.040  0.00  0.00     0.179 C 
ATOM     12  C   UNL d   1      -5.617   3.585  -1.082  0.00  0.00     0.012 C 
ATOM     13  C   UNL d   1       0.030   0.378  -1.035  0.00  0.00     0.056 C 
ATOM     14  C   UNL d   1      -1.525   2.397   0.486  0.00  0.00     0.016 C 
ATOM     15  C   UNL d   1      -4.174   3.424  -0.596  0.00  0.00     0.007 C 
ATOM     16  C   UNL d   1      -5.626   2.107  -4.448  0.00  0.00     0.008 C 
ATOM     17  C   UNL d   1      -6.795   3.051  -4.620  0.00  0.00     0.034 C 
ATOM     18 BR   UNL d   1      -2.440  -0.912  -0.516  0.00  0.00    -0.082 Br
ATOM     19  C   UNL d   1       0.467   0.790   0.372  0.00  0.00     0.119 C 
ATOM     20  C   UNL d   1      -0.033   2.176   0.761  0.00  0.00     0.032 C 
ATOM     21  C   UNL d   1      -5.220   5.209  -2.954  0.00  0.00     0.018 C 
ENDROOT
BRANCH   9  22
ATOM     22  O   UNL d   1      -7.924   4.643  -3.234  0.00  0.00    -0.311 OA
BRANCH  22  23
ATOM     23  C   UNL d   1      -9.052   4.610  -2.485  0.00  0.00     0.293 C 
ATOM     24  O   UNL d   1      -9.360   3.740  -1.686  0.00  0.00    -0.259 OA
BRANCH  23  25
ATOM     25  C   UNL d   1      -9.909   5.794  -2.775  0.00  0.00     0.039 A 
ATOM     26  C   UNL d   1      -9.607   6.719  -3.784  0.00  0.00     0.017 A 
ATOM     27  C   UNL d   1     -10.449   7.812  -4.010  0.00  0.00     0.001 A 
ATOM     28  C   UNL d   1     -11.595   7.985  -3.235  0.00  0.00     0.000 A 
ATOM     29  C   UNL d   1     -11.911   7.061  -2.240  0.00  0.00     0.001 A 
ATOM     30  C   UNL d   1     -11.073   5.967  -2.013  0.00  0.00     0.017 A 
ENDBRANCH  23  25
ENDBRANCH  22  23
ENDBRANCH   9  22
BRANCH  19  31
ATOM     31  O   UNL d   1       0.056  -0.161   1.350  0.00  0.00    -0.396 OA
ATOM     32  H   UNL d   1      -0.869  -0.402   1.190  0.00  0.00     0.210 HD
ENDBRANCH  19  31
TORSDOF 4
