REMARK  5 active torsions:
REMARK  status: ('A' for Active; 'I' for Inactive)
REMARK    1  A    between atoms: C_9  and  C_1 
REMARK       I    between atoms: C_2  and  N_7 
REMARK    2  A    between atoms: C_8  and  C_2 
REMARK    3  A    between atoms: C_6  and  C_3 
REMARK    4  A    between atoms: O_21  and  C_6 
REMARK    5  A    between atoms: N_7  and  C_20 
ROOT
ATOM      1  C   UNL d   1      -0.120  -6.563   0.067  0.00  0.00     0.272 C 
ATOM      2  N   UNL d   1      -0.707  -5.373   0.463  0.00  0.00    -0.322 N 
ATOM      3  O   UNL d   1      -0.580  -7.692   0.207  0.00  0.00    -0.266 OA
ATOM      4  H   UNL d   1      -0.186  -4.535   0.217  0.00  0.00     0.169 HD
ENDROOT
BRANCH   1   5
ATOM      5  C   UNL d   1       1.237  -6.415  -0.554  0.00  0.00     0.101 A 
ATOM      6  N   UNL d   1       1.700  -5.151  -0.765  0.00  0.00    -0.360 N 
ATOM      7  C   UNL d   1       2.971  -5.054  -1.249  0.00  0.00     0.106 A 
ATOM      8  HN  UNL d   1       1.130  -4.327  -0.572  1.00  0.00     0.165 HD
ATOM      9  C   UNL d   1       3.799  -6.144  -1.513  0.00  0.00     0.054 A 
ATOM     10  C   UNL d   1       3.282  -7.424  -1.301  0.00  0.00     0.021 A 
ATOM     11  C   UNL d   1       1.982  -7.563  -0.819  0.00  0.00     0.036 A 
BRANCH   9  12
ATOM     12  C   UNL d   1       5.185  -5.895  -1.970  0.00  0.00     0.294 C 
ATOM     13  O   UNL d   1       5.627  -4.780  -2.193  0.00  0.00    -0.259 OA
BRANCH  12  14
ATOM     14  O   UNL d   1       5.871  -7.061  -2.059  0.00  0.00    -0.322 OA
ATOM     15  C   UNL d   1       7.247  -6.911  -2.419  0.00  0.00     0.213 C 
ENDBRANCH  12  14
ENDBRANCH   9  12
ENDBRANCH   1   5
BRANCH   2  16
ATOM     16  C   UNL d   1      -1.867  -5.227   1.256  0.00  0.00     0.035 A 
ATOM     17  C   UNL d   1      -2.614  -6.306   1.736  0.00  0.00     0.030 A 
ATOM     18  C   UNL d   1      -3.704  -6.105   2.589  0.00  0.00     0.018 A 
ATOM     19  C   UNL d   1      -4.079  -4.814   2.978  0.00  0.00     0.048 A 
ATOM     20  C   UNL d   1      -3.353  -3.727   2.470  0.00  0.00     0.018 A 
ATOM     21  C   UNL d   1      -2.259  -3.933   1.616  0.00  0.00     0.030 A 
BRANCH  19  22
ATOM     22  C   UNL d   1      -5.226  -4.627   3.940  0.00  0.00     0.417 C 
ATOM     23  F   UNL d   1      -5.482  -3.323   4.240  0.00  0.00    -0.166 F 
ATOM     24  F   UNL d   1      -5.009  -5.246   5.134  0.00  0.00    -0.166 F 
ATOM     25  F   UNL d   1      -6.397  -5.136   3.465  0.00  0.00    -0.166 F 
ENDBRANCH  19  22
ENDBRANCH   2  16
TORSDOF 5
