REMARK  3 active torsions:
REMARK  status: ('A' for Active; 'I' for Inactive)
REMARK    1  A    between atoms: S_2  and  C_1 
REMARK    2  A    between atoms: C_6  and  C_3 
REMARK    3  A    between atoms: C_7  and  C_4 
ROOT
ATOM      1  C   UNL d   1       0.960   1.548   1.253  0.00  0.00     0.140 C 
ATOM      2  C   UNL d   1       0.172   1.095   0.261  0.00  0.00     0.053 C 
ATOM      3  C   UNL d   1       0.495   2.032   2.501  0.00  0.00     0.111 C 
ATOM      4  N   UNL d   1       0.097   2.451   3.507  0.00  0.00    -0.191 NA
ENDROOT
BRANCH   1   5
ATOM      5  S   UNL d   1       2.677   1.565   0.993  0.00  0.00     0.181 S 
ATOM      6  O   UNL d   1       3.372   1.501   2.264  0.00  0.00    -0.222 OA
ATOM      7  O   UNL d   1       3.023   0.625  -0.060  0.00  0.00    -0.222 OA
ATOM      8  C   UNL d   1       2.947   3.191   0.332  0.00  0.00     0.168 C 
ENDBRANCH   1   5
BRANCH   2   9
ATOM      9  C   UNL d   1      -1.244   1.043   0.372  0.00  0.00     0.007 A 
ATOM     10  S   UNL d   1      -2.204   2.338  -0.212  0.00  0.00    -0.089 SA
ATOM     11  C   UNL d   1      -3.676   1.582   0.250  0.00  0.00     0.022 A 
ATOM     12  C   UNL d   1      -3.427   0.339   0.804  0.00  0.00     0.021 A 
ATOM     13  C   UNL d   1      -2.036   0.032   0.876  0.00  0.00     0.020 A 
BRANCH  11  14
ATOM     14  C   UNL d   1      -4.957   2.229   0.061  0.00  0.00     0.021 A 
ATOM     15  S   UNL d   1      -6.316   1.829   1.041  0.00  0.00    -0.101 SA
ATOM     16  C   UNL d   1      -7.312   2.981   0.269  0.00  0.00     0.050 A 
ATOM     17  C   UNL d   1      -6.646   3.651  -0.729  0.00  0.00     0.008 A 
ATOM     18  C   UNL d   1      -5.292   3.216  -0.851  0.00  0.00     0.021 A 
ENDBRANCH  11  14
ENDBRANCH   2   9
TORSDOF 3
