REMARK  5 active torsions:
REMARK  status: ('A' for Active; 'I' for Inactive)
REMARK    1  A    between atoms: N_2  and  C_1 
REMARK       I    between atoms: C_3  and  N_2 
REMARK    2  A    between atoms: C_8  and  C_3 
REMARK    3  A    between atoms: O_9  and  C_6 
REMARK    4  A    between atoms: C_7  and  C_12 
REMARK    5  A    between atoms: C_12  and  O_9 
ROOT
ATOM      1  C   UNL d   1      -1.164   1.069   0.315  0.00  0.00     0.142 A 
ATOM      2  N   UNL d   1       0.143   1.091   0.653  0.00  0.00    -0.344 N 
ATOM      3  HN  UNL d   1       0.565   1.913   1.084  1.00  0.00     0.167 HD
ATOM      4  C   UNL d   1      -1.811  -0.053  -0.225  0.00  0.00     0.113 A 
ATOM      5  C   UNL d   1       0.871  -0.021   0.399  0.00  0.00     0.007 A 
ATOM      6  C   UNL d   1      -1.062  -1.208  -0.405  0.00  0.00     0.042 A 
ATOM      7  C   UNL d   1       0.301  -1.191  -0.097  0.00  0.00     0.027 A 
ATOM      8  C   UNL d   1       2.351   0.056   0.635  0.00  0.00     0.068 C 
ENDROOT
BRANCH   1   9
ATOM      9  N   UNL d   1      -1.931   2.228   0.468  0.00  0.00    -0.307 N 
ATOM     10  C   UNL d   1      -1.758   3.260   1.346  0.00  0.00     0.257 C 
ATOM     11  O   UNL d   1      -2.214   4.373   1.085  0.00  0.00    -0.267 OA
ATOM     12  H   UNL d   1      -2.686   2.343  -0.196  0.00  0.00     0.170 HD
BRANCH  10  13
ATOM     13  C   UNL d   1      -1.228   3.007   2.719  0.00  0.00     0.032 A 
ATOM     14  C   UNL d   1      -0.717   4.091   3.448  0.00  0.00     0.020 A 
ATOM     15  C   UNL d   1      -0.371   3.935   4.793  0.00  0.00     0.043 A 
ATOM     16  C   UNL d   1      -0.537   2.699   5.408  0.00  0.00     0.116 A 
ATOM     17  C   UNL d   1      -1.048   1.616   4.705  0.00  0.00     0.043 A 
ATOM     18  F   UNL d   1      -0.228   2.557   6.703  0.00  0.00    -0.206 F 
ATOM     19  C   UNL d   1      -1.408   1.772   3.367  0.00  0.00     0.020 A 
ENDBRANCH  10  13
ENDBRANCH   1   9
BRANCH   4  20
ATOM     20  O   UNL d   1      -3.133   0.106  -0.534  0.00  0.00    -0.343 OA
BRANCH  20  21
ATOM     21  C   UNL d   1      -4.004  -1.022  -0.527  0.00  0.00     0.215 C 
BRANCH  21  22
ATOM     22  C   UNL d   1      -4.487  -1.456   0.848  0.00  0.00    -0.028 A 
ATOM     23  C   UNL d   1      -4.991  -0.573   1.826  0.00  0.00    -0.054 A 
ATOM     24  C   UNL d   1      -5.478  -1.096   3.038  0.00  0.00     0.008 A 
ATOM     25  C   UNL d   1      -5.067   0.922   1.667  0.00  0.00     0.049 C 
ATOM     26  C   UNL d   1      -5.524  -2.470   3.270  0.00  0.00     0.007 A 
ATOM     27  C   UNL d   1      -5.069  -3.358   2.297  0.00  0.00    -0.061 A 
ATOM     28  C   UNL d   1      -4.545  -2.844   1.102  0.00  0.00     0.016 A 
ATOM     29  C   UNL d   1      -5.189  -4.837   2.522  0.00  0.00     0.048 C 
ENDBRANCH  21  22
ENDBRANCH  20  21
ENDBRANCH   4  20
TORSDOF 5
