REMARK  4 active torsions:
REMARK  status: ('A' for Active; 'I' for Inactive)
REMARK    1  A    between atoms: C_4  and  C_1 
REMARK       I    between atoms: N_7  and  C_4 
REMARK    2  A    between atoms: C_12  and  N_7 
REMARK    3  A    between atoms: O_18  and  C_13 
REMARK    4  A    between atoms: C_21  and  O_18 
ROOT
ATOM      1  C   UNL d   1       3.445   1.389   0.006  0.00  0.00     0.274 C 
ATOM      2  N   UNL d   1       4.661   0.723   0.075  0.00  0.00    -0.322 N 
ATOM      3  O   UNL d   1       2.346   0.877  -0.191  0.00  0.00    -0.266 OA
ATOM      4  H   UNL d   1       5.457   1.281   0.374  0.00  0.00     0.169 HD
ENDROOT
BRANCH   1   5
ATOM      5  C   UNL d   1       3.497   2.858   0.228  0.00  0.00     0.117 A 
ATOM      6  N   UNL d   1       4.706   3.459   0.395  0.00  0.00    -0.349 N 
ATOM      7  C   UNL d   1       4.667   4.807   0.534  0.00  0.00     0.059 A 
ATOM      8  HN  UNL d   1       5.579   2.934   0.413  1.00  0.00     0.166 HD
ATOM      9  C   UNL d   1       5.846   5.529   0.686  0.00  0.00     0.032 A 
ATOM     10  C   UNL d   1       3.439   5.528   0.520  0.00  0.00     0.059 A 
ATOM     11  C   UNL d   1       5.843   6.921   0.810  0.00  0.00     0.002 A 
ATOM     12  C   UNL d   1       4.639   7.615   0.786  0.00  0.00     0.002 A 
ATOM     13  C   UNL d   1       3.447   6.909   0.644  0.00  0.00     0.032 A 
ATOM     14  N   UNL d   1       2.257   4.907   0.379  0.00  0.00    -0.362 N 
ATOM     15  C   UNL d   1       2.304   3.563   0.230  0.00  0.00     0.123 A 
ATOM     16  HN  UNL d   1       1.374   5.418   0.385  1.00  0.00     0.165 HD
ENDBRANCH   1   5
BRANCH   2  17
ATOM     17  C   UNL d   1       4.838  -0.670  -0.091  0.00  0.00     0.035 A 
ATOM     18  C   UNL d   1       3.853  -1.491  -0.646  0.00  0.00     0.032 A 
ATOM     19  C   UNL d   1       4.017  -2.877  -0.704  0.00  0.00     0.039 A 
ATOM     20  C   UNL d   1       5.171  -3.466  -0.200  0.00  0.00     0.068 A 
ATOM     21  C   UNL d   1       6.199  -2.648   0.274  0.00  0.00     0.039 A 
ATOM     22  C   UNL d   1       6.036  -1.256   0.327  0.00  0.00     0.032 A 
BRANCH  20  23
ATOM     23  O   UNL d   1       5.388  -4.818  -0.151  0.00  0.00    -0.352 OA
BRANCH  23  24
ATOM     24  C   UNL d   1       4.199  -5.601   0.018  0.00  0.00     0.171 C 
ATOM     25  C   UNL d   1       4.594  -7.035   0.315  0.00  0.00     0.034 C 
ENDBRANCH  23  24
ENDBRANCH  20  23
ENDBRANCH   2  17
TORSDOF 4
