REMARK  10 active torsions:
REMARK  status: ('A' for Active; 'I' for Inactive)
REMARK    1  A    between atoms: C_16  and  N_1 
REMARK    2  A    between atoms: S_17  and  C_2 
REMARK    3  A    between atoms: O_28  and  C_3 
REMARK    4  A    between atoms: N_10  and  C_18 
REMARK    5  A    between atoms: C_27  and  C_11 
REMARK    6  A    between atoms: C_14  and  C_25 
REMARK    7  A    between atoms: C_19  and  C_16 
REMARK    8  A    between atoms: C_25  and  S_17 
REMARK    9  A    between atoms: O_31  and  C_27 
REMARK   10  A    between atoms: C_32  and  O_31 
ROOT
ATOM      1  N   UNL d   1       5.571  -3.028  -0.430  0.00  0.00    -0.324 N 
ATOM      2  HN  UNL d   1       5.960  -2.090  -0.336  1.00  0.00     0.169 HD
ATOM      3  C   UNL d   1       6.201  -4.245  -0.270  0.00  0.00     0.128 A 
ATOM      4  N   UNL d   1       5.414  -5.309  -0.483  0.00  0.00    -0.245 N 
ATOM      5  HN  UNL d   1       5.662  -6.297  -0.436  1.00  0.00     0.196 HD
ATOM      6  C   UNL d   1       4.340  -3.385  -0.736  0.00  0.00     0.158 A 
ATOM      7  O   UNL d   1       4.178  -4.743  -0.783  0.00  0.00    -0.222 OA
ENDROOT
BRANCH   6   8
ATOM      8  C   UNL d   1       3.106  -2.593  -0.992  0.00  0.00     0.169 C 
BRANCH   8   9
ATOM      9  S   UNL d   1       3.429  -0.898  -1.582  0.00  0.00    -0.084 SA
BRANCH   9  10
ATOM     10  C   UNL d   1       1.841  -0.455  -2.112  0.00  0.00     0.165 A 
ATOM     11  N   UNL d   1       1.472   0.800  -2.516  0.00  0.00    -0.285 N 
ATOM     12  C   UNL d   1       0.158   0.676  -2.894  0.00  0.00     0.240 A 
ATOM     13  N   UNL d   1      -0.238  -0.562  -2.738  0.00  0.00    -0.263 N 
ATOM     14  N   UNL d   1       0.821  -1.274  -2.221  0.00  0.00    -0.277 N 
ATOM     15  HN  UNL d   1      -1.163  -0.931  -2.958  1.00  0.00     0.190 HD
ATOM     16  HN  UNL d   1       0.814  -2.262  -1.969  1.00  0.00     0.189 HD
BRANCH  11  17
ATOM     17  C   UNL d   1       2.272   2.000  -2.611  0.00  0.00     0.200 C 
BRANCH  17  18
ATOM     18  C   UNL d   1       1.882   2.953  -1.543  0.00  0.00     0.070 A 
ATOM     19  O   UNL d   1       0.785   3.729  -1.795  0.00  0.00    -0.325 OA
ATOM     20  C   UNL d   1       0.588   4.503  -0.696  0.00  0.00     0.142 A 
ATOM     21  C   UNL d   1       1.543   4.238   0.257  0.00  0.00     0.027 A 
ATOM     22  C   UNL d   1       2.383   3.237  -0.289  0.00  0.00     0.036 A 
ENDBRANCH  17  18
ENDBRANCH  11  17
BRANCH  12  23
ATOM     23  O   UNL d   1      -0.618   1.645  -3.361  0.00  0.00    -0.331 OA
ATOM     24  H   UNL d   1      -0.290   2.499  -3.031  0.00  0.00     0.221 HD
ENDBRANCH  12  23
ENDBRANCH   9  10
ENDBRANCH   8   9
ENDBRANCH   6   8
BRANCH   3  25
ATOM     25  C   UNL d   1       7.643  -4.386   0.101  0.00  0.00     0.254 C 
BRANCH  25  26
ATOM     26  O   UNL d   1       7.931  -3.690   1.320  0.00  0.00    -0.344 OA
BRANCH  26  27
ATOM     27  C   UNL d   1       9.244  -3.604   1.689  0.00  0.00     0.069 A 
ATOM     28  C   UNL d   1       9.555  -2.487   2.471  0.00  0.00     0.039 A 
ATOM     29  C   UNL d   1      10.850  -2.288   2.953  0.00  0.00     0.039 A 
ATOM     30  C   UNL d   1      11.841  -3.231   2.661  0.00  0.00     0.103 A 
ATOM     31  C   UNL d   1      11.538  -4.361   1.889  0.00  0.00     0.039 A 
ATOM     32  C   UNL d   1      10.235  -4.545   1.403  0.00  0.00     0.039 A 
BRANCH  30  33
ATOM     33  N   UNL d   1      13.202  -3.038   3.178  0.00  0.00    -0.116 N 
ATOM     34  O   UNL d   1      13.428  -2.015   3.841  0.00  0.00    -0.532 OA
ATOM     35  O   UNL d   1      14.045  -3.909   2.921  0.00  0.00    -0.532 OA
ENDBRANCH  30  33
ENDBRANCH  26  27
ENDBRANCH  25  26
ENDBRANCH   3  25
TORSDOF 10
