REMARK  4 active torsions:
REMARK  status: ('A' for Active; 'I' for Inactive)
REMARK    1  A    between atoms: N_2  and  S_1 
REMARK    2  A    between atoms: C_6  and  S_1 
REMARK       I    between atoms: C_3  and  N_2 
REMARK       I    between atoms: N_7  and  C_3 
REMARK    3  A    between atoms: C_4  and  N_5 
REMARK    4  A    between atoms: N_5  and  N_7 
ROOT
ATOM      1  N   UNL d   1       0.435   0.569  -1.317  0.00  0.00    -0.231 N 
ATOM      2  C   UNL d   1       0.741   1.857  -1.743  0.00  0.00     0.344 C 
ATOM      3  N   UNL d   1       1.532   2.651  -0.939  0.00  0.00    -0.268 N 
ATOM      4  O   UNL d   1       0.287   2.240  -2.814  0.00  0.00    -0.245 OA
ATOM      5  H   UNL d   1      -0.024  -0.024  -2.001  0.00  0.00     0.183 HD
ATOM      6  H   UNL d   1       2.136   2.182  -0.258  0.00  0.00     0.186 HD
ENDROOT
BRANCH   1   7
ATOM      7  S   UNL d   1       0.892  -0.212   0.062  0.00  0.00     0.266 S 
ATOM      8  O   UNL d   1       2.105   0.394   0.554  0.00  0.00    -0.200 OA
ATOM      9  O   UNL d   1       0.804  -1.627  -0.229  0.00  0.00    -0.200 OA
BRANCH   7  10
ATOM     10  C   UNL d   1      -0.395   0.142   1.238  0.00  0.00     0.080 A 
ATOM     11  C   UNL d   1      -1.439   1.026   0.948  0.00  0.00     0.027 A 
ATOM     12  C   UNL d   1      -2.488   1.175   1.859  0.00  0.00     0.025 A 
ATOM     13  C   UNL d   1      -2.487   0.450   3.051  0.00  0.00     0.034 A 
ATOM     14  C   UNL d   1      -1.431  -0.409   3.355  0.00  0.00     0.025 A 
ATOM     15 CL   UNL d   1      -3.810   0.598   4.140  0.00  0.00    -0.084 Cl
ATOM     16  C   UNL d   1      -0.380  -0.564   2.448  0.00  0.00     0.027 A 
ENDBRANCH   7  10
ENDBRANCH   1   7
BRANCH   3  17
ATOM     17  N   UNL d   1       2.082   3.810  -1.531  0.00  0.00    -0.199 NA
ATOM     18  H   UNL d   1       1.501   4.133  -2.318  0.00  0.00     0.153 HD
BRANCH  17  19
ATOM     19  C   UNL d   1       2.378   4.892  -0.645  0.00  0.00     0.071 A 
ATOM     20  C   UNL d   1       2.935   4.753   0.645  0.00  0.00     0.058 A 
ATOM     21 CL   UNL d   1       3.267   3.227   1.389  0.00  0.00    -0.082 Cl
ATOM     22  C   UNL d   1       3.310   5.874   1.403  0.00  0.00     0.026 A 
ATOM     23  C   UNL d   1       3.175   7.159   0.889  0.00  0.00     0.003 A 
ATOM     24  C   UNL d   1       2.659   7.330  -0.389  0.00  0.00     0.026 A 
ATOM     25  C   UNL d   1       2.274   6.214  -1.144  0.00  0.00     0.058 A 
ATOM     26 CL   UNL d   1       1.649   6.513  -2.735  0.00  0.00    -0.082 Cl
ENDBRANCH  17  19
ENDBRANCH   3  17
TORSDOF 4
