REMARK  4 active torsions:
REMARK  status: ('A' for Active; 'I' for Inactive)
REMARK    1  A    between atoms: C_7  and  N_1 
REMARK    2  A    between atoms: S_11  and  C_2 
REMARK    3  A    between atoms: C_8  and  C_12 
REMARK    4  A    between atoms: C_12  and  S_11 
ROOT
ATOM      1  N   UNL d   1      -0.106  -1.277   0.148  0.00  0.00    -0.218 N 
ATOM      2  C   UNL d   1       0.999  -0.527   0.531  0.00  0.00     0.177 A 
ATOM      3  N   UNL d   1       0.716   0.752   0.402  0.00  0.00    -0.264 N 
ATOM      4  HN  UNL d   1       1.330   1.539   0.613  1.00  0.00     0.186 HD
ATOM      5  N   UNL d   1      -1.069  -0.397  -0.239  0.00  0.00     0.001 NA
ATOM      6  N   UNL d   1      -0.563   0.813  -0.071  0.00  0.00    -0.006 NA
ENDROOT
BRANCH   2   7
ATOM      7  S   UNL d   1       2.569  -1.135   0.962  0.00  0.00    -0.086 SA
BRANCH   7   8
ATOM      8  C   UNL d   1       3.274   0.354   1.741  0.00  0.00     0.126 C 
BRANCH   8   9
ATOM      9  C   UNL d   1       4.478   0.063   2.602  0.00  0.00     0.012 A 
ATOM     10  C   UNL d   1       4.311  -0.046   3.989  0.00  0.00     0.125 A 
ATOM     11  F   UNL d   1       3.086   0.068   4.523  0.00  0.00    -0.205 F 
ATOM     12  C   UNL d   1       5.386  -0.255   4.849  0.00  0.00     0.043 A 
ATOM     13  C   UNL d   1       6.673  -0.372   4.333  0.00  0.00     0.005 A 
ATOM     14  C   UNL d   1       6.865  -0.287   2.951  0.00  0.00     0.024 A 
ATOM     15  C   UNL d   1       5.777  -0.072   2.095  0.00  0.00     0.044 A 
ATOM     16 CL   UNL d   1       6.110   0.039   0.399  0.00  0.00    -0.084 Cl
ENDBRANCH   8   9
ENDBRANCH   7   8
ENDBRANCH   2   7
BRANCH   1  17
ATOM     17  C   UNL d   1      -0.354  -2.677   0.131  0.00  0.00     0.068 A 
ATOM     18  C   UNL d   1      -0.048  -3.485   1.254  0.00  0.00    -0.033 A 
ATOM     19  C   UNL d   1      -0.237  -4.878   1.166  0.00  0.00     0.015 A 
ATOM     20  C   UNL d   1       0.373  -2.972   2.608  0.00  0.00     0.050 C 
ATOM     21  C   UNL d   1      -0.800  -5.472   0.036  0.00  0.00    -0.061 A 
ATOM     22  C   UNL d   1      -1.175  -4.658  -1.031  0.00  0.00     0.015 A 
ATOM     23  C   UNL d   1      -0.997  -6.958  -0.016  0.00  0.00     0.048 C 
ATOM     24  C   UNL d   1      -0.957  -3.266  -1.013  0.00  0.00    -0.033 A 
ATOM     25  C   UNL d   1      -1.407  -2.524  -2.247  0.00  0.00     0.050 C 
ENDBRANCH   1  17
TORSDOF 4
