REMARK  7 active torsions:
REMARK  status: ('A' for Active; 'I' for Inactive)
REMARK    1  A    between atoms: C_2  and  C_1 
REMARK       I    between atoms: N_3  and  C_1 
REMARK    2  A    between atoms: C_7  and  N_3 
REMARK    3  A    between atoms: C_4  and  C_11 
REMARK    4  A    between atoms: O_14  and  C_4 
REMARK    5  A    between atoms: O_10  and  C_12 
REMARK    6  A    between atoms: C_11  and  O_10 
REMARK    7  A    between atoms: C_20  and  O_14 
ROOT
ATOM      1  C   UNL d   1      -1.119  -0.518   1.266  0.00  0.00     0.037 A 
ATOM      2  C   UNL d   1      -1.848  -1.013   0.176  0.00  0.00     0.066 A 
ATOM      3  C   UNL d   1      -3.238  -1.124   0.252  0.00  0.00     0.071 A 
ATOM      4  C   UNL d   1      -3.189  -0.197   2.484  0.00  0.00     0.005 A 
ATOM      5  C   UNL d   1      -1.800  -0.101   2.413  0.00  0.00     0.029 A 
ATOM      6  C   UNL d   1      -3.903  -0.720   1.411  0.00  0.00     0.037 A 
ENDROOT
BRANCH   1   7
ATOM      7  N   UNL d   1       0.282  -0.419   1.129  0.00  0.00    -0.323 N 
ATOM      8  C   UNL d   1       1.189  -0.281   2.160  0.00  0.00     0.257 C 
ATOM      9  O   UNL d   1       0.908  -0.447   3.347  0.00  0.00    -0.267 OA
ATOM     10  H   UNL d   1       0.649  -0.510   0.193  0.00  0.00     0.169 HD
BRANCH   8  11
ATOM     11  C   UNL d   1       2.603   0.093   1.821  0.00  0.00     0.054 A 
ATOM     12  C   UNL d   1       3.146   0.271   0.538  0.00  0.00     0.049 A 
ATOM     13 CL   UNL d   1       2.300  -0.043  -0.939  0.00  0.00    -0.083 Cl
ATOM     14  C   UNL d   1       4.468   0.721   0.390  0.00  0.00     0.025 A 
ATOM     15  C   UNL d   1       5.265   0.984   1.503  0.00  0.00     0.002 A 
ATOM     16  C   UNL d   1       4.752   0.783   2.778  0.00  0.00     0.001 A 
ATOM     17  C   UNL d   1       3.438   0.342   2.932  0.00  0.00     0.019 A 
ENDBRANCH   8  11
ENDBRANCH   1   7
BRANCH   3  18
ATOM     18  O   UNL d   1      -4.058  -1.621  -0.720  0.00  0.00    -0.341 OA
BRANCH  18  19
ATOM     19  C   UNL d   1      -3.486  -1.812  -2.005  0.00  0.00     0.286 C 
BRANCH  19  20
ATOM     20  C   UNL d   1      -4.569  -2.207  -2.997  0.00  0.00     0.283 C 
ATOM     21  O   UNL d   1      -5.742  -2.429  -2.734  0.00  0.00    -0.263 OA
BRANCH  20  22
ATOM     22  O   UNL d   1      -4.012  -2.314  -4.241  0.00  0.00    -0.320 OA
BRANCH  22  23
ATOM     23  C   UNL d   1      -4.884  -2.827  -5.258  0.00  0.00     0.174 C 
ATOM     24  C   UNL d   1      -4.825  -4.343  -5.240  0.00  0.00     0.034 C 
ENDBRANCH  22  23
ENDBRANCH  20  22
ENDBRANCH  19  20
ENDBRANCH  18  19
ENDBRANCH   3  18
TORSDOF 7
