REMARK  4 active torsions:
REMARK  status: ('A' for Active; 'I' for Inactive)
REMARK    1  A    between atoms: C_9  and  C_3 
REMARK    2  A    between atoms: N_5  and  N_10 
REMARK    3  A    between atoms: N_10  and  C_14 
REMARK    4  A    between atoms: C_15  and  C_13 
ROOT
ATOM      1  C   UNL d   1       1.528  -2.190  -0.030  0.00  0.00    -0.001 A 
ATOM      2  C   UNL d   1       1.447  -3.129  -1.069  0.00  0.00     0.016 A 
ATOM      3  C   UNL d   1       2.504  -2.382   0.953  0.00  0.00     0.016 A 
ATOM      4  C   UNL d   1       3.314  -4.401  -0.157  0.00  0.00     0.048 A 
ATOM      5  C   UNL d   1       2.323  -4.223  -1.127  0.00  0.00     0.032 A 
ATOM      6  C   UNL d   1       3.372  -3.479   0.896  0.00  0.00     0.032 A 
ENDROOT
BRANCH   4   7
ATOM      7  N   UNL d   1       4.131  -5.552  -0.189  0.00  0.00    -0.301 N 
ATOM      8  H   UNL d   1       4.267  -5.945  -1.118  0.00  0.00     0.187 HD
BRANCH   7   9
ATOM      9  N   UNL d   1       5.115  -5.637   0.737  0.00  0.00    -0.311 N 
ATOM     10  C   UNL d   1       5.936  -6.629   0.624  0.00  0.00     0.118 C 
ATOM     11  HN  UNL d   1       5.203  -4.952   1.488  1.00  0.00     0.186 HD
BRANCH  10  12
ATOM     12  C   UNL d   1       7.021  -6.806   1.611  0.00  0.00    -0.019 A 
ATOM     13  C   UNL d   1       7.154  -5.905   2.676  0.00  0.00     0.014 A 
ATOM     14  C   UNL d   1       8.171  -6.077   3.616  0.00  0.00     0.024 A 
ATOM     15  C   UNL d   1       9.052  -7.148   3.488  0.00  0.00     0.034 A 
ATOM     16  C   UNL d   1       8.925  -8.048   2.428  0.00  0.00     0.024 A 
ATOM     17 CL   UNL d   1      10.305  -7.361   4.647  0.00  0.00    -0.084 Cl
ATOM     18  C   UNL d   1       7.906  -7.880   1.484  0.00  0.00     0.014 A 
ENDBRANCH  10  12
ENDBRANCH   7   9
ENDBRANCH   4   7
BRANCH   1  19
ATOM     19  C   UNL d   1       0.613  -1.058   0.022  0.00  0.00     0.102 A 
ATOM     20  C   UNL d   1      -0.475  -0.633  -0.711  0.00  0.00     0.127 A 
ATOM     21  N   UNL d   1      -0.966   0.545  -0.204  0.00  0.00    -0.354 N 
ATOM     22  C   UNL d   1      -0.168   0.792   0.807  0.00  0.00     0.233 A 
ATOM     23  HN  UNL d   1      -1.759   1.095  -0.534  1.00  0.00     0.166 HD
ATOM     24  O   UNL d   1       0.812  -0.129   1.014  0.00  0.00    -0.304 OA
ENDBRANCH   1  19
TORSDOF 4
