REMARK  3 active torsions:
REMARK  status: ('A' for Active; 'I' for Inactive)
REMARK    1  A    between atoms: N_7  and  C_1 
REMARK    2  A    between atoms: O_11  and  C_2 
REMARK    3  A    between atoms: C_12  and  N_9 
ROOT
ATOM      1  N   UNL d   1      -0.512  -2.721  -0.156  0.00  0.00    -0.294 N 
ATOM      2  HN  UNL d   1      -1.447  -3.065   0.063  1.00  0.00     0.187 HD
ATOM      3  N   UNL d   1       0.425  -3.458  -0.531  0.00  0.00    -0.300 N 
ATOM      4  HN  UNL d   1       1.371  -3.120  -0.711  1.00  0.00     0.187 HD
ENDROOT
BRANCH   1   5
ATOM      5  C   UNL d   1      -0.141  -1.370  -0.068  0.00  0.00     0.124 A 
ATOM      6  C   UNL d   1       1.121  -0.823  -0.019  0.00  0.00     0.187 A 
ATOM      7  N   UNL d   1       0.923   0.531   0.017  0.00  0.00    -0.274 N 
ATOM      8  C   UNL d   1       1.933   1.561   0.006  0.00  0.00     0.180 C 
ATOM      9  N   UNL d   1      -0.381   0.890   0.042  0.00  0.00    -0.299 N 
ATOM     10  C   UNL d   1      -1.038  -0.280  -0.009  0.00  0.00     0.054 A 
ATOM     11  HN  UNL d   1      -0.774   1.830   0.088  1.00  0.00     0.187 HD
ATOM     12  C   UNL d   1      -2.519  -0.304  -0.005  0.00  0.00     0.072 C 
BRANCH   6  13
ATOM     13  O   UNL d   1       2.337  -1.369  -0.018  0.00  0.00    -0.343 OA
ATOM     14  H   UNL d   1       2.187  -2.335  -0.053  0.00  0.00     0.219 HD
ENDBRANCH   6  13
ENDBRANCH   1   5
BRANCH   3  15
ATOM     15  C   UNL d   1       0.038  -4.803  -0.680  0.00  0.00     0.048 A 
ATOM     16  C   UNL d   1       0.555  -5.519  -1.770  0.00  0.00     0.034 A 
ATOM     17  C   UNL d   1       0.258  -6.873  -1.944  0.00  0.00     0.044 A 
ATOM     18  C   UNL d   1      -0.556  -7.517  -1.020  0.00  0.00     0.116 A 
ATOM     19  C   UNL d   1      -1.074  -6.832   0.073  0.00  0.00     0.044 A 
ATOM     20  F   UNL d   1      -0.837  -8.816  -1.180  0.00  0.00    -0.206 F 
ATOM     21  C   UNL d   1      -0.773  -5.478   0.246  0.00  0.00     0.034 A 
ENDBRANCH   3  15
TORSDOF 3
