REMARK  2 active torsions:
REMARK  status: ('A' for Active; 'I' for Inactive)
REMARK    1  A    between atoms: N_13  and  C_4 
REMARK    2  A    between atoms: N_14  and  C_6 
ROOT
ATOM      1  C   UNL d   1       0.026   0.737  -0.033  0.00  0.00     0.003 A 
ATOM      2  N   UNL d   1       2.422   0.708   0.042  0.00  0.00    -0.323 N 
ATOM      3  HN  UNL d   1       3.316   1.199   0.043  1.00  0.00     0.169 HD
ATOM      4  C   UNL d   1       1.260   1.371  -0.001  0.00  0.00     0.088 A 
ATOM      5  C   UNL d   1       0.070  -0.646  -0.001  0.00  0.00     0.021 A 
ATOM      6  C   UNL d   1       2.358  -0.625   0.086  0.00  0.00     0.156 A 
ATOM      7  N   UNL d   1       1.228  -1.336   0.037  0.00  0.00    -0.336 N 
ATOM      8  HN  UNL d   1       1.240  -2.356   0.030  1.00  0.00     0.168 HD
ATOM      9  C   UNL d   1      -1.266   1.497  -0.002  0.00  0.00     0.048 C 
ATOM     10  C   UNL d   1      -1.194  -1.467  -0.054  0.00  0.00     0.062 C 
ATOM     11  C   UNL d   1      -2.493   0.656  -0.393  0.00  0.00    -0.010 C 
ATOM     12  C   UNL d   1      -2.454  -0.688   0.368  0.00  0.00    -0.009 C 
ATOM     13  C   UNL d   1      -3.764   1.470  -0.137  0.00  0.00     0.010 C 
ATOM     14  C   UNL d   1      -3.699  -1.547   0.135  0.00  0.00     0.011 C 
ENDROOT
BRANCH   4  15
ATOM     15  N   UNL d   1       1.355   2.762  -0.072  0.00  0.00    -0.288 NA
ATOM     16  H   UNL d   1       2.334   3.010   0.054  0.00  0.00     0.125 HD
ATOM     17  H   UNL d   1       0.752   3.230   0.593  0.00  0.00     0.125 HD
ENDBRANCH   4  15
BRANCH   6  18
ATOM     18  N   UNL d   1       3.542  -1.324   0.181  0.00  0.00    -0.274 NA
ATOM     19  H   UNL d   1       3.429  -2.256  -0.191  0.00  0.00     0.127 HD
ATOM     20  H   UNL d   1       4.312  -0.768  -0.164  0.00  0.00     0.127 HD
ENDBRANCH   6  18
TORSDOF 2
