REMARK  2 active torsions:
REMARK  status: ('A' for Active; 'I' for Inactive)
REMARK    1  A    between atoms: O_19  and  C_6 
REMARK    2  A    between atoms: O_22  and  C_18 
ROOT
ATOM      1  C   UNL d   1      -0.424  -0.829  -0.403  0.00  0.00     0.003 C 
ATOM      2  C   UNL d   1       0.131   0.026  -1.586  0.00  0.00     0.002 C 
ATOM      3  C   UNL d   1      -0.449  -0.319  -2.991  0.00  0.00    -0.001 C 
ATOM      4  C   UNL d   1      -0.052  -1.786  -3.327  0.00  0.00     0.023 C 
ATOM      5  C   UNL d   1      -0.900  -2.478  -4.373  0.00  0.00    -0.047 C 
ATOM      6  C   UNL d   1      -1.484   0.085   0.323  0.00  0.00     0.128 C 
ATOM      7  C   UNL d   1      -2.207  -2.057  -4.635  0.00  0.00    -0.049 C 
ATOM      8  C   UNL d   1      -2.913  -0.158   0.032  0.00  0.00    -0.078 C 
ATOM      9  C   UNL d   1      -0.922  -2.198  -0.924  0.00  0.00     0.014 C 
ATOM     10  C   UNL d   1      -0.025  -2.700  -2.063  0.00  0.00     0.010 C 
ATOM     11  C   UNL d   1       0.003   1.469  -1.119  0.00  0.00     0.010 C 
ATOM     12  C   UNL d   1      -1.949  -0.030  -3.151  0.00  0.00     0.010 C 
ATOM     13  C   UNL d   1      -4.097  -0.265  -0.166  0.00  0.00     0.015 C 
ATOM     14  C   UNL d   1      -0.439  -3.691  -4.918  0.00  0.00     0.011 C 
ATOM     15  C   UNL d   1      -2.599  -0.629  -4.391  0.00  0.00     0.039 C 
ATOM     16  C   UNL d   1      -1.118   1.529  -0.087  0.00  0.00     0.052 C 
ATOM     17  C   UNL d   1      -3.109  -2.971  -5.195  0.00  0.00     0.044 C 
ATOM     18  C   UNL d   1      -2.679  -4.253  -5.544  0.00  0.00     0.068 C 
ATOM     19  C   UNL d   1      -1.330  -4.578  -5.508  0.00  0.00     0.037 C 
ATOM     20  C   UNL d   1       0.751  -1.125   0.577  0.00  0.00     0.020 C 
ENDROOT
BRANCH   6  21
ATOM     21  O   UNL d   1      -1.357  -0.012   1.742  0.00  0.00    -0.377 OA
ATOM     22  H   UNL d   1      -1.794  -0.841   2.005  0.00  0.00     0.211 HD
ENDBRANCH   6  21
BRANCH  18  23
ATOM     23  O   UNL d   1      -3.548  -5.234  -5.938  0.00  0.00    -0.356 OA
ATOM     24  C   UNL d   1      -4.502  -5.518  -4.908  0.00  0.00     0.210 C 
ENDBRANCH  18  23
TORSDOF 2
