REMARK  2 active torsions:
REMARK  status: ('A' for Active; 'I' for Inactive)
REMARK    1  A    between atoms: C_4  and  N_1 
REMARK    2  A    between atoms: C_5  and  C_8 
ROOT
ATOM      1  C   UNL d   1       0.070   2.298  -0.024  0.00  0.00     0.046 A 
ATOM      2  C   UNL d   1      -0.507   4.417   1.075  0.00  0.00     0.050 A 
ATOM      3  C   UNL d   1      -0.598   3.015   0.983  0.00  0.00     0.046 A 
ATOM      4  C   UNL d   1       0.800   3.031  -0.970  0.00  0.00     0.030 A 
ATOM      5  C   UNL d   1       0.224   5.117   0.108  0.00  0.00     0.016 A 
ATOM      6  C   UNL d   1       0.868   4.427  -0.914  0.00  0.00     0.003 A 
ENDROOT
BRANCH   1   7
ATOM      7  N   UNL d   1       0.031   0.876  -0.061  0.00  0.00    -0.245 N 
ATOM      8  C   UNL d   1       0.950   0.077  -0.690  0.00  0.00     0.255 A 
ATOM      9  C   UNL d   1       0.565  -1.315  -0.442  0.00  0.00     0.080 A 
ATOM     10  O   UNL d   1       1.961   0.351  -1.312  0.00  0.00    -0.268 OA
ATOM     11  C   UNL d   1      -0.537  -1.311   0.301  0.00  0.00     0.080 A 
ATOM     12  C   UNL d   1      -0.899   0.087   0.557  0.00  0.00     0.255 A 
ATOM     13  O   UNL d   1      -1.901   0.374   1.191  0.00  0.00    -0.268 OA
ENDBRANCH   1   7
BRANCH   2  14
ATOM     14  C   UNL d   1      -1.149   5.165   2.218  0.00  0.00     0.417 C 
ATOM     15  F   UNL d   1      -1.810   4.364   3.099  0.00  0.00    -0.166 F 
ATOM     16  F   UNL d   1      -0.234   5.852   2.959  0.00  0.00    -0.166 F 
ATOM     17  F   UNL d   1      -2.056   6.089   1.797  0.00  0.00    -0.166 F 
ENDBRANCH   2  14
TORSDOF 2
