REMARK  3 active torsions:
REMARK  status: ('A' for Active; 'I' for Inactive)
REMARK    1  A    between atoms: C_2  and  C_1 
REMARK       I    between atoms: N_6  and  C_2 
REMARK    2  A    between atoms: S_4  and  C_3 
REMARK    3  A    between atoms: C_7  and  S_4 
ROOT
ATOM      1  C   UNL d   1       1.371  -0.143  -0.011  0.00  0.00     0.048 A 
ATOM      2  C   UNL d   1       0.621  -1.337   0.014  0.00  0.00     0.021 A 
ATOM      3  C   UNL d   1       0.702   1.097  -0.031  0.00  0.00     0.018 A 
ATOM      4  C   UNL d   1      -0.784  -1.247   0.021  0.00  0.00     0.020 A 
ATOM      5  C   UNL d   1      -0.690   1.164  -0.006  0.00  0.00     0.001 A 
ATOM      6  C   UNL d   1      -1.433  -0.009   0.014  0.00  0.00     0.001 A 
ENDROOT
BRANCH   2   7
ATOM      7  S   UNL d   1       1.305  -2.991   0.134  0.00  0.00    -0.090 SA
BRANCH   7   8
ATOM      8  C   UNL d   1       1.270  -3.548  -1.559  0.00  0.00     0.005 A 
ATOM      9  C   UNL d   1       2.164  -3.035  -2.502  0.00  0.00     0.019 A 
ATOM     10  C   UNL d   1       2.171  -3.527  -3.810  0.00  0.00     0.001 A 
ATOM     11  C   UNL d   1       1.289  -4.540  -4.181  0.00  0.00     0.000 A 
ATOM     12  C   UNL d   1       0.403  -5.068  -3.243  0.00  0.00     0.001 A 
ATOM     13  C   UNL d   1       0.397  -4.577  -1.935  0.00  0.00     0.019 A 
ENDBRANCH   7   8
ENDBRANCH   2   7
BRANCH   1  14
ATOM     14  C   UNL d   1       2.859  -0.046  -0.019  0.00  0.00     0.250 C 
ATOM     15  O   UNL d   1       3.433   0.892  -0.557  0.00  0.00    -0.268 OA
ATOM     16  N   UNL d   1       3.574  -1.002   0.638  0.00  0.00    -0.366 N 
ATOM     17  H   UNL d   1       3.143  -1.812   1.065  0.00  0.00     0.159 HD
ATOM     18  H   UNL d   1       4.581  -0.920   0.644  0.00  0.00     0.159 HD
ENDBRANCH   1  14
TORSDOF 3
