REMARK  2 active torsions:
REMARK  status: ('A' for Active; 'I' for Inactive)
REMARK       I    between atoms: C_5  and  N_1 
REMARK    1  A    between atoms: C_10  and  C_3 
REMARK    2  A    between atoms: O_18  and  C_15 
ROOT
ATOM      1  N   UNL d   1      -2.556   0.191  -0.296  0.00  0.00    -0.339 N 
ATOM      2  C   UNL d   1      -0.201   0.778  -0.018  0.00  0.00    -0.017 A 
ATOM      3  C   UNL d   1      -1.627   1.256   0.138  0.00  0.00     0.154 C 
ATOM      4  C   UNL d   1       0.129  -0.556  -0.187  0.00  0.00    -0.007 A 
ATOM      5  C   UNL d   1      -3.604   0.564  -1.118  0.00  0.00     0.216 C 
ATOM      6  C   UNL d   1      -2.255  -1.176   0.173  0.00  0.00     0.132 C 
ATOM      7  S   UNL d   1       1.803  -0.824  -0.285  0.00  0.00    -0.106 SA
ATOM      8  C   UNL d   1      -0.871  -1.663  -0.288  0.00  0.00     0.067 C 
ATOM      9  C   UNL d   1       0.979   1.596  -0.014  0.00  0.00     0.018 A 
ATOM     10  C   UNL d   1       2.130   0.850  -0.130  0.00  0.00     0.051 A 
ATOM     11  O   UNL d   1      -3.783   1.738  -1.460  0.00  0.00    -0.274 OA
ATOM     12  C   UNL d   1      -4.539  -0.489  -1.665  0.00  0.00     0.117 C 
ENDROOT
BRANCH   3  13
ATOM     13  C   UNL d   1      -1.824   1.661   1.600  0.00  0.00    -0.031 A 
ATOM     14  C   UNL d   1      -2.697   2.716   1.901  0.00  0.00     0.012 A 
ATOM     15  C   UNL d   1      -2.887   3.156   3.220  0.00  0.00     0.037 A 
ATOM     16  C   UNL d   1      -2.209   2.536   4.272  0.00  0.00     0.068 A 
ATOM     17  C   UNL d   1      -1.368   1.464   3.994  0.00  0.00     0.037 A 
ATOM     18  C   UNL d   1      -1.180   1.021   2.684  0.00  0.00     0.012 A 
BRANCH  16  19
ATOM     19  O   UNL d   1      -2.283   2.871   5.594  0.00  0.00    -0.356 OA
ATOM     20  C   UNL d   1      -3.089   3.989   5.935  0.00  0.00     0.210 C 
ENDBRANCH  16  19
ENDBRANCH   3  13
TORSDOF 2
