REMARK  4 active torsions:
REMARK  status: ('A' for Active; 'I' for Inactive)
REMARK    1  A    between atoms: N_12  and  C_3 
REMARK    2  A    between atoms: C_4  and  C_8 
REMARK    3  A    between atoms: O_6  and  C_5 
REMARK    4  A    between atoms: C_8  and  O_6 
ROOT
ATOM      1  N   UNL d   1      -0.231   0.601   1.226  0.00  0.00    -0.349 N 
ATOM      2  HN  UNL d   1      -0.286   1.447   1.793  1.00  0.00     0.167 HD
ATOM      3  C   UNL d   1       0.938  -0.052   1.065  0.00  0.00     0.112 A 
ATOM      4  C   UNL d   1       1.069  -1.232   0.319  0.00  0.00     0.107 A 
ATOM      5  C   UNL d   1      -1.328   0.100   0.614  0.00  0.00     0.006 A 
ATOM      6  C   UNL d   1      -0.070  -1.724  -0.314  0.00  0.00     0.042 A 
ATOM      7  C   UNL d   1      -1.286  -1.053  -0.163  0.00  0.00     0.027 A 
ATOM      8  C   UNL d   1      -2.619   0.837   0.809  0.00  0.00     0.068 C 
ENDROOT
BRANCH   4   9
ATOM      9  O   UNL d   1       2.328  -1.768   0.198  0.00  0.00    -0.343 OA
BRANCH   9  10
ATOM     10  C   UNL d   1       2.399  -3.187   0.062  0.00  0.00     0.215 C 
BRANCH  10  11
ATOM     11  C   UNL d   1       3.854  -3.611  -0.035  0.00  0.00    -0.028 A 
ATOM     12  C   UNL d   1       4.639  -3.975   1.078  0.00  0.00    -0.054 A 
ATOM     13  C   UNL d   1       5.966  -4.400   0.872  0.00  0.00     0.008 A 
ATOM     14  C   UNL d   1       4.139  -3.977   2.497  0.00  0.00     0.049 C 
ATOM     15  C   UNL d   1       6.524  -4.441  -0.404  0.00  0.00     0.007 A 
ATOM     16  C   UNL d   1       5.771  -4.049  -1.510  0.00  0.00    -0.061 A 
ATOM     17  C   UNL d   1       4.448  -3.632  -1.316  0.00  0.00     0.016 A 
ATOM     18  C   UNL d   1       6.383  -4.090  -2.879  0.00  0.00     0.048 C 
ENDBRANCH  10  11
ENDBRANCH   9  10
ENDBRANCH   4   9
BRANCH   3  19
ATOM     19  N   UNL d   1       2.026   0.488   1.755  0.00  0.00    -0.286 NA
ATOM     20  H   UNL d   1       1.737   1.390   2.119  0.00  0.00     0.125 HD
ATOM     21  H   UNL d   1       2.841   0.528   1.152  0.00  0.00     0.125 HD
ENDBRANCH   3  19
TORSDOF 4
