REMARK  5 active torsions:
REMARK  status: ('A' for Active; 'I' for Inactive)
REMARK    1  A    between atoms: C_2  and  C_1 
REMARK       I    between atoms: N_12  and  C_2 
REMARK    2  A    between atoms: S_17  and  C_5 
REMARK    3  A    between atoms: S_18  and  C_6 
REMARK    4  A    between atoms: C_9  and  C_15 
REMARK    5  A    between atoms: C_19  and  N_12 
ROOT
ATOM      1  C   UNL d   1      -2.403  -1.431   0.510  0.00  0.00     0.260 C 
ATOM      2  N   UNL d   1      -3.702  -0.962   0.417  0.00  0.00    -0.323 N 
ATOM      3  O   UNL d   1      -1.392  -0.740   0.424  0.00  0.00    -0.267 OA
ATOM      4  H   UNL d   1      -4.441  -1.646   0.311  0.00  0.00     0.169 HD
ENDROOT
BRANCH   2   5
ATOM      5  C   UNL d   1      -4.084   0.399   0.357  0.00  0.00     0.035 A 
ATOM      6  C   UNL d   1      -5.358   0.710  -0.133  0.00  0.00     0.030 A 
ATOM      7  C   UNL d   1      -5.777   2.044  -0.230  0.00  0.00     0.016 A 
ATOM      8  C   UNL d   1      -4.955   3.092   0.205  0.00  0.00    -0.008 A 
ATOM      9  C   UNL d   1      -3.693   2.775   0.717  0.00  0.00     0.016 A 
ATOM     10  C   UNL d   1      -3.260   1.442   0.784  0.00  0.00     0.030 A 
BRANCH   8  11
ATOM     11  C   UNL d   1      -5.424   4.470   0.112  0.00  0.00     0.063 A 
ATOM     12  N   UNL d   1      -6.296   4.867  -0.896  0.00  0.00    -0.292 N 
ATOM     13  N   UNL d   1      -6.612   6.148  -0.803  0.00  0.00    -0.061 NA
ATOM     14  HN  UNL d   1      -6.649   4.244  -1.623  1.00  0.00     0.183 HD
ATOM     15  S   UNL d   1      -5.892   6.901   0.504  0.00  0.00    -0.010 SA
ATOM     16  C   UNL d   1      -5.084   5.471   1.006  0.00  0.00     0.096 A 
ENDBRANCH   8  11
ENDBRANCH   2   5
BRANCH   1  17
ATOM     17  C   UNL d   1      -2.294  -2.873   0.652  0.00  0.00     0.091 A 
ATOM     18  C   UNL d   1      -1.692  -3.703  -0.284  0.00  0.00     0.076 A 
ATOM     19  S   UNL d   1      -1.651  -5.299   0.341  0.00  0.00    -0.006 SA
ATOM     20  N   UNL d   1      -2.427  -4.956   1.755  0.00  0.00    -0.319 N 
ATOM     21  C   UNL d   1      -2.679  -3.651   1.798  0.00  0.00     0.093 A 
ATOM     22  HN  UNL d   1      -2.673  -5.633   2.477  1.00  0.00     0.175 HD
BRANCH  18  23
ATOM     23  S   UNL d   1      -1.011  -3.345  -1.861  0.00  0.00    -0.125 SA
ATOM     24  C   UNL d   1      -2.472  -2.789  -2.766  0.00  0.00     0.096 C 
ENDBRANCH  18  23
BRANCH  21  25
ATOM     25  S   UNL d   1      -3.476  -2.975   3.220  0.00  0.00    -0.115 SA
ATOM     26  C   UNL d   1      -3.193  -4.266   4.459  0.00  0.00     0.097 C 
ENDBRANCH  21  25
ENDBRANCH   1  17
TORSDOF 5
