REMARK  2 active torsions:
REMARK  status: ('A' for Active; 'I' for Inactive)
REMARK    1  A    between atoms: C_6  and  C_3 
REMARK    2  A    between atoms: O_10  and  N_8 
ROOT
ATOM      1  N   UNL d   1      -1.029  -1.581  -0.020  0.00  0.00    -0.348 N 
ATOM      2  HN  UNL d   1      -1.072  -2.600  -0.018  1.00  0.00     0.166 HD
ATOM      3  C   UNL d   1      -2.070  -0.775  -0.032  0.00  0.00     0.092 A 
ATOM      4  S   UNL d   1      -1.730   0.901  -0.025  0.00  0.00    -0.069 SA
ATOM      5  C   UNL d   1       0.136  -0.828  -0.011  0.00  0.00     0.050 A 
ATOM      6  C   UNL d   1      -0.045   0.557  -0.013  0.00  0.00     0.033 A 
ATOM      7  C   UNL d   1       1.452  -1.335  -0.001  0.00  0.00     0.031 A 
ATOM      8  C   UNL d   1       1.037   1.452  -0.008  0.00  0.00     0.021 A 
ATOM      9  C   UNL d   1       2.538  -0.453   0.002  0.00  0.00     0.002 A 
ATOM     10  C   UNL d   1       2.330   0.923  -0.002  0.00  0.00     0.002 A 
ENDROOT
BRANCH   3  11
ATOM     11  C   UNL d   1      -3.423  -1.276  -0.053  0.00  0.00     0.151 C 
ATOM     12  N   UNL d   1      -4.456  -0.490  -0.069  0.00  0.00    -0.276 N 
ATOM     13  HN  UNL d   1      -4.420   0.530  -0.065  1.00  0.00     0.193 HD
BRANCH  12  14
ATOM     14  O   UNL d   1      -5.628  -1.258  -0.093  0.00  0.00    -0.286 OA
ATOM     15  C   UNL d   1      -6.738  -0.365  -0.112  0.00  0.00     0.237 C 
ENDBRANCH  12  14
ENDBRANCH   3  11
TORSDOF 2
