REMARK  3 active torsions:
REMARK  status: ('A' for Active; 'I' for Inactive)
REMARK    1  A    between atoms: N_3  and  S_1 
REMARK    2  A    between atoms: C_13  and  S_1 
REMARK    3  A    between atoms: C_2  and  N_8 
ROOT
ATOM      1  N   UNL d   1       0.880  -0.572  -0.907  0.00  0.00    -0.303 N 
ATOM      2  N   UNL d   1       2.779  -1.670  -2.903  0.00  0.00     0.105 N 
ATOM      3  C   UNL d   1       1.010  -2.032  -1.099  0.00  0.00     0.165 C 
ATOM      4  C   UNL d   1       1.165   0.197  -2.135  0.00  0.00     0.165 C 
ATOM      5  C   UNL d   1       2.409  -2.355  -1.645  0.00  0.00     0.294 C 
ATOM      6  C   UNL d   1       2.498  -0.226  -2.804  0.00  0.00     0.294 C 
ENDROOT
BRANCH   2   7
ATOM      7  C   UNL d   1       2.405  -2.329  -4.175  0.00  0.00     0.290 C 
ATOM      8  C   UNL d   1       0.924  -2.294  -4.539  0.00  0.00    -0.009 C 
ATOM      9  C   UNL d   1       0.360  -3.582  -4.410  0.00  0.00    -0.017 C 
ATOM     10  C   UNL d   1       0.154  -1.216  -4.949  0.00  0.00     0.010 C 
ATOM     11  C   UNL d   1      -1.010  -3.754  -4.505  0.00  0.00     0.013 C 
ATOM     12  C   UNL d   1       1.423  -4.536  -4.174  0.00  0.00    -0.017 A 
ATOM     13  C   UNL d   1      -1.806  -2.638  -4.783  0.00  0.00     0.001 C 
ATOM     14  C   UNL d   1      -1.227  -1.387  -5.037  0.00  0.00     0.001 C 
ATOM     15  C   UNL d   1       2.653  -3.842  -4.112  0.00  0.00    -0.009 A 
ATOM     16  C   UNL d   1       1.385  -5.908  -3.998  0.00  0.00     0.013 A 
ATOM     17  C   UNL d   1       3.851  -4.506  -3.881  0.00  0.00     0.010 A 
ATOM     18  C   UNL d   1       3.806  -5.887  -3.681  0.00  0.00     0.001 A 
ATOM     19  C   UNL d   1       2.585  -6.580  -3.738  0.00  0.00     0.001 A 
ENDBRANCH   2   7
BRANCH   1  20
ATOM     20  S   UNL d   1       1.260   0.076   0.595  0.00  0.00     0.260 S 
ATOM     21  O   UNL d   1       1.539   1.487   0.450  0.00  0.00    -0.200 OA
ATOM     22  O   UNL d   1       2.187  -0.811   1.272  0.00  0.00    -0.200 OA
BRANCH  20  23
ATOM     23  C   UNL d   1      -0.320  -0.063   1.407  0.00  0.00     0.079 A 
ATOM     24  C   UNL d   1      -0.613  -1.188   2.185  0.00  0.00     0.025 A 
ATOM     25  C   UNL d   1      -1.865  -1.291   2.792  0.00  0.00     0.002 A 
ATOM     26  C   UNL d   1      -2.808  -0.273   2.633  0.00  0.00     0.000 A 
ATOM     27  C   UNL d   1      -2.500   0.859   1.877  0.00  0.00     0.002 A 
ATOM     28  C   UNL d   1      -1.254   0.969   1.264  0.00  0.00     0.025 A 
ENDBRANCH  20  23
ENDBRANCH   1  20
TORSDOF 3
