REMARK  5 active torsions:
REMARK  status: ('A' for Active; 'I' for Inactive)
REMARK    1  A    between atoms: C_7  and  C_1 
REMARK    2  A    between atoms: C_2  and  C_5 
REMARK    3  A    between atoms: C_3  and  C_6 
REMARK    4  A    between atoms: C_16  and  C_9 
REMARK    5  A    between atoms: C_15  and  N_12 
ROOT
ATOM      1  C   UNL d   1      -1.012  -6.767   0.650  0.00  0.00     0.050 A 
ATOM      2  C   UNL d   1       0.949  -7.183  -0.739  0.00  0.00     0.050 A 
ATOM      3  C   UNL d   1      -0.185  -7.652  -0.055  0.00  0.00     0.032 A 
ATOM      4  C   UNL d   1       0.404  -4.900  -0.043  0.00  0.00     0.033 A 
ATOM      5  C   UNL d   1       1.222  -5.804  -0.728  0.00  0.00     0.045 A 
ATOM      6  C   UNL d   1      -0.698  -5.399   0.659  0.00  0.00     0.045 A 
ENDROOT
BRANCH   4   7
ATOM      7  N   UNL d   1       0.787  -3.549  -0.032  0.00  0.00    -0.365 N 
ATOM      8  C   UNL d   1      -0.119  -2.624  -0.030  0.00  0.00     0.107 C 
ATOM      9  HN  UNL d   1       1.775  -3.297  -0.025  1.00  0.00     0.165 HD
BRANCH   8  10
ATOM     10  C   UNL d   1       0.255  -1.231  -0.009  0.00  0.00     0.021 A 
ATOM     11  S   UNL d   1      -0.964  -0.040   0.089  0.00  0.00    -0.088 SA
ATOM     12  C   UNL d   1       0.169   1.249   0.002  0.00  0.00     0.022 A 
ATOM     13  C   UNL d   1       1.461   0.756  -0.060  0.00  0.00     0.021 A 
ATOM     14  C   UNL d   1       1.510  -0.670  -0.062  0.00  0.00     0.021 A 
BRANCH  12  15
ATOM     15  C   UNL d   1      -0.258   2.630  -0.022  0.00  0.00     0.021 A 
ATOM     16  S   UNL d   1       0.673   3.838  -0.819  0.00  0.00    -0.101 SA
ATOM     17  C   UNL d   1      -0.460   5.061  -0.455  0.00  0.00     0.050 A 
ATOM     18  C   UNL d   1      -1.522   4.580   0.276  0.00  0.00     0.008 A 
ATOM     19  C   UNL d   1      -1.404   3.180   0.526  0.00  0.00     0.021 A 
ENDBRANCH  12  15
ENDBRANCH   8  10
ENDBRANCH   4   7
BRANCH   2  20
ATOM     20  C   UNL d   1       1.883  -8.133  -1.447  0.00  0.00     0.417 C 
ATOM     21  F   UNL d   1       1.505  -9.438  -1.342  0.00  0.00    -0.166 F 
ATOM     22  F   UNL d   1       1.979  -7.879  -2.780  0.00  0.00    -0.166 F 
ATOM     23  F   UNL d   1       3.153  -8.076  -0.959  0.00  0.00    -0.166 F 
ENDBRANCH   2  20
BRANCH   1  24
ATOM     24  C   UNL d   1      -2.215  -7.256   1.418  0.00  0.00     0.417 C 
ATOM     25  F   UNL d   1      -2.397  -8.601   1.350  0.00  0.00    -0.166 F 
ATOM     26  F   UNL d   1      -2.141  -6.954   2.743  0.00  0.00    -0.166 F 
ATOM     27  F   UNL d   1      -3.374  -6.695   0.974  0.00  0.00    -0.166 F 
ENDBRANCH   1  24
TORSDOF 5
