REMARK  3 active torsions:
REMARK  status: ('A' for Active; 'I' for Inactive)
REMARK    1  A    between atoms: C_3  and  C_1 
REMARK    2  A    between atoms: C_2  and  C_8 
REMARK    3  A    between atoms: C_15  and  C_4 
ROOT
ATOM      1  C   UNL d   1       1.207  -1.104  -1.690  0.00  0.00     0.062 C 
ATOM      2  C   UNL d   1       0.381  -0.921  -0.625  0.00  0.00     0.035 C 
ATOM      3  C   UNL d   1       0.662  -1.311  -3.053  0.00  0.00     0.101 C 
ATOM      4  N   UNL d   1       0.223  -1.471  -4.116  0.00  0.00    -0.191 NA
ENDROOT
BRANCH   1   5
ATOM      5  C   UNL d   1       2.643  -1.076  -1.426  0.00  0.00     0.025 A 
ATOM      6  S   UNL d   1       3.741  -0.580  -2.668  0.00  0.00    -0.101 SA
ATOM      7  C   UNL d   1       5.113  -0.803  -1.681  0.00  0.00     0.050 A 
ATOM      8  C   UNL d   1       4.779  -1.246  -0.425  0.00  0.00     0.008 A 
ATOM      9  C   UNL d   1       3.366  -1.401  -0.276  0.00  0.00     0.021 A 
ENDBRANCH   1   5
BRANCH   2  10
ATOM     10  C   UNL d   1      -1.085  -0.949  -0.718  0.00  0.00    -0.035 A 
ATOM     11  C   UNL d   1      -1.771  -2.154  -0.533  0.00  0.00     0.012 A 
ATOM     12  C   UNL d   1      -3.167  -2.191  -0.605  0.00  0.00     0.017 A 
ATOM     13  C   UNL d   1      -3.901  -1.025  -0.864  0.00  0.00     0.048 A 
ATOM     14  C   UNL d   1      -3.205   0.178  -1.065  0.00  0.00     0.017 A 
ATOM     15  C   UNL d   1      -1.808   0.216  -0.993  0.00  0.00     0.012 A 
BRANCH  13  16
ATOM     16  C   UNL d   1      -5.411  -1.046  -0.915  0.00  0.00     0.417 C 
ATOM     17  F   UNL d   1      -5.946  -2.283  -0.716  0.00  0.00    -0.166 F 
ATOM     18  F   UNL d   1      -5.971  -0.243   0.033  0.00  0.00    -0.166 F 
ATOM     19  F   UNL d   1      -5.904  -0.613  -2.108  0.00  0.00    -0.166 F 
ENDBRANCH  13  16
ENDBRANCH   2  10
TORSDOF 3
