REMARK  5 active torsions:
REMARK  status: ('A' for Active; 'I' for Inactive)
REMARK    1  A    between atoms: C_6  and  N_1 
REMARK    2  A    between atoms: C_9  and  C_6 
REMARK    3  A    between atoms: N_7  and  C_11 
REMARK    4  A    between atoms: C_8  and  C_9 
REMARK       I    between atoms: N_12  and  C_8 
REMARK    5  A    between atoms: C_19  and  N_12 
ROOT
ATOM      1  C   UNL d   1       3.991  -3.811   0.029  0.00  0.00     0.223 C 
ATOM      2  N   UNL d   1       3.169  -4.925   0.018  0.00  0.00    -0.327 N 
ATOM      3  O   UNL d   1       3.631  -2.638   0.085  0.00  0.00    -0.273 OA
ATOM      4  H   UNL d   1       3.611  -5.806   0.270  0.00  0.00     0.169 HD
ENDROOT
BRANCH   1   5
ATOM      5  C   UNL d   1       5.465  -4.147  -0.059  0.00  0.00     0.123 C 
BRANCH   5   6
ATOM      6  C   UNL d   1       6.256  -3.522   1.089  0.00  0.00     0.144 C 
BRANCH   6   7
ATOM      7  N   UNL d   1       6.115  -4.130   2.405  0.00  0.00    -0.290 N 
ATOM      8  C   UNL d   1       5.620  -5.378   2.734  0.00  0.00     0.372 A 
ATOM      9  O   UNL d   1       5.808  -5.659   4.096  0.00  0.00    -0.259 OA
ATOM     10  O   UNL d   1       5.088  -6.174   1.969  0.00  0.00    -0.237 OA
ATOM     11  C   UNL d   1       6.476  -4.532   4.546  0.00  0.00     0.107 A 
ATOM     12  C   UNL d   1       6.674  -3.596   3.553  0.00  0.00     0.073 A 
ATOM     13  C   UNL d   1       6.935  -4.341   5.833  0.00  0.00     0.040 A 
ATOM     14  C   UNL d   1       7.339  -2.409   3.792  0.00  0.00     0.039 A 
ATOM     15  C   UNL d   1       7.816  -2.176   5.095  0.00  0.00    -0.060 A 
ATOM     16  C   UNL d   1       7.611  -3.146   6.104  0.00  0.00     0.009 A 
ATOM     17  C   UNL d   1       8.560  -0.915   5.430  0.00  0.00     0.048 C 
ENDBRANCH   6   7
ENDBRANCH   5   6
ENDBRANCH   1   5
BRANCH   2  18
ATOM     18  C   UNL d   1       1.757  -4.905   0.050  0.00  0.00     0.034 A 
ATOM     19  C   UNL d   1       0.998  -3.784  -0.277  0.00  0.00     0.032 A 
ATOM     20  C   UNL d   1      -0.387  -3.778  -0.068  0.00  0.00     0.031 A 
ATOM     21  C   UNL d   1      -1.048  -4.878   0.489  0.00  0.00     0.030 A 
ATOM     22  C   UNL d   1      -0.290  -6.035   0.702  0.00  0.00     0.031 A 
ATOM     23  C   UNL d   1       1.093  -6.060   0.468  0.00  0.00     0.032 A 
BRANCH  21  24
ATOM     24  N   UNL d   1      -2.359  -4.763   0.896  0.00  0.00    -0.377 N 
ATOM     25  C   UNL d   1      -2.849  -5.439   2.102  0.00  0.00     0.149 C 
ATOM     26  C   UNL d   1      -3.878  -4.525   2.794  0.00  0.00     0.187 C 
ATOM     27  O   UNL d   1      -4.949  -4.164   1.903  0.00  0.00    -0.388 OA
ATOM     28  C   UNL d   1      -4.429  -3.463   0.757  0.00  0.00     0.187 C 
ATOM     29  C   UNL d   1      -3.413  -4.318  -0.021  0.00  0.00     0.149 C 
ENDBRANCH  21  24
ENDBRANCH   2  18
TORSDOF 5
