REMARK  6 active torsions:
REMARK  status: ('A' for Active; 'I' for Inactive)
REMARK    1  A    between atoms: C_2  and  C_1 
REMARK       I    between atoms: N_5  and  C_2 
REMARK    2  A    between atoms: O_8  and  C_3 
REMARK    3  A    between atoms: C_4  and  C_10 
REMARK    4  A    between atoms: C_14  and  N_5 
REMARK    5  A    between atoms: C_10  and  O_8 
REMARK    6  A    between atoms: C_16  and  C_14 
ROOT
ATOM      1  C   UNL d   1       0.729   1.298  -0.011  0.00  0.00     0.083 A 
ATOM      2  C   UNL d   1      -0.605   0.932   0.058  0.00  0.00     0.158 A 
ATOM      3  N   UNL d   1      -1.012  -0.359   0.154  0.00  0.00    -0.346 N 
ATOM      4  HN  UNL d   1      -2.003  -0.597   0.206  1.00  0.00     0.167 HD
ATOM      5  C   UNL d   1       1.689   0.274   0.023  0.00  0.00     0.023 A 
ATOM      6  C   UNL d   1      -0.061  -1.320   0.178  0.00  0.00     0.090 A 
ATOM      7  C   UNL d   1       1.293  -1.055   0.119  0.00  0.00     0.018 A 
ENDROOT
BRANCH   1   8
ATOM      8  C   UNL d   1       1.236   2.665  -0.223  0.00  0.00     0.256 C 
ATOM      9  N   UNL d   1       0.752   3.722   0.544  0.00  0.00    -0.352 N 
ATOM     10  H   UNL d   1       0.120   3.528   1.311  0.00  0.00     0.163 HD
ATOM     11  O   UNL d   1       2.172   2.809  -1.012  0.00  0.00    -0.268 OA
BRANCH   9  12
ATOM     12  C   UNL d   1       1.630   4.874   0.613  0.00  0.00     0.161 C 
BRANCH  12  13
ATOM     13  C   UNL d   1       1.172   6.102   1.359  0.00  0.00    -0.040 A 
ATOM     14  C   UNL d   1       2.176   6.966   1.845  0.00  0.00     0.010 A 
ATOM     15  C   UNL d   1       1.861   8.188   2.440  0.00  0.00     0.024 A 
ATOM     16  C   UNL d   1       0.529   8.566   2.553  0.00  0.00     0.034 A 
ATOM     17  C   UNL d   1      -0.481   7.732   2.074  0.00  0.00     0.024 A 
ATOM     18 CL   UNL d   1       0.134  10.082   3.267  0.00  0.00    -0.084 Cl
ATOM     19  C   UNL d   1      -0.162   6.505   1.470  0.00  0.00     0.010 A 
ENDBRANCH  12  13
ENDBRANCH   9  12
ENDBRANCH   1   8
BRANCH   2  20
ATOM     20  O   UNL d   1      -1.583   1.897  -0.020  0.00  0.00    -0.326 OA
BRANCH  20  21
ATOM     21  C   UNL d   1      -2.917   1.382   0.169  0.00  0.00     0.294 C 
BRANCH  21  22
ATOM     22  C   UNL d   1      -3.237   1.023   1.618  0.00  0.00     0.408 C 
ATOM     23  F   UNL d   1      -2.400   1.641   2.486  0.00  0.00    -0.169 F 
ATOM     24  F   UNL d   1      -4.493   1.432   1.932  0.00  0.00    -0.169 F 
ATOM     25  F   UNL d   1      -3.187  -0.303   1.863  0.00  0.00    -0.169 F 
ENDBRANCH  21  22
ENDBRANCH  20  21
ENDBRANCH   2  20
TORSDOF 6
