REMARK  5 active torsions:
REMARK  status: ('A' for Active; 'I' for Inactive)
REMARK    1  A    between atoms: C_3  and  C_1 
REMARK    2  A    between atoms: C_9  and  C_4 
REMARK    3  A    between atoms: C_7  and  C_10 
REMARK    4  A    between atoms: O_13  and  C_7 
REMARK    5  A    between atoms: C_16  and  O_13 
ROOT
ATOM      1  C   UNL d   1       0.070  -2.627   0.510  0.00  0.00     0.025 C 
ATOM      2  C   UNL d   1       0.845  -3.608   0.019  0.00  0.00     0.084 C 
ENDROOT
BRANCH   1   3
ATOM      3  C   UNL d   1       0.413  -1.250   0.330  0.00  0.00     0.005 A 
ATOM      4  S   UNL d   1      -0.593  -0.032   1.025  0.00  0.00    -0.089 SA
ATOM      5  C   UNL d   1       0.361   1.257   0.414  0.00  0.00     0.022 A 
ATOM      6  C   UNL d   1       1.443   0.767  -0.289  0.00  0.00     0.021 A 
ATOM      7  C   UNL d   1       1.472  -0.657  -0.336  0.00  0.00     0.020 A 
BRANCH   5   8
ATOM      8  C   UNL d   1       0.012   2.644   0.636  0.00  0.00     0.021 A 
ATOM      9  S   UNL d   1       0.457   3.868  -0.490  0.00  0.00    -0.101 SA
ATOM     10  C   UNL d   1      -0.285   5.098   0.433  0.00  0.00     0.050 A 
ATOM     11  C   UNL d   1      -0.856   4.604   1.581  0.00  0.00     0.008 A 
ATOM     12  C   UNL d   1      -0.686   3.191   1.698  0.00  0.00     0.021 A 
ENDBRANCH   5   8
ENDBRANCH   1   3
BRANCH   2  13
ATOM     13  C   UNL d   1       0.611  -5.062   0.151  0.00  0.00     0.288 C 
ATOM     14  O   UNL d   1       1.417  -5.860  -0.305  0.00  0.00    -0.260 OA
BRANCH  13  15
ATOM     15  O   UNL d   1      -0.564  -5.340   0.832  0.00  0.00    -0.276 OA
BRANCH  15  16
ATOM     16  C   UNL d   1      -1.019  -6.647   1.141  0.00  0.00     0.079 A 
ATOM     17  C   UNL d   1      -2.079  -6.703   2.052  0.00  0.00     0.039 A 
ATOM     18  C   UNL d   1      -2.605  -7.940   2.434  0.00  0.00     0.026 A 
ATOM     19  C   UNL d   1      -2.072  -9.113   1.902  0.00  0.00     0.034 A 
ATOM     20  C   UNL d   1      -1.024  -9.058   0.985  0.00  0.00     0.026 A 
ATOM     21 CL   UNL d   1      -2.711 -10.637   2.378  0.00  0.00    -0.084 Cl
ATOM     22  C   UNL d   1      -0.499  -7.821   0.597  0.00  0.00     0.039 A 
ENDBRANCH  15  16
ENDBRANCH  13  15
ENDBRANCH   2  13
TORSDOF 5
