REMARK  7 active torsions:
REMARK  status: ('A' for Active; 'I' for Inactive)
REMARK    1  A    between atoms: C_9  and  C_1 
REMARK    2  A    between atoms: C_8  and  C_2 
REMARK    3  A    between atoms: C_3  and  C_8 
REMARK    4  A    between atoms: C_13  and  C_5 
REMARK    5  A    between atoms: N_11  and  C_7 
REMARK    6  A    between atoms: S_15  and  C_7 
REMARK    7  A    between atoms: C_19  and  N_11 
ROOT
ATOM      1  C   UNL d   1      -1.635  -3.190  -0.105  0.00  0.00     0.129 C 
ATOM      2  C   UNL d   1      -1.990  -4.436   0.337  0.00  0.00     0.095 C 
ATOM      3  C   UNL d   1      -2.616  -2.361  -0.733  0.00  0.00     0.106 C 
ATOM      4  N   UNL d   1      -3.393  -1.667  -1.242  0.00  0.00    -0.191 NA
ENDROOT
BRANCH   1   5
ATOM      5  C   UNL d   1      -0.217  -2.662  -0.177  0.00  0.00     0.212 C 
ATOM      6  O   UNL d   1       0.705  -3.446  -0.401  0.00  0.00    -0.285 OA
BRANCH   5   7
ATOM      7  C   UNL d   1       0.080  -1.225  -0.133  0.00  0.00     0.058 A 
ATOM      8  S   UNL d   1      -0.845  -0.051   0.673  0.00  0.00    -0.081 SA
ATOM      9  C   UNL d   1       0.208   1.246   0.216  0.00  0.00     0.100 A 
ATOM     10  C   UNL d   1       1.302   0.774  -0.501  0.00  0.00    -0.003 A 
ATOM     11  C   UNL d   1       1.208  -0.648  -0.685  0.00  0.00     0.036 A 
BRANCH   9  12
ATOM     12  C   UNL d   1      -0.147   2.639   0.646  0.00  0.00     0.424 C 
ATOM     13  F   UNL d   1      -1.167   2.684   1.545  0.00  0.00    -0.166 F 
ATOM     14  F   UNL d   1       0.899   3.279   1.232  0.00  0.00    -0.166 F 
ATOM     15  F   UNL d   1      -0.541   3.407  -0.405  0.00  0.00    -0.166 F 
ENDBRANCH   9  12
BRANCH  10  16
ATOM     16  C   UNL d   1       2.435   1.584  -0.972  0.00  0.00    -0.025 A 
ATOM     17  C   UNL d   1       3.732   1.048  -0.890  0.00  0.00     0.012 A 
ATOM     18  C   UNL d   1       4.840   1.757  -1.367  0.00  0.00     0.001 A 
ATOM     19  C   UNL d   1       4.668   3.019  -1.920  0.00  0.00     0.000 A 
ATOM     20  C   UNL d   1       3.391   3.564  -2.015  0.00  0.00     0.001 A 
ATOM     21  C   UNL d   1       2.278   2.845  -1.559  0.00  0.00     0.012 A 
ENDBRANCH  10  16
ENDBRANCH   5   7
ENDBRANCH   1   5
BRANCH   2  22
ATOM     22  N   UNL d   1      -3.284  -4.937   0.172  0.00  0.00    -0.349 N 
ATOM     23  H   UNL d   1      -3.309  -5.951   0.106  0.00  0.00     0.166 HD
BRANCH  22  24
ATOM     24  C   UNL d   1      -4.476  -4.414   0.715  0.00  0.00     0.033 A 
ATOM     25  C   UNL d   1      -5.684  -4.712   0.066  0.00  0.00     0.031 A 
ATOM     26  C   UNL d   1      -6.888  -4.156   0.504  0.00  0.00     0.026 A 
ATOM     27  C   UNL d   1      -6.895  -3.315   1.612  0.00  0.00     0.034 A 
ATOM     28  C   UNL d   1      -5.711  -3.037   2.291  0.00  0.00     0.026 A 
ATOM     29 CL   UNL d   1      -8.372  -2.608   2.141  0.00  0.00    -0.084 Cl
ATOM     30  C   UNL d   1      -4.504  -3.583   1.841  0.00  0.00     0.031 A 
ENDBRANCH  22  24
ENDBRANCH   2  22
BRANCH   2  31
ATOM     31  S   UNL d   1      -0.759  -5.549   0.965  0.00  0.00    -0.115 SA
ATOM     32  C   UNL d   1      -1.660  -6.512   2.196  0.00  0.00     0.097 C 
ENDBRANCH   2  31
TORSDOF 7
