REMARK  2 active torsions:
REMARK  status: ('A' for Active; 'I' for Inactive)
REMARK    1  A    between atoms: C_12  and  C_6 
REMARK    2  A    between atoms: N_14  and  C_13 
ROOT
ATOM      1  C   UNL d   1      -1.482  -0.771   0.170  0.00  0.00     0.129 A 
ATOM      2  C   UNL d   1      -0.913   0.472   0.015  0.00  0.00     0.040 A 
ATOM      3  C   UNL d   1       1.211  -0.612  -0.287  0.00  0.00     0.022 C 
ATOM      4  C   UNL d   1       0.514   0.537  -0.084  0.00  0.00    -0.030 C 
ATOM      5  N   UNL d   1      -0.830  -1.953   0.197  0.00  0.00    -0.362 N 
ATOM      6  C   UNL d   1       0.506  -1.963  -0.462  0.00  0.00     0.154 C 
ATOM      7  N   UNL d   1      -2.823  -0.577   0.270  0.00  0.00    -0.285 N 
ATOM      8  N   UNL d   1      -3.178   0.709   0.098  0.00  0.00    -0.303 N 
ATOM      9  HN  UNL d   1      -4.119   1.103   0.099  1.00  0.00     0.186 HD
ATOM     10  C   UNL d   1      -2.010   1.362  -0.075  0.00  0.00     0.036 A 
ATOM     11  C   UNL d   1       2.684  -0.517  -0.509  0.00  0.00     0.158 C 
ATOM     12  O   UNL d   1       3.345  -1.491  -0.865  0.00  0.00    -0.293 OA
ATOM     13  C   UNL d   1       1.140   1.890   0.100  0.00  0.00     0.041 C 
ATOM     14  C   UNL d   1       3.350   0.838  -0.421  0.00  0.00     0.084 C 
ATOM     15  C   UNL d   1       2.607   1.788   0.495  0.00  0.00     0.012 C 
ATOM     16  C   UNL d   1      -2.063   2.816  -0.370  0.00  0.00     0.070 C 
ATOM     17  H   UNL d   1      -1.321  -2.841   0.123  0.00  0.00     0.162 HD
ATOM     18  H   UNL d   1      -3.546  -1.266   0.418  0.00  0.00     0.188 HD
ENDROOT
BRANCH   6  19
ATOM     19  C   UNL d   1       1.238  -3.217  -0.025  0.00  0.00    -0.031 A 
ATOM     20  C   UNL d   1       1.667  -3.432   1.286  0.00  0.00     0.012 A 
ATOM     21  C   UNL d   1       2.401  -4.587   1.620  0.00  0.00     0.030 A 
ATOM     22  C   UNL d   1       2.720  -5.578   0.675  0.00  0.00     0.029 A 
ATOM     23  C   UNL d   1       2.232  -5.361  -0.622  0.00  0.00     0.030 A 
ATOM     24  C   UNL d   1       1.515  -4.211  -0.971  0.00  0.00     0.012 A 
BRANCH  22  25
ATOM     25  N   UNL d   1       3.422  -6.738   0.986  0.00  0.00    -0.390 N 
ATOM     26  C   UNL d   1       4.340  -7.323   0.006  0.00  0.00     0.149 C 
ATOM     27  C   UNL d   1       3.684  -7.133   2.365  0.00  0.00     0.149 C 
ENDBRANCH  22  25
ENDBRANCH   6  19
TORSDOF 2
