REMARK  4 active torsions:
REMARK  status: ('A' for Active; 'I' for Inactive)
REMARK       I    between atoms: C_2  and  N_7 
REMARK    1  A    between atoms: C_4  and  C_2 
REMARK    2  A    between atoms: C_5  and  C_6 
REMARK    3  A    between atoms: O_16  and  C_5 
REMARK    4  A    between atoms: N_7  and  C_9 
ROOT
ATOM      1  C   UNL d   1       1.728   3.375  -0.322  0.00  0.00     0.104 A 
ATOM      2  C   UNL d   1       0.479   4.000  -0.369  0.00  0.00     0.069 A 
ATOM      3  C   UNL d   1       2.877   4.106  -0.009  0.00  0.00     0.102 A 
ATOM      4  C   UNL d   1       0.362   5.353  -0.049  0.00  0.00     0.037 A 
ATOM      5  O   UNL d   1       1.750   2.025  -0.564  0.00  0.00    -0.346 OA
ATOM      6  O   UNL d   1       4.128   3.552   0.077  0.00  0.00    -0.346 OA
ATOM      7  C   UNL d   1       2.773   5.464   0.270  0.00  0.00     0.042 A 
ATOM      8  C   UNL d   1       1.520   6.085   0.253  0.00  0.00     0.032 A 
ATOM      9  C   UNL d   1       2.914   1.435   0.022  0.00  0.00     0.202 C 
ATOM     10  C   UNL d   1       4.158   2.201  -0.400  0.00  0.00     0.202 C 
ENDROOT
BRANCH   4  11
ATOM     11  N   UNL d   1      -0.872   6.031   0.057  0.00  0.00    -0.324 N 
ATOM     12  C   UNL d   1      -2.134   5.495  -0.097  0.00  0.00     0.245 C 
ATOM     13  O   UNL d   1      -2.448   4.370  -0.461  0.00  0.00    -0.268 OA
ATOM     14  H   UNL d   1      -0.816   7.003   0.328  0.00  0.00     0.169 HD
BRANCH  12  15
ATOM     15  C   UNL d   1      -3.173   6.457   0.352  0.00  0.00     0.081 C 
ATOM     16  C   UNL d   1      -4.311   6.705  -0.312  0.00  0.00     0.086 C 
BRANCH  16  17
ATOM     17  C   UNL d   1      -4.675   6.195  -1.638  0.00  0.00     0.165 C 
ATOM     18  O   UNL d   1      -5.823   6.014  -2.008  0.00  0.00    -0.647 OA
BRANCH  17  19
ATOM     19  O   UNL d   1      -3.632   6.085  -2.465  0.00  0.00    -0.773 OA
ATOM     20  H   UNL d   1      -4.011   5.703  -3.284  0.00  0.00     0.167 HD
ENDBRANCH  17  19
ENDBRANCH  16  17
ENDBRANCH  12  15
ENDBRANCH   4  11
TORSDOF 4
