REMARK  4 active torsions:
REMARK  status: ('A' for Active; 'I' for Inactive)
REMARK    1  A    between atoms: C_3  and  C_1 
REMARK    2  A    between atoms: C_16  and  N_2 
REMARK    3  A    between atoms: C_15  and  C_6 
REMARK    4  A    between atoms: C_18  and  C_11 
ROOT
ATOM      1  C   UNL d   1      -0.396  -2.739  -0.091  0.00  0.00     0.054 A 
ATOM      2  C   UNL d   1       0.012  -3.503   1.003  0.00  0.00     0.059 A 
ATOM      3  N   UNL d   1      -0.193  -4.850   1.045  0.00  0.00    -0.340 N 
ATOM      4  HN  UNL d   1       0.099  -5.394   1.857  1.00  0.00     0.167 HD
ATOM      5  C   UNL d   1      -0.787  -5.449  -0.005  0.00  0.00     0.116 A 
ATOM      6  N   UNL d   1      -1.210  -4.791  -1.093  0.00  0.00    -0.351 N 
ATOM      7  HN  UNL d   1      -1.676  -5.271  -1.862  1.00  0.00     0.166 HD
ATOM      8  C   UNL d   1      -0.987  -3.467  -1.116  0.00  0.00     0.107 A 
ENDROOT
BRANCH   1   9
ATOM      9  C   UNL d   1      -0.159  -1.309  -0.263  0.00  0.00     0.152 A 
ATOM     10  N   UNL d   1      -1.030  -0.370  -0.814  0.00  0.00    -0.224 N 
ATOM     11  N   UNL d   1      -0.335   0.764  -1.054  0.00  0.00     0.001 NA
ATOM     12  N   UNL d   1       0.863   0.576  -0.526  0.00  0.00    -0.007 NA
ATOM     13  N   UNL d   1       0.995  -0.697  -0.053  0.00  0.00    -0.269 N 
ATOM     14  HN  UNL d   1       1.826  -1.100   0.380  1.00  0.00     0.185 HD
BRANCH  10  15
ATOM     15  C   UNL d   1      -2.393  -0.486  -1.175  0.00  0.00     0.056 A 
ATOM     16  C   UNL d   1      -3.266  -1.318  -0.462  0.00  0.00     0.031 A 
ATOM     17  C   UNL d   1      -4.574  -1.499  -0.913  0.00  0.00     0.002 A 
ATOM     18  C   UNL d   1      -5.011  -0.851  -2.068  0.00  0.00     0.000 A 
ATOM     19  C   UNL d   1      -4.155   0.007  -2.756  0.00  0.00     0.002 A 
ATOM     20  C   UNL d   1      -2.852   0.211  -2.302  0.00  0.00     0.031 A 
ENDBRANCH  10  15
ENDBRANCH   1   9
BRANCH   2  21
ATOM     21  C   UNL d   1       0.749  -2.982   2.184  0.00  0.00    -0.005 A 
ATOM     22  C   UNL d   1       0.490  -1.727   2.762  0.00  0.00     0.056 A 
ATOM     23  C   UNL d   1       1.295  -1.231   3.784  0.00  0.00     0.117 A 
ATOM     24  F   UNL d   1       1.059  -0.000   4.263  0.00  0.00    -0.206 F 
ATOM     25  C   UNL d   1       2.340  -1.974   4.309  0.00  0.00     0.042 A 
ATOM     26  C   UNL d   1       2.573  -3.253   3.811  0.00  0.00     0.004 A 
ATOM     27  C   UNL d   1       1.787  -3.745   2.764  0.00  0.00     0.014 A 
ENDBRANCH   2  21
BRANCH   5  28
ATOM     28  C   UNL d   1      -0.928  -6.918  -0.001  0.00  0.00     0.008 A 
ATOM     29  C   UNL d   1      -1.532  -7.599  -1.079  0.00  0.00     0.015 A 
ATOM     30  C   UNL d   1      -1.635  -8.992  -1.104  0.00  0.00     0.001 A 
ATOM     31  C   UNL d   1      -1.137  -9.744  -0.044  0.00  0.00     0.000 A 
ATOM     32  C   UNL d   1      -0.541  -9.100   1.038  0.00  0.00     0.001 A 
ATOM     33  C   UNL d   1      -0.440  -7.706   1.058  0.00  0.00     0.015 A 
ENDBRANCH   5  28
TORSDOF 4
