REMARK  6 active torsions:
REMARK  status: ('A' for Active; 'I' for Inactive)
REMARK    1  A    between atoms: C_15  and  N_1 
REMARK    2  A    between atoms: N_14  and  N_2 
REMARK    3  A    between atoms: C_21  and  C_8 
REMARK    4  A    between atoms: C_10  and  S_18 
REMARK       I    between atoms: C_16  and  N_14 
REMARK    5  A    between atoms: C_23  and  C_16 
REMARK    6  A    between atoms: S_18  and  C_23 
ROOT
ATOM      1  N   UNL d   1       1.481   2.278   0.570  0.00  0.00    -0.264 N 
ATOM      2  C   UNL d   1       2.648   2.220   1.315  0.00  0.00     0.245 C 
ATOM      3  O   UNL d   1       3.121   1.171   1.755  0.00  0.00    -0.271 OA
ATOM      4  H   UNL d   1       1.128   3.138   0.154  0.00  0.00     0.190 HD
ENDROOT
BRANCH   1   5
ATOM      5  N   UNL d   1       0.767   1.091   0.319  0.00  0.00    -0.248 N 
ATOM      6  C   UNL d   1       0.216   0.888  -0.947  0.00  0.00     0.257 C 
ATOM      7  C   UNL d   1      -0.686  -0.360  -1.007  0.00  0.00     0.236 C 
ATOM      8  O   UNL d   1       0.327   1.683  -1.872  0.00  0.00    -0.270 OA
ATOM      9  N   UNL d   1      -0.260  -1.351  -0.014  0.00  0.00    -0.308 N 
ATOM     10  C   UNL d   1      -0.079  -0.940   1.317  0.00  0.00     0.244 C 
ATOM     11  C   UNL d   1       0.071   0.564   1.482  0.00  0.00     0.255 C 
ATOM     12  O   UNL d   1      -0.167  -1.680   2.296  0.00  0.00    -0.271 OA
BRANCH   9  13
ATOM     13  C   UNL d   1      -0.314  -2.739  -0.313  0.00  0.00     0.039 A 
ATOM     14  C   UNL d   1      -1.351  -3.296  -1.065  0.00  0.00     0.053 A 
ATOM     15  C   UNL d   1      -1.363  -4.672  -1.310  0.00  0.00     0.036 A 
ATOM     16 CL   UNL d   1      -2.678  -5.372  -2.173  0.00  0.00    -0.084 Cl
ATOM     17  C   UNL d   1      -0.330  -5.492  -0.855  0.00  0.00     0.024 A 
ATOM     18  C   UNL d   1       0.718  -4.936  -0.126  0.00  0.00     0.004 A 
ATOM     19  C   UNL d   1       0.714  -3.570   0.158  0.00  0.00     0.030 A 
ENDBRANCH   9  13
ENDBRANCH   1   5
BRANCH   2  20
ATOM     20  C   UNL d   1       3.330   3.549   1.554  0.00  0.00     0.187 C 
BRANCH  20  21
ATOM     21  S   UNL d   1       2.212   4.806   2.210  0.00  0.00    -0.075 SA
BRANCH  21  22
ATOM     22  C   UNL d   1       1.629   4.096   3.688  0.00  0.00     0.204 A 
ATOM     23  O   UNL d   1       2.039   2.898   4.213  0.00  0.00    -0.267 OA
ATOM     24  C   UNL d   1       1.244   2.789   5.330  0.00  0.00     0.175 A 
ATOM     25  N   UNL d   1       0.436   3.821   5.471  0.00  0.00    -0.277 N 
ATOM     26  N   UNL d   1       0.686   4.663   4.412  0.00  0.00    -0.272 N 
ATOM     27  HN  UNL d   1      -0.242   3.967   6.219  1.00  0.00     0.189 HD
ATOM     28  HN  UNL d   1       0.229   5.555   4.223  1.00  0.00     0.189 HD
BRANCH  24  29
ATOM     29  C   UNL d   1       1.383   1.605   6.171  0.00  0.00     0.017 A 
ATOM     30  C   UNL d   1       2.286   0.575   5.873  0.00  0.00     0.016 A 
ATOM     31  C   UNL d   1       2.398  -0.539   6.713  0.00  0.00     0.001 A 
ATOM     32  C   UNL d   1       1.609  -0.640   7.857  0.00  0.00     0.000 A 
ATOM     33  C   UNL d   1       0.699   0.369   8.162  0.00  0.00     0.001 A 
ATOM     34  C   UNL d   1       0.588   1.482   7.325  0.00  0.00     0.016 A 
ENDBRANCH  24  29
ENDBRANCH  21  22
ENDBRANCH  20  21
ENDBRANCH   2  20
TORSDOF 6
