REMARK  2 active torsions:
REMARK  status: ('A' for Active; 'I' for Inactive)
REMARK    1  A    between atoms: S_10  and  C_5 
REMARK    2  A    between atoms: C_9  and  N_8 
ROOT
ATOM      1  S   UNL d   1       2.038  -2.249  -1.227  0.00  0.00    -0.027 SA
ATOM      2  C   UNL d   1       3.001  -0.816  -1.313  0.00  0.00     0.166 A 
ATOM      3  N   UNL d   1       3.172  -0.394  -2.553  0.00  0.00    -0.278 N 
ATOM      4  HN  UNL d   1       3.693   0.450  -2.791  1.00  0.00     0.189 HD
ATOM      5  C   UNL d   1       1.968  -2.224  -2.936  0.00  0.00     0.127 A 
ATOM      6  N   UNL d   1       2.575  -1.205  -3.493  0.00  0.00    -0.286 N 
ATOM      7  HN  UNL d   1       2.603  -1.034  -4.499  1.00  0.00     0.188 HD
ATOM      8  N   UNL d   1       3.471  -0.238  -0.181  0.00  0.00    -0.335 N 
ATOM      9  H   UNL d   1       3.137  -0.577   0.712  0.00  0.00     0.168 HD
ENDROOT
BRANCH   8  10
ATOM     10  C   UNL d   1       4.544   0.671  -0.092  0.00  0.00     0.034 A 
ATOM     11  C   UNL d   1       4.606   1.549   1.002  0.00  0.00     0.036 A 
ATOM     12  C   UNL d   1       5.617   2.519   1.104  0.00  0.00    -0.060 A 
ATOM     13  C   UNL d   1       5.648   3.492   2.246  0.00  0.00     0.048 C 
ATOM     14  C   UNL d   1       6.585   2.605   0.099  0.00  0.00     0.007 A 
ATOM     15  C   UNL d   1       6.537   1.744  -0.993  0.00  0.00     0.003 A 
ATOM     16  C   UNL d   1       5.518   0.796  -1.091  0.00  0.00     0.029 A 
ENDBRANCH   8  10
BRANCH   5  17
ATOM     17  S   UNL d   1       1.170  -3.447  -3.888  0.00  0.00    -0.117 SA
ATOM     18  H   UNL d   1       0.968  -4.326  -2.899  0.00  0.00     0.109 HD
ENDBRANCH   5  17
TORSDOF 2
