REMARK  6 active torsions:
REMARK  status: ('A' for Active; 'I' for Inactive)
REMARK    1  A    between atoms: N_3  and  C_1 
REMARK    2  A    between atoms: N_6  and  C_1 
REMARK    3  A    between atoms: N_2  and  C_5 
REMARK    4  A    between atoms: C_4  and  N_3 
REMARK    5  A    between atoms: C_10  and  N_6 
REMARK    6  A    between atoms: O_15  and  C_14 
ROOT
ATOM      1  N   UNL d   1       0.367   1.123  -0.516  0.00  0.00    -0.331 N 
ATOM      2  H   UNL d   1      -0.638   1.232  -0.424  0.00  0.00     0.168 HD
ENDROOT
BRANCH   1   3
ATOM      3  C   UNL d   1       0.905   0.234   0.390  0.00  0.00     0.176 C 
ATOM      4  S   UNL d   1       2.267   0.482   1.330  0.00  0.00    -0.041 SA
BRANCH   3   5
ATOM      5  N   UNL d   1       0.133  -0.871   0.653  0.00  0.00    -0.333 N 
ATOM      6  H   UNL d   1       0.278  -1.280   1.570  0.00  0.00     0.168 HD
BRANCH   5   7
ATOM      7  C   UNL d   1      -0.724  -1.567  -0.223  0.00  0.00     0.036 A 
ATOM      8  C   UNL d   1      -0.579  -1.522  -1.615  0.00  0.00     0.066 A 
ATOM      9  C   UNL d   1      -1.469  -2.214  -2.442  0.00  0.00     0.070 A 
ATOM     10  C   UNL d   1      -2.505  -2.951  -1.865  0.00  0.00     0.037 A 
ATOM     11  C   UNL d   1      -2.622  -3.041  -0.478  0.00  0.00     0.005 A 
ATOM     12  C   UNL d   1      -1.715  -2.370   0.342  0.00  0.00     0.029 A 
BRANCH   9  13
ATOM     13  O   UNL d   1      -1.430  -2.248  -3.810  0.00  0.00    -0.356 OA
ATOM     14  C   UNL d   1      -0.376  -1.525  -4.437  0.00  0.00     0.210 C 
ENDBRANCH   9  13
ENDBRANCH   5   7
ENDBRANCH   3   5
ENDBRANCH   1   3
BRANCH   1  15
ATOM     15  C   UNL d   1       1.047   2.092  -1.293  0.00  0.00     0.061 A 
ATOM     16  C   UNL d   1       0.455   3.315  -1.671  0.00  0.00     0.065 A 
ATOM     17  C   UNL d   1       1.101   4.140  -2.613  0.00  0.00     0.032 A 
ATOM     18  C   UNL d   1       2.337   3.783  -3.147  0.00  0.00     0.002 A 
ATOM     19  C   UNL d   1       2.924   2.577  -2.768  0.00  0.00     0.002 A 
ATOM     20  C   UNL d   1       2.280   1.737  -1.865  0.00  0.00     0.032 A 
BRANCH  16  21
ATOM     21  N   UNL d   1      -0.711   3.843  -1.042  0.00  0.00    -0.331 N 
ATOM     22  C   UNL d   1      -1.625   4.714  -1.610  0.00  0.00     0.097 A 
ATOM     23  C   UNL d   1      -2.525   5.120  -0.649  0.00  0.00     0.019 A 
ATOM     24  C   UNL d   1      -2.164   4.476   0.553  0.00  0.00     0.019 A 
ATOM     25  C   UNL d   1      -1.067   3.687   0.284  0.00  0.00     0.097 A 
ENDBRANCH  16  21
ENDBRANCH   1  15
TORSDOF 6
