REMARK  9 active torsions:
REMARK  status: ('A' for Active; 'I' for Inactive)
REMARK    1  A    between atoms: C_2  and  N_1 
REMARK    2  A    between atoms: O_10  and  C_3 
REMARK    3  A    between atoms: C_4  and  C_7 
REMARK    4  A    between atoms: C_5  and  C_8 
REMARK       I    between atoms: C_7  and  N_21 
REMARK    5  A    between atoms: N_22  and  C_9 
REMARK    6  A    between atoms: C_23  and  O_10 
REMARK    7  A    between atoms: N_21  and  C_26 
REMARK    8  A    between atoms: C_27  and  N_22 
REMARK    9  A    between atoms: C_26  and  C_27 
ROOT
ATOM      1  C   UNL d   1      -0.296  -2.139   5.417  0.00  0.00     0.256 C 
ATOM      2  O   UNL d   1      -1.294  -1.893   6.077  0.00  0.00    -0.268 OA
ATOM      3  N   UNL d   1       0.062  -1.413   4.290  0.00  0.00    -0.355 N 
ATOM      4  H   UNL d   1       0.834  -1.730   3.721  0.00  0.00     0.162 HD
ENDROOT
BRANCH   3   5
ATOM      5  C   UNL d   1      -0.670  -0.247   3.803  0.00  0.00     0.142 C 
BRANCH   5   6
ATOM      6  C   UNL d   1      -1.240  -0.513   2.402  0.00  0.00     0.139 C 
BRANCH   6   7
ATOM      7  N   UNL d   1      -1.856   0.670   1.796  0.00  0.00    -0.386 N 
ATOM      8  H   UNL d   1      -1.320   1.536   1.937  0.00  0.00     0.159 HD
BRANCH   7   9
ATOM      9  C   UNL d   1      -2.374   0.575   0.486  0.00  0.00     0.061 A 
ATOM     10  C   UNL d   1      -2.575   1.692  -0.363  0.00  0.00     0.130 A 
ATOM     11  C   UNL d   1      -3.213   1.557  -1.621  0.00  0.00     0.054 A 
ATOM     12  C   UNL d   1      -3.675   0.311  -2.063  0.00  0.00     0.050 A 
ATOM     13  C   UNL d   1      -3.487  -0.794  -1.233  0.00  0.00     0.018 A 
ATOM     14  C   UNL d   1      -2.868  -0.657   0.014  0.00  0.00     0.032 A 
BRANCH  10  15
ATOM     15  N   UNL d   1      -2.087   3.038  -0.003  0.00  0.00    -0.113 N 
ATOM     16  O   UNL d   1      -2.370   3.975  -0.764  0.00  0.00    -0.532 OA
ATOM     17  O   UNL d   1      -1.386   3.161   1.014  0.00  0.00    -0.532 OA
ENDBRANCH  10  15
BRANCH  12  18
ATOM     18  C   UNL d   1      -4.372   0.138  -3.392  0.00  0.00     0.417 C 
ATOM     19  F   UNL d   1      -4.502   1.297  -4.093  0.00  0.00    -0.166 F 
ATOM     20  F   UNL d   1      -3.712  -0.725  -4.211  0.00  0.00    -0.166 F 
ATOM     21  F   UNL d   1      -5.630  -0.362  -3.254  0.00  0.00    -0.166 F 
ENDBRANCH  12  18
ENDBRANCH   7   9
ENDBRANCH   6   7
ENDBRANCH   5   6
ENDBRANCH   3   5
BRANCH   1  22
ATOM     22  C   UNL d   1       0.639  -3.239   5.798  0.00  0.00     0.083 A 
ATOM     23  C   UNL d   1       0.236  -4.379   6.489  0.00  0.00     0.163 A 
ATOM     24  N   UNL d   1       1.113  -5.354   6.873  0.00  0.00    -0.346 N 
ATOM     25  C   UNL d   1       2.403  -5.234   6.514  0.00  0.00     0.090 A 
ATOM     26  HN  UNL d   1       0.796  -6.154   7.421  1.00  0.00     0.167 HD
ATOM     27  C   UNL d   1       2.892  -4.157   5.807  0.00  0.00     0.018 A 
ATOM     28  C   UNL d   1       2.006  -3.137   5.471  0.00  0.00     0.023 A 
BRANCH  23  29
ATOM     29  O   UNL d   1      -1.110  -4.587   6.773  0.00  0.00    -0.293 OA
BRANCH  29  30
ATOM     30  C   UNL d   1      -1.521  -5.898   6.931  0.00  0.00     0.077 A 
ATOM     31  C   UNL d   1      -2.350  -6.201   8.012  0.00  0.00     0.037 A 
ATOM     32  C   UNL d   1      -2.764  -7.521   8.224  0.00  0.00     0.003 A 
ATOM     33  C   UNL d   1      -2.360  -8.533   7.352  0.00  0.00     0.000 A 
ATOM     34  C   UNL d   1      -1.565  -8.225   6.250  0.00  0.00     0.003 A 
ATOM     35  C   UNL d   1      -1.166  -6.907   6.027  0.00  0.00     0.037 A 
ENDBRANCH  29  30
ENDBRANCH  23  29
ENDBRANCH   1  22
TORSDOF 9
