REMARK  4 active torsions:
REMARK  status: ('A' for Active; 'I' for Inactive)
REMARK    1  A    between atoms: N_21  and  C_2 
REMARK    2  A    between atoms: N_22  and  C_3 
REMARK    3  A    between atoms: C_6  and  C_4 
REMARK    4  A    between atoms: C_7  and  C_5 
ROOT
ATOM      1  C   UNL d   1      -0.528   0.010   0.082  0.00  0.00     0.099 C 
ATOM      2  C   UNL d   1       0.085   1.317  -0.005  0.00  0.00     0.063 C 
ATOM      3  C   UNL d   1       0.190  -1.240  -0.013  0.00  0.00     0.063 C 
ATOM      4  C   UNL d   1       1.497   1.323   0.082  0.00  0.00    -0.005 C 
ATOM      5  C   UNL d   1       1.599  -1.136  -0.015  0.00  0.00    -0.005 C 
ATOM      6  C   UNL d   1      -1.911  -0.036   0.500  0.00  0.00     0.104 C 
ATOM      7  C   UNL d   1       2.221   0.119   0.068  0.00  0.00     0.027 C 
ATOM      8  N   UNL d   1      -3.030  -0.077   0.818  0.00  0.00    -0.191 NA
ENDROOT
BRANCH   2   9
ATOM      9  N   UNL d   1      -0.716   2.479  -0.116  0.00  0.00    -0.388 N 
ATOM     10  C   UNL d   1      -1.748   2.485  -1.177  0.00  0.00     0.149 C 
ATOM     11  C   UNL d   1      -0.213   3.834   0.120  0.00  0.00     0.149 C 
ENDBRANCH   2   9
BRANCH   3  12
ATOM     12  N   UNL d   1      -0.465  -2.473  -0.103  0.00  0.00    -0.388 N 
ATOM     13  C   UNL d   1       0.025  -3.704   0.511  0.00  0.00     0.149 C 
ATOM     14  C   UNL d   1      -1.727  -2.628  -0.835  0.00  0.00     0.149 C 
ENDBRANCH   3  12
BRANCH   4  15
ATOM     15  C   UNL d   1       2.337   2.520   0.263  0.00  0.00     0.048 C 
ATOM     16  C   UNL d   1       2.717   3.001   1.469  0.00  0.00     0.125 C 
ATOM     17  C   UNL d   1       3.436   4.226   1.527  0.00  0.00     0.111 C 
ATOM     18  C   UNL d   1       2.368   2.358   2.693  0.00  0.00     0.111 C 
ATOM     19  N   UNL d   1       3.993   5.245   1.546  0.00  0.00    -0.191 NA
ATOM     20  N   UNL d   1       2.097   1.826   3.686  0.00  0.00    -0.191 NA
ENDBRANCH   4  15
BRANCH   5  21
ATOM     21  C   UNL d   1       2.551  -2.263  -0.073  0.00  0.00     0.048 C 
ATOM     22  C   UNL d   1       3.007  -2.862  -1.190  0.00  0.00     0.125 C 
ATOM     23  C   UNL d   1       2.564  -2.493  -2.488  0.00  0.00     0.111 C 
ATOM     24  C   UNL d   1       3.997  -3.880  -1.069  0.00  0.00     0.111 C 
ATOM     25  N   UNL d   1       2.215  -2.185  -3.554  0.00  0.00    -0.191 NA
ATOM     26  N   UNL d   1       4.814  -4.694  -0.941  0.00  0.00    -0.191 NA
ENDBRANCH   5  21
TORSDOF 4
