REMARK  2 active torsions:
REMARK  status: ('A' for Active; 'I' for Inactive)
REMARK    1  A    between atoms: C_3  and  C_1 
REMARK    2  A    between atoms: C_10  and  C_3 
ROOT
ATOM      1  N   UNL d   1       2.085   2.902   3.207  0.00  0.00    -0.197 NA
ATOM      2  C   UNL d   1       2.345   2.905   2.077  0.00  0.00     0.067 C 
ATOM      3  C   UNL d   1       2.649   2.923   0.646  0.00  0.00     0.207 C 
ENDROOT
BRANCH   3   4
ATOM      4  C   UNL d   1       2.674   1.515   0.103  0.00  0.00     0.172 C 
ATOM      5  O   UNL d   1       3.736   1.027  -0.287  0.00  0.00    -0.291 OA
BRANCH   4   6
ATOM      6  C   UNL d   1       1.433   0.728   0.045  0.00  0.00     0.018 A 
ATOM      7  C   UNL d   1       0.151   1.247   0.079  0.00  0.00     0.064 A 
ATOM      8  S   UNL d   1      -1.060   0.036   0.018  0.00  0.00    -0.113 SA
ATOM      9  C   UNL d   1       0.109  -1.205  -0.058  0.00  0.00     0.050 A 
ATOM     10  C   UNL d   1       1.391  -0.705  -0.057  0.00  0.00     0.023 A 
ENDBRANCH   4   6
ENDBRANCH   3   4
TORSDOF 2
