REMARK  3 active torsions:
REMARK  status: ('A' for Active; 'I' for Inactive)
REMARK    1  A    between atoms: C_13  and  C_1 
REMARK    2  A    between atoms: N_15  and  C_2 
REMARK    3  A    between atoms: C_3  and  N_7 
REMARK       I    between atoms: N_7  and  C_10 
REMARK       I    between atoms: C_10  and  N_15 
ROOT
ATOM      1  C   UNL d   1      -1.307  -0.848   0.040  0.00  0.00     0.096 A 
ATOM      2  C   UNL d   1       0.054  -1.310   0.106  0.00  0.00     0.097 A 
ATOM      3  N   UNL d   1      -1.322   0.482  -0.130  0.00  0.00    -0.258 N 
ATOM      4  HN  UNL d   1      -2.145   1.066  -0.278  1.00  0.00     0.195 HD
ATOM      5  C   UNL d   1       0.810  -0.157   0.094  0.00  0.00     0.101 A 
ATOM      6  O   UNL d   1      -0.018   0.909  -0.067  0.00  0.00    -0.240 OA
ATOM      7  C   UNL d   1       2.233   0.176   0.282  0.00  0.00     0.081 C 
ENDROOT
BRANCH   2   8
ATOM      8  N   UNL d   1       0.516  -2.622   0.203  0.00  0.00    -0.304 N 
ATOM      9  C   UNL d   1       1.540  -3.073  -0.629  0.00  0.00     0.326 C 
ATOM     10  N   UNL d   1       1.687  -4.441  -0.549  0.00  0.00    -0.287 N 
ATOM     11  O   UNL d   1       2.171  -2.341  -1.380  0.00  0.00    -0.247 OA
ATOM     12  H   UNL d   1       0.951  -4.993  -0.134  0.00  0.00     0.172 HD
ATOM     13  H   UNL d   1      -0.176  -3.309   0.464  0.00  0.00     0.171 HD
BRANCH  10  14
ATOM     14  C   UNL d   1       2.556  -5.153  -1.339  0.00  0.00     0.182 A 
ATOM     15  C   UNL d   1       3.722  -4.912  -2.040  0.00  0.00     0.015 A 
ATOM     16  C   UNL d   1       3.985  -6.155  -2.690  0.00  0.00     0.039 A 
ATOM     17  C   UNL d   1       4.567  -3.697  -2.116  0.00  0.00     0.055 C 
ATOM     18  C   UNL d   1       5.089  -6.506  -3.615  0.00  0.00     0.071 C 
ATOM     19  N   UNL d   1       3.082  -7.084  -2.361  0.00  0.00    -0.263 N 
ATOM     20  O   UNL d   1       2.210  -6.462  -1.496  0.00  0.00    -0.219 OA
ATOM     21  HN  UNL d   1       3.046  -8.051  -2.684  1.00  0.00     0.194 HD
ENDBRANCH  10  14
ENDBRANCH   2   8
BRANCH   1  22
ATOM     22  C   UNL d   1      -2.551  -1.634   0.056  0.00  0.00     0.017 A 
ATOM     23  C   UNL d   1      -3.736  -1.184   0.673  0.00  0.00     0.046 A 
ATOM     24 CL   UNL d   1      -3.888   0.336   1.488  0.00  0.00    -0.083 Cl
ATOM     25  C   UNL d   1      -4.880  -1.997   0.689  0.00  0.00     0.025 A 
ATOM     26  C   UNL d   1      -4.859  -3.267   0.116  0.00  0.00     0.002 A 
ATOM     27  C   UNL d   1      -3.706  -3.720  -0.510  0.00  0.00     0.001 A 
ATOM     28  C   UNL d   1      -2.573  -2.900  -0.562  0.00  0.00     0.015 A 
ENDBRANCH   1  22
TORSDOF 3
