REMARK  4 active torsions:
REMARK  status: ('A' for Active; 'I' for Inactive)
REMARK    1  A    between atoms: C_2  and  C_1 
REMARK    2  A    between atoms: C_10  and  C_2 
REMARK       I    between atoms: C_3  and  N_5 
REMARK    3  A    between atoms: C_6  and  C_3 
REMARK    4  A    between atoms: N_5  and  C_4 
ROOT
ATOM      1  C   UNL d   1       3.787  -0.072   0.765  0.00  0.00     0.043 A 
ATOM      2  C   UNL d   1       2.466   0.115   0.301  0.00  0.00     0.049 A 
ATOM      3  C   UNL d   1       4.348  -1.366   0.738  0.00  0.00     0.041 A 
ATOM      4  C   UNL d   1       1.705  -1.020  -0.040  0.00  0.00     0.032 A 
ATOM      5  C   UNL d   1       3.595  -2.462   0.329  0.00  0.00     0.035 A 
ATOM      6  C   UNL d   1       2.266  -2.298  -0.035  0.00  0.00     0.026 A 
ATOM      7 CL   UNL d   1       4.298  -4.031   0.298  0.00  0.00    -0.084 Cl
ENDROOT
BRANCH   1   8
ATOM      8  C   UNL d   1       4.665   0.958   1.402  0.00  0.00     0.194 C 
ATOM      9  O   UNL d   1       5.883   0.866   1.263  0.00  0.00    -0.287 OA
BRANCH   8  10
ATOM     10  C   UNL d   1       4.132   2.033   2.284  0.00  0.00     0.015 A 
ATOM     11  C   UNL d   1       4.833   3.244   2.333  0.00  0.00     0.015 A 
ATOM     12  C   UNL d   1       4.331   4.318   3.067  0.00  0.00     0.001 A 
ATOM     13  C   UNL d   1       3.134   4.181   3.769  0.00  0.00     0.000 A 
ATOM     14  C   UNL d   1       2.457   2.961   3.765  0.00  0.00     0.001 A 
ATOM     15  C   UNL d   1       2.963   1.880   3.038  0.00  0.00     0.015 A 
ENDBRANCH   8  10
ENDBRANCH   1   8
BRANCH   2  16
ATOM     16  N   UNL d   1       1.784   1.343   0.123  0.00  0.00    -0.322 N 
ATOM     17  C   UNL d   1       2.357   2.540  -0.255  0.00  0.00     0.251 C 
ATOM     18  O   UNL d   1       3.529   2.664  -0.591  0.00  0.00    -0.268 OA
ATOM     19  H   UNL d   1       0.785   1.278  -0.015  0.00  0.00     0.169 HD
BRANCH  17  20
ATOM     20  C   UNL d   1       1.394   3.702  -0.318  0.00  0.00     0.002 C 
ATOM     21  C   UNL d   1       1.854   4.829  -0.899  0.00  0.00    -0.019 C 
ATOM     22  C   UNL d   1       1.089   6.093  -1.133  0.00  0.00     0.036 C 
ATOM     23  C   UNL d   1       0.027   3.602   0.295  0.00  0.00     0.054 C 
ENDBRANCH  17  20
ENDBRANCH   2  16
TORSDOF 4
