REMARK  3 active torsions:
REMARK  status: ('A' for Active; 'I' for Inactive)
REMARK    1  A    between atoms: N_6  and  C_1 
REMARK    2  A    between atoms: C_10  and  N_2 
REMARK       I    between atoms: C_7  and  N_6 
REMARK    3  A    between atoms: C_9  and  C_7 
ROOT
ATOM      1  C   UNL d   1      -0.403  -1.111   0.167  0.00  0.00     0.132 C 
ATOM      2  N   UNL d   1       0.904  -0.699  -0.053  0.00  0.00    -0.240 N 
ATOM      3  N   UNL d   1       0.977   0.649  -0.206  0.00  0.00    -0.297 N 
ATOM      4  HN  UNL d   1       1.768   1.199  -0.540  1.00  0.00     0.187 HD
ATOM      5  C   UNL d   1      -1.105   0.032   0.497  0.00  0.00     0.076 C 
ATOM      6  C   UNL d   1      -0.225   1.093   0.181  0.00  0.00     0.026 C 
ATOM      7  C   UNL d   1      -0.510   2.553   0.179  0.00  0.00     0.070 C 
ENDROOT
BRANCH   1   8
ATOM      8  N   UNL d   1      -0.845  -2.415  -0.004  0.00  0.00    -0.307 N 
ATOM      9  C   UNL d   1      -1.692  -3.004   0.913  0.00  0.00     0.257 C 
ATOM     10  O   UNL d   1      -2.064  -2.503   1.971  0.00  0.00    -0.267 OA
ATOM     11  H   UNL d   1      -0.298  -3.025  -0.605  0.00  0.00     0.170 HD
BRANCH   9  12
ATOM     12  C   UNL d   1      -2.088  -4.402   0.599  0.00  0.00     0.032 A 
ATOM     13  C   UNL d   1      -2.183  -5.329   1.646  0.00  0.00     0.018 A 
ATOM     14  C   UNL d   1      -2.689  -6.609   1.404  0.00  0.00     0.025 A 
ATOM     15  C   UNL d   1      -3.101  -6.958   0.118  0.00  0.00     0.034 A 
ATOM     16  C   UNL d   1      -2.972  -6.053  -0.936  0.00  0.00     0.025 A 
ATOM     17 CL   UNL d   1      -3.810  -8.500  -0.162  0.00  0.00    -0.084 Cl
ATOM     18  C   UNL d   1      -2.457  -4.774  -0.700  0.00  0.00     0.018 A 
ENDBRANCH   9  12
ENDBRANCH   1   8
BRANCH   2  19
ATOM     19  C   UNL d   1       2.082  -1.502  -0.072  0.00  0.00     0.058 A 
ATOM     20  C   UNL d   1       3.248  -1.003  -0.665  0.00  0.00     0.031 A 
ATOM     21  C   UNL d   1       4.401  -1.791  -0.704  0.00  0.00     0.002 A 
ATOM     22  C   UNL d   1       4.403  -3.062  -0.132  0.00  0.00     0.000 A 
ATOM     23  C   UNL d   1       3.260  -3.546   0.498  0.00  0.00     0.002 A 
ATOM     24  C   UNL d   1       2.102  -2.768   0.537  0.00  0.00     0.031 A 
ENDBRANCH   2  19
TORSDOF 3
