REMARK  3 active torsions:
REMARK  status: ('A' for Active; 'I' for Inactive)
REMARK    1  A    between atoms: C_7  and  C_1 
REMARK    2  A    between atoms: O_12  and  C_4 
REMARK    3  A    between atoms: C_15  and  N_8 
ROOT
ATOM      1  C   UNL d   1      -1.428   2.444  -0.018  0.00  0.00     0.081 A 
ATOM      2  N   UNL d   1       0.707   1.198  -0.029  0.00  0.00    -0.312 N 
ATOM      3  C   UNL d   1       0.057   2.429  -0.029  0.00  0.00     0.262 A 
ATOM      4  C   UNL d   1      -2.121   1.294  -0.017  0.00  0.00     0.095 A 
ATOM      5  C   UNL d   1      -1.414   0.002  -0.023  0.00  0.00     0.026 A 
ATOM      6  C   UNL d   1      -0.004  -0.022  -0.020  0.00  0.00     0.056 A 
ATOM      7  O   UNL d   1       0.669   3.503  -0.036  0.00  0.00    -0.267 OA
ATOM      8  C   UNL d   1       0.672  -1.248  -0.005  0.00  0.00    -0.030 A 
ATOM      9  C   UNL d   1       2.153   1.239  -0.017  0.00  0.00     0.133 C 
ATOM     10  C   UNL d   1      -2.126  -1.208  -0.021  0.00  0.00     0.016 A 
ATOM     11  C   UNL d   1       2.938  -0.057  -0.071  0.00  0.00     0.025 C 
ATOM     12  C   UNL d   1      -1.456  -2.426  -0.013  0.00  0.00     0.002 A 
ATOM     13  C   UNL d   1      -0.065  -2.444  -0.003  0.00  0.00     0.009 A 
ATOM     14  C   UNL d   1       2.164  -1.353   0.048  0.00  0.00     0.042 C 
ENDROOT
BRANCH   1  15
ATOM     15  C   UNL d   1      -2.123   3.760   0.018  0.00  0.00     0.108 C 
ATOM     16  N   UNL d   1      -3.410   3.912  -0.070  0.00  0.00    -0.365 N 
ATOM     17  HN  UNL d   1      -4.027   3.106  -0.167  1.00  0.00     0.165 HD
BRANCH  16  18
ATOM     18  C   UNL d   1      -3.930   5.223  -0.026  0.00  0.00     0.031 A 
ATOM     19  C   UNL d   1      -3.292   6.332  -0.601  0.00  0.00     0.029 A 
ATOM     20  C   UNL d   1      -3.854   7.609  -0.524  0.00  0.00     0.002 A 
ATOM     21  C   UNL d   1      -5.083   7.791   0.103  0.00  0.00     0.000 A 
ATOM     22  C   UNL d   1      -5.749   6.695   0.649  0.00  0.00     0.002 A 
ATOM     23  C   UNL d   1      -5.173   5.421   0.583  0.00  0.00     0.029 A 
ENDBRANCH  16  18
ENDBRANCH   1  15
BRANCH   4  24
ATOM     24  O   UNL d   1      -3.504   1.223   0.001  0.00  0.00    -0.359 OA
ATOM     25  H   UNL d   1      -3.853   2.144  -0.022  0.00  0.00     0.217 HD
ENDBRANCH   4  24
TORSDOF 3
