REMARK  2 active torsions:
REMARK  status: ('A' for Active; 'I' for Inactive)
REMARK    1  A    between atoms: N_8  and  C_3 
REMARK    2  A    between atoms: N_12  and  C_4 
ROOT
ATOM      1  N   UNL d   1       1.585   0.650   0.890  0.00  0.00    -0.180 N 
ATOM      2  HN  UNL d   1       2.059   1.283   1.534  1.00  0.00     0.185 HD
ATOM      3  C   UNL d   1       2.288  -0.053  -0.016  0.00  0.00     0.681 A 
ATOM      4  C   UNL d   1       0.249   0.507   0.935  0.00  0.00     0.116 A 
ATOM      5  N   UNL d   1       1.699  -0.899  -0.874  0.00  0.00    -0.200 N 
ATOM      6  HN  UNL d   1       2.244  -1.415  -1.565  1.00  0.00     0.183 HD
ATOM      7  C   UNL d   1      -0.423  -0.365   0.108  0.00  0.00     0.099 A 
ATOM      8  C   UNL d   1      -1.830  -0.556   0.145  0.00  0.00     0.104 C 
ATOM      9  N   UNL d   1      -2.982  -0.706   0.144  0.00  0.00    -0.191 NA
ATOM     10  C   UNL d   1       0.362  -1.045  -0.790  0.00  0.00     0.132 A 
ENDROOT
BRANCH   4  11
ATOM     11  N   UNL d   1      -0.388   1.253   1.927  0.00  0.00    -0.287 NA
ATOM     12  H   UNL d   1       0.305   1.865   2.353  0.00  0.00     0.125 HD
ATOM     13  H   UNL d   1      -1.198   1.769   1.599  0.00  0.00     0.125 HD
ENDBRANCH   4  11
BRANCH   3  14
ATOM     14  N   UNL d   1       3.643   0.120  -0.073  0.00  0.00    -0.214 N 
ATOM     15  C   UNL d   1       4.469  -0.550  -1.076  0.00  0.00     0.167 C 
ATOM     16  C   UNL d   1       5.498  -1.466  -0.396  0.00  0.00     0.188 C 
ATOM     17  O   UNL d   1       6.256  -0.764   0.606  0.00  0.00    -0.388 OA
ATOM     18  C   UNL d   1       5.378  -0.249   1.621  0.00  0.00     0.188 C 
ATOM     19  C   UNL d   1       4.364   0.745   1.035  0.00  0.00     0.167 C 
ENDBRANCH   3  14
TORSDOF 2
