REMARK  4 active torsions:
REMARK  status: ('A' for Active; 'I' for Inactive)
REMARK    1  A    between atoms: C_9  and  N_1 
REMARK    2  A    between atoms: C_7  and  C_2 
REMARK    3  A    between atoms: N_12  and  C_8 
REMARK    4  A    between atoms: C_15  and  N_12 
ROOT
ATOM      1  C   UNL d   1       2.490  -1.058  -0.414  0.00  0.00     0.063 C 
ATOM      2  C   UNL d   1       2.437  -2.330  -0.002  0.00  0.00     0.066 C 
ENDROOT
BRANCH   1   3
ATOM      3  C   UNL d   1       3.640  -0.269  -0.208  0.00  0.00     0.139 A 
ATOM      4  N   UNL d   1       4.709  -0.222  -1.106  0.00  0.00    -0.225 N 
ATOM      5  N   UNL d   1       5.685   0.528  -0.524  0.00  0.00     0.001 NA
ATOM      6  N   UNL d   1       5.192   0.972   0.619  0.00  0.00    -0.007 NA
ATOM      7  N   UNL d   1       3.927   0.504   0.820  0.00  0.00    -0.270 N 
ATOM      8  HN  UNL d   1       3.320   0.712   1.613  1.00  0.00     0.185 HD
BRANCH   4   9
ATOM      9  C   UNL d   1       4.900  -0.745  -2.422  0.00  0.00     0.056 A 
ATOM     10  C   UNL d   1       3.871  -1.347  -3.160  0.00  0.00     0.031 A 
ATOM     11  C   UNL d   1       4.107  -1.820  -4.455  0.00  0.00     0.002 A 
ATOM     12  C   UNL d   1       5.366  -1.693  -5.033  0.00  0.00     0.000 A 
ATOM     13  C   UNL d   1       6.396  -1.092  -4.316  0.00  0.00     0.002 A 
ATOM     14  C   UNL d   1       6.167  -0.619  -3.021  0.00  0.00     0.031 A 
ENDBRANCH   4   9
ENDBRANCH   1   3
BRANCH   2  15
ATOM     15  N   UNL d   1       3.402  -3.045   0.685  0.00  0.00    -0.269 NA
ATOM     16  H   UNL d   1       3.849  -3.732   0.075  0.00  0.00     0.133 HD
BRANCH  15  17
ATOM     17  C   UNL d   1       3.064  -3.710   1.899  0.00  0.00     0.013 A 
ATOM     18  C   UNL d   1       3.843  -4.786   2.346  0.00  0.00     0.036 A 
ATOM     19  C   UNL d   1       3.514  -5.483   3.524  0.00  0.00    -0.024 A 
ATOM     20  C   UNL d   1       4.252  -6.600   3.951  0.00  0.00     0.012 A 
ATOM     21  C   UNL d   1       2.403  -5.063   4.290  0.00  0.00    -0.026 A 
ATOM     22  C   UNL d   1       3.871  -7.314   5.089  0.00  0.00     0.001 A 
ATOM     23  C   UNL d   1       2.755  -6.917   5.820  0.00  0.00     0.001 A 
ATOM     24  C   UNL d   1       2.032  -5.791   5.430  0.00  0.00     0.012 A 
ATOM     25  C   UNL d   1       1.692  -3.925   3.897  0.00  0.00     0.014 A 
ATOM     26  C   UNL d   1       2.034  -3.245   2.727  0.00  0.00     0.024 A 
ENDBRANCH  15  17
ENDBRANCH   2  15
TORSDOF 4
