REMARK  9 active torsions:
REMARK  status: ('A' for Active; 'I' for Inactive)
REMARK    1  A    between atoms: C_2  and  S_1 
REMARK    2  A    between atoms: C_3  and  S_1 
REMARK    3  A    between atoms: C_6  and  C_2 
REMARK    4  A    between atoms: O_20  and  C_6 
REMARK    5  A    between atoms: C_22  and  C_6 
REMARK    6  A    between atoms: O_21  and  C_10 
REMARK    7  A    between atoms: O_11  and  C_22 
REMARK    8  A    between atoms: C_23  and  O_11 
REMARK    9  A    between atoms: C_14  and  C_23 
ROOT
ATOM      1  C   UNL d   1       1.003  -2.640  -0.573  0.00  0.00     0.156 C 
ENDROOT
BRANCH   1   2
ATOM      2  C   UNL d   1       2.533  -2.632  -0.612  0.00  0.00     0.179 C 
BRANCH   2   3
ATOM      3  S   UNL d   1       3.152  -1.025  -1.069  0.00  0.00     0.178 S 
ATOM      4  O   UNL d   1       2.744  -0.076  -0.044  0.00  0.00    -0.223 OA
ATOM      5  O   UNL d   1       2.881  -0.779  -2.470  0.00  0.00    -0.223 OA
BRANCH   3   6
ATOM      6  C   UNL d   1       4.932  -1.173  -0.937  0.00  0.00     0.059 A 
ATOM      7  C   UNL d   1       5.679  -1.556  -2.059  0.00  0.00     0.025 A 
ATOM      8  C   UNL d   1       7.076  -1.510  -2.002  0.00  0.00     0.025 A 
ATOM      9  C   UNL d   1       7.710  -1.072  -0.839  0.00  0.00     0.034 A 
ATOM     10  C   UNL d   1       6.962  -0.697   0.278  0.00  0.00     0.025 A 
ATOM     11 CL   UNL d   1       9.426  -0.956  -0.790  0.00  0.00    -0.084 Cl
ATOM     12  C   UNL d   1       5.567  -0.742   0.232  0.00  0.00     0.025 A 
ENDBRANCH   3   6
ENDBRANCH   2   3
ENDBRANCH   1   2
BRANCH   1  13
ATOM     13  O   UNL d   1       0.455  -2.378  -1.867  0.00  0.00    -0.393 OA
ATOM     14  H   UNL d   1       0.748  -3.095  -2.461  0.00  0.00     0.210 HD
ENDBRANCH   1  13
BRANCH   1  15
ATOM     15  C   UNL d   1       0.458  -4.001  -0.116  0.00  0.00     0.200 C 
BRANCH  15  16
ATOM     16  O   UNL d   1       0.927  -5.008  -1.020  0.00  0.00    -0.384 OA
BRANCH  16  17
ATOM     17  C   UNL d   1       0.414  -6.302  -0.690  0.00  0.00     0.206 C 
BRANCH  17  18
ATOM     18  C   UNL d   1       0.961  -7.291  -1.686  0.00  0.00    -0.034 A 
ATOM     19  C   UNL d   1       1.738  -8.380  -1.272  0.00  0.00     0.012 A 
ATOM     20  C   UNL d   1       2.294  -9.249  -2.215  0.00  0.00     0.037 A 
ATOM     21  C   UNL d   1       2.058  -9.065  -3.578  0.00  0.00     0.068 A 
ATOM     22  C   UNL d   1       1.262  -8.000  -3.997  0.00  0.00     0.037 A 
ATOM     23  C   UNL d   1       0.714  -7.123  -3.056  0.00  0.00     0.012 A 
BRANCH  21  24
ATOM     24  O   UNL d   1       2.693  -9.950  -4.405  0.00  0.00    -0.356 OA
ATOM     25  C   UNL d   1       2.065 -10.178  -5.662  0.00  0.00     0.210 C 
ENDBRANCH  21  24
ENDBRANCH  17  18
ENDBRANCH  16  17
ENDBRANCH  15  16
ENDBRANCH   1  15
TORSDOF 9
