REMARK  4 active torsions:
REMARK  status: ('A' for Active; 'I' for Inactive)
REMARK       I    between atoms: N_7  and  C_1 
REMARK       I    between atoms: N_9  and  C_1 
REMARK    1  A    between atoms: O_5  and  C_2 
REMARK    2  A    between atoms: C_4  and  O_5 
REMARK    3  A    between atoms: C_8  and  N_7 
REMARK    4  A    between atoms: C_16  and  N_9 
ROOT
ATOM      1  C   UNL d   1       0.659  -3.487  -0.898  0.00  0.00     0.175 A 
ATOM      2  C   UNL d   1       1.115  -2.504  -0.005  0.00  0.00     0.088 A 
ATOM      3  N   UNL d   1       1.354  -4.619  -1.173  0.00  0.00    -0.345 N 
ATOM      4  HN  UNL d   1       1.006  -5.304  -1.844  1.00  0.00     0.167 HD
ATOM      5  C   UNL d   1       2.363  -2.708   0.592  0.00  0.00     0.035 A 
ATOM      6  C   UNL d   1       2.522  -4.807  -0.527  0.00  0.00     0.090 A 
ATOM      7  C   UNL d   1       3.062  -3.889   0.354  0.00  0.00     0.019 A 
ENDROOT
BRANCH   2   8
ATOM      8  N   UNL d   1       0.419  -1.332   0.364  0.00  0.00    -0.305 N 
ATOM      9  C   UNL d   1      -0.908  -1.159   0.680  0.00  0.00     0.325 C 
ATOM     10  N   UNL d   1      -1.636  -2.307   0.831  0.00  0.00    -0.309 N 
ATOM     11  O   UNL d   1      -1.297  -0.018   0.930  0.00  0.00    -0.247 OA
ATOM     12  H   UNL d   1      -1.155  -3.162   0.607  0.00  0.00     0.170 HD
ATOM     13  H   UNL d   1       0.964  -0.532   0.659  0.00  0.00     0.171 HD
BRANCH  10  14
ATOM     14  C   UNL d   1      -2.958  -2.475   1.268  0.00  0.00     0.036 A 
ATOM     15  C   UNL d   1      -3.804  -1.432   1.639  0.00  0.00     0.032 A 
ATOM     16  C   UNL d   1      -5.105  -1.709   2.073  0.00  0.00     0.044 A 
ATOM     17  C   UNL d   1      -5.550  -3.026   2.130  0.00  0.00     0.116 A 
ATOM     18  C   UNL d   1      -4.720  -4.074   1.764  0.00  0.00     0.044 A 
ATOM     19  F   UNL d   1      -6.797  -3.286   2.546  0.00  0.00    -0.206 F 
ATOM     20  C   UNL d   1      -3.424  -3.798   1.338  0.00  0.00     0.032 A 
ENDBRANCH  10  14
ENDBRANCH   2   8
BRANCH   1  21
ATOM     21  O   UNL d   1      -0.531  -3.260  -1.585  0.00  0.00    -0.291 OA
BRANCH  21  22
ATOM     22  C   UNL d   1      -1.242  -4.344  -2.053  0.00  0.00     0.084 A 
ATOM     23  C   UNL d   1      -1.923  -4.219  -3.258  0.00  0.00    -0.017 A 
ATOM     24  C   UNL d   1      -2.665  -5.287  -3.780  0.00  0.00    -0.043 A 
ATOM     25  C   UNL d   1      -1.980  -3.023  -4.153  0.00  0.00     0.042 A 
ATOM     26  C   UNL d   1      -3.230  -4.956  -5.125  0.00  0.00     0.040 A 
ATOM     27  C   UNL d   1      -2.784  -6.494  -3.092  0.00  0.00    -0.055 A 
ATOM     28  C   UNL d   1      -2.882  -3.475  -5.312  0.00  0.00     0.009 A 
ATOM     29  C   UNL d   1      -2.150  -6.598  -1.849  0.00  0.00     0.010 A 
ATOM     30  C   UNL d   1      -3.608  -7.630  -3.616  0.00  0.00     0.049 C 
ATOM     31  C   UNL d   1      -1.387  -5.538  -1.338  0.00  0.00     0.038 A 
ENDBRANCH  21  22
ENDBRANCH   1  21
TORSDOF 4
