REMARK  1 active torsions:
REMARK  status: ('A' for Active; 'I' for Inactive)
REMARK    1  A    between atoms: N_12  and  C_6 
ROOT
ATOM      1  C   UNL d   1       1.265  -0.807  -0.013  0.00  0.00     0.089 A 
ATOM      2  C   UNL d   1       0.722   0.472  -0.034  0.00  0.00     0.043 A 
ATOM      3  S   UNL d   1       0.083  -2.034  -0.003  0.00  0.00    -0.075 SA
ATOM      4  C   UNL d   1      -0.723   0.410  -0.038  0.00  0.00    -0.029 A 
ATOM      5  C   UNL d   1      -1.179  -0.897  -0.009  0.00  0.00    -0.008 A 
ATOM      6  C   UNL d   1       1.659   1.523  -0.045  0.00  0.00     0.092 A 
ATOM      7  N   UNL d   1       2.568  -1.127   0.002  0.00  0.00    -0.346 N 
ATOM      8  HN  UNL d   1       2.919  -2.084   0.018  1.00  0.00     0.167 HD
ATOM      9  N   UNL d   1       2.975   1.240  -0.025  0.00  0.00    -0.343 N 
ATOM     10  HN  UNL d   1       3.669   1.987  -0.024  1.00  0.00     0.167 HD
ATOM     11  C   UNL d   1       3.353  -0.047  -0.007  0.00  0.00     0.182 A 
ATOM     12  C   UNL d   1      -1.677   1.570  -0.036  0.00  0.00     0.041 C 
ATOM     13  C   UNL d   1      -2.618  -1.315  -0.015  0.00  0.00     0.047 C 
ATOM     14  C   UNL d   1      -3.113   1.144  -0.376  0.00  0.00     0.005 C 
ATOM     15  C   UNL d   1      -3.517  -0.133   0.374  0.00  0.00     0.005 C 
ENDROOT
BRANCH   6  16
ATOM     16  N   UNL d   1       1.327   2.872  -0.062  0.00  0.00    -0.288 NA
ATOM     17  H   UNL d   1       0.463   3.109   0.401  0.00  0.00     0.125 HD
ATOM     18  H   UNL d   1       2.132   3.433   0.194  0.00  0.00     0.125 HD
ENDBRANCH   6  16
TORSDOF 1
