REMARK  5 active torsions:
REMARK  status: ('A' for Active; 'I' for Inactive)
REMARK    1  A    between atoms: C_2  and  S_1 
REMARK    2  A    between atoms: C_6  and  S_1 
REMARK    3  A    between atoms: N_5  and  C_3 
REMARK    4  A    between atoms: S_10  and  C_3 
REMARK    5  A    between atoms: C_13  and  N_5 
ROOT
ATOM      1  C   UNL d   1       0.304  -1.597  -0.701  0.00  0.00     0.172 C 
ATOM      2  C   UNL d   1      -0.665  -2.348  -0.116  0.00  0.00     0.082 C 
ATOM      3  C   UNL d   1       0.947  -2.035  -1.884  0.00  0.00     0.114 C 
ATOM      4  N   UNL d   1       1.442  -2.343  -2.888  0.00  0.00    -0.191 NA
ENDROOT
BRANCH   1   5
ATOM      5  S   UNL d   1       0.748  -0.028  -0.128  0.00  0.00     0.219 S 
ATOM      6  O   UNL d   1       0.812  -0.003   1.327  0.00  0.00    -0.216 OA
ATOM      7  O   UNL d   1      -0.051   0.966  -0.820  0.00  0.00    -0.216 OA
BRANCH   5   8
ATOM      8  C   UNL d   1       2.447   0.254  -0.633  0.00  0.00     0.065 A 
ATOM      9  C   UNL d   1       2.710   0.942  -1.818  0.00  0.00     0.024 A 
ATOM     10  C   UNL d   1       4.014   1.359  -2.102  0.00  0.00     0.008 A 
ATOM     11  C   UNL d   1       5.055   1.117  -1.194  0.00  0.00    -0.062 A 
ATOM     12  C   UNL d   1       4.791   0.384  -0.031  0.00  0.00     0.008 A 
ATOM     13  C   UNL d   1       6.433   1.643  -1.475  0.00  0.00     0.048 C 
ATOM     14  C   UNL d   1       3.489  -0.041   0.259  0.00  0.00     0.024 A 
ENDBRANCH   5   8
ENDBRANCH   1   5
BRANCH   2  15
ATOM     15  N   UNL d   1      -0.804  -3.708  -0.438  0.00  0.00    -0.252 NA
ATOM     16  H   UNL d   1      -0.866  -4.214   0.453  0.00  0.00     0.134 HD
BRANCH  15  17
ATOM     17  C   UNL d   1      -1.868  -4.250  -1.219  0.00  0.00     0.013 A 
ATOM     18  C   UNL d   1      -2.662  -3.496  -2.086  0.00  0.00     0.024 A 
ATOM     19  C   UNL d   1      -3.686  -4.103  -2.822  0.00  0.00     0.002 A 
ATOM     20  C   UNL d   1      -3.894  -5.478  -2.736  0.00  0.00     0.000 A 
ATOM     21  C   UNL d   1      -3.070  -6.252  -1.927  0.00  0.00     0.002 A 
ATOM     22  C   UNL d   1      -2.059  -5.642  -1.181  0.00  0.00     0.024 A 
ENDBRANCH  15  17
ENDBRANCH   2  15
BRANCH   2  23
ATOM     23  S   UNL d   1      -1.692  -1.755   1.198  0.00  0.00    -0.120 SA
ATOM     24  C   UNL d   1      -2.715  -0.543   0.308  0.00  0.00     0.097 C 
ENDBRANCH   2  23
TORSDOF 5
