REMARK  6 active torsions:
REMARK  status: ('A' for Active; 'I' for Inactive)
REMARK    1  A    between atoms: C_7  and  C_1 
REMARK    2  A    between atoms: C_5  and  C_8 
REMARK    3  A    between atoms: C_12  and  C_6 
REMARK       I    between atoms: C_8  and  N_16 
REMARK    4  A    between atoms: O_24  and  C_12 
REMARK    5  A    between atoms: C_23  and  C_14 
REMARK    6  A    between atoms: N_16  and  C_23 
ROOT
ATOM      1  C   UNL d   1       0.763  -4.960   0.011  0.00  0.00     0.223 C 
ATOM      2  N   UNL d   1       0.637  -3.597   0.001  0.00  0.00    -0.356 N 
ATOM      3  O   UNL d   1       1.853  -5.537   0.005  0.00  0.00    -0.273 OA
ATOM      4  H   UNL d   1      -0.274  -3.188  -0.155  0.00  0.00     0.162 HD
ENDROOT
BRANCH   1   5
ATOM      5  C   UNL d   1      -0.507  -5.776   0.180  0.00  0.00     0.100 C 
ATOM      6  C   UNL d   1      -1.861  -5.204  -0.305  0.00  0.00     0.022 C 
ATOM      7  C   UNL d   1      -1.759  -4.804  -1.756  0.00  0.00    -0.025 C 
ATOM      8  C   UNL d   1      -2.671  -6.495  -0.491  0.00  0.00     0.018 C 
ATOM      9  C   UNL d   1      -1.620  -5.932  -2.465  0.00  0.00    -0.025 C 
ATOM     10  C   UNL d   1      -1.674  -7.095  -1.490  0.00  0.00     0.023 C 
ATOM     11  C   UNL d   1      -0.370  -7.095  -0.660  0.00  0.00     0.105 C 
BRANCH  11  12
ATOM     12  C   UNL d   1      -0.259  -8.292   0.259  0.00  0.00     0.145 C 
ATOM     13  O   UNL d   1      -1.077  -9.201   0.333  0.00  0.00    -0.650 OA
BRANCH  12  14
ATOM     14  O   UNL d   1       0.874  -8.269   1.004  0.00  0.00    -0.776 OA
ATOM     15  H   UNL d   1       1.470  -7.513   0.805  0.00  0.00     0.167 HD
ENDBRANCH  12  14
ENDBRANCH  11  12
ENDBRANCH   1   5
BRANCH   2  16
ATOM     16  C   UNL d   1       1.775  -2.745  -0.280  0.00  0.00     0.168 C 
BRANCH  16  17
ATOM     17  C   UNL d   1       1.489  -1.382   0.261  0.00  0.00     0.001 A 
ATOM     18  S   UNL d   1       0.778  -0.177  -0.724  0.00  0.00    -0.092 SA
ATOM     19  C   UNL d   1       0.819   1.000   0.532  0.00  0.00     0.022 A 
ATOM     20  C   UNL d   1       1.349   0.455   1.687  0.00  0.00     0.021 A 
ATOM     21  C   UNL d   1       1.732  -0.909   1.534  0.00  0.00     0.018 A 
BRANCH  19  22
ATOM     22  C   UNL d   1       0.356   2.354   0.319  0.00  0.00     0.021 A 
ATOM     23  S   UNL d   1       0.985   3.669   1.236  0.00  0.00    -0.101 SA
ATOM     24  C   UNL d   1       0.022   4.811   0.407  0.00  0.00     0.050 A 
ATOM     25  C   UNL d   1      -0.778   4.217  -0.540  0.00  0.00     0.008 A 
ATOM     26  C   UNL d   1      -0.587   2.804  -0.590  0.00  0.00     0.021 A 
ENDBRANCH  19  22
ENDBRANCH  16  17
ENDBRANCH   2  16
TORSDOF 6
