REMARK  3 active torsions:
REMARK  status: ('A' for Active; 'I' for Inactive)
REMARK    1  A    between atoms: C_13  and  N_2 
REMARK    2  A    between atoms: C_8  and  C_3 
REMARK    3  A    between atoms: C_9  and  N_4 
ROOT
ATOM      1  C   UNL d   1       0.899  -0.729   0.069  0.00  0.00     0.157 A 
ATOM      2  N   UNL d   1       0.864   0.686   0.058  0.00  0.00    -0.289 N 
ATOM      3  C   UNL d   1      -0.442   1.213   0.194  0.00  0.00     0.082 A 
ATOM      4  N   UNL d   1       1.921  -1.504  -0.123  0.00  0.00    -0.322 N 
ATOM      5  HN  UNL d   1       2.837  -1.074  -0.256  1.00  0.00     0.169 HD
ATOM      6  S   UNL d   1      -0.773  -1.309   0.456  0.00  0.00    -0.063 SA
ATOM      7  C   UNL d   1      -1.404   0.298   0.396  0.00  0.00     0.086 A 
ENDROOT
BRANCH   2   8
ATOM      8  C   UNL d   1       2.045   1.496  -0.019  0.00  0.00     0.042 A 
ATOM      9  C   UNL d   1       3.161   1.114  -0.782  0.00  0.00     0.030 A 
ATOM     10  C   UNL d   1       4.303   1.923  -0.870  0.00  0.00     0.002 A 
ATOM     11  C   UNL d   1       4.354   3.141  -0.205  0.00  0.00     0.000 A 
ATOM     12  C   UNL d   1       3.273   3.541   0.571  0.00  0.00     0.002 A 
ATOM     13  C   UNL d   1       2.146   2.719   0.674  0.00  0.00     0.030 A 
ENDBRANCH   2   8
BRANCH   4  14
ATOM     14  C   UNL d   1       1.831  -2.898  -0.157  0.00  0.00     0.107 A 
ATOM     15  N   UNL d   1       0.797  -3.445  -0.825  0.00  0.00    -0.346 N 
ATOM     16  C   UNL d   1       0.684  -4.793  -0.843  0.00  0.00     0.007 A 
ATOM     17  HN  UNL d   1       0.116  -2.858  -1.305  1.00  0.00     0.167 HD
ATOM     18  C   UNL d   1      -0.570  -5.355  -1.442  0.00  0.00     0.068 C 
ATOM     19  C   UNL d   1       1.648  -5.631  -0.298  0.00  0.00     0.025 A 
ATOM     20  C   UNL d   1       2.753  -5.055   0.317  0.00  0.00     0.006 A 
ATOM     21  C   UNL d   1       2.841  -3.666   0.399  0.00  0.00     0.048 A 
ENDBRANCH   4  14
BRANCH   3  22
ATOM     22  C   UNL d   1      -0.871   2.567   0.081  0.00  0.00     0.102 A 
ATOM     23  O   UNL d   1      -1.258   3.319   1.169  0.00  0.00    -0.320 OA
ATOM     24  C   UNL d   1      -1.589   4.558   0.736  0.00  0.00     0.142 A 
ATOM     25  C   UNL d   1      -1.460   4.638  -0.628  0.00  0.00     0.027 A 
ATOM     26  C   UNL d   1      -1.000   3.367  -1.048  0.00  0.00     0.041 A 
ENDBRANCH   3  22
TORSDOF 3
