REMARK  9 active torsions:
REMARK  status: ('A' for Active; 'I' for Inactive)
REMARK    1  A    between atoms: C_7  and  N_1 
REMARK    2  A    between atoms: C_2  and  O_13 
REMARK    3  A    between atoms: C_10  and  C_2 
REMARK    4  A    between atoms: C_3  and  C_12 
REMARK    5  A    between atoms: O_8  and  C_3 
REMARK    6  A    between atoms: C_20  and  C_4 
REMARK    7  A    between atoms: N_21  and  C_4 
REMARK    8  A    between atoms: N_5  and  O_8 
REMARK    9  A    between atoms: O_13  and  C_20 
ROOT
ATOM      1  C   UNL d   1      -4.286   4.492   0.701  0.00  0.00     0.100 C 
ATOM      2  N   UNL d   1      -3.382   4.044  -0.119  0.00  0.00    -0.248 N 
ATOM      3  HN  UNL d   1      -3.230   4.448  -1.043  1.00  0.00     0.196 HD
ENDROOT
BRANCH   2   4
ATOM      4  O   UNL d   1      -2.623   2.947   0.375  0.00  0.00    -0.194 OA
BRANCH   4   5
ATOM      5  C   UNL d   1      -1.812   2.507  -0.647  0.00  0.00     0.315 C 
ATOM      6  O   UNL d   1      -1.839   2.902  -1.809  0.00  0.00    -0.257 OA
BRANCH   5   7
ATOM      7  C   UNL d   1      -0.823   1.457  -0.240  0.00  0.00     0.041 A 
ATOM      8  C   UNL d   1      -0.735   0.894   1.041  0.00  0.00     0.020 A 
ATOM      9  C   UNL d   1       0.245  -0.083   1.319  0.00  0.00     0.037 A 
ATOM     10  C   UNL d   1       1.139  -0.496   0.318  0.00  0.00     0.102 A 
ATOM     11  C   UNL d   1       1.058   0.054  -0.964  0.00  0.00     0.037 A 
ATOM     12  C   UNL d   1       0.082   1.024  -1.233  0.00  0.00     0.020 A 
BRANCH  10  13
ATOM     13  N   UNL d   1       2.165  -1.508   0.606  0.00  0.00    -0.116 N 
ATOM     14  O   UNL d   1       2.925  -1.839  -0.317  0.00  0.00    -0.532 OA
ATOM     15  O   UNL d   1       2.210  -1.971   1.754  0.00  0.00    -0.532 OA
ENDBRANCH  10  13
ENDBRANCH   5   7
ENDBRANCH   4   5
ENDBRANCH   2   4
BRANCH   1  16
ATOM     16  C   UNL d   1      -5.147   5.681   0.189  0.00  0.00     0.250 C 
BRANCH  16  17
ATOM     17  O   UNL d   1      -5.489   6.694   1.141  0.00  0.00    -0.314 OA
BRANCH  17  18
ATOM     18  C   UNL d   1      -6.571   6.460   1.930  0.00  0.00     0.266 C 
ATOM     19  O   UNL d   1      -7.175   5.392   1.949  0.00  0.00    -0.264 OA
BRANCH  18  20
ATOM     20  C   UNL d   1      -6.946   7.672   2.804  0.00  0.00     0.037 C 
ATOM     21  C   UNL d   1      -5.926   8.817   2.701  0.00  0.00     0.025 C 
ATOM     22  C   UNL d   1      -8.327   8.194   2.380  0.00  0.00     0.025 C 
ATOM     23  C   UNL d   1      -7.017   7.213   4.269  0.00  0.00     0.025 C 
ENDBRANCH  18  20
ENDBRANCH  17  18
ENDBRANCH  16  17
ENDBRANCH   1  16
BRANCH   1  24
ATOM     24  N   UNL d   1      -4.578   3.965   1.934  0.00  0.00    -0.289 NA
ATOM     25  H   UNL d   1      -4.263   3.010   2.050  0.00  0.00     0.125 HD
ATOM     26  H   UNL d   1      -5.546   4.101   2.232  0.00  0.00     0.125 HD
ENDBRANCH   1  24
TORSDOF 9
