REMARK  6 active torsions:
REMARK  status: ('A' for Active; 'I' for Inactive)
REMARK    1  A    between atoms: C_3  and  C_1 
REMARK    2  A    between atoms: C_8  and  C_2 
REMARK       I    between atoms: N_6  and  C_3 
REMARK    3  A    between atoms: C_7  and  N_6 
REMARK    4  A    between atoms: N_11  and  C_7 
REMARK    5  A    between atoms: C_15  and  N_11 
REMARK    6  A    between atoms: S_19  and  C_17 
ROOT
ATOM      1  C   UNL d   1       0.971  -2.456   0.508  0.00  0.00     0.262 C 
ATOM      2  N   UNL d   1      -0.006  -3.407   0.797  0.00  0.00    -0.299 N 
ATOM      3  O   UNL d   1       2.163  -2.737   0.554  0.00  0.00    -0.267 OA
ATOM      4  H   UNL d   1      -0.911  -3.044   1.062  0.00  0.00     0.171 HD
ENDROOT
BRANCH   1   5
ATOM      5  C   UNL d   1       0.474  -1.102   0.281  0.00  0.00     0.093 C 
ATOM      6  C   UNL d   1       1.035   0.230   0.513  0.00  0.00     0.085 C 
ATOM      7  N   UNL d   1       0.121   1.139   0.131  0.00  0.00    -0.259 N 
ATOM      8  O   UNL d   1      -0.935   0.492  -0.417  0.00  0.00    -0.241 OA
ATOM      9  HN  UNL d   1       0.209   2.150   0.236  1.00  0.00     0.195 HD
ATOM     10  C   UNL d   1      -0.712  -0.834  -0.395  0.00  0.00     0.090 C 
ATOM     11  C   UNL d   1      -1.700  -1.632  -1.152  0.00  0.00     0.080 C 
BRANCH   6  12
ATOM     12  C   UNL d   1       2.363   0.739   0.978  0.00  0.00     0.015 A 
ATOM     13  C   UNL d   1       2.612   2.100   1.303  0.00  0.00     0.046 A 
ATOM     14 CL   UNL d   1       1.390   3.319   1.512  0.00  0.00    -0.083 Cl
ATOM     15  C   UNL d   1       3.922   2.577   1.514  0.00  0.00     0.025 A 
ATOM     16  C   UNL d   1       5.011   1.718   1.467  0.00  0.00     0.002 A 
ATOM     17  C   UNL d   1       4.790   0.374   1.229  0.00  0.00     0.001 A 
ATOM     18  C   UNL d   1       3.492  -0.096   0.979  0.00  0.00     0.015 A 
ENDBRANCH   6  12
ENDBRANCH   1   5
BRANCH   2  19
ATOM     19  C   UNL d   1      -0.052  -4.716   0.348  0.00  0.00     0.179 C 
ATOM     20  S   UNL d   1       1.028  -5.465  -0.683  0.00  0.00    -0.040 SA
BRANCH  19  21
ATOM     21  N   UNL d   1      -1.184  -5.418   0.684  0.00  0.00    -0.333 N 
ATOM     22  H   UNL d   1      -1.365  -6.221   0.085  0.00  0.00     0.168 HD
BRANCH  21  23
ATOM     23  C   UNL d   1      -2.056  -5.250   1.773  0.00  0.00     0.035 A 
ATOM     24  C   UNL d   1      -3.375  -5.690   1.624  0.00  0.00     0.048 A 
ATOM     25  C   UNL d   1      -4.308  -5.543   2.660  0.00  0.00     0.002 A 
ATOM     26  C   UNL d   1      -3.876  -5.009   3.877  0.00  0.00     0.018 A 
ATOM     27  C   UNL d   1      -2.545  -4.614   4.047  0.00  0.00     0.004 A 
ATOM     28  C   UNL d   1      -1.639  -4.721   2.993  0.00  0.00     0.029 A 
BRANCH  25  29
ATOM     29  S   UNL d   1      -6.001  -5.978   2.277  0.00  0.00    -0.134 SA
ATOM     30  C   UNL d   1      -6.770  -6.179   3.905  0.00  0.00     0.095 C 
ENDBRANCH  25  29
ENDBRANCH  21  23
ENDBRANCH  19  21
ENDBRANCH   2  19
TORSDOF 6
