REMARK  3 active torsions:
REMARK  status: ('A' for Active; 'I' for Inactive)
REMARK    1  A    between atoms: S_8  and  C_2 
REMARK    2  A    between atoms: N_9  and  C_3 
REMARK    3  A    between atoms: C_10  and  S_8 
ROOT
ATOM      1  S   UNL d   1       0.293  -1.032   0.717  0.00  0.00    -0.027 SA
ATOM      2  C   UNL d   1       1.618  -0.201   0.019  0.00  0.00     0.130 A 
ATOM      3  C   UNL d   1      -0.672   0.332   0.325  0.00  0.00     0.159 A 
ATOM      4  N   UNL d   1       1.321   0.983  -0.467  0.00  0.00    -0.286 N 
ATOM      5  HN  UNL d   1       1.995   1.601  -0.919  1.00  0.00     0.188 HD
ATOM      6  N   UNL d   1      -0.017   1.290  -0.290  0.00  0.00    -0.279 N 
ATOM      7  HN  UNL d   1      -0.445   2.162  -0.602  1.00  0.00     0.189 HD
ENDROOT
BRANCH   2   8
ATOM      8  S   UNL d   1       3.223  -0.888  -0.056  0.00  0.00    -0.104 SA
BRANCH   8   9
ATOM      9  C   UNL d   1       4.232   0.621  -0.097  0.00  0.00     0.077 C 
ATOM     10  C   UNL d   1       5.705   0.248  -0.117  0.00  0.00     0.016 C 
ENDBRANCH   8   9
ENDBRANCH   2   8
BRANCH   3  11
ATOM     11  N   UNL d   1      -1.985   0.372   0.626  0.00  0.00    -0.379 N 
ATOM     12  H   UNL d   1      -2.465  -0.499   0.814  0.00  0.00     0.158 HD
ATOM     13  H   UNL d   1      -2.540   1.063   0.133  0.00  0.00     0.158 HD
ENDBRANCH   3  11
TORSDOF 3
