REMARK  5 active torsions:
REMARK  status: ('A' for Active; 'I' for Inactive)
REMARK    1  A    between atoms: C_13  and  N_1 
REMARK    2  A    between atoms: N_12  and  C_7 
REMARK    3  A    between atoms: C_15  and  N_12 
REMARK    4  A    between atoms: C_17  and  C_13 
REMARK    5  A    between atoms: O_25  and  C_18 
ROOT
ATOM      1  N   UNL d   1       1.499   1.085  -0.064  0.00  0.00    -0.254 N 
ATOM      2  C   UNL d   1       0.268  -0.693  -0.088  0.00  0.00     0.136 A 
ATOM      3  C   UNL d   1       0.193   0.689  -0.094  0.00  0.00     0.154 A 
ATOM      4  N   UNL d   1       2.337   0.022  -0.098  0.00  0.00    -0.018 NA
ATOM      5  N   UNL d   1       1.586  -1.078  -0.100  0.00  0.00    -0.277 N 
ATOM      6  HN  UNL d   1       1.930  -2.038  -0.109  1.00  0.00     0.184 HD
ATOM      7  C   UNL d   1      -0.945  -1.395  -0.045  0.00  0.00     0.139 A 
ATOM      8  N   UNL d   1      -0.910   1.456  -0.099  0.00  0.00    -0.336 N 
ATOM      9  HN  UNL d   1      -0.908   2.476  -0.110  1.00  0.00     0.168 HD
ATOM     10  N   UNL d   1      -2.092  -0.647  -0.055  0.00  0.00    -0.337 N 
ATOM     11  HN  UNL d   1      -3.002  -1.107  -0.038  1.00  0.00     0.168 HD
ATOM     12  C   UNL d   1      -2.016   0.695  -0.089  0.00  0.00     0.183 A 
ENDROOT
BRANCH   7  13
ATOM     13  N   UNL d   1      -1.025  -2.797  -0.011  0.00  0.00    -0.340 N 
ATOM     14  H   UNL d   1      -0.135  -3.270  -0.114  0.00  0.00     0.167 HD
BRANCH  13  15
ATOM     15  C   UNL d   1      -2.052  -3.580   0.553  0.00  0.00     0.036 A 
ATOM     16  C   UNL d   1      -2.297  -4.871   0.059  0.00  0.00     0.066 A 
ATOM     17  C   UNL d   1      -3.364  -5.634   0.552  0.00  0.00     0.070 A 
ATOM     18  C   UNL d   1      -4.177  -5.113   1.561  0.00  0.00     0.037 A 
ATOM     19  C   UNL d   1      -3.939  -3.841   2.070  0.00  0.00     0.005 A 
ATOM     20  C   UNL d   1      -2.890  -3.080   1.561  0.00  0.00     0.029 A 
BRANCH  17  21
ATOM     21  O   UNL d   1      -3.727  -6.886   0.135  0.00  0.00    -0.356 OA
ATOM     22  C   UNL d   1      -2.985  -7.451  -0.936  0.00  0.00     0.210 C 
ENDBRANCH  17  21
ENDBRANCH  13  15
ENDBRANCH   7  13
BRANCH   1  23
ATOM     23  C   UNL d   1       1.997   2.443   0.000  0.00  0.00     0.187 C 
BRANCH  23  24
ATOM     24  C   UNL d   1       2.151   2.896   1.433  0.00  0.00    -0.039 A 
ATOM     25  C   UNL d   1       3.356   2.683   2.118  0.00  0.00     0.010 A 
ATOM     26  C   UNL d   1       3.483   3.047   3.461  0.00  0.00     0.024 A 
ATOM     27  C   UNL d   1       2.405   3.624   4.127  0.00  0.00     0.034 A 
ATOM     28  C   UNL d   1       1.203   3.849   3.460  0.00  0.00     0.024 A 
ATOM     29 CL   UNL d   1       2.554   4.048   5.788  0.00  0.00    -0.084 Cl
ATOM     30  C   UNL d   1       1.075   3.486   2.117  0.00  0.00     0.010 A 
ENDBRANCH  23  24
ENDBRANCH   1  23
TORSDOF 5
