REMARK  7 active torsions:
REMARK  status: ('A' for Active; 'I' for Inactive)
REMARK    1  A    between atoms: S_11  and  C_5 
REMARK    2  A    between atoms: O_12  and  C_6 
REMARK    3  A    between atoms: O_13  and  C_7 
REMARK    4  A    between atoms: C_14  and  C_8 
REMARK    5  A    between atoms: C_15  and  S_11 
REMARK    6  A    between atoms: C_16  and  C_14 
REMARK    7  A    between atoms: C_17  and  C_16 
ROOT
ATOM      1  C   UNL d   1      -5.129  -1.081   1.582  0.00  0.00    -0.107 C 
ATOM      2  C   UNL d   1      -6.313  -1.222   1.678  0.00  0.00     0.013 C 
ATOM      3  C   UNL d   1      -3.666  -0.927   1.451  0.00  0.00     0.175 C 
ENDROOT
BRANCH   3   4
ATOM      4  S   UNL d   1      -3.255   0.159   0.051  0.00  0.00    -0.082 SA
BRANCH   4   5
ATOM      5  C   UNL d   1      -1.482   0.051   0.089  0.00  0.00     0.148 A 
ATOM      6  N   UNL d   1      -0.910  -1.158   0.074  0.00  0.00    -0.317 N 
ATOM      7  C   UNL d   1       0.434  -1.188   0.022  0.00  0.00     0.152 A 
ATOM      8  HN  UNL d   1      -1.464  -2.014   0.101  1.00  0.00     0.170 HD
ATOM      9  C   UNL d   1       1.245  -0.073  -0.023  0.00  0.00     0.043 A 
ATOM     10  C   UNL d   1       0.520   1.098   0.006  0.00  0.00     0.152 A 
ATOM     11  N   UNL d   1      -0.811   1.209   0.058  0.00  0.00    -0.317 N 
ATOM     12  HN  UNL d   1      -1.283   2.113   0.074  1.00  0.00     0.170 HD
BRANCH   7  13
ATOM     13  O   UNL d   1       0.930  -2.458   0.048  0.00  0.00    -0.346 OA
ATOM     14  H   UNL d   1       1.880  -2.429   0.218  0.00  0.00     0.219 HD
ENDBRANCH   7  13
BRANCH   9  15
ATOM     15  C   UNL d   1       2.747  -0.074  -0.021  0.00  0.00     0.047 C 
BRANCH  15  16
ATOM     16  C   UNL d   1       3.457  -0.752  -1.202  0.00  0.00     0.004 C 
BRANCH  16  17
ATOM     17  C   UNL d   1       3.173  -0.113  -2.561  0.00  0.00    -0.004 C 
ATOM     18  C   UNL d   1       3.958  -0.819  -3.660  0.00  0.00     0.005 C 
ENDBRANCH  16  17
ENDBRANCH  15  16
ENDBRANCH   9  15
BRANCH  10  19
ATOM     19  O   UNL d   1       1.140   2.308  -0.005  0.00  0.00    -0.346 OA
ATOM     20  H   UNL d   1       0.370   2.906   0.019  0.00  0.00     0.219 HD
ENDBRANCH  10  19
ENDBRANCH   4   5
ENDBRANCH   3   4
TORSDOF 7
