REMARK  9 active torsions:
REMARK  status: ('A' for Active; 'I' for Inactive)
REMARK    1  A    between atoms: N_2  and  C_1 
REMARK    2  A    between atoms: N_3  and  C_1 
REMARK    3  A    between atoms: C_12  and  N_3 
REMARK    4  A    between atoms: C_4  and  C_8 
REMARK    5  A    between atoms: O_13  and  C_4 
REMARK    6  A    between atoms: C_19  and  O_13 
REMARK    7  A    between atoms: C_20  and  C_14 
REMARK    8  A    between atoms: C_21  and  C_20 
REMARK    9  A    between atoms: C_22  and  C_21 
ROOT
ATOM      1  C   UNL d   1       0.902  -0.045  -0.054  0.00  0.00     0.174 C 
ATOM      2  S   UNL d   1       2.592  -0.088  -0.017  0.00  0.00    -0.041 SA
ENDROOT
BRANCH   1   3
ATOM      3  N   UNL d   1       0.127  -0.711  -1.024  0.00  0.00    -0.358 N 
ATOM      4  C   UNL d   1       0.724  -1.635  -2.000  0.00  0.00     0.126 C 
ATOM      5  C   UNL d   1       0.208  -1.337  -3.403  0.00  0.00     0.034 C 
ATOM      6  C   UNL d   1      -1.324  -1.401  -3.464  0.00  0.00     0.088 C 
ATOM      7  C   UNL d   1      -1.934  -0.510  -2.371  0.00  0.00     0.034 C 
ATOM      8  C   UNL d   1      -1.342  -0.789  -0.986  0.00  0.00     0.126 C 
BRANCH   6   9
ATOM      9  C   UNL d   1      -1.800  -2.839  -3.341  0.00  0.00     0.263 C 
ATOM     10  O   UNL d   1      -2.579  -3.249  -2.490  0.00  0.00    -0.265 OA
BRANCH   9  11
ATOM     11  O   UNL d   1      -1.202  -3.609  -4.289  0.00  0.00    -0.322 OA
BRANCH  11  12
ATOM     12  C   UNL d   1      -1.283  -5.027  -4.087  0.00  0.00     0.174 C 
ATOM     13  C   UNL d   1      -0.137  -5.451  -3.187  0.00  0.00     0.034 C 
ENDBRANCH  11  12
ENDBRANCH   9  11
ENDBRANCH   6   9
ENDBRANCH   1   3
BRANCH   1  14
ATOM     14  N   UNL d   1       0.146   0.739   0.817  0.00  0.00    -0.333 N 
ATOM     15  H   UNL d   1      -0.504   1.346   0.336  0.00  0.00     0.168 HD
BRANCH  14  16
ATOM     16  C   UNL d   1       0.539   1.176   2.102  0.00  0.00     0.034 C 
ATOM     17  C   UNL d   1       0.190   2.463   2.515  0.00  0.00     0.030 C 
ATOM     18  C   UNL d   1       0.707   2.975   3.709  0.00  0.00     0.009 C 
ATOM     19  C   UNL d   1       1.546   2.192   4.513  0.00  0.00    -0.058 C 
ATOM     20  C   UNL d   1       1.767   0.857   4.162  0.00  0.00     0.009 C 
ATOM     21  C   UNL d   1       1.263   0.352   2.965  0.00  0.00     0.030 C 
BRANCH  19  22
ATOM     22  C   UNL d   1       2.269   2.795   5.692  0.00  0.00     0.038 C 
BRANCH  22  23
ATOM     23  C   UNL d   1       3.799   2.767   5.535  0.00  0.00     0.004 C 
BRANCH  23  24
ATOM     24  C   UNL d   1       4.300   3.555   4.319  0.00  0.00    -0.004 C 
ATOM     25  C   UNL d   1       5.815   3.490   4.198  0.00  0.00     0.005 C 
ENDBRANCH  23  24
ENDBRANCH  22  23
ENDBRANCH  19  22
ENDBRANCH  14  16
ENDBRANCH   1  14
TORSDOF 9
