REMARK  6 active torsions:
REMARK  status: ('A' for Active; 'I' for Inactive)
REMARK    1  A    between atoms: C_2  and  C_1 
REMARK       I    between atoms: N_4  and  C_2 
REMARK    2  A    between atoms: C_3  and  C_7 
REMARK    3  A    between atoms: C_5  and  N_4 
REMARK    4  A    between atoms: C_6  and  C_13 
REMARK    5  A    between atoms: O_11  and  C_9 
REMARK    6  A    between atoms: C_13  and  O_11 
ROOT
ATOM      1  C   UNL d   1      -1.046   1.413   1.924  0.00  0.00     0.069 A 
ATOM      2  C   UNL d   1      -1.763   3.135   0.356  0.00  0.00     0.050 A 
ATOM      3  C   UNL d   1      -1.524   1.786   0.664  0.00  0.00     0.048 A 
ATOM      4  C   UNL d   1      -0.807   2.403   2.898  0.00  0.00     0.095 A 
ATOM      5  C   UNL d   1      -1.501   4.109   1.327  0.00  0.00     0.019 A 
ATOM      6  C   UNL d   1      -1.019   3.748   2.587  0.00  0.00     0.040 A 
ENDROOT
BRANCH   1   7
ATOM      7  N   UNL d   1      -0.751   0.073   2.267  0.00  0.00    -0.321 N 
ATOM      8  C   UNL d   1      -1.147  -1.078   1.587  0.00  0.00     0.277 C 
ATOM      9  O   UNL d   1      -1.998  -1.059   0.692  0.00  0.00    -0.268 OA
ATOM     10  H   UNL d   1      -0.252  -0.037   3.149  0.00  0.00     0.169 HD
BRANCH   8  11
ATOM     11  C   UNL d   1      -0.510  -2.395   2.095  0.00  0.00     0.269 C 
ATOM     12 CL   UNL d   1       1.231  -2.141   2.418  0.00  0.00    -0.073 Cl
ATOM     13 CL   UNL d   1      -0.687  -3.684   0.877  0.00  0.00    -0.073 Cl
ATOM     14 CL   UNL d   1      -1.336  -2.858   3.605  0.00  0.00    -0.073 Cl
ENDBRANCH   8  11
ENDBRANCH   1   7
BRANCH   4  15
ATOM     15  O   UNL d   1      -0.381   1.942   4.120  0.00  0.00    -0.340 OA
BRANCH  15  16
ATOM     16  C   UNL d   1      -0.506   2.845   5.231  0.00  0.00     0.293 C 
BRANCH  16  17
ATOM     17  C   UNL d   1      -0.395   2.089   6.549  0.00  0.00     0.408 C 
ATOM     18  F   UNL d   1       0.479   1.062   6.474  0.00  0.00    -0.169 F 
ATOM     19  F   UNL d   1       0.029   2.913   7.534  0.00  0.00    -0.169 F 
ATOM     20  F   UNL d   1      -1.593   1.588   6.926  0.00  0.00    -0.169 F 
ENDBRANCH  16  17
ENDBRANCH  15  16
ENDBRANCH   4  15
BRANCH   2  21
ATOM     21  C   UNL d   1      -2.299   3.536  -0.997  0.00  0.00     0.417 C 
ATOM     22  F   UNL d   1      -2.349   2.513  -1.894  0.00  0.00    -0.166 F 
ATOM     23  F   UNL d   1      -3.564   4.036  -0.921  0.00  0.00    -0.166 F 
ATOM     24  F   UNL d   1      -1.549   4.509  -1.584  0.00  0.00    -0.166 F 
ENDBRANCH   2  21
TORSDOF 6
