REMARK  2 active torsions:
REMARK  status: ('A' for Active; 'I' for Inactive)
REMARK    1  A    between atoms: C_10  and  C_2 
REMARK    2  A    between atoms: N_8  and  C_12 
ROOT
ATOM      1  N   UNL d   1      -0.852   0.528   0.028  0.00  0.00    -0.282 N 
ATOM      2  C   UNL d   1      -1.676   1.647  -0.169  0.00  0.00     0.139 A 
ATOM      3  N   UNL d   1      -2.936   1.248  -0.089  0.00  0.00    -0.283 N 
ATOM      4  HN  UNL d   1      -3.752   1.858  -0.151  1.00  0.00     0.188 HD
ATOM      5  C   UNL d   1      -1.735  -0.532   0.139  0.00  0.00     0.114 A 
ATOM      6  N   UNL d   1      -2.974  -0.103   0.088  0.00  0.00    -0.286 N 
ATOM      7  HN  UNL d   1      -3.813  -0.676   0.166  1.00  0.00     0.188 HD
ATOM      8  C   UNL d   1       0.564   0.384   0.111  0.00  0.00     0.059 A 
ATOM      9  S   UNL d   1       0.192  -2.340  -0.516  0.00  0.00    -0.120 SA
ATOM     10  C   UNL d   1       1.143  -0.874  -0.147  0.00  0.00     0.028 A 
ATOM     11  C   UNL d   1      -1.305  -1.920   0.409  0.00  0.00     0.158 C 
ATOM     12  C   UNL d   1       1.401   1.462   0.428  0.00  0.00     0.031 A 
ATOM     13  C   UNL d   1       2.539  -1.001  -0.177  0.00  0.00     0.021 A 
ATOM     14  C   UNL d   1       2.790   1.332   0.355  0.00  0.00     0.002 A 
ATOM     15  C   UNL d   1       3.359   0.103   0.048  0.00  0.00     0.002 A 
ENDROOT
BRANCH   2  16
ATOM     16  C   UNL d   1      -1.314   3.047  -0.420  0.00  0.00     0.012 C 
ATOM     17  C   UNL d   1      -2.094   4.068   0.148  0.00  0.00     0.051 C 
ATOM     18  C   UNL d   1      -1.701   5.409   0.027  0.00  0.00     0.103 C 
ATOM     19  C   UNL d   1      -0.524   5.747  -0.651  0.00  0.00     0.036 C 
ATOM     20  C   UNL d   1       0.209   4.745  -1.283  0.00  0.00     0.003 C 
ATOM     21  C   UNL d   1      -0.217   3.416  -1.217  0.00  0.00     0.015 C 
BRANCH  18  22
ATOM     22  N   UNL d   1      -2.515   6.473   0.631  0.00  0.00    -0.116 N 
ATOM     23  O   UNL d   1      -3.550   6.141   1.227  0.00  0.00    -0.532 OA
ATOM     24  O   UNL d   1      -2.117   7.638   0.510  0.00  0.00    -0.532 OA
ENDBRANCH  18  22
ENDBRANCH   2  16
TORSDOF 2
