REMARK  3 active torsions:
REMARK  status: ('A' for Active; 'I' for Inactive)
REMARK    1  A    between atoms: N_6  and  C_1 
REMARK       I    between atoms: C_8  and  N_6 
REMARK    2  A    between atoms: C_12  and  C_7 
REMARK       I    between atoms: N_9  and  C_8 
REMARK    3  A    between atoms: C_10  and  N_9 
ROOT
ATOM      1  C   UNL d   1       0.340  -1.268   0.459  0.00  0.00     0.127 A 
ATOM      2  N   UNL d   1       0.692   0.866   1.165  0.00  0.00    -0.296 N 
ATOM      3  HN  UNL d   1       0.536   1.777   1.597  1.00  0.00     0.187 HD
ATOM      4  C   UNL d   1       1.587  -0.871   0.020  0.00  0.00     0.082 A 
ATOM      5  N   UNL d   1      -0.126  -0.195   1.180  0.00  0.00    -0.281 N 
ATOM      6  C   UNL d   1       1.761   0.470   0.460  0.00  0.00     0.062 A 
ATOM      7  C   UNL d   1      -1.383  -0.071   1.875  0.00  0.00     0.179 C 
ENDROOT
BRANCH   1   8
ATOM      8  N   UNL d   1      -0.331  -2.477   0.228  0.00  0.00    -0.293 N 
ATOM      9  C   UNL d   1       0.183  -3.498  -0.633  0.00  0.00     0.326 C 
ATOM     10  N   UNL d   1      -0.700  -4.540  -0.750  0.00  0.00    -0.308 N 
ATOM     11  O   UNL d   1       1.246  -3.351  -1.196  0.00  0.00    -0.247 OA
ATOM     12  H   UNL d   1      -1.660  -4.360  -0.497  0.00  0.00     0.170 HD
ATOM     13  H   UNL d   1      -1.225  -2.611   0.669  0.00  0.00     0.172 HD
BRANCH  10  14
ATOM     14  C   UNL d   1      -0.512  -5.604  -1.675  0.00  0.00     0.042 C 
ATOM     15  C   UNL d   1       0.728  -6.196  -1.983  0.00  0.00    -0.035 C 
ATOM     16  C   UNL d   1       1.982  -6.041  -1.164  0.00  0.00     0.050 C 
ATOM     17  C   UNL d   1       0.814  -7.053  -3.096  0.00  0.00     0.009 C 
ATOM     18  C   UNL d   1      -0.318  -7.399  -3.829  0.00  0.00     0.001 C 
ATOM     19  C   UNL d   1      -1.562  -6.927  -3.431  0.00  0.00     0.002 C 
ATOM     20  C   UNL d   1      -1.661  -6.043  -2.353  0.00  0.00     0.030 C 
ENDBRANCH  10  14
ENDBRANCH   1   8
BRANCH   6  21
ATOM     21  C   UNL d   1       2.879   1.378   0.202  0.00  0.00    -0.008 A 
ATOM     22  C   UNL d   1       2.643   2.759   0.113  0.00  0.00     0.014 A 
ATOM     23  C   UNL d   1       3.688   3.650  -0.136  0.00  0.00     0.001 A 
ATOM     24  C   UNL d   1       4.985   3.172  -0.291  0.00  0.00     0.000 A 
ATOM     25  C   UNL d   1       5.237   1.802  -0.205  0.00  0.00     0.001 A 
ATOM     26  C   UNL d   1       4.189   0.907   0.037  0.00  0.00     0.014 A 
ENDBRANCH   6  21
TORSDOF 3
