REMARK  1 active torsions:
REMARK  status: ('A' for Active; 'I' for Inactive)
REMARK    1  A    between atoms: C_5  and  N_4 
ROOT
ATOM      1  C   UNL d   1       1.298  -3.169   0.267  0.00  0.00     0.040 A 
ATOM      2  C   UNL d   1       2.162  -2.865   1.346  0.00  0.00    -0.032 A 
ATOM      3  C   UNL d   1       3.391  -3.545   1.462  0.00  0.00     0.051 A 
ATOM      4  C   UNL d   1       1.699  -4.172  -0.638  0.00  0.00     0.033 A 
ATOM      5  C   UNL d   1       3.752  -4.522   0.544  0.00  0.00     0.117 A 
ATOM      6  C   UNL d   1       2.910  -4.851  -0.501  0.00  0.00     0.044 A 
ATOM      7  F   UNL d   1       4.930  -5.146   0.668  0.00  0.00    -0.206 F 
ATOM      8  C   UNL d   1       1.888  -1.790   2.364  0.00  0.00     0.050 C 
ENDROOT
BRANCH   1   9
ATOM      9  N   UNL d   1       0.123  -2.429   0.045  0.00  0.00    -0.337 N 
ATOM     10  C   UNL d   1      -0.524  -2.226  -1.138  0.00  0.00     0.140 C 
ATOM     11  N   UNL d   1      -0.161  -2.545  -2.335  0.00  0.00    -0.370 N 
ATOM     12  S   UNL d   1      -2.071  -1.409  -0.994  0.00  0.00    -0.093 SA
ATOM     13  C   UNL d   1      -1.139  -2.058  -3.321  0.00  0.00     0.132 C 
ATOM     14  HN  UNL d   1       0.687  -3.063  -2.566  1.00  0.00     0.161 HD
ATOM     15  C   UNL d   1      -2.499  -1.925  -2.666  0.00  0.00     0.102 C 
ATOM     16  H   UNL d   1      -0.320  -2.021   0.853  0.00  0.00     0.168 HD
ENDBRANCH   1   9
TORSDOF 1
