REMARK  4 active torsions:
REMARK  status: ('A' for Active; 'I' for Inactive)
REMARK    1  A    between atoms: C_11  and  C_1 
REMARK    2  A    between atoms: C_5  and  C_2 
REMARK    3  A    between atoms: N_6  and  C_3 
REMARK       I    between atoms: C_7  and  N_6 
REMARK    4  A    between atoms: C_9  and  C_7 
ROOT
ATOM      1  C   UNL d   1       1.408   0.793  -0.201  0.00  0.00     0.023 C 
ATOM      2  C   UNL d   1       0.140   1.353  -0.054  0.00  0.00     0.102 C 
ATOM      3  C   UNL d   1       1.393  -0.622   0.095  0.00  0.00     0.054 C 
ATOM      4  S   UNL d   1      -1.057   0.140   0.198  0.00  0.00    -0.094 SA
ATOM      5  C   UNL d   1       0.110  -1.091   0.267  0.00  0.00     0.081 C 
ENDROOT
BRANCH   3   6
ATOM      6  N   UNL d   1       2.527  -1.427   0.132  0.00  0.00    -0.320 N 
ATOM      7  C   UNL d   1       2.782  -2.462   1.016  0.00  0.00     0.280 C 
ATOM      8  O   UNL d   1       3.767  -3.177   0.832  0.00  0.00    -0.265 OA
ATOM      9  H   UNL d   1       3.344  -1.127  -0.386  0.00  0.00     0.169 HD
BRANCH   7  10
ATOM     10  C   UNL d   1       1.927  -2.587   2.173  0.00  0.00     0.142 A 
ATOM     11  O   UNL d   1       1.927  -1.569   3.096  0.00  0.00    -0.317 OA
ATOM     12  C   UNL d   1       1.028  -1.901   4.059  0.00  0.00     0.143 A 
ATOM     13  C   UNL d   1       0.430  -3.104   3.763  0.00  0.00     0.027 A 
ATOM     14  C   UNL d   1       1.037  -3.563   2.566  0.00  0.00     0.045 A 
ENDBRANCH   7  10
ENDBRANCH   3   6
BRANCH   1  15
ATOM     15  C   UNL d   1       2.605   1.591  -0.483  0.00  0.00    -0.022 A 
ATOM     16  C   UNL d   1       3.754   1.440   0.310  0.00  0.00     0.012 A 
ATOM     17  C   UNL d   1       4.937   2.108  -0.014  0.00  0.00     0.001 A 
ATOM     18  C   UNL d   1       4.973   2.965  -1.110  0.00  0.00     0.000 A 
ATOM     19  C   UNL d   1       3.829   3.150  -1.886  0.00  0.00     0.001 A 
ATOM     20  C   UNL d   1       2.655   2.455  -1.585  0.00  0.00     0.012 A 
ENDBRANCH   1  15
BRANCH   2  21
ATOM     21  C   UNL d   1      -0.330   2.769  -0.101  0.00  0.00     0.424 C 
ATOM     22  F   UNL d   1       0.652   3.669   0.167  0.00  0.00    -0.166 F 
ATOM     23  F   UNL d   1      -0.824   3.089  -1.329  0.00  0.00    -0.166 F 
ATOM     24  F   UNL d   1      -1.319   3.020   0.798  0.00  0.00    -0.166 F 
ENDBRANCH   2  21
TORSDOF 4
