REMARK  1 active torsions:
REMARK  status: ('A' for Active; 'I' for Inactive)
REMARK    1  A    between atoms: C_3  and  C_1 
REMARK       I    between atoms: N_6  and  C_3 
ROOT
ATOM      1  C   UNL d   1       3.292  -1.417   0.520  0.00  0.00     0.182 C 
ATOM      2  C   UNL d   1       4.653  -0.866   0.161  0.00  0.00     0.277 C 
ATOM      3  O   UNL d   1       4.755   0.524   0.128  0.00  0.00    -0.278 OA
ATOM      4  C   UNL d   1       2.268  -0.711  -0.366  0.00  0.00     0.065 C 
ATOM      5  C   UNL d   1       2.348   0.764  -0.132  0.00  0.00    -0.022 A 
ATOM      6  C   UNL d   1       3.595   1.324   0.140  0.00  0.00     0.085 A 
ATOM      7  O   UNL d   1       5.617  -1.589  -0.087  0.00  0.00    -0.264 OA
ATOM      8  C   UNL d   1       1.221   1.588  -0.168  0.00  0.00     0.029 A 
ATOM      9  C   UNL d   1       3.740   2.681   0.408  0.00  0.00     0.039 A 
ATOM     10  C   UNL d   1       1.357   2.951   0.102  0.00  0.00     0.011 A 
ATOM     11  C   UNL d   1       2.608   3.499   0.397  0.00  0.00     0.022 A 
ATOM     12 BR   UNL d   1      -0.172   4.062   0.078  0.00  0.00    -0.051 Br
ENDROOT
BRANCH   1  13
ATOM     13  C   UNL d   1       3.029  -1.279   2.017  0.00  0.00     0.234 C 
ATOM     14  N   UNL d   1       1.876  -1.831   2.560  0.00  0.00    -0.351 N 
ATOM     15  C   UNL d   1       1.556  -1.540   3.961  0.00  0.00     0.125 C 
ATOM     16  C   UNL d   1       0.923  -2.706   1.878  0.00  0.00     0.125 C 
ATOM     17  C   UNL d   1       1.387  -2.826   4.763  0.00  0.00     0.020 C 
ATOM     18  C   UNL d   1       0.350  -3.738   4.112  0.00  0.00     0.003 C 
ATOM     19  C   UNL d   1       0.710  -4.004   2.652  0.00  0.00     0.020 C 
ATOM     20  O   UNL d   1       3.836  -0.678   2.730  0.00  0.00    -0.272 OA
ENDBRANCH   1  13
TORSDOF 1
