REMARK  1 active torsions:
REMARK  status: ('A' for Active; 'I' for Inactive)
REMARK    1  A    between atoms: C_2  and  N_1 
ROOT
ATOM      1  C   UNL d   1      -0.080   2.360   0.001  0.00  0.00     0.047 A 
ATOM      2  C   UNL d   1      -0.880   3.091   0.894  0.00  0.00     0.055 A 
ATOM      3  C   UNL d   1      -0.963   4.490   0.831  0.00  0.00     0.053 A 
ATOM      4  C   UNL d   1      -0.248   5.187  -0.143  0.00  0.00     0.032 A 
ATOM      5  C   UNL d   1       0.657   3.086  -0.947  0.00  0.00     0.031 A 
ATOM      6  C   UNL d   1       0.567   4.482  -1.027  0.00  0.00     0.023 A 
ATOM      7 CL   UNL d   1      -1.966   5.284   1.994  0.00  0.00    -0.083 Cl
ATOM      8 BR   UNL d   1      -0.335   7.073  -0.338  0.00  0.00    -0.049 Br
ENDROOT
BRANCH   1   9
ATOM      9  N   UNL d   1      -0.034   0.936   0.041  0.00  0.00    -0.245 N 
ATOM     10  C   UNL d   1       0.915   0.150  -0.556  0.00  0.00     0.255 A 
ATOM     11  C   UNL d   1       0.555  -1.250  -0.303  0.00  0.00     0.080 A 
ATOM     12  O   UNL d   1       1.925   0.439  -1.175  0.00  0.00    -0.268 OA
ATOM     13  C   UNL d   1      -0.561  -1.261   0.418  0.00  0.00     0.080 A 
ATOM     14  C   UNL d   1      -0.961   0.132   0.649  0.00  0.00     0.255 A 
ATOM     15  O   UNL d   1      -1.987   0.400   1.248  0.00  0.00    -0.268 OA
ENDBRANCH   1   9
TORSDOF 1
