REMARK  5 active torsions:
REMARK  status: ('A' for Active; 'I' for Inactive)
REMARK    1  A    between atoms: C_2  and  S_1 
REMARK    2  A    between atoms: N_10  and  S_1 
REMARK    3  A    between atoms: C_18  and  N_10 
REMARK    4  A    between atoms: C_14  and  O_17 
REMARK    5  A    between atoms: O_17  and  C_19 
ROOT
ATOM      1  S   UNL d   1       0.960  -0.041   0.123  0.00  0.00     0.265 S 
ATOM      2  O   UNL d   1       0.240   1.164   0.466  0.00  0.00    -0.200 OA
ATOM      3  O   UNL d   1       2.407  -0.089   0.222  0.00  0.00    -0.200 OA
ENDROOT
BRANCH   1   4
ATOM      4  C   UNL d   1       0.536  -0.441  -1.532  0.00  0.00     0.110 A 
ATOM      5  C   UNL d   1      -0.782  -0.653  -1.957  0.00  0.00     0.108 A 
ATOM      6  C   UNL d   1      -1.090  -0.962  -3.352  0.00  0.00     0.086 A 
ATOM      7  N   UNL d   1      -1.938  -0.650  -1.278  0.00  0.00    -0.238 N 
ATOM      8  N   UNL d   1      -2.410  -1.132  -3.467  0.00  0.00    -0.239 N 
ATOM      9  C   UNL d   1      -0.098  -1.055  -4.349  0.00  0.00     0.034 A 
ATOM     10  O   UNL d   1      -2.929  -0.927  -2.201  0.00  0.00    -0.156 OA
ATOM     11  HN  UNL d   1      -2.929  -1.364  -4.314  1.00  0.00     0.197 HD
ATOM     12  C   UNL d   1       1.213  -0.826  -3.895  0.00  0.00     0.004 A 
ATOM     13  C   UNL d   1       1.522  -0.529  -2.542  0.00  0.00     0.028 A 
ATOM     14  HN  UNL d   1      -2.062  -0.478  -0.280  1.00  0.00     0.197 HD
ENDBRANCH   1   4
BRANCH   1  15
ATOM     15  N   UNL d   1       0.342  -1.276   1.069  0.00  0.00    -0.281 N 
ATOM     16  H   UNL d   1      -0.544  -1.080   1.535  0.00  0.00     0.179 HD
BRANCH  15  17
ATOM     17  C   UNL d   1       0.776  -2.612   0.913  0.00  0.00     0.042 A 
ATOM     18  C   UNL d   1       1.875  -3.075   1.635  0.00  0.00     0.033 A 
ATOM     19  C   UNL d   1       2.281  -4.412   1.524  0.00  0.00     0.039 A 
ATOM     20  C   UNL d   1       1.593  -5.280   0.674  0.00  0.00     0.075 A 
ATOM     21  C   UNL d   1       0.504  -4.800  -0.059  0.00  0.00     0.039 A 
ATOM     22  C   UNL d   1       0.080  -3.478   0.077  0.00  0.00     0.033 A 
BRANCH  20  23
ATOM     23  O   UNL d   1       1.897  -6.590   0.441  0.00  0.00    -0.290 OA
BRANCH  23  24
ATOM     24  C   UNL d   1       2.551  -7.284   1.489  0.00  0.00     0.505 C 
ATOM     25  F   UNL d   1       1.754  -7.293   2.585  0.00  0.00    -0.184 F 
ATOM     26  F   UNL d   1       2.679  -8.576   1.092  0.00  0.00    -0.184 F 
ENDBRANCH  23  24
ENDBRANCH  20  23
ENDBRANCH  15  17
ENDBRANCH   1  15
TORSDOF 5
