REMARK  6 active torsions:
REMARK  status: ('A' for Active; 'I' for Inactive)
REMARK    1  A    between atoms: C_2  and  C_1 
REMARK       I    between atoms: N_8  and  C_2 
REMARK    2  A    between atoms: O_16  and  C_3 
REMARK    3  A    between atoms: O_17  and  C_4 
REMARK    4  A    between atoms: C_10  and  N_8 
REMARK    5  A    between atoms: O_13  and  C_12 
REMARK    6  A    between atoms: C_19  and  O_13 
ROOT
ATOM      1  C   UNL d   1       0.275  -3.656  -1.406  0.00  0.00     0.261 C 
ATOM      2  N   UNL d   1       1.211  -4.324  -0.615  0.00  0.00    -0.323 N 
ATOM      3  O   UNL d   1       0.448  -2.564  -1.947  0.00  0.00    -0.267 OA
ATOM      4  H   UNL d   1       0.972  -5.270  -0.346  0.00  0.00     0.169 HD
ENDROOT
BRANCH   1   5
ATOM      5  C   UNL d   1      -0.988  -4.413  -1.693  0.00  0.00     0.102 A 
ATOM      6  C   UNL d   1      -0.933  -5.810  -1.871  0.00  0.00     0.108 A 
ATOM      7  C   UNL d   1      -2.104  -6.542  -2.083  0.00  0.00     0.070 A 
ATOM      8 CL   UNL d   1      -2.089  -8.266  -2.173  0.00  0.00    -0.081 Cl
ATOM      9  C   UNL d   1      -3.316  -5.883  -2.229  0.00  0.00     0.053 A 
ATOM     10  C   UNL d   1      -3.381  -4.487  -2.130  0.00  0.00     0.070 A 
ATOM     11  C   UNL d   1      -2.223  -3.731  -1.851  0.00  0.00     0.108 A 
ATOM     12 CL   UNL d   1      -4.974  -3.833  -2.302  0.00  0.00    -0.081 Cl
BRANCH   6  13
ATOM     13  O   UNL d   1       0.261  -6.494  -1.818  0.00  0.00    -0.353 OA
ATOM     14  C   UNL d   1       0.898  -6.461  -3.105  0.00  0.00     0.210 C 
ENDBRANCH   6  13
BRANCH  11  15
ATOM     15  O   UNL d   1      -2.209  -2.385  -1.583  0.00  0.00    -0.353 OA
ATOM     16  C   UNL d   1      -3.026  -1.515  -2.359  0.00  0.00     0.210 C 
ENDBRANCH  11  15
ENDBRANCH   1   5
BRANCH   2  17
ATOM     17  C   UNL d   1       2.567  -3.964  -0.419  0.00  0.00     0.037 A 
ATOM     18  C   UNL d   1       3.079  -2.711  -0.742  0.00  0.00     0.066 A 
ATOM     19  C   UNL d   1       4.454  -2.459  -0.680  0.00  0.00     0.071 A 
ATOM     20  C   UNL d   1       5.309  -3.452  -0.199  0.00  0.00     0.037 A 
ATOM     21  C   UNL d   1       4.806  -4.692   0.183  0.00  0.00     0.005 A 
ATOM     22  C   UNL d   1       3.436  -4.948   0.067  0.00  0.00     0.029 A 
BRANCH  19  23
ATOM     23  O   UNL d   1       5.064  -1.303  -1.085  0.00  0.00    -0.347 OA
BRANCH  23  24
ATOM     24  C   UNL d   1       4.308  -0.370  -1.873  0.00  0.00     0.120 C 
ATOM     25  C   UNL d   1       5.152   0.899  -1.976  0.00  0.00     0.040 C 
ATOM     26  C   UNL d   1       4.035  -0.909  -3.279  0.00  0.00     0.040 C 
ENDBRANCH  23  24
ENDBRANCH  19  23
ENDBRANCH   2  17
TORSDOF 6
