REMARK  4 active torsions:
REMARK  status: ('A' for Active; 'I' for Inactive)
REMARK    1  A    between atoms: C_10  and  C_2 
REMARK       I    between atoms: C_5  and  N_9 
REMARK    2  A    between atoms: C_6  and  C_5 
REMARK    3  A    between atoms: N_9  and  N_13 
REMARK    4  A    between atoms: N_13  and  C_20 
ROOT
ATOM      1  N   UNL d   1       6.065  -3.948  -0.387  0.00  0.00    -0.203 NA
ATOM      2  H   UNL d   1       6.589  -4.007   0.496  0.00  0.00     0.153 HD
ENDROOT
BRANCH   1   3
ATOM      3  N   UNL d   1       5.979  -5.221  -0.981  0.00  0.00    -0.283 N 
ATOM      4  C   UNL d   1       6.894  -6.168  -0.545  0.00  0.00     0.266 C 
ATOM      5  O   UNL d   1       7.687  -5.987   0.371  0.00  0.00    -0.266 OA
ATOM      6  H   UNL d   1       5.665  -5.235  -1.946  0.00  0.00     0.184 HD
BRANCH   4   7
ATOM      7  C   UNL d   1       6.867  -7.458  -1.279  0.00  0.00     0.036 A 
ATOM      8  C   UNL d   1       8.060  -8.161  -1.472  0.00  0.00     0.041 A 
ATOM      9  C   UNL d   1       8.034  -9.387  -2.136  0.00  0.00     0.036 A 
ATOM     10 CL   UNL d   1       9.499 -10.252  -2.393  0.00  0.00    -0.084 Cl
ATOM     11  C   UNL d   1       6.832  -9.925  -2.594  0.00  0.00     0.047 A 
ATOM     12  C   UNL d   1       5.646  -9.225  -2.382  0.00  0.00     0.036 A 
ATOM     13  C   UNL d   1       5.654  -7.992  -1.729  0.00  0.00     0.041 A 
ATOM     14 CL   UNL d   1       4.153  -9.890  -2.918  0.00  0.00    -0.084 Cl
ENDBRANCH   4   7
ENDBRANCH   1   3
BRANCH   1  15
ATOM     15  C   UNL d   1       4.816  -3.299  -0.220  0.00  0.00     0.027 A 
ATOM     16  C   UNL d   1       4.641  -2.431   0.866  0.00  0.00     0.026 A 
ATOM     17  C   UNL d   1       3.476  -1.661   1.004  0.00  0.00     0.015 A 
ATOM     18  C   UNL d   1       2.465  -1.716   0.036  0.00  0.00    -0.008 A 
ATOM     19  C   UNL d   1       2.635  -2.581  -1.052  0.00  0.00     0.015 A 
ATOM     20  C   UNL d   1       3.800  -3.350  -1.184  0.00  0.00     0.026 A 
BRANCH  18  21
ATOM     21  C   UNL d   1       1.268  -0.887   0.120  0.00  0.00     0.063 A 
ATOM     22  N   UNL d   1       0.079  -1.270  -0.492  0.00  0.00    -0.292 N 
ATOM     23  N   UNL d   1      -0.880  -0.377  -0.319  0.00  0.00    -0.061 NA
ATOM     24  HN  UNL d   1      -0.039  -2.139  -1.013  1.00  0.00     0.183 HD
ATOM     25  S   UNL d   1      -0.379   0.952   0.562  0.00  0.00    -0.010 SA
ATOM     26  C   UNL d   1       1.213   0.342   0.757  0.00  0.00     0.096 A 
ENDBRANCH  18  21
ENDBRANCH   1  15
TORSDOF 4
