REMARK  5 active torsions:
REMARK  status: ('A' for Active; 'I' for Inactive)
REMARK    1  A    between atoms: C_2  and  S_1 
REMARK    2  A    between atoms: N_6  and  S_1 
REMARK    3  A    between atoms: C_13  and  N_6 
REMARK    4  A    between atoms: C_11  and  O_12 
REMARK    5  A    between atoms: O_12  and  C_14 
ROOT
ATOM      1  N   UNL d   1       0.182   1.576  -0.656  0.00  0.00    -0.180 NA
ATOM      2  H   UNL d   1       0.189   1.494  -1.672  0.00  0.00     0.146 HD
ENDROOT
BRANCH   1   3
ATOM      3  S   UNL d   1       0.921   0.186  -0.015  0.00  0.00     0.263 S 
ATOM      4  O   UNL d   1       0.272  -0.958  -0.619  0.00  0.00    -0.204 OA
ATOM      5  O   UNL d   1       2.359   0.352  -0.100  0.00  0.00    -0.204 OA
BRANCH   3   6
ATOM      6  C   UNL d   1       0.574   0.059   1.689  0.00  0.00     0.161 A 
ATOM      7  N   UNL d   1      -0.698   0.204   2.227  0.00  0.00    -0.341 N 
ATOM      8  C   UNL d   1      -0.540   0.051   3.523  0.00  0.00     0.183 A 
ATOM      9  HN  UNL d   1      -1.566   0.388   1.725  1.00  0.00     0.167 HD
ATOM     10  N   UNL d   1       0.770  -0.154   3.848  0.00  0.00    -0.354 N 
ATOM     11  C   UNL d   1       1.496  -0.159   2.694  0.00  0.00     0.134 A 
ATOM     12  C   UNL d   1       1.283  -0.318   5.184  0.00  0.00     0.156 C 
ENDBRANCH   3   6
ENDBRANCH   1   3
BRANCH   1  13
ATOM     13  C   UNL d   1       0.666   2.826  -0.168  0.00  0.00     0.023 A 
ATOM     14  C   UNL d   1       1.778   3.433  -0.749  0.00  0.00     0.027 A 
ATOM     15  C   UNL d   1       2.237   4.665  -0.268  0.00  0.00     0.039 A 
ATOM     16  C   UNL d   1       1.584   5.286   0.798  0.00  0.00     0.075 A 
ATOM     17  C   UNL d   1       0.505   4.641   1.410  0.00  0.00     0.039 A 
ATOM     18  C   UNL d   1       0.045   3.414   0.930  0.00  0.00     0.027 A 
BRANCH  16  19
ATOM     19  O   UNL d   1       1.918   6.493   1.345  0.00  0.00    -0.290 OA
BRANCH  19  20
ATOM     20  C   UNL d   1       2.588   7.403   0.487  0.00  0.00     0.505 C 
ATOM     21  F   UNL d   1       1.828   7.635  -0.612  0.00  0.00    -0.184 F 
ATOM     22  F   UNL d   1       2.683   8.585   1.148  0.00  0.00    -0.184 F 
ENDBRANCH  19  20
ENDBRANCH  16  19
ENDBRANCH   1  13
TORSDOF 5
