REMARK  1 active torsions:
REMARK  status: ('A' for Active; 'I' for Inactive)
REMARK    1  A    between atoms: C_8  and  N_1 
ROOT
ATOM      1  N   UNL d   1       0.978  -0.694  -0.050  0.00  0.00    -0.269 N 
ATOM      2  C   UNL d   1       0.936   0.684  -0.015  0.00  0.00     0.164 A 
ATOM      3  N   UNL d   1      -0.269   1.184   0.081  0.00  0.00    -0.281 N 
ATOM      4  HN  UNL d   1      -0.533   2.167   0.147  1.00  0.00     0.188 HD
ATOM      5  C   UNL d   1      -0.353  -1.077   0.014  0.00  0.00     0.199 A 
ATOM      6  N   UNL d   1      -1.090   0.101   0.072  0.00  0.00    -0.274 N 
ATOM      7  C   UNL d   1       2.074   1.557  -0.121  0.00  0.00     0.120 A 
ATOM      8  S   UNL d   1      -1.101  -2.557   0.123  0.00  0.00    -0.039 SA
ATOM      9  O   UNL d   1       3.153   1.183  -0.877  0.00  0.00    -0.319 OA
ATOM     10  C   UNL d   1       2.299   2.823   0.390  0.00  0.00     0.043 A 
ATOM     11  C   UNL d   1       4.070   2.180  -0.801  0.00  0.00     0.142 A 
ATOM     12  C   UNL d   1       3.596   3.210  -0.025  0.00  0.00     0.027 A 
ATOM     13  H   UNL d   1      -2.096   0.181   0.165  0.00  0.00     0.189 HD
ENDROOT
BRANCH   1  14
ATOM     14  C   UNL d   1       2.120  -1.538  -0.009  0.00  0.00     0.043 A 
ATOM     15  C   UNL d   1       3.248  -1.194   0.756  0.00  0.00     0.033 A 
ATOM     16  C   UNL d   1       4.393  -1.998   0.763  0.00  0.00     0.044 A 
ATOM     17  C   UNL d   1       4.408  -3.171   0.024  0.00  0.00     0.116 A 
ATOM     18  C   UNL d   1       3.300  -3.554  -0.717  0.00  0.00     0.044 A 
ATOM     19  F   UNL d   1       5.505  -3.939   0.023  0.00  0.00    -0.206 F 
ATOM     20  C   UNL d   1       2.161  -2.739  -0.735  0.00  0.00     0.033 A 
ENDBRANCH   1  14
TORSDOF 1
