REMARK  3 active torsions:
REMARK  status: ('A' for Active; 'I' for Inactive)
REMARK    1  A    between atoms: N_7  and  C_6 
REMARK    2  A    between atoms: N_10  and  N_7 
REMARK    3  A    between atoms: C_11  and  N_10 
ROOT
ATOM      1  N   UNL d   1      -2.185   1.306   0.856  0.00  0.00    -0.344 N 
ATOM      2  C   UNL d   1      -3.328   0.822   0.295  0.00  0.00     0.066 A 
ATOM      3  C   UNL d   1      -4.265   1.830   0.311  0.00  0.00    -0.021 A 
ATOM      4  C   UNL d   1      -2.299   2.590   1.262  0.00  0.00     0.045 A 
ATOM      5  C   UNL d   1      -3.607   2.967   0.926  0.00  0.00    -0.001 A 
ATOM      6  C   UNL d   1      -3.143  -0.537  -0.104  0.00  0.00     0.054 C 
ATOM      7  C   UNL d   1      -1.127   0.317   0.923  0.00  0.00     0.136 C 
ATOM      8  C   UNL d   1      -1.657  -0.847   0.066  0.00  0.00     0.081 C 
ATOM      9  C   UNL d   1      -5.658   1.800  -0.202  0.00  0.00     0.052 C 
ATOM     10  C   UNL d   1      -1.391   3.452   1.887  0.00  0.00     0.030 A 
ATOM     11  C   UNL d   1      -4.013   4.284   1.226  0.00  0.00     0.014 A 
ATOM     12  C   UNL d   1      -3.114   5.162   1.846  0.00  0.00     0.001 A 
ATOM     13  C   UNL d   1      -1.823   4.749   2.172  0.00  0.00     0.002 A 
ENDROOT
BRANCH   6  14
ATOM     14  N   UNL d   1      -4.074  -1.325  -0.536  0.00  0.00    -0.302 N 
ATOM     15  HN  UNL d   1      -5.035  -1.008  -0.667  1.00  0.00     0.186 HD
BRANCH  14  16
ATOM     16  N   UNL d   1      -3.688  -2.610  -0.805  0.00  0.00    -0.299 N 
ATOM     17  H   UNL d   1      -3.065  -3.068  -0.136  0.00  0.00     0.187 HD
BRANCH  16  18
ATOM     18  C   UNL d   1      -4.689  -3.524  -1.229  0.00  0.00     0.070 A 
ATOM     19  C   UNL d   1      -4.509  -4.913  -1.055  0.00  0.00     0.063 A 
ATOM     20  C   UNL d   1      -5.450  -5.832  -1.525  0.00  0.00     0.050 A 
ATOM     21 CL   UNL d   1      -3.119  -5.521  -0.218  0.00  0.00    -0.082 Cl
ATOM     22  C   UNL d   1      -6.575  -5.370  -2.200  0.00  0.00     0.035 A 
ATOM     23  C   UNL d   1      -6.765  -4.005  -2.406  0.00  0.00     0.026 A 
ATOM     24 CL   UNL d   1      -7.736  -6.493  -2.791  0.00  0.00    -0.084 Cl
ATOM     25  C   UNL d   1      -5.822  -3.089  -1.928  0.00  0.00     0.034 A 
ENDBRANCH  16  18
ENDBRANCH  14  16
ENDBRANCH   6  14
TORSDOF 3
