REMARK  3 active torsions:
REMARK  status: ('A' for Active; 'I' for Inactive)
REMARK    1  A    between atoms: O_3  and  C_1 
REMARK    2  A    between atoms: C_5  and  C_1 
REMARK    3  A    between atoms: C_9  and  O_3 
ROOT
ATOM      1  N   UNL d   1       1.483  -4.505  -6.181  0.00  0.00    -0.191 NA
ATOM      2  C   UNL d   1       1.280  -3.817  -5.268  0.00  0.00     0.099 C 
ATOM      3  C   UNL d   1       0.533  -1.352  -1.918  0.00  0.00     0.079 A 
ATOM      4  C   UNL d   1       1.023  -2.973  -4.138  0.00  0.00     0.044 A 
ATOM      5  C   UNL d   1      -0.262  -2.909  -3.589  0.00  0.00     0.025 A 
ATOM      6  C   UNL d   1      -0.507  -2.097  -2.480  0.00  0.00     0.039 A 
ATOM      7  C   UNL d   1       1.812  -1.395  -2.466  0.00  0.00     0.039 A 
ATOM      8  C   UNL d   1       2.055  -2.211  -3.578  0.00  0.00     0.025 A 
ENDROOT
BRANCH   3   9
ATOM      9  O   UNL d   1       0.169  -0.609  -0.770  0.00  0.00    -0.275 OA
BRANCH   9  10
ATOM     10  C   UNL d   1       1.036   0.039   0.100  0.00  0.00     0.298 C 
ATOM     11  O   UNL d   1       2.240   0.186  -0.025  0.00  0.00    -0.259 OA
BRANCH  10  12
ATOM     12  C   UNL d   1       0.276   0.490   1.301  0.00  0.00     0.040 A 
ATOM     13  C   UNL d   1       1.002   1.011   2.383  0.00  0.00     0.019 A 
ATOM     14  C   UNL d   1       0.345   1.390   3.558  0.00  0.00     0.025 A 
ATOM     15  C   UNL d   1      -1.039   1.254   3.653  0.00  0.00     0.034 A 
ATOM     16  C   UNL d   1      -1.773   0.756   2.578  0.00  0.00     0.025 A 
ATOM     17 CL   UNL d   1      -1.845   1.695   5.106  0.00  0.00    -0.084 Cl
ATOM     18  C   UNL d   1      -1.119   0.376   1.402  0.00  0.00     0.019 A 
ENDBRANCH  10  12
ENDBRANCH   9  10
ENDBRANCH   3   9
TORSDOF 3
