REMARK  8 active torsions:
REMARK  status: ('A' for Active; 'I' for Inactive)
REMARK    1  A    between atoms: N_2  and  C_1 
REMARK    2  A    between atoms: C_3  and  C_1 
REMARK    3  A    between atoms: C_4  and  C_3 
REMARK    4  A    between atoms: C_11  and  C_5 
REMARK    5  A    between atoms: O_10  and  C_8 
REMARK    6  A    between atoms: C_12  and  O_10 
REMARK    7  A    between atoms: C_19  and  C_12 
REMARK    8  A    between atoms: O_20  and  C_13 
ROOT
ATOM      1  C   UNL d   1       0.354   1.026   0.871  0.00  0.00     0.217 C 
ATOM      2  O   UNL d   1       0.195   0.486  -0.225  0.00  0.00    -0.285 OA
ENDROOT
BRANCH   1   3
ATOM      3  C   UNL d   1      -0.161   0.341   2.103  0.00  0.00     0.154 C 
ATOM      4  C   UNL d   1      -1.018  -0.698   2.038  0.00  0.00     0.051 C 
BRANCH   3   5
ATOM      5  N   UNL d   1       0.258   0.779   3.407  0.00  0.00    -0.112 N 
ATOM      6  O   UNL d   1      -0.592   1.298   4.145  0.00  0.00    -0.532 OA
ATOM      7  O   UNL d   1       1.460   0.640   3.682  0.00  0.00    -0.532 OA
ENDBRANCH   3   5
BRANCH   4   8
ATOM      8  C   UNL d   1      -1.733  -1.348   3.147  0.00  0.00    -0.034 A 
ATOM      9  C   UNL d   1      -3.097  -1.063   3.287  0.00  0.00     0.014 A 
ATOM     10  C   UNL d   1      -3.849  -1.628   4.322  0.00  0.00     0.037 A 
ATOM     11  C   UNL d   1      -3.247  -2.494   5.231  0.00  0.00     0.068 A 
ATOM     12  C   UNL d   1      -1.885  -2.780   5.095  0.00  0.00     0.037 A 
ATOM     13  C   UNL d   1      -1.125  -2.214   4.060  0.00  0.00     0.014 A 
BRANCH  11  14
ATOM     14  O   UNL d   1      -3.874  -3.109   6.280  0.00  0.00    -0.356 OA
ATOM     15  C   UNL d   1      -5.271  -2.872   6.423  0.00  0.00     0.210 C 
ENDBRANCH  11  14
ENDBRANCH   4   8
ENDBRANCH   1   3
BRANCH   1  16
ATOM     16  C   UNL d   1       0.990   2.386   0.942  0.00  0.00     0.050 C 
ATOM     17  C   UNL d   1       2.008   2.790   0.052  0.00  0.00     0.083 C 
ATOM     18  C   UNL d   1       2.708   3.984   0.321  0.00  0.00     0.038 C 
ATOM     19  C   UNL d   1       2.312   4.842   1.343  0.00  0.00     0.003 C 
ATOM     20  C   UNL d   1       1.197   4.529   2.102  0.00  0.00     0.001 C 
ATOM     21  C   UNL d   1       0.537   3.318   1.895  0.00  0.00     0.018 C 
BRANCH  17  22
ATOM     22  O   UNL d   1       2.283   2.041  -1.078  0.00  0.00    -0.346 OA
BRANCH  22  23
ATOM     23  C   UNL d   1       2.818   2.814  -2.170  0.00  0.00     0.214 C 
BRANCH  23  24
ATOM     24  C   UNL d   1       2.599   2.263  -3.563  0.00  0.00    -0.034 A 
ATOM     25  C   UNL d   1       1.576   1.366  -3.877  0.00  0.00     0.009 A 
ATOM     26  C   UNL d   1       1.348   0.997  -5.209  0.00  0.00     0.001 A 
ATOM     27  C   UNL d   1       2.131   1.525  -6.236  0.00  0.00     0.000 A 
ATOM     28  C   UNL d   1       3.153   2.421  -5.937  0.00  0.00     0.001 A 
ATOM     29  C   UNL d   1       3.382   2.789  -4.611  0.00  0.00     0.009 A 
ENDBRANCH  23  24
ENDBRANCH  22  23
ENDBRANCH  17  22
ENDBRANCH   1  16
TORSDOF 8
