REMARK  1 active torsions:
REMARK  status: ('A' for Active; 'I' for Inactive)
REMARK    1  A    between atoms: C_10  and  N_1 
ROOT
ATOM      1  N   UNL d   1       4.319   0.051  -2.549  0.00  0.00    -0.196 NA
ATOM      2  C   UNL d   1       3.890   0.057  -1.470  0.00  0.00     0.079 C 
ATOM      3  C   UNL d   1       3.363   0.064  -0.096  0.00  0.00     0.259 C 
ENDROOT
BRANCH   3   4
ATOM      4  N   UNL d   1       1.915   0.049  -0.072  0.00  0.00    -0.267 N 
ATOM      5  C   UNL d   1       1.167  -1.093  -0.049  0.00  0.00     0.262 A 
ATOM      6  C   UNL d   1      -0.233  -0.671  -0.032  0.00  0.00     0.048 A 
ATOM      7  O   UNL d   1       1.545  -2.248  -0.028  0.00  0.00    -0.267 OA
ATOM      8  C   UNL d   1      -1.393  -1.419   0.005  0.00  0.00     0.018 A 
ATOM      9  C   UNL d   1      -0.251   0.713  -0.045  0.00  0.00     0.048 A 
ATOM     10  C   UNL d   1      -2.603  -0.718   0.023  0.00  0.00     0.001 A 
ATOM     11  C   UNL d   1      -2.623   0.693   0.007  0.00  0.00     0.001 A 
ATOM     12  C   UNL d   1      -1.433   1.428  -0.026  0.00  0.00     0.018 A 
ATOM     13  C   UNL d   1       1.138   1.171  -0.067  0.00  0.00     0.262 A 
ATOM     14  O   UNL d   1       1.486   2.336  -0.060  0.00  0.00    -0.267 OA
ENDBRANCH   3   4
TORSDOF 1
