REMARK  5 active torsions:
REMARK  status: ('A' for Active; 'I' for Inactive)
REMARK    1  A    between atoms: C_8  and  C_1 
REMARK    2  A    between atoms: C_7  and  N_9 
REMARK    3  A    between atoms: N_11  and  C_7 
REMARK    4  A    between atoms: N_9  and  C_8 
REMARK    5  A    between atoms: N_12  and  N_11 
ROOT
ATOM      1  C   UNL d   1      -1.193   1.034   0.144  0.00  0.00    -0.028 A 
ATOM      2  C   UNL d   1       0.057   1.711   0.195  0.00  0.00    -0.047 A 
ATOM      3  C   UNL d   1      -1.221  -0.385   0.002  0.00  0.00    -0.047 A 
ATOM      4  C   UNL d   1       1.264   0.975   0.049  0.00  0.00    -0.049 A 
ATOM      5  C   UNL d   1      -0.006  -1.126  -0.003  0.00  0.00    -0.049 A 
ATOM      6  C   UNL d   1       1.234  -0.443   0.002  0.00  0.00    -0.049 A 
ATOM      7  C   UNL d   1       0.137   3.214   0.363  0.00  0.00     0.049 C 
ATOM      8  C   UNL d   1       2.548  -1.199  -0.046  0.00  0.00     0.049 C 
ATOM      9  C   UNL d   1      -2.528  -1.143  -0.117  0.00  0.00     0.049 C 
ATOM     10  C   UNL d   1       2.607   1.676  -0.028  0.00  0.00     0.049 C 
ATOM     11  C   UNL d   1      -0.015  -2.639  -0.008  0.00  0.00     0.049 C 
ENDROOT
BRANCH   1  12
ATOM     12  C   UNL d   1      -2.500   1.812   0.166  0.00  0.00     0.161 C 
BRANCH  12  13
ATOM     13  N   UNL d   1      -2.876   2.230  -1.177  0.00  0.00    -0.362 N 
ATOM     14  H   UNL d   1      -2.471   1.684  -1.929  0.00  0.00     0.162 HD
BRANCH  13  15
ATOM     15  C   UNL d   1      -4.064   2.826  -1.524  0.00  0.00     0.182 C 
ATOM     16  S   UNL d   1      -5.391   3.053  -0.541  0.00  0.00    -0.040 SA
BRANCH  15  17
ATOM     17  N   UNL d   1      -4.094   3.308  -2.817  0.00  0.00    -0.300 N 
ATOM     18  H   UNL d   1      -4.957   3.780  -3.095  0.00  0.00     0.183 HD
BRANCH  17  19
ATOM     19  N   UNL d   1      -2.908   3.603  -3.532  0.00  0.00    -0.248 NA
ATOM     20  H   UNL d   1      -2.113   3.231  -3.004  0.00  0.00     0.143 HD
ATOM     21  H   UNL d   1      -2.768   4.615  -3.486  0.00  0.00     0.143 HD
ENDBRANCH  17  19
ENDBRANCH  15  17
ENDBRANCH  13  15
ENDBRANCH  12  13
ENDBRANCH   1  12
TORSDOF 5
