REMARK  8 active torsions:
REMARK  status: ('A' for Active; 'I' for Inactive)
REMARK       I    between atoms: C_7  and  N_1 
REMARK    1  A    between atoms: C_5  and  C_2 
REMARK    2  A    between atoms: C_6  and  C_2 
REMARK    3  A    between atoms: C_4  and  N_11 
REMARK    4  A    between atoms: O_20  and  C_5 
REMARK    5  A    between atoms: O_19  and  C_6 
REMARK    6  A    between atoms: N_11  and  C_17 
REMARK    7  A    between atoms: C_23  and  O_19 
REMARK    8  A    between atoms: C_22  and  O_20 
ROOT
ATOM      1  N   UNL d   1      -3.502  -1.320  -0.007  0.00  0.00    -0.365 N 
ATOM      2  H   UNL d   1      -3.440  -2.338  -0.088  0.00  0.00     0.165 HD
ENDROOT
BRANCH   1   3
ATOM      3  C   UNL d   1      -4.768  -0.797   0.124  0.00  0.00     0.112 C 
ATOM      4  C   UNL d   1      -5.963  -1.415   0.133  0.00  0.00     0.129 C 
BRANCH   4   5
ATOM      5  C   UNL d   1      -6.027  -2.879  -0.016  0.00  0.00     0.300 C 
ATOM      6  O   UNL d   1      -5.069  -3.629   0.150  0.00  0.00    -0.259 OA
BRANCH   5   7
ATOM      7  O   UNL d   1      -7.231  -3.250  -0.513  0.00  0.00    -0.318 OA
BRANCH   7   8
ATOM      8  C   UNL d   1      -7.280  -4.541  -1.131  0.00  0.00     0.174 C 
ATOM      9  C   UNL d   1      -6.886  -4.364  -2.585  0.00  0.00     0.034 C 
ENDBRANCH   7   8
ENDBRANCH   5   7
ENDBRANCH   4   5
BRANCH   4  10
ATOM     10  C   UNL d   1      -7.138  -0.530   0.278  0.00  0.00     0.300 C 
ATOM     11  O   UNL d   1      -7.123   0.672   0.039  0.00  0.00    -0.259 OA
BRANCH  10  12
ATOM     12  O   UNL d   1      -8.171  -1.196   0.847  0.00  0.00    -0.318 OA
BRANCH  12  13
ATOM     13  C   UNL d   1      -9.195  -0.372   1.419  0.00  0.00     0.174 C 
ATOM     14  C   UNL d   1      -8.820  -0.132   2.869  0.00  0.00     0.034 C 
ENDBRANCH  12  13
ENDBRANCH  10  12
ENDBRANCH   4  10
ENDBRANCH   1   3
BRANCH   1  15
ATOM     15  C   UNL d   1      -2.280  -0.633   0.093  0.00  0.00     0.032 A 
ATOM     16  C   UNL d   1      -1.144  -1.163  -0.551  0.00  0.00     0.031 A 
ATOM     17  C   UNL d   1       0.084  -0.483  -0.561  0.00  0.00     0.032 A 
ATOM     18  C   UNL d   1       0.169   0.740   0.079  0.00  0.00     0.043 A 
ATOM     19  N   UNL d   1       1.267   1.612   0.219  0.00  0.00    -0.318 N 
ATOM     20  C   UNL d   1      -0.948   1.276   0.714  0.00  0.00    -0.027 A 
ATOM     21  C   UNL d   1       2.545   1.384  -0.253  0.00  0.00     0.220 C 
ATOM     22  C   UNL d   1       0.792   2.835   0.889  0.00  0.00     0.137 C 
ATOM     23  O   UNL d   1       2.908   0.361  -0.837  0.00  0.00    -0.273 OA
ATOM     24  C   UNL d   1       3.570   2.464   0.018  0.00  0.00     0.117 C 
ATOM     25  C   UNL d   1      -0.627   2.565   1.395  0.00  0.00     0.061 C 
ATOM     26  C   UNL d   1      -2.167   0.614   0.723  0.00  0.00     0.039 A 
ENDBRANCH   1  15
TORSDOF 8
