REMARK  4 active torsions:
REMARK  status: ('A' for Active; 'I' for Inactive)
REMARK    1  A    between atoms: C_4  and  N_1 
REMARK    2  A    between atoms: S_9  and  C_4 
REMARK    3  A    between atoms: C_11  and  N_6 
REMARK    4  A    between atoms: C_10  and  C_11 
ROOT
ATOM      1  N   UNL d   1       1.351  -0.531   1.186  0.00  0.00    -0.274 N 
ATOM      2  HN  UNL d   1       0.882   0.200   1.722  1.00  0.00     0.180 HD
ATOM      3  C   UNL d   1       0.788  -1.736   1.075  0.00  0.00     0.183 C 
ATOM      4  N   UNL d   1       0.287  -2.779   1.004  0.00  0.00    -0.172 NA
ENDROOT
BRANCH   1   5
ATOM      5  C   UNL d   1       2.486  -0.283   0.618  0.00  0.00     0.149 C 
ATOM      6  N   UNL d   1       3.094   0.939   0.682  0.00  0.00    -0.366 N 
ATOM      7  H   UNL d   1       3.803   1.105  -0.024  0.00  0.00     0.162 HD
BRANCH   6   8
ATOM      8  C   UNL d   1       2.414   2.119   1.174  0.00  0.00     0.161 C 
BRANCH   8   9
ATOM      9  C   UNL d   1       3.417   3.110   1.689  0.00  0.00    -0.025 A 
ATOM     10  C   UNL d   1       3.399   4.437   1.273  0.00  0.00     0.096 A 
ATOM     11  N   UNL d   1       4.256   5.383   1.721  0.00  0.00    -0.375 N 
ATOM     12  C   UNL d   1       5.169   4.994   2.636  0.00  0.00     0.087 A 
ATOM     13  HN  UNL d   1       4.214   6.344   1.383  1.00  0.00     0.164 HD
ATOM     14  C   UNL d   1       5.264   3.704   3.129  0.00  0.00     0.018 A 
ATOM     15  C   UNL d   1       4.370   2.752   2.650  0.00  0.00     0.011 A 
ENDBRANCH   8   9
ENDBRANCH   6   8
BRANCH   5  16
ATOM     16  S   UNL d   1       3.424  -1.433  -0.323  0.00  0.00    -0.098 SA
ATOM     17  C   UNL d   1       4.323  -2.233   1.030  0.00  0.00     0.099 C 
ENDBRANCH   5  16
ENDBRANCH   1   5
TORSDOF 4
