REMARK  4 active torsions:
REMARK  status: ('A' for Active; 'I' for Inactive)
REMARK    1  A    between atoms: N_3  and  S_1 
REMARK    2  A    between atoms: C_6  and  S_1 
REMARK    3  A    between atoms: C_2  and  N_3 
REMARK    4  A    between atoms: C_5  and  C_11 
ROOT
ATOM      1  C   UNL d   1       3.025   0.418  -1.791  0.00  0.00     0.051 A 
ATOM      2  C   UNL d   1       2.848   1.330  -2.818  0.00  0.00     0.107 A 
ATOM      3  C   UNL d   1       2.272   2.631  -2.691  0.00  0.00     0.108 C 
ATOM      4  S   UNL d   1       3.459   0.742  -4.306  0.00  0.00    -0.089 SA
ATOM      5  C   UNL d   1       3.713  -0.751  -2.241  0.00  0.00     0.033 A 
ATOM      6  N   UNL d   1       1.838   3.700  -2.576  0.00  0.00    -0.191 NA
ATOM      7  C   UNL d   1       3.992  -0.712  -3.589  0.00  0.00     0.053 A 
ENDROOT
BRANCH   1   8
ATOM      8  N   UNL d   1       2.633   0.574  -0.436  0.00  0.00    -0.179 NA
ATOM      9  H   UNL d   1       3.239   0.037   0.191  0.00  0.00     0.146 HD
BRANCH   8  10
ATOM     10  S   UNL d   1       1.053   0.011  -0.048  0.00  0.00     0.245 S 
ATOM     11  O   UNL d   1       1.246  -1.336   0.445  0.00  0.00    -0.206 OA
ATOM     12  O   UNL d   1       0.143   0.322  -1.126  0.00  0.00    -0.206 OA
BRANCH  10  13
ATOM     13  C   UNL d   1       0.638   1.049   1.331  0.00  0.00     0.075 A 
ATOM     14  C   UNL d   1       0.325   0.479   2.572  0.00  0.00     0.041 A 
ATOM     15  C   UNL d   1       0.045   1.308   3.671  0.00  0.00     0.049 A 
ATOM     16  C   UNL d   1       0.081   2.702   3.495  0.00  0.00     0.016 A 
ATOM     17  C   UNL d   1       0.379   3.261   2.250  0.00  0.00     0.002 A 
ATOM     18  C   UNL d   1       0.656   2.435   1.163  0.00  0.00     0.025 A 
BRANCH  15  19
ATOM     19  C   UNL d   1      -0.279   0.736   5.032  0.00  0.00     0.417 C 
ATOM     20  F   UNL d   1      -0.296  -0.625   5.060  0.00  0.00    -0.166 F 
ATOM     21  F   UNL d   1       0.623   1.117   5.978  0.00  0.00    -0.166 F 
ATOM     22  F   UNL d   1      -1.496   1.136   5.490  0.00  0.00    -0.166 F 
ENDBRANCH  15  19
ENDBRANCH  10  13
ENDBRANCH   8  10
ENDBRANCH   1   8
TORSDOF 4
