REMARK  7 active torsions:
REMARK  status: ('A' for Active; 'I' for Inactive)
REMARK    1  A    between atoms: C_4  and  C_1 
REMARK    2  A    between atoms: N_5  and  C_2 
REMARK    3  A    between atoms: C_11  and  C_4 
REMARK       I    between atoms: C_8  and  N_5 
REMARK    4  A    between atoms: C_25  and  C_7 
REMARK    5  A    between atoms: C_13  and  C_8 
REMARK    6  A    between atoms: N_9  and  C_13 
REMARK    7  A    between atoms: O_24  and  C_21 
ROOT
ATOM      1  C   UNL d   1       1.490   0.569   0.280  0.00  0.00     0.050 C 
ATOM      2  C   UNL d   1       0.246   1.136   0.004  0.00  0.00     0.091 C 
ATOM      3  S   UNL d   1      -0.913  -0.071  -0.341  0.00  0.00    -0.076 SA
ATOM      4  C   UNL d   1       1.444  -0.869   0.148  0.00  0.00     0.033 C 
ATOM      5  C   UNL d   1       0.174  -1.347  -0.075  0.00  0.00    -0.015 C 
ENDROOT
BRANCH   2   6
ATOM      6  N   UNL d   1      -0.131   2.485  -0.048  0.00  0.00    -0.319 N 
ATOM      7  C   UNL d   1      -1.440   2.942  -0.004  0.00  0.00     0.251 C 
ATOM      8  O   UNL d   1      -2.444   2.250   0.191  0.00  0.00    -0.271 OA
ATOM      9  H   UNL d   1       0.586   3.198  -0.028  0.00  0.00     0.169 HD
BRANCH   7  10
ATOM     10  C   UNL d   1      -1.638   4.457  -0.061  0.00  0.00     0.375 C 
BRANCH  10  11
ATOM     11  N   UNL d   1      -0.724   5.221  -0.940  0.00  0.00     0.100 N 
ATOM     12  C   UNL d   1      -0.770   4.767  -2.349  0.00  0.00     0.303 C 
ATOM     13  C   UNL d   1       0.088   5.681  -3.263  0.00  0.00     0.302 C 
ATOM     14  N   UNL d   1      -0.287   7.108  -3.254  0.00  0.00     0.087 N 
ATOM     15  C   UNL d   1      -0.401   7.577  -1.861  0.00  0.00     0.302 C 
ATOM     16  C   UNL d   1      -1.506   7.354  -4.019  0.00  0.00     0.310 C 
ATOM     17  C   UNL d   1      -1.188   6.640  -0.916  0.00  0.00     0.303 C 
ENDBRANCH  10  11
ENDBRANCH   7  10
ENDBRANCH   2   6
BRANCH   1  18
ATOM     18  C   UNL d   1       2.711   1.254   0.704  0.00  0.00     0.195 C 
ATOM     19  O   UNL d   1       3.815   0.922   0.281  0.00  0.00    -0.287 OA
BRANCH  18  20
ATOM     20  C   UNL d   1       2.632   2.309   1.755  0.00  0.00     0.015 A 
ATOM     21  C   UNL d   1       3.666   3.256   1.844  0.00  0.00     0.018 A 
ATOM     22  C   UNL d   1       3.617   4.265   2.812  0.00  0.00     0.037 A 
ATOM     23  C   UNL d   1       2.544   4.325   3.702  0.00  0.00     0.068 A 
ATOM     24  C   UNL d   1       1.525   3.377   3.624  0.00  0.00     0.037 A 
ATOM     25  C   UNL d   1       1.579   2.357   2.675  0.00  0.00     0.018 A 
BRANCH  23  26
ATOM     26  O   UNL d   1       2.364   5.280   4.662  0.00  0.00    -0.356 OA
ATOM     27  C   UNL d   1       3.557   5.801   5.236  0.00  0.00     0.210 C 
ENDBRANCH  23  26
ENDBRANCH  18  20
ENDBRANCH   1  18
BRANCH   5  28
ATOM     28  C   UNL d   1      -0.308  -2.766  -0.094  0.00  0.00     0.042 C 
ATOM     29  C   UNL d   1      -0.645  -3.250   1.312  0.00  0.00     0.010 C 
ENDBRANCH   5  28
TORSDOF 7
