REMARK  5 active torsions:
REMARK  status: ('A' for Active; 'I' for Inactive)
REMARK    1  A    between atoms: C_13  and  N_3 
REMARK    2  A    between atoms: C_12  and  C_4 
REMARK    3  A    between atoms: C_15  and  C_5 
REMARK       I    between atoms: C_7  and  N_14 
REMARK    4  A    between atoms: C_8  and  C_7 
REMARK    5  A    between atoms: N_14  and  N_10 
ROOT
ATOM      1  N   UNL d   1       0.917  -0.669   0.164  0.00  0.00    -0.292 N 
ATOM      2  HN  UNL d   1       1.726  -1.279   0.284  1.00  0.00     0.187 HD
ATOM      3  N   UNL d   1      -0.384  -1.043   0.062  0.00  0.00    -0.266 N 
ATOM      4  C   UNL d   1      -0.411   1.171   0.011  0.00  0.00     0.027 A 
ATOM      5  C   UNL d   1       0.917   0.669   0.073  0.00  0.00     0.072 A 
ATOM      6  C   UNL d   1      -1.210   0.049  -0.030  0.00  0.00     0.132 A 
ENDROOT
BRANCH   4   7
ATOM      7  C   UNL d   1      -0.864   2.539  -0.019  0.00  0.00     0.122 C 
ATOM      8  N   UNL d   1      -1.987   2.817  -0.591  0.00  0.00    -0.308 N 
ATOM      9  HN  UNL d   1      -2.581   2.100  -1.008  1.00  0.00     0.186 HD
BRANCH   8  10
ATOM     10  N   UNL d   1      -2.322   4.140  -0.597  0.00  0.00    -0.266 N 
ATOM     11  C   UNL d   1      -3.471   4.590  -1.236  0.00  0.00     0.276 C 
ATOM     12  O   UNL d   1      -4.215   3.857  -1.886  0.00  0.00    -0.265 OA
ATOM     13  H   UNL d   1      -1.742   4.815  -0.110  0.00  0.00     0.190 HD
BRANCH  11  14
ATOM     14  C   UNL d   1      -3.732   6.019  -1.080  0.00  0.00     0.074 A 
ATOM     15  S   UNL d   1      -2.723   7.041  -0.138  0.00  0.00    -0.097 SA
ATOM     16  C   UNL d   1      -3.694   8.411  -0.450  0.00  0.00     0.050 A 
ATOM     17  C   UNL d   1      -4.766   8.110  -1.260  0.00  0.00     0.009 A 
ATOM     18  C   UNL d   1      -4.787   6.732  -1.623  0.00  0.00     0.025 A 
ENDBRANCH  11  14
ENDBRANCH   8  10
ENDBRANCH   4   7
BRANCH   5  19
ATOM     19  C   UNL d   1       2.173   1.422  -0.004  0.00  0.00    -0.007 A 
ATOM     20  C   UNL d   1       3.302   1.004   0.711  0.00  0.00     0.014 A 
ATOM     21  C   UNL d   1       4.511   1.698   0.595  0.00  0.00     0.001 A 
ATOM     22  C   UNL d   1       4.601   2.815  -0.235  0.00  0.00     0.000 A 
ATOM     23  C   UNL d   1       3.485   3.242  -0.949  0.00  0.00     0.001 A 
ATOM     24  C   UNL d   1       2.281   2.545  -0.840  0.00  0.00     0.014 A 
ENDBRANCH   5  19
BRANCH   3  25
ATOM     25  C   UNL d   1      -0.762  -2.416   0.069  0.00  0.00     0.056 A 
ATOM     26  C   UNL d   1       0.223  -3.408   0.191  0.00  0.00     0.031 A 
ATOM     27  C   UNL d   1      -0.139  -4.756   0.213  0.00  0.00     0.002 A 
ATOM     28  C   UNL d   1      -1.480  -5.124   0.112  0.00  0.00     0.000 A 
ATOM     29  C   UNL d   1      -2.462  -4.146  -0.019  0.00  0.00     0.002 A 
ATOM     30  C   UNL d   1      -2.108  -2.794  -0.042  0.00  0.00     0.031 A 
ENDBRANCH   3  25
TORSDOF 5
