REMARK  3 active torsions:
REMARK  status: ('A' for Active; 'I' for Inactive)
REMARK    1  A    between atoms: C_10  and  N_2 
REMARK    2  A    between atoms: C_11  and  C_10 
REMARK       I    between atoms: N_17  and  C_11 
REMARK    3  A    between atoms: N_20  and  N_17 
ROOT
ATOM      1  C   UNL d   1      -0.056  -1.034  -0.082  0.00  0.00     0.137 A 
ATOM      2  N   UNL d   1      -1.237  -1.727  -0.065  0.00  0.00    -0.322 N 
ATOM      3  C   UNL d   1      -0.351   0.321  -0.067  0.00  0.00     0.090 A 
ATOM      4  C   UNL d   1      -1.766   0.452  -0.050  0.00  0.00     0.024 A 
ATOM      5  C   UNL d   1      -2.305  -0.846  -0.043  0.00  0.00     0.049 A 
ATOM      6  N   UNL d   1       1.181  -1.566  -0.094  0.00  0.00    -0.339 N 
ATOM      7  HN  UNL d   1       1.364  -2.569  -0.120  1.00  0.00     0.167 HD
ATOM      8  N   UNL d   1       0.628   1.261  -0.059  0.00  0.00    -0.351 N 
ATOM      9  HN  UNL d   1       0.433   2.263  -0.061  1.00  0.00     0.166 HD
ATOM     10  C   UNL d   1       2.150  -0.633  -0.067  0.00  0.00     0.060 A 
ATOM     11  C   UNL d   1       1.877   0.763  -0.050  0.00  0.00     0.059 A 
ATOM     12  C   UNL d   1      -3.691  -1.075  -0.014  0.00  0.00     0.034 A 
ATOM     13  C   UNL d   1      -2.642   1.555  -0.026  0.00  0.00     0.058 A 
ATOM     14  C   UNL d   1      -4.015   1.324  -0.002  0.00  0.00     0.117 A 
ATOM     15  C   UNL d   1      -4.537   0.037   0.004  0.00  0.00     0.044 A 
ATOM     16  F   UNL d   1      -4.854   2.369   0.021  0.00  0.00    -0.206 F 
ATOM     17  C   UNL d   1       3.470  -1.063  -0.050  0.00  0.00     0.032 A 
ATOM     18  C   UNL d   1       2.948   1.649  -0.018  0.00  0.00     0.032 A 
ATOM     19  C   UNL d   1       4.533  -0.160  -0.017  0.00  0.00     0.002 A 
ATOM     20  C   UNL d   1       4.271   1.202  -0.002  0.00  0.00     0.002 A 
ENDROOT
BRANCH   2  21
ATOM     21  C   UNL d   1      -1.319  -3.176   0.033  0.00  0.00     0.235 C 
BRANCH  21  22
ATOM     22  C   UNL d   1      -2.022  -3.881  -1.105  0.00  0.00     0.249 C 
ATOM     23  O   UNL d   1      -2.548  -4.986  -0.937  0.00  0.00    -0.270 OA
ATOM     24  N   UNL d   1      -1.981  -3.282  -2.357  0.00  0.00    -0.293 N 
ATOM     25  H   UNL d   1      -1.717  -2.303  -2.466  0.00  0.00     0.183 HD
BRANCH  24  26
ATOM     26  N   UNL d   1      -2.658  -3.909  -3.432  0.00  0.00    -0.247 NA
ATOM     27  H   UNL d   1      -3.238  -4.659  -3.026  0.00  0.00     0.143 HD
ATOM     28  H   UNL d   1      -1.963  -4.418  -3.985  0.00  0.00     0.143 HD
ENDBRANCH  24  26
ENDBRANCH  21  22
ENDBRANCH   2  21
TORSDOF 3
