REMARK  6 active torsions:
REMARK  status: ('A' for Active; 'I' for Inactive)
REMARK    1  A    between atoms: N_15  and  C_4 
REMARK    2  A    between atoms: N_14  and  C_9 
REMARK    3  A    between atoms: S_17  and  C_11 
REMARK    4  A    between atoms: C_19  and  N_15 
REMARK    5  A    between atoms: C_20  and  S_17 
REMARK    6  A    between atoms: C_29  and  C_20 
ROOT
ATOM      1  N   UNL d   1      -1.128   1.357  -0.175  0.00  0.00    -0.175 N 
ATOM      2  HN  UNL d   1      -1.116   2.372  -0.267  1.00  0.00     0.186 HD
ATOM      3  C   UNL d   1       0.012   0.682  -0.154  0.00  0.00     0.138 A 
ATOM      4  C   UNL d   1       1.295  -1.301   0.009  0.00  0.00     0.123 A 
ATOM      5  N   UNL d   1       2.424  -0.573  -0.012  0.00  0.00    -0.322 N 
ATOM      6  HN  UNL d   1       3.342  -1.014   0.044  1.00  0.00     0.169 HD
ATOM      7  N   UNL d   1       1.125   1.394  -0.192  0.00  0.00    -0.322 N 
ATOM      8  HN  UNL d   1       1.092   2.409  -0.282  1.00  0.00     0.169 HD
ATOM      9  C   UNL d   1      -2.294   0.711  -0.074  0.00  0.00     0.681 A 
ATOM     10  C   UNL d   1       0.037  -0.691  -0.061  0.00  0.00     0.069 A 
ATOM     11  C   UNL d   1       2.292   0.753  -0.109  0.00  0.00     0.147 A 
ATOM     12  N   UNL d   1      -2.367  -0.625  -0.010  0.00  0.00    -0.201 N 
ATOM     13  HN  UNL d   1      -3.265  -1.108   0.028  1.00  0.00     0.183 HD
ATOM     14  C   UNL d   1      -1.206  -1.303   0.003  0.00  0.00     0.125 A 
ENDROOT
BRANCH   4  15
ATOM     15  N   UNL d   1       1.385  -2.712   0.125  0.00  0.00    -0.342 N 
ATOM     16  H   UNL d   1       0.989  -3.162  -0.695  0.00  0.00     0.167 HD
BRANCH  15  17
ATOM     17  C   UNL d   1       2.466  -3.433   0.677  0.00  0.00     0.033 A 
ATOM     18  C   UNL d   1       3.193  -2.940   1.771  0.00  0.00     0.031 A 
ATOM     19  C   UNL d   1       4.236  -3.678   2.337  0.00  0.00     0.026 A 
ATOM     20  C   UNL d   1       4.554  -4.928   1.819  0.00  0.00     0.034 A 
ATOM     21  C   UNL d   1       3.827  -5.451   0.753  0.00  0.00     0.026 A 
ATOM     22 CL   UNL d   1       5.846  -5.834   2.504  0.00  0.00    -0.084 Cl
ATOM     23  C   UNL d   1       2.778  -4.711   0.194  0.00  0.00     0.031 A 
ENDBRANCH  15  17
ENDBRANCH   4  15
BRANCH  11  24
ATOM     24  S   UNL d   1       3.734   1.777  -0.013  0.00  0.00    -0.089 SA
BRANCH  24  25
ATOM     25  C   UNL d   1       4.963   0.695  -0.802  0.00  0.00     0.121 C 
BRANCH  25  26
ATOM     26  C   UNL d   1       6.308   1.384  -0.882  0.00  0.00    -0.049 A 
ATOM     27  C   UNL d   1       7.235   1.258   0.165  0.00  0.00     0.008 A 
ATOM     28  C   UNL d   1       8.462   1.922   0.112  0.00  0.00     0.001 A 
ATOM     29  C   UNL d   1       8.776   2.724  -0.983  0.00  0.00     0.000 A 
ATOM     30  C   UNL d   1       7.863   2.863  -2.026  0.00  0.00     0.001 A 
ATOM     31  C   UNL d   1       6.634   2.199  -1.976  0.00  0.00     0.008 A 
ENDBRANCH  25  26
ENDBRANCH  24  25
ENDBRANCH  11  24
BRANCH   9  32
ATOM     32  N   UNL d   1      -3.438   1.449   0.071  0.00  0.00    -0.214 N 
ATOM     33  C   UNL d   1      -3.417   2.897  -0.134  0.00  0.00     0.167 C 
ATOM     34  C   UNL d   1      -4.408   3.546   0.845  0.00  0.00     0.188 C 
ATOM     35  O   UNL d   1      -5.727   2.988   0.706  0.00  0.00    -0.388 OA
ATOM     36  C   UNL d   1      -5.702   1.572   0.964  0.00  0.00     0.188 C 
ATOM     37  C   UNL d   1      -4.760   0.832  -0.001  0.00  0.00     0.167 C 
ENDBRANCH   9  32
TORSDOF 6
