REMARK  1 active torsions:
REMARK  status: ('A' for Active; 'I' for Inactive)
REMARK    1  A    between atoms: C_7  and  C_15 
ROOT
ATOM      1  N   UNL d   1      -0.597  -0.901  -0.394  0.00  0.00    -0.283 N 
ATOM      2  C   UNL d   1       0.001   0.303  -0.155  0.00  0.00     0.061 A 
ATOM      3  C   UNL d   1      -0.919   1.253   0.177  0.00  0.00    -0.018 A 
ATOM      4  C   UNL d   1       0.089  -2.001  -0.944  0.00  0.00     0.229 C 
ATOM      5  C   UNL d   1      -1.954  -0.752  -0.090  0.00  0.00     0.053 A 
ATOM      6  C   UNL d   1       1.399   0.611  -0.471  0.00  0.00     0.282 C 
ATOM      7  C   UNL d   1       2.287  -0.647  -0.620  0.00  0.00     0.004 C 
ATOM      8  C   UNL d   1      -2.176   0.614   0.182  0.00  0.00    -0.001 A 
ATOM      9  N   UNL d   1       1.966   1.622   0.426  0.00  0.00     0.100 N 
ATOM     10  C   UNL d   1       1.481  -1.655  -1.481  0.00  0.00     0.115 C 
ATOM     11  C   UNL d   1      -0.453   2.654   0.344  0.00  0.00     0.072 C 
ATOM     12  O   UNL d   1      -0.470  -3.082  -1.081  0.00  0.00    -0.273 OA
ATOM     13  C   UNL d   1       1.009   2.665   0.897  0.00  0.00     0.278 C 
ATOM     14  C   UNL d   1       3.525  -0.086  -1.391  0.00  0.00     0.014 C 
ATOM     15  C   UNL d   1      -3.014  -1.669  -0.108  0.00  0.00     0.031 A 
ATOM     16  C   UNL d   1       3.175   2.185  -0.186  0.00  0.00     0.273 C 
ATOM     17  C   UNL d   1      -3.501   1.072   0.359  0.00  0.00     0.014 A 
ATOM     18  C   UNL d   1       4.173   1.094  -0.629  0.00  0.00     0.031 C 
ATOM     19  C   UNL d   1      -4.314  -1.194   0.094  0.00  0.00     0.002 A 
ATOM     20  C   UNL d   1      -4.557   0.161   0.305  0.00  0.00     0.001 A 
ENDROOT
BRANCH   7  21
ATOM     21  C   UNL d   1       2.823  -1.274   0.720  0.00  0.00     0.008 C 
ATOM     22  C   UNL d   1       2.310  -2.638   1.165  0.00  0.00     0.006 C 
ENDBRANCH   7  21
TORSDOF 1
