REMARK  2 active torsions:
REMARK  status: ('A' for Active; 'I' for Inactive)
REMARK    1  A    between atoms: C_22  and  C_6 
REMARK    2  A    between atoms: O_20  and  C_8 
ROOT
ATOM      1  C   UNL d   1      -0.463  -1.419  -0.870  0.00  0.00    -0.016 C 
ATOM      2  C   UNL d   1      -1.850  -0.989  -1.358  0.00  0.00    -0.061 C 
ATOM      3  C   UNL d   1       1.809   1.505   1.601  0.00  0.00    -0.009 C 
ATOM      4  C   UNL d   1       0.241  -0.363   0.043  0.00  0.00     0.002 C 
ATOM      5  C   UNL d   1       0.766   2.122   0.615  0.00  0.00     0.001 C 
ATOM      6  C   UNL d   1      -2.824  -1.891  -1.634  0.00  0.00    -0.009 C 
ATOM      7  C   UNL d   1       0.006   1.121  -0.314  0.00  0.00    -0.004 C 
ATOM      8  C   UNL d   1       1.068   1.604   2.983  0.00  0.00     0.062 C 
ATOM      9  C   UNL d   1      -2.007   0.490  -1.664  0.00  0.00     0.036 C 
ATOM     10  C   UNL d   1      -2.675  -3.336  -1.244  0.00  0.00     0.155 C 
ATOM     11  C   UNL d   1       2.330   0.079   1.353  0.00  0.00     0.013 C 
ATOM     12  C   UNL d   1      -0.588  -2.712  -0.022  0.00  0.00     0.022 C 
ATOM     13  C   UNL d   1       1.753  -0.594   0.134  0.00  0.00     0.007 C 
ATOM     14  C   UNL d   1      -1.481   1.387  -0.536  0.00  0.00     0.010 C 
ATOM     15  C   UNL d   1       0.001   3.165   1.490  0.00  0.00     0.009 C 
ATOM     16  C   UNL d   1       0.517   3.023   2.937  0.00  0.00     0.038 C 
ATOM     17  C   UNL d   1      -1.356  -3.818  -0.698  0.00  0.00     0.085 C 
ATOM     18  O   UNL d   1      -3.603  -4.128  -1.406  0.00  0.00    -0.293 OA
ATOM     19  C   UNL d   1       0.371  -1.702  -2.146  0.00  0.00     0.020 C 
ATOM     20  C   UNL d   1       3.062   2.427   1.483  0.00  0.00     0.018 C 
ATOM     21  C   UNL d   1      -0.138   0.665   3.215  0.00  0.00     0.046 C 
ENDROOT
BRANCH   8  22
ATOM     22  O   UNL d   1       1.966   1.426   4.070  0.00  0.00    -0.389 OA
ATOM     23  H   UNL d   1       2.038   0.468   4.253  0.00  0.00     0.210 HD
ENDBRANCH   8  22
BRANCH   6  24
ATOM     24  C   UNL d   1      -4.019  -1.611  -2.518  0.00  0.00     0.038 C 
ATOM     25  C   UNL d   1      -5.270  -1.174  -1.783  0.00  0.00     0.010 C 
ENDBRANCH   6  24
TORSDOF 2
