REMARK  5 active torsions:
REMARK  status: ('A' for Active; 'I' for Inactive)
REMARK    1  A    between atoms: N_2  and  C_12 
REMARK    2  A    between atoms: C_16  and  N_4 
REMARK    3  A    between atoms: N_10  and  C_8 
REMARK    4  A    between atoms: C_20  and  N_10 
REMARK    5  A    between atoms: C_21  and  N_10 
ROOT
ATOM      1  N   UNL d   1      -3.438   1.990   1.383  0.00  0.00    -0.300 N 
ATOM      2  HN  UNL d   1      -4.035   2.067   2.206  1.00  0.00     0.187 HD
ATOM      3  N   UNL d   1      -3.698   2.545   0.290  0.00  0.00    -0.300 N 
ATOM      4  HN  UNL d   1      -3.122   2.447  -0.546  1.00  0.00     0.187 HD
ENDROOT
BRANCH   3   5
ATOM      5  C   UNL d   1      -4.878   3.320   0.345  0.00  0.00     0.048 A 
ATOM      6  C   UNL d   1      -4.957   4.476  -0.440  0.00  0.00     0.033 A 
ATOM      7  C   UNL d   1      -6.111   5.286  -0.441  0.00  0.00     0.031 A 
ATOM      8  C   UNL d   1      -7.247   4.957   0.307  0.00  0.00     0.030 A 
ATOM      9  C   UNL d   1      -7.149   3.792   1.092  0.00  0.00     0.031 A 
ATOM     10  C   UNL d   1      -5.998   2.990   1.115  0.00  0.00     0.033 A 
BRANCH   8  11
ATOM     11  N   UNL d   1      -8.417   5.710   0.233  0.00  0.00    -0.382 N 
BRANCH  11  12
ATOM     12  C   UNL d   1      -8.375   7.181   0.233  0.00  0.00     0.118 C 
ATOM     13  C   UNL d   1      -8.683   7.773  -1.137  0.00  0.00     0.026 C 
ENDBRANCH  11  12
BRANCH  11  14
ATOM     14  C   UNL d   1      -9.723   5.077   0.445  0.00  0.00     0.118 C 
ATOM     15  C   UNL d   1     -10.070   4.160  -0.720  0.00  0.00     0.026 C 
ENDBRANCH  11  14
ENDBRANCH   8  11
ENDBRANCH   3   5
BRANCH   1  16
ATOM     16  C   UNL d   1      -2.235   1.247   1.361  0.00  0.00     0.051 A 
ATOM     17  C   UNL d   1      -1.677   0.682   0.204  0.00  0.00     0.070 A 
ATOM     18  C   UNL d   1      -0.490  -0.054   0.272  0.00  0.00     0.104 A 
ATOM     19  C   UNL d   1       0.165  -0.217   1.494  0.00  0.00     0.102 A 
ATOM     20  O   UNL d   1      -0.022  -0.574  -0.909  0.00  0.00    -0.346 OA
ATOM     21  O   UNL d   1       1.351  -0.899   1.626  0.00  0.00    -0.346 OA
ATOM     22  C   UNL d   1      -0.386   0.309   2.655  0.00  0.00     0.042 A 
ATOM     23  C   UNL d   1       1.987  -1.092   0.357  0.00  0.00     0.202 C 
ATOM     24  C   UNL d   1       0.984  -1.568  -0.681  0.00  0.00     0.202 C 
ATOM     25  C   UNL d   1      -1.581   1.037   2.583  0.00  0.00     0.034 A 
ENDBRANCH   1  16
TORSDOF 5
