REMARK  4 active torsions:
REMARK  status: ('A' for Active; 'I' for Inactive)
REMARK    1  A    between atoms: N_2  and  S_1 
REMARK    2  A    between atoms: C_3  and  S_1 
REMARK    3  A    between atoms: O_19  and  C_11 
REMARK    4  A    between atoms: O_20  and  C_12 
ROOT
ATOM      1  N   UNL d   1       0.549  -0.928  -1.201  0.00  0.00    -0.302 N 
ATOM      2  C   UNL d   1       1.446  -2.233  -3.167  0.00  0.00    -0.030 A 
ATOM      3  C   UNL d   1       1.525  -0.988  -2.307  0.00  0.00     0.174 C 
ATOM      4  C   UNL d   1       0.985  -3.430  -2.610  0.00  0.00    -0.046 A 
ATOM      5  C   UNL d   1       1.886  -2.221  -4.500  0.00  0.00     0.049 A 
ATOM      6  C   UNL d   1       1.873  -3.386  -5.287  0.00  0.00     0.102 A 
ATOM      7  C   UNL d   1       1.448  -4.595  -4.703  0.00  0.00     0.102 A 
ATOM      8  C   UNL d   1       1.013  -4.601  -3.369  0.00  0.00     0.047 A 
ATOM      9  C   UNL d   1      -0.316  -2.106  -0.986  0.00  0.00     0.140 C 
ATOM     10  C   UNL d   1       0.455  -3.409  -1.203  0.00  0.00     0.060 C 
ENDROOT
BRANCH   1  11
ATOM     11  S   UNL d   1       0.903   0.082   0.096  0.00  0.00     0.267 S 
ATOM     12  O   UNL d   1      -0.320   0.340   0.824  0.00  0.00    -0.200 OA
ATOM     13  O   UNL d   1       1.730   1.163  -0.396  0.00  0.00    -0.200 OA
BRANCH  11  14
ATOM     14  C   UNL d   1       1.975  -0.810   1.218  0.00  0.00     0.120 A 
ATOM     15  S   UNL d   1       1.222  -1.766   2.424  0.00  0.00    -0.088 SA
ATOM     16  C   UNL d   1       2.726  -2.258   3.072  0.00  0.00     0.051 A 
ATOM     17  C   UNL d   1       3.787  -1.717   2.382  0.00  0.00     0.009 A 
ATOM     18  C   UNL d   1       3.353  -0.879   1.313  0.00  0.00     0.033 A 
ENDBRANCH  11  14
ENDBRANCH   1  11
BRANCH   6  19
ATOM     19  O   UNL d   1       2.258  -3.402  -6.601  0.00  0.00    -0.353 OA
ATOM     20  C   UNL d   1       2.643  -2.179  -7.213  0.00  0.00     0.210 C 
ENDBRANCH   6  19
BRANCH   7  21
ATOM     21  O   UNL d   1       1.380  -5.844  -5.264  0.00  0.00    -0.353 OA
ATOM     22  C   UNL d   1       1.790  -6.024  -6.610  0.00  0.00     0.210 C 
ENDBRANCH   7  21
TORSDOF 4
