REMARK  9 active torsions:
REMARK  status: ('A' for Active; 'I' for Inactive)
REMARK    1  A    between atoms: C_13  and  N_3 
REMARK    2  A    between atoms: C_15  and  C_13 
REMARK    3  A    between atoms: C_16  and  C_15 
REMARK    4  A    between atoms: O_23  and  C_15 
REMARK    5  A    between atoms: C_22  and  C_16 
REMARK    6  A    between atoms: O_24  and  C_16 
REMARK    7  A    between atoms: O_25  and  C_22 
REMARK    8  A    between atoms: C_27  and  C_22 
REMARK    9  A    between atoms: O_26  and  C_27 
ROOT
ATOM      1  C   UNL d   1      -1.226   0.580  -0.312  0.00  0.00     0.145 C 
ATOM      2  C   UNL d   1      -1.112  -0.915  -0.128  0.00  0.00     0.146 C 
ATOM      3  N   UNL d   1      -0.076   1.349  -0.127  0.00  0.00    -0.327 N 
ATOM      4  N   UNL d   1      -2.386   1.083  -0.591  0.00  0.00    -0.292 N 
ATOM      5  HN  UNL d   1      -2.453   2.088  -0.748  1.00  0.00     0.172 HD
ATOM      6  N   UNL d   1       0.037  -1.509  -0.010  0.00  0.00    -0.347 N 
ATOM      7  HN  UNL d   1       0.091  -2.520   0.111  1.00  0.00     0.166 HD
ATOM      8  N   UNL d   1      -3.492  -0.991  -0.363  0.00  0.00    -0.273 N 
ATOM      9  C   UNL d   1      -2.384  -1.713  -0.056  0.00  0.00     0.280 C 
ATOM     10  C   UNL d   1      -3.526   0.336  -0.684  0.00  0.00     0.328 C 
ATOM     11  C   UNL d   1       1.178   0.688  -0.110  0.00  0.00     0.063 A 
ATOM     12  C   UNL d   1       1.204  -0.725  -0.054  0.00  0.00     0.060 A 
ATOM     13  C   UNL d   1       2.417   1.352  -0.141  0.00  0.00     0.039 A 
ATOM     14  C   UNL d   1       2.425  -1.411  -0.014  0.00  0.00     0.039 A 
ATOM     15  C   UNL d   1       3.645   0.668  -0.064  0.00  0.00    -0.054 A 
ATOM     16  C   UNL d   1       3.651  -0.733  -0.015  0.00  0.00    -0.054 A 
ATOM     17  O   UNL d   1      -2.403  -2.892   0.260  0.00  0.00    -0.265 OA
ATOM     18  O   UNL d   1      -4.597   0.822  -1.021  0.00  0.00    -0.247 OA
ATOM     19  C   UNL d   1       4.924   1.462  -0.032  0.00  0.00     0.049 C 
ATOM     20  C   UNL d   1       4.934  -1.514   0.034  0.00  0.00     0.049 C 
ATOM     21  H   UNL d   1      -4.380  -1.469  -0.372  0.00  0.00     0.173 HD
ENDROOT
BRANCH   3  22
ATOM     22  C   UNL d   1      -0.116   2.822  -0.147  0.00  0.00     0.165 C 
BRANCH  22  23
ATOM     23  C   UNL d   1      -1.248   3.478   0.671  0.00  0.00     0.167 C 
BRANCH  23  24
ATOM     24  C   UNL d   1      -1.394   2.926   2.116  0.00  0.00     0.179 C 
BRANCH  24  25
ATOM     25  C   UNL d   1      -0.125   3.110   2.982  0.00  0.00     0.173 C 
BRANCH  25  26
ATOM     26  O   UNL d   1       0.153   4.515   3.093  0.00  0.00    -0.391 OA
ATOM     27  H   UNL d   1      -0.603   4.884   3.600  0.00  0.00     0.210 HD
ENDBRANCH  25  26
BRANCH  25  28
ATOM     28  C   UNL d   1      -0.275   2.527   4.396  0.00  0.00     0.198 C 
BRANCH  28  29
ATOM     29  O   UNL d   1      -1.383   3.141   5.060  0.00  0.00    -0.398 OA
ATOM     30  H   UNL d   1      -1.380   2.806   5.977  0.00  0.00     0.209 HD
ENDBRANCH  28  29
ENDBRANCH  25  28
ENDBRANCH  24  25
BRANCH  24  31
ATOM     31  O   UNL d   1      -2.510   3.602   2.724  0.00  0.00    -0.390 OA
ATOM     32  H   UNL d   1      -2.436   3.489   3.695  0.00  0.00     0.210 HD
ENDBRANCH  24  31
ENDBRANCH  23  24
BRANCH  23  33
ATOM     33  O   UNL d   1      -0.988   4.901   0.677  0.00  0.00    -0.391 OA
ATOM     34  H   UNL d   1      -0.411   5.084   1.448  0.00  0.00     0.210 HD
ENDBRANCH  23  33
ENDBRANCH  22  23
ENDBRANCH   3  22
TORSDOF 9
