REMARK  6 active torsions:
REMARK  status: ('A' for Active; 'I' for Inactive)
REMARK    1  A    between atoms: C_8  and  C_3 
REMARK    2  A    between atoms: C_12  and  N_4 
REMARK    3  A    between atoms: O_21  and  C_8 
REMARK    4  A    between atoms: O_22  and  C_13 
REMARK    5  A    between atoms: O_23  and  C_15 
REMARK    6  A    between atoms: C_27  and  O_21 
ROOT
ATOM      1  C   UNL d   1      -0.570   2.330   0.375  0.00  0.00     0.122 C 
ATOM      2  N   UNL d   1      -1.896   2.037   0.932  0.00  0.00    -0.235 NA
ATOM      3  C   UNL d   1      -2.634   3.134   0.438  0.00  0.00     0.172 C 
ATOM      4  N   UNL d   1      -0.893   3.128  -0.843  0.00  0.00    -0.167 NA
ATOM      5  N   UNL d   1      -2.143   3.710  -0.640  0.00  0.00    -0.297 N 
ATOM      6  HN  UNL d   1      -2.585   4.432  -1.208  1.00  0.00     0.182 HD
ATOM      7  C   UNL d   1       0.376   1.173   0.169  0.00  0.00    -0.009 A 
ATOM      8  C   UNL d   1      -0.024  -0.151   0.345  0.00  0.00    -0.044 A 
ATOM      9  C   UNL d   1       1.712   1.452  -0.189  0.00  0.00     0.050 A 
ATOM     10  C   UNL d   1      -2.451   0.708   0.651  0.00  0.00     0.104 C 
ATOM     11  C   UNL d   1       2.669   0.451  -0.299  0.00  0.00     0.102 A 
ATOM     12  C   UNL d   1       0.932  -1.177   0.189  0.00  0.00     0.047 A 
ATOM     13  C   UNL d   1       2.275  -0.883  -0.116  0.00  0.00     0.102 A 
ATOM     14  C   UNL d   1      -1.444  -0.458   0.749  0.00  0.00     0.054 C 
ATOM     15  C   UNL d   1       0.078   3.286   1.435  0.00  0.00     0.058 C 
ENDROOT
BRANCH   4  16
ATOM     16  C   UNL d   1      -0.705   2.659  -2.152  0.00  0.00     0.033 A 
ATOM     17  C   UNL d   1      -1.083   1.389  -2.604  0.00  0.00     0.026 A 
ATOM     18  C   UNL d   1      -0.849   0.976  -3.918  0.00  0.00     0.008 A 
ATOM     19  C   UNL d   1      -0.233   1.831  -4.828  0.00  0.00    -0.062 A 
ATOM     20  C   UNL d   1       0.128   3.113  -4.409  0.00  0.00     0.008 A 
ATOM     21  C   UNL d   1       0.039   1.358  -6.227  0.00  0.00     0.048 C 
ATOM     22  C   UNL d   1      -0.120   3.524  -3.090  0.00  0.00     0.026 A 
ENDBRANCH   4  16
BRANCH   3  23
ATOM     23  C   UNL d   1      -3.748   3.840   1.220  0.00  0.00     0.323 C 
ATOM     24  O   UNL d   1      -4.150   3.436   2.296  0.00  0.00    -0.256 OA
BRANCH  23  25
ATOM     25  O   UNL d   1      -3.942   5.069   0.686  0.00  0.00    -0.316 OA
BRANCH  25  26
ATOM     26  C   UNL d   1      -3.727   6.163   1.585  0.00  0.00     0.175 C 
ATOM     27  C   UNL d   1      -5.042   6.717   2.088  0.00  0.00     0.034 C 
ENDBRANCH  25  26
ENDBRANCH  23  25
ENDBRANCH   3  23
BRANCH  11  28
ATOM     28  O   UNL d   1       3.993   0.690  -0.571  0.00  0.00    -0.353 OA
ATOM     29  C   UNL d   1       4.402   2.049  -0.682  0.00  0.00     0.210 C 
ENDBRANCH  11  28
BRANCH  13  30
ATOM     30  O   UNL d   1       3.282  -1.806  -0.227  0.00  0.00    -0.353 OA
ATOM     31  C   UNL d   1       2.932  -3.178  -0.252  0.00  0.00     0.210 C 
ENDBRANCH  13  30
TORSDOF 6
