REMARK  5 active torsions:
REMARK  status: ('A' for Active; 'I' for Inactive)
REMARK    1  A    between atoms: O_11  and  C_3 
REMARK    2  A    between atoms: S_10  and  C_4 
REMARK    3  A    between atoms: O_8  and  C_5 
REMARK    4  A    between atoms: C_12  and  O_8 
REMARK    5  A    between atoms: C_13  and  C_12 
ROOT
ATOM      1  N   UNL d   1       0.934  -0.183  -1.974  0.00  0.00    -0.315 N 
ATOM      2  HN  UNL d   1       1.851  -0.219  -2.418  1.00  0.00     0.170 HD
ATOM      3  C   UNL d   1       0.384  -1.246  -1.366  0.00  0.00     0.177 A 
ATOM      4  C   UNL d   1       0.183   0.929  -1.955  0.00  0.00     0.143 A 
ATOM      5  C   UNL d   1      -0.855  -1.281  -0.760  0.00  0.00     0.135 A 
ATOM      6  N   UNL d   1      -1.019   1.044  -1.368  0.00  0.00    -0.344 N 
ATOM      7  HN  UNL d   1      -1.537   1.923  -1.371  1.00  0.00     0.167 HD
ATOM      8  C   UNL d   1      -1.504  -0.067  -0.774  0.00  0.00     0.131 A 
ENDROOT
BRANCH   5   9
ATOM      9  O   UNL d   1      -1.311  -2.439  -0.216  0.00  0.00    -0.341 OA
BRANCH   9  10
ATOM     10  C   UNL d   1      -2.732  -2.533  -0.077  0.00  0.00     0.214 C 
BRANCH  10  11
ATOM     11  C   UNL d   1      -3.177  -3.969   0.073  0.00  0.00    -0.034 A 
ATOM     12  C   UNL d   1      -4.398  -4.248   0.707  0.00  0.00     0.009 A 
ATOM     13  C   UNL d   1      -4.865  -5.561   0.803  0.00  0.00     0.001 A 
ATOM     14  C   UNL d   1      -4.121  -6.606   0.259  0.00  0.00     0.000 A 
ATOM     15  C   UNL d   1      -2.915  -6.340  -0.387  0.00  0.00     0.001 A 
ATOM     16  C   UNL d   1      -2.448  -5.028  -0.485  0.00  0.00     0.009 A 
ENDBRANCH  10  11
ENDBRANCH   9  10
ENDBRANCH   5   9
BRANCH   3  17
ATOM     17  O   UNL d   1       1.171  -2.356  -1.415  0.00  0.00    -0.344 OA
ATOM     18  H   UNL d   1       1.952  -2.012  -1.883  0.00  0.00     0.219 HD
ENDBRANCH   3  17
BRANCH   4  19
ATOM     19  S   UNL d   1       0.822   2.346  -2.793  0.00  0.00    -0.107 SA
ATOM     20  H   UNL d   1       1.935   1.721  -3.192  0.00  0.00     0.110 HD
ENDBRANCH   4  19
TORSDOF 5
