REMARK  1 active torsions:
REMARK  status: ('A' for Active; 'I' for Inactive)
REMARK    1  A    between atoms: C_14  and  N_7 
ROOT
ATOM      1  C   UNL d   1       0.777  -0.815  -0.094  0.00  0.00     0.173 A 
ATOM      2  C   UNL d   1       0.460   0.529  -0.139  0.00  0.00     0.090 A 
ATOM      3  C   UNL d   1       1.987  -1.549   0.164  0.00  0.00     0.285 C 
ATOM      4  C   UNL d   1      -0.975   0.607  -0.218  0.00  0.00     0.051 A 
ATOM      5  C   UNL d   1      -1.415  -0.714  -0.151  0.00  0.00     0.162 A 
ATOM      6  O   UNL d   1      -0.362  -1.561  -0.162  0.00  0.00    -0.285 OA
ATOM      7  N   UNL d   1       2.978  -0.818   0.830  0.00  0.00    -0.303 N 
ATOM      8  N   UNL d   1       1.325   1.600  -0.045  0.00  0.00    -0.322 N 
ATOM      9  N   UNL d   1      -2.673  -1.161  -0.035  0.00  0.00    -0.340 N 
ATOM     10  HN  UNL d   1      -2.910  -2.152  -0.006  1.00  0.00     0.167 HD
ATOM     11  C   UNL d   1      -1.971   1.612  -0.274  0.00  0.00    -0.043 A 
ATOM     12  C   UNL d   1       2.676   1.616   0.115  0.00  0.00     0.240 C 
ATOM     13  C   UNL d   1       3.523   0.345   0.142  0.00  0.00     0.235 C 
ATOM     14  O   UNL d   1       2.092  -2.756  -0.051  0.00  0.00    -0.265 OA
ATOM     15  C   UNL d   1      -3.300   1.170  -0.106  0.00  0.00     0.032 A 
ATOM     16  C   UNL d   1      -3.594  -0.184   0.040  0.00  0.00     0.008 A 
ATOM     17  O   UNL d   1       3.228   2.723   0.087  0.00  0.00    -0.271 OA
ATOM     18  C   UNL d   1      -1.739   3.088  -0.422  0.00  0.00     0.049 C 
ATOM     19  C   UNL d   1      -5.000  -0.613   0.348  0.00  0.00     0.068 C 
ATOM     20  H   UNL d   1       0.926   2.529  -0.071  0.00  0.00     0.169 HD
ENDROOT
BRANCH   7  21
ATOM     21  C   UNL d   1       3.703  -1.489   1.869  0.00  0.00     0.038 A 
ATOM     22  C   UNL d   1       5.076  -1.325   2.090  0.00  0.00     0.033 A 
ATOM     23  C   UNL d   1       5.714  -1.993   3.144  0.00  0.00     0.044 A 
ATOM     24  C   UNL d   1       4.978  -2.814   3.993  0.00  0.00     0.116 A 
ATOM     25  C   UNL d   1       3.620  -2.993   3.805  0.00  0.00     0.044 A 
ATOM     26  F   UNL d   1       5.595  -3.440   5.001  0.00  0.00    -0.206 F 
ATOM     27  C   UNL d   1       2.987  -2.334   2.745  0.00  0.00     0.033 A 
ENDBRANCH   7  21
TORSDOF 1
