REMARK  5 active torsions:
REMARK  status: ('A' for Active; 'I' for Inactive)
REMARK    1  A    between atoms: C_7  and  C_1 
REMARK    2  A    between atoms: C_10  and  C_5 
REMARK    3  A    between atoms: O_17  and  C_12 
REMARK    4  A    between atoms: O_19  and  C_13 
REMARK    5  A    between atoms: O_18  and  C_14 
ROOT
ATOM      1  C   UNL d   1      -1.562   1.813  -0.008  0.00  0.00     0.024 C 
ATOM      2  N   UNL d   1      -0.409   1.720  -0.599  0.00  0.00    -0.358 N 
ATOM      3  HN  UNL d   1      -0.196   2.351  -1.371  1.00  0.00     0.166 HD
ATOM      4  S   UNL d   1      -1.212  -1.408  -0.472  0.00  0.00    -0.118 SA
ATOM      5  C   UNL d   1      -2.393  -0.529   0.637  0.00  0.00     0.091 C 
ATOM      6  C   UNL d   1      -2.004   0.880   1.113  0.00  0.00     0.078 C 
ATOM      7  C   UNL d   1       0.556   0.772  -0.202  0.00  0.00     0.049 A 
ATOM      8  C   UNL d   1       0.337  -0.614  -0.089  0.00  0.00     0.028 A 
ATOM      9  C   UNL d   1       1.851   1.268   0.008  0.00  0.00     0.031 A 
ATOM     10  C   UNL d   1       1.406  -1.460   0.251  0.00  0.00     0.021 A 
ATOM     11  C   UNL d   1       2.907   0.420   0.348  0.00  0.00     0.002 A 
ATOM     12  C   UNL d   1       2.682  -0.945   0.476  0.00  0.00     0.002 A 
ENDROOT
BRANCH   5  13
ATOM     13  C   UNL d   1      -3.792  -0.559   0.030  0.00  0.00    -0.041 A 
ATOM     14  C   UNL d   1      -4.031  -0.054  -1.260  0.00  0.00     0.048 A 
ATOM     15  C   UNL d   1      -5.311  -0.024  -1.823  0.00  0.00     0.102 A 
ATOM     16  C   UNL d   1      -6.393  -0.496  -1.070  0.00  0.00     0.101 A 
ATOM     17  C   UNL d   1      -6.160  -1.045   0.197  0.00  0.00     0.040 A 
ATOM     18  C   UNL d   1      -4.876  -1.068   0.750  0.00  0.00     0.011 A 
BRANCH  15  19
ATOM     19  O   UNL d   1      -5.527   0.510  -3.066  0.00  0.00    -0.353 OA
ATOM     20  C   UNL d   1      -4.561   0.158  -4.053  0.00  0.00     0.210 C 
ENDBRANCH  15  19
BRANCH  16  21
ATOM     21  O   UNL d   1      -7.706  -0.546  -1.461  0.00  0.00    -0.353 OA
ATOM     22  C   UNL d   1      -8.154   0.534  -2.272  0.00  0.00     0.210 C 
ENDBRANCH  16  21
ENDBRANCH   5  13
BRANCH   1  23
ATOM     23  C   UNL d   1      -2.508   2.872  -0.498  0.00  0.00     0.020 A 
ATOM     24  C   UNL d   1      -3.377   3.595   0.325  0.00  0.00     0.077 A 
ATOM     25  C   UNL d   1      -4.335   4.447  -0.229  0.00  0.00     0.037 A 
ATOM     26  C   UNL d   1      -4.390   4.635  -1.610  0.00  0.00     0.003 A 
ATOM     27  C   UNL d   1      -3.477   3.986  -2.436  0.00  0.00     0.001 A 
ATOM     28  C   UNL d   1      -2.539   3.110  -1.883  0.00  0.00     0.016 A 
BRANCH  24  29
ATOM     29  O   UNL d   1      -3.318   3.586   1.691  0.00  0.00    -0.360 OA
ATOM     30  H   UNL d   1      -2.384   3.491   1.947  0.00  0.00     0.217 HD
ENDBRANCH  24  29
ENDBRANCH   1  23
TORSDOF 5
