REMARK  2 active torsions:
REMARK  status: ('A' for Active; 'I' for Inactive)
REMARK    1  A    between atoms: C_8  and  C_7 
REMARK    2  A    between atoms: C_17  and  C_11 
ROOT
ATOM      1  C   UNL d   1      -1.255   0.127  -0.077  0.00  0.00     0.117 C 
ATOM      2  C   UNL d   1      -0.651  -1.177   0.221  0.00  0.00     0.302 C 
ATOM      3  C   UNL d   1      -0.511   1.340   0.286  0.00  0.00     0.302 C 
ATOM      4  O   UNL d   1       0.694  -1.165   0.328  0.00  0.00    -0.280 OA
ATOM      5  O   UNL d   1       0.831   1.216   0.237  0.00  0.00    -0.280 OA
ATOM      6  C   UNL d   1       1.405  -0.027  -0.164  0.00  0.00     0.175 C 
ATOM      7  C   UNL d   1      -2.461   0.110  -0.675  0.00  0.00     0.061 C 
ATOM      8  O   UNL d   1      -1.038   2.369   0.684  0.00  0.00    -0.259 OA
ATOM      9  O   UNL d   1      -1.299  -2.207   0.350  0.00  0.00    -0.259 OA
ATOM     10  C   UNL d   1       1.541  -0.090  -1.688  0.00  0.00     0.080 C 
ATOM     11  C   UNL d   1       2.796  -0.074   0.470  0.00  0.00     0.080 C 
ENDROOT
BRANCH   7  12
ATOM     12  C   UNL d   1      -3.104   1.265  -1.192  0.00  0.00     0.076 A 
ATOM     13  O   UNL d   1      -2.429   2.316  -1.768  0.00  0.00    -0.315 OA
ATOM     14  C   UNL d   1      -3.335   3.240  -2.183  0.00  0.00     0.053 A 
ATOM     15  C   UNL d   1      -4.609   2.797  -1.921  0.00  0.00     0.035 A 
ATOM     16  C   UNL d   1      -4.463   1.533  -1.302  0.00  0.00     0.040 A 
BRANCH  14  17
ATOM     17  C   UNL d   1      -2.785   4.465  -2.815  0.00  0.00     0.060 C 
ATOM     18  C   UNL d   1      -2.577   5.581  -1.805  0.00  0.00     0.012 C 
ENDBRANCH  14  17
ENDBRANCH   7  12
TORSDOF 2
