REMARK  4 active torsions:
REMARK  status: ('A' for Active; 'I' for Inactive)
REMARK    1  A    between atoms: C_4  and  N_1 
REMARK    2  A    between atoms: C_2  and  C_5 
REMARK       I    between atoms: N_3  and  C_2 
REMARK    3  A    between atoms: C_15  and  N_3 
REMARK    4  A    between atoms: C_16  and  C_15 
ROOT
ATOM      1  C   UNL d   1      -0.688  -2.391  -0.047  0.00  0.00     0.038 A 
ATOM      2  C   UNL d   1      -1.339  -5.143   0.005  0.00  0.00     0.032 A 
ATOM      3  C   UNL d   1      -1.612  -2.913  -0.959  0.00  0.00     0.031 A 
ATOM      4  C   UNL d   1      -0.101  -3.249   0.894  0.00  0.00     0.031 A 
ATOM      5  C   UNL d   1      -0.431  -4.609   0.926  0.00  0.00     0.019 A 
ATOM      6  C   UNL d   1      -1.922  -4.281  -0.938  0.00  0.00     0.019 A 
ENDROOT
BRANCH   2   7
ATOM      7  C   UNL d   1      -1.715  -6.593  -0.042  0.00  0.00     0.251 C 
ATOM      8  N   UNL d   1      -1.191  -7.427   0.923  0.00  0.00    -0.353 N 
ATOM      9  H   UNL d   1      -0.603  -7.081   1.661  0.00  0.00     0.163 HD
ATOM     10  O   UNL d   1      -2.470  -6.992  -0.922  0.00  0.00    -0.268 OA
BRANCH   8  11
ATOM     11  C   UNL d   1      -1.487  -8.844   0.954  0.00  0.00     0.161 C 
BRANCH  11  12
ATOM     12  C   UNL d   1      -2.095  -9.248   2.273  0.00  0.00    -0.041 A 
ATOM     13  C   UNL d   1      -3.343  -8.737   2.661  0.00  0.00     0.009 A 
ATOM     14  C   UNL d   1      -3.933  -9.136   3.861  0.00  0.00     0.001 A 
ATOM     15  C   UNL d   1      -3.283 -10.052   4.686  0.00  0.00     0.000 A 
ATOM     16  C   UNL d   1      -2.040 -10.563   4.316  0.00  0.00     0.001 A 
ATOM     17  C   UNL d   1      -1.447 -10.163   3.116  0.00  0.00     0.009 A 
ENDBRANCH  11  12
ENDBRANCH   8  11
ENDBRANCH   2   7
BRANCH   1  18
ATOM     18  N   UNL d   1      -0.339  -1.012  -0.067  0.00  0.00    -0.333 N 
ATOM     19  C   UNL d   1      -1.073   0.020  -0.622  0.00  0.00     0.096 A 
ATOM     20  C   UNL d   1      -0.416   1.212  -0.400  0.00  0.00     0.019 A 
ATOM     21  C   UNL d   1       0.781   0.911   0.278  0.00  0.00     0.019 A 
ATOM     22  C   UNL d   1       0.805  -0.453   0.472  0.00  0.00     0.096 A 
ENDBRANCH   1  18
TORSDOF 4
