REMARK  2 active torsions:
REMARK  status: ('A' for Active; 'I' for Inactive)
REMARK    1  A    between atoms: C_7  and  N_8 
REMARK    2  A    between atoms: N_8  and  N_10 
ROOT
ATOM      1  S   UNL d   1       0.884  -2.395  -0.097  0.00  0.00     0.180 S 
ATOM      2  C   UNL d   1      -1.404  -0.842  -0.012  0.00  0.00    -0.002 A 
ATOM      3  C   UNL d   1      -0.697   0.310   0.029  0.00  0.00     0.021 A 
ATOM      4  C   UNL d   1       0.805   0.357   0.021  0.00  0.00     0.004 A 
ATOM      5  C   UNL d   1       1.593  -0.793  -0.012  0.00  0.00     0.071 A 
ATOM      6  C   UNL d   1      -0.863  -2.245  -0.056  0.00  0.00     0.187 A 
ATOM      7  C   UNL d   1      -2.938  -0.865   0.010  0.00  0.00     0.035 C 
ATOM      8  N   UNL d   1      -3.551  -1.974  -0.301  0.00  0.00    -0.304 N 
ATOM      9  HN  UNL d   1      -3.018  -2.801  -0.571  1.00  0.00     0.186 HD
ATOM     10  S   UNL d   1      -1.469   1.881   0.147  0.00  0.00    -0.128 SA
ATOM     11  O   UNL d   1       1.259  -2.913  -1.400  0.00  0.00    -0.222 OA
ATOM     12  O   UNL d   1       1.305  -3.072   1.118  0.00  0.00    -0.222 OA
ATOM     13  C   UNL d   1       3.005  -0.752   0.001  0.00  0.00     0.026 A 
ATOM     14  C   UNL d   1       1.529   1.578   0.043  0.00  0.00     0.038 A 
ATOM     15  C   UNL d   1       2.930   1.630   0.050  0.00  0.00     0.035 A 
ATOM     16  C   UNL d   1      -3.663   0.399   0.427  0.00  0.00     0.069 C 
ATOM     17  C   UNL d   1      -3.140   1.545  -0.396  0.00  0.00     0.085 C 
ATOM     18  C   UNL d   1       3.674   0.464   0.035  0.00  0.00     0.025 A 
ATOM     19 CL   UNL d   1       3.728   3.155   0.075  0.00  0.00    -0.084 Cl
ENDROOT
BRANCH   8  20
ATOM     20  N   UNL d   1      -4.909  -2.015  -0.261  0.00  0.00    -0.297 N 
ATOM     21  H   UNL d   1      -5.415  -1.238  -0.695  0.00  0.00     0.187 HD
BRANCH  20  22
ATOM     22  C   UNL d   1      -5.582  -3.236  -0.577  0.00  0.00     0.091 A 
ATOM     23  C   UNL d   1      -5.069  -4.530  -0.348  0.00  0.00     0.065 A 
ATOM     24  C   UNL d   1      -5.842  -5.670  -0.622  0.00  0.00     0.050 A 
ATOM     25 CL   UNL d   1      -3.500  -4.846   0.314  0.00  0.00    -0.082 Cl
ATOM     26  C   UNL d   1      -7.141  -5.543  -1.102  0.00  0.00     0.037 A 
ATOM     27  C   UNL d   1      -7.686  -4.287  -1.322  0.00  0.00     0.050 A 
ATOM     28 CL   UNL d   1      -8.084  -6.949  -1.400  0.00  0.00    -0.084 Cl
ATOM     29  C   UNL d   1      -6.916  -3.153  -1.052  0.00  0.00     0.065 A 
ATOM     30 CL   UNL d   1      -7.652  -1.606  -1.339  0.00  0.00    -0.082 Cl
ENDBRANCH  20  22
ENDBRANCH   8  20
TORSDOF 2
