REMARK  2 active torsions:
REMARK  status: ('A' for Active; 'I' for Inactive)
REMARK    1  A    between atoms: O_3  and  C_1 
REMARK    2  A    between atoms: C_4  and  O_3 
ROOT
ATOM      1  C   UNL d   1       1.286   1.344   0.060  0.00  0.00     0.105 A 
ATOM      2  C   UNL d   1       0.035   0.710   0.013  0.00  0.00     0.076 A 
ATOM      3  N   UNL d   1      -1.124   1.414  -0.015  0.00  0.00    -0.363 N 
ATOM      4  HN  UNL d   1      -1.113   2.434  -0.009  1.00  0.00     0.165 HD
ATOM      5  C   UNL d   1       0.024  -0.705   0.009  0.00  0.00    -0.007 A 
ATOM      6  C   UNL d   1       2.478   0.607   0.166  0.00  0.00     0.040 A 
ATOM      7  C   UNL d   1       2.446  -0.782   0.146  0.00  0.00     0.004 A 
ATOM      8  C   UNL d   1      -2.293   0.739  -0.051  0.00  0.00     0.088 A 
ATOM      9  C   UNL d   1       1.223  -1.436   0.061  0.00  0.00     0.014 A 
ATOM     10  C   UNL d   1      -1.210  -1.367  -0.036  0.00  0.00     0.015 A 
ATOM     11  C   UNL d   1      -2.389  -0.636  -0.063  0.00  0.00     0.018 A 
ENDROOT
BRANCH   1  12
ATOM     12  O   UNL d   1       1.285   2.728   0.102  0.00  0.00    -0.292 OA
BRANCH  12  13
ATOM     13  C   UNL d   1       2.281   3.417  -0.580  0.00  0.00     0.148 A 
ATOM     14  N   UNL d   1       2.901   2.853  -1.643  0.00  0.00    -0.347 N 
ATOM     15  C   UNL d   1       3.877   3.575  -2.232  0.00  0.00     0.090 A 
ATOM     16  HN  UNL d   1       2.642   1.926  -1.982  1.00  0.00     0.167 HD
ATOM     17  C   UNL d   1       4.258   4.840  -1.815  0.00  0.00     0.017 A 
ATOM     18  C   UNL d   1       3.587   5.409  -0.738  0.00  0.00     0.006 A 
ATOM     19  C   UNL d   1       2.574   4.690  -0.111  0.00  0.00     0.056 A 
ENDBRANCH  12  13
ENDBRANCH   1  12
TORSDOF 2
