REMARK  2 active torsions:
REMARK  status: ('A' for Active; 'I' for Inactive)
REMARK    1  A    between atoms: C_7  and  C_1 
REMARK    2  A    between atoms: O_10  and  N_8 
ROOT
ATOM      1  C   UNL d   1       1.000  -3.775  -0.005  0.00  0.00     0.123 A 
ATOM      2  N   UNL d   1       3.170  -4.416  -0.013  0.00  0.00    -0.342 N 
ATOM      3  HN  UNL d   1       4.190  -4.408  -0.018  1.00  0.00     0.167 HD
ATOM      4  C   UNL d   1       2.313  -3.336  -0.012  0.00  0.00     0.043 A 
ATOM      5  O   UNL d   1       1.038  -5.149  -0.002  0.00  0.00    -0.294 OA
ATOM      6  C   UNL d   1       2.368  -5.458  -0.007  0.00  0.00     0.120 A 
ATOM      7  C   UNL d   1       2.848  -1.957  -0.017  0.00  0.00     0.071 C 
ATOM      8  C   UNL d   1       2.724  -6.890  -0.003  0.00  0.00     0.098 C 
ENDROOT
BRANCH   1   9
ATOM      9  C   UNL d   1      -0.270  -3.089   0.000  0.00  0.00     0.064 C 
ATOM     10  N   UNL d   1      -0.272  -1.785  -0.002  0.00  0.00    -0.271 N 
ATOM     11  HN  UNL d   1       0.572  -1.211  -0.007  1.00  0.00     0.194 HD
ATOM     12  C   UNL d   1      -1.544  -3.907   0.009  0.00  0.00     0.073 C 
BRANCH  10  13
ATOM     13  O   UNL d   1      -1.573  -1.267   0.003  0.00  0.00    -0.290 OA
ATOM     14  H   UNL d   1      -1.418  -0.303   0.001  0.00  0.00     0.244 HD
ENDBRANCH  10  13
ENDBRANCH   1   9
TORSDOF 2
