REMARK  2 active torsions:
REMARK  status: ('A' for Active; 'I' for Inactive)
REMARK    1  A    between atoms: C_2  and  N_1 
REMARK    2  A    between atoms: N_4  and  C_3 
ROOT
ATOM      1  C   UNL d   1      -1.699   2.432   0.025  0.00  0.00     0.146 A 
ATOM      2  C   UNL d   1      -0.934   1.485   0.716  0.00  0.00     0.137 A 
ATOM      3  N   UNL d   1       0.309   1.198   0.252  0.00  0.00    -0.350 N 
ATOM      4  HN  UNL d   1       0.896   0.523   0.742  1.00  0.00     0.166 HD
ATOM      5  C   UNL d   1      -1.230   3.053  -1.141  0.00  0.00     0.041 A 
ATOM      6  C   UNL d   1       0.765   1.813  -0.869  0.00  0.00     0.090 A 
ATOM      7  C   UNL d   1       0.036   2.731  -1.600  0.00  0.00     0.020 A 
ENDROOT
BRANCH   2   8
ATOM      8  N   UNL d   1      -1.360   0.836   1.866  0.00  0.00    -0.364 N 
ATOM      9  C   UNL d   1      -0.349   0.319   2.791  0.00  0.00     0.126 C 
ATOM     10  C   UNL d   1      -0.475   1.025   4.138  0.00  0.00     0.050 C 
ATOM     11  C   UNL d   1      -1.889   1.151   4.720  0.00  0.00     0.271 C 
ATOM     12  N   UNL d   1      -2.853   0.105   4.372  0.00  0.00     0.085 N 
ATOM     13  C   UNL d   1      -3.484   0.360   3.064  0.00  0.00     0.289 C 
ATOM     14  H   UNL d   1      -2.402  -0.807   4.371  0.00  0.00     0.315 HD
ATOM     15  C   UNL d   1      -2.608   0.055   1.828  0.00  0.00     0.154 C 
ENDBRANCH   2   8
BRANCH   1  16
ATOM     16  N   UNL d   1      -2.965   2.880   0.537  0.00  0.00    -0.112 N 
ATOM     17  O   UNL d   1      -2.957   3.567   1.572  0.00  0.00    -0.532 OA
ATOM     18  O   UNL d   1      -3.970   2.592  -0.126  0.00  0.00    -0.532 OA
ENDBRANCH   1  16
TORSDOF 2
