REMARK  3 active torsions:
REMARK  status: ('A' for Active; 'I' for Inactive)
REMARK    1  A    between atoms: C_4  and  C_1 
REMARK    2  A    between atoms: C_2  and  C_3 
REMARK    3  A    between atoms: N_7  and  C_6 
REMARK       I    between atoms: C_8  and  N_7 
ROOT
ATOM      1  C   UNL d   1      -0.493  -0.013  -3.489  0.00  0.00     0.050 A 
ATOM      2  C   UNL d   1       0.585  -0.287  -1.321  0.00  0.00     0.050 A 
ATOM      3  C   UNL d   1      -0.002   0.533  -2.294  0.00  0.00     0.032 A 
ATOM      4  C   UNL d   1       0.181  -2.241  -2.730  0.00  0.00     0.036 A 
ATOM      5  C   UNL d   1       0.677  -1.668  -1.558  0.00  0.00     0.045 A 
ATOM      6  C   UNL d   1      -0.392  -1.403  -3.697  0.00  0.00     0.045 A 
ENDROOT
BRANCH   4   7
ATOM      7  N   UNL d   1       0.201  -3.629  -2.987  0.00  0.00    -0.327 N 
ATOM      8  C   UNL d   1       0.670  -4.624  -2.144  0.00  0.00     0.218 C 
ATOM      9  O   UNL d   1       1.198  -4.466  -1.050  0.00  0.00    -0.274 OA
ATOM     10  C   UNL d   1       0.469  -6.018  -2.684  0.00  0.00     0.117 C 
ATOM     11  H   UNL d   1      -0.202  -3.927  -3.867  0.00  0.00     0.169 HD
ENDBRANCH   4   7
BRANCH   2  12
ATOM     12  C   UNL d   1       1.101   0.270  -0.016  0.00  0.00     0.417 C 
ATOM     13  F   UNL d   1       0.914   1.614   0.106  0.00  0.00    -0.166 F 
ATOM     14  F   UNL d   1       2.435   0.062   0.150  0.00  0.00    -0.166 F 
ATOM     15  F   UNL d   1       0.491  -0.289   1.065  0.00  0.00    -0.166 F 
ENDBRANCH   2  12
BRANCH   1  16
ATOM     16  C   UNL d   1      -1.136   0.865  -4.537  0.00  0.00     0.417 C 
ATOM     17  F   UNL d   1      -1.220   2.175  -4.174  0.00  0.00    -0.166 F 
ATOM     18  F   UNL d   1      -0.458   0.846  -5.717  0.00  0.00    -0.166 F 
ATOM     19  F   UNL d   1      -2.408   0.476  -4.830  0.00  0.00    -0.166 F 
ENDBRANCH   1  16
TORSDOF 3
