REMARK  2 active torsions:
REMARK  status: ('A' for Active; 'I' for Inactive)
REMARK       I    between atoms: N_2  and  C_1 
REMARK       I    between atoms: N_3  and  C_1 
REMARK    1  A    between atoms: C_4  and  N_2 
REMARK    2  A    between atoms: C_5  and  N_3 
ROOT
ATOM      1  C   UNL d   1       1.135   0.029   0.115  0.00  0.00     0.325 C 
ATOM      2  N   UNL d   1       0.510   0.717  -0.910  0.00  0.00    -0.307 N 
ATOM      3  N   UNL d   1       0.216  -0.683   0.858  0.00  0.00    -0.307 N 
ATOM      4  O   UNL d   1       2.339   0.062   0.342  0.00  0.00    -0.247 OA
ATOM      5  H   UNL d   1      -0.332   1.178  -0.582  0.00  0.00     0.170 HD
ATOM      6  H   UNL d   1      -0.414  -1.229   0.281  0.00  0.00     0.170 HD
ENDROOT
BRANCH   2   7
ATOM      7  C   UNL d   1       1.256   1.448  -1.864  0.00  0.00     0.053 A 
ATOM      8  C   UNL d   1       0.969   2.794  -2.118  0.00  0.00     0.037 A 
ATOM      9 BR   UNL d   1      -0.346   3.729  -1.115  0.00  0.00    -0.049 Br
ATOM     10  C   UNL d   1       1.697   3.503  -3.078  0.00  0.00     0.021 A 
ATOM     11  C   UNL d   1       2.693   2.858  -3.812  0.00  0.00     0.002 A 
ATOM     12  C   UNL d   1       2.973   1.513  -3.575  0.00  0.00     0.002 A 
ATOM     13  C   UNL d   1       2.264   0.811  -2.597  0.00  0.00     0.031 A 
ENDBRANCH   2   7
BRANCH   3  14
ATOM     14  C   UNL d   1       0.532  -1.238   2.119  0.00  0.00     0.053 A 
ATOM     15  C   UNL d   1       0.159  -2.549   2.442  0.00  0.00     0.037 A 
ATOM     16 BR   UNL d   1      -0.618  -3.701   1.147  0.00  0.00    -0.049 Br
ATOM     17  C   UNL d   1       0.412  -3.063   3.717  0.00  0.00     0.021 A 
ATOM     18  C   UNL d   1       1.010  -2.257   4.687  0.00  0.00     0.002 A 
ATOM     19  C   UNL d   1       1.382  -0.951   4.375  0.00  0.00     0.002 A 
ATOM     20  C   UNL d   1       1.154  -0.446   3.092  0.00  0.00     0.031 A 
ENDBRANCH   3  14
TORSDOF 2
