REMARK  4 active torsions:
REMARK  status: ('A' for Active; 'I' for Inactive)
REMARK    1  A    between atoms: C_2  and  C_1 
REMARK       I    between atoms: N_5  and  C_1 
REMARK    2  A    between atoms: C_9  and  N_5 
REMARK    3  A    between atoms: C_10  and  C_6 
REMARK    4  A    between atoms: O_16  and  C_10 
ROOT
ATOM      1  C   UNL d   1       0.596   0.229   0.279  0.00  0.00     0.228 C 
ATOM      2  N   UNL d   1      -0.068  -0.973   0.431  0.00  0.00    -0.326 N 
ATOM      3  O   UNL d   1       1.754   0.452   0.639  0.00  0.00    -0.273 OA
ATOM      4  H   UNL d   1      -0.830  -1.147  -0.209  0.00  0.00     0.169 HD
ENDROOT
BRANCH   1   5
ATOM      5  C   UNL d   1      -0.096   1.228  -0.630  0.00  0.00     0.100 C 
ATOM      6  C   UNL d   1      -1.598   1.512  -0.423  0.00  0.00     0.022 C 
ATOM      7  C   UNL d   1      -1.847   2.054   0.962  0.00  0.00    -0.025 C 
ATOM      8  C   UNL d   1      -1.724   2.828  -1.208  0.00  0.00     0.018 C 
ATOM      9  C   UNL d   1      -1.309   3.283   1.010  0.00  0.00    -0.025 C 
ATOM     10  C   UNL d   1      -0.691   3.562  -0.345  0.00  0.00     0.023 C 
ATOM     11  C   UNL d   1       0.548   2.648  -0.472  0.00  0.00     0.105 C 
BRANCH  11  12
ATOM     12  C   UNL d   1       1.407   2.952  -1.675  0.00  0.00     0.145 C 
ATOM     13  O   UNL d   1       1.171   3.815  -2.507  0.00  0.00    -0.650 OA
BRANCH  12  14
ATOM     14  O   UNL d   1       2.493   2.143  -1.747  0.00  0.00    -0.776 OA
ATOM     15  H   UNL d   1       2.589   1.528  -0.982  0.00  0.00     0.167 HD
ENDBRANCH  12  14
ENDBRANCH  11  12
ENDBRANCH   1   5
BRANCH   2  16
ATOM     16  C   UNL d   1       0.533  -2.113   1.030  0.00  0.00     0.045 A 
ATOM     17  C   UNL d   1       0.369  -3.402   0.444  0.00  0.00     0.001 A 
ATOM     18  C   UNL d   1       1.062  -4.496   1.023  0.00  0.00    -0.024 A 
ATOM     19  C   UNL d   1      -0.392  -3.663  -0.724  0.00  0.00     0.014 A 
ATOM     20  C   UNL d   1       1.002  -5.767   0.429  0.00  0.00     0.012 A 
ATOM     21  C   UNL d   1       1.832  -4.310   2.181  0.00  0.00     0.012 A 
ATOM     22  C   UNL d   1       0.254  -5.985  -0.727  0.00  0.00     0.001 A 
ATOM     23  C   UNL d   1      -0.450  -4.935  -1.298  0.00  0.00     0.001 A 
ATOM     24  C   UNL d   1       1.940  -3.054   2.771  0.00  0.00     0.003 A 
ATOM     25  C   UNL d   1       1.302  -1.961   2.193  0.00  0.00     0.030 A 
ENDBRANCH   2  16
TORSDOF 4
