REMARK  4 active torsions:
REMARK  status: ('A' for Active; 'I' for Inactive)
REMARK    1  A    between atoms: N_2  and  S_1 
REMARK    2  A    between atoms: C_3  and  S_1 
REMARK    3  A    between atoms: O_23  and  C_12 
REMARK    4  A    between atoms: O_22  and  C_13 
ROOT
ATOM      1  N   UNL d   1       0.631   0.783  -1.171  0.00  0.00    -0.302 N 
ATOM      2  C   UNL d   1       1.204   2.864  -2.506  0.00  0.00    -0.030 A 
ATOM      3  C   UNL d   1       0.983   2.228  -1.158  0.00  0.00     0.174 C 
ATOM      4  C   UNL d   1       1.797   2.112  -3.521  0.00  0.00    -0.046 A 
ATOM      5  C   UNL d   1       0.918   4.219  -2.722  0.00  0.00     0.049 A 
ATOM      6  C   UNL d   1       1.211   4.840  -3.946  0.00  0.00     0.102 A 
ATOM      7  C   UNL d   1       1.828   4.082  -4.959  0.00  0.00     0.102 A 
ATOM      8  C   UNL d   1       2.118   2.725  -4.732  0.00  0.00     0.047 A 
ATOM      9  C   UNL d   1       0.898   0.070  -2.462  0.00  0.00     0.140 C 
ATOM     10  C   UNL d   1       2.076   0.661  -3.241  0.00  0.00     0.060 C 
ENDROOT
BRANCH   1  11
ATOM     11  S   UNL d   1       1.103  -0.086   0.214  0.00  0.00     0.261 S 
ATOM     12  O   UNL d   1       2.549  -0.030   0.278  0.00  0.00    -0.200 OA
ATOM     13  O   UNL d   1       0.398  -1.348   0.228  0.00  0.00    -0.200 OA
BRANCH  11  14
ATOM     14  C   UNL d   1       0.454   0.895   1.546  0.00  0.00     0.082 A 
ATOM     15  C   UNL d   1       1.329   1.474   2.469  0.00  0.00     0.070 A 
ATOM     16  C   UNL d   1       0.807   2.275   3.478  0.00  0.00     0.156 A 
ATOM     17  F   UNL d   1       1.639   2.845   4.359  0.00  0.00    -0.203 F 
ATOM     18  C   UNL d   1      -0.565   2.495   3.568  0.00  0.00     0.154 A 
ATOM     19  C   UNL d   1      -1.438   1.914   2.652  0.00  0.00     0.047 A 
ATOM     20  F   UNL d   1      -1.057   3.280   4.537  0.00  0.00    -0.203 F 
ATOM     21  C   UNL d   1      -0.930   1.103   1.634  0.00  0.00     0.028 A 
ENDBRANCH  11  14
ENDBRANCH   1  11
BRANCH   6  22
ATOM     22  O   UNL d   1       0.929   6.157  -4.192  0.00  0.00    -0.353 OA
ATOM     23  C   UNL d   1       0.308   6.923  -3.168  0.00  0.00     0.210 C 
ENDBRANCH   6  22
BRANCH   7  24
ATOM     24  O   UNL d   1       2.216   4.483  -6.212  0.00  0.00    -0.353 OA
ATOM     25  C   UNL d   1       2.005   5.832  -6.599  0.00  0.00     0.210 C 
ENDBRANCH   7  24
TORSDOF 4
