REMARK  7 active torsions:
REMARK  status: ('A' for Active; 'I' for Inactive)
REMARK    1  A    between atoms: C_2  and  C_1 
REMARK       I    between atoms: N_5  and  C_2 
REMARK    2  A    between atoms: C_4  and  C_3 
REMARK    3  A    between atoms: C_9  and  N_5 
REMARK    4  A    between atoms: S_16  and  C_11 
REMARK    5  A    between atoms: C_14  and  C_23 
REMARK    6  A    between atoms: O_26  and  C_14 
REMARK    7  A    between atoms: C_23  and  S_16 
ROOT
ATOM      1  C   UNL d   1       0.794   1.213  -0.220  0.00  0.00     0.062 A 
ATOM      2  C   UNL d   1       1.543   0.041  -0.029  0.00  0.00     0.067 A 
ATOM      3  C   UNL d   1      -0.569   1.029  -0.485  0.00  0.00     0.106 A 
ATOM      4  N   UNL d   1      -1.228  -0.160  -0.475  0.00  0.00    -0.360 N 
ATOM      5  HN  UNL d   1      -2.225  -0.218  -0.682  1.00  0.00     0.166 HD
ATOM      6  C   UNL d   1      -0.510  -1.256  -0.180  0.00  0.00     0.070 A 
ATOM      7  C   UNL d   1       0.854  -1.199   0.023  0.00  0.00     0.054 A 
ENDROOT
BRANCH   1   8
ATOM      8  C   UNL d   1       1.189   2.659  -0.082  0.00  0.00     0.258 C 
ATOM      9  N   UNL d   1       2.403   2.978   0.490  0.00  0.00    -0.321 N 
ATOM     10  H   UNL d   1       3.195   2.369   0.310  0.00  0.00     0.169 HD
ATOM     11  O   UNL d   1       0.391   3.515  -0.457  0.00  0.00    -0.267 OA
BRANCH   9  12
ATOM     12  C   UNL d   1       2.777   4.282   0.905  0.00  0.00     0.057 A 
ATOM     13  C   UNL d   1       4.117   4.689   0.774  0.00  0.00     0.062 A 
ATOM     14  C   UNL d   1       4.543   5.927   1.253  0.00  0.00     0.050 A 
ATOM     15 CL   UNL d   1       5.277   3.696  -0.039  0.00  0.00    -0.082 Cl
ATOM     16  C   UNL d   1       3.634   6.759   1.897  0.00  0.00     0.035 A 
ATOM     17  C   UNL d   1       2.299   6.379   2.030  0.00  0.00     0.026 A 
ATOM     18 CL   UNL d   1       4.169   8.259   2.548  0.00  0.00    -0.084 Cl
ATOM     19  C   UNL d   1       1.866   5.148   1.522  0.00  0.00     0.033 A 
ENDBRANCH   9  12
ENDBRANCH   1   8
BRANCH   2  20
ATOM     20  C   UNL d   1       3.030  -0.061   0.129  0.00  0.00     0.418 C 
ATOM     21  F   UNL d   1       3.715   1.051  -0.235  0.00  0.00    -0.166 F 
ATOM     22  F   UNL d   1       3.394  -0.324   1.412  0.00  0.00    -0.166 F 
ATOM     23  F   UNL d   1       3.565  -1.062  -0.625  0.00  0.00    -0.166 F 
ENDBRANCH   2  20
BRANCH   6  24
ATOM     24  S   UNL d   1      -1.377  -2.794   0.040  0.00  0.00    -0.102 SA
BRANCH  24  25
ATOM     25  C   UNL d   1      -2.757  -2.540  -1.125  0.00  0.00     0.191 C 
BRANCH  25  26
ATOM     26  C   UNL d   1      -2.257  -2.427  -2.548  0.00  0.00     0.268 C 
ATOM     27  O   UNL d   1      -1.230  -2.934  -2.991  0.00  0.00    -0.264 OA
BRANCH  26  28
ATOM     28  O   UNL d   1      -3.150  -1.722  -3.303  0.00  0.00    -0.326 OA
ATOM     29  C   UNL d   1      -2.738  -1.546  -4.657  0.00  0.00     0.213 C 
ENDBRANCH  26  28
ENDBRANCH  25  26
ENDBRANCH  24  25
ENDBRANCH   6  24
TORSDOF 7
