REMARK  5 active torsions:
REMARK  status: ('A' for Active; 'I' for Inactive)
REMARK    1  A    between atoms: C_2  and  C_1 
REMARK    2  A    between atoms: C_8  and  C_1 
REMARK    3  A    between atoms: C_15  and  C_7 
REMARK    4  A    between atoms: C_12  and  O_17 
REMARK    5  A    between atoms: O_17  and  C_25 
ROOT
ATOM      1  C   UNL d   1      -0.064   1.965   1.120  0.00  0.00     0.117 A 
ATOM      2  N   UNL d   1       1.093   2.659   1.401  0.00  0.00    -0.322 N 
ATOM      3  HN  UNL d   1       2.058   2.420   1.170  1.00  0.00     0.169 HD
ATOM      4  N   UNL d   1      -1.179   2.512   1.625  0.00  0.00    -0.246 N 
ATOM      5  HN  UNL d   1      -2.138   2.172   1.553  1.00  0.00     0.196 HD
ATOM      6  C   UNL d   1       0.632   3.712   2.045  0.00  0.00     0.182 A 
ATOM      7  O   UNL d   1      -0.715   3.654   2.269  0.00  0.00    -0.217 OA
ENDROOT
BRANCH   1   8
ATOM      8  C   UNL d   1      -0.115   0.924  -0.013  0.00  0.00     0.049 A 
ATOM      9  C   UNL d   1      -1.185   1.069  -1.081  0.00  0.00     0.024 A 
ATOM     10  C   UNL d   1       0.233   1.447  -1.401  0.00  0.00     0.024 A 
BRANCH   8  11
ATOM     11  C   UNL d   1       0.371  -0.473   0.369  0.00  0.00    -0.020 A 
ATOM     12  C   UNL d   1      -0.492  -1.487   0.844  0.00  0.00     0.043 A 
ATOM     13  C   UNL d   1      -0.035  -2.786   1.098  0.00  0.00     0.048 A 
ATOM     14 CL   UNL d   1      -2.171  -1.181   1.129  0.00  0.00    -0.084 Cl
ATOM     15  C   UNL d   1       1.306  -3.094   0.907  0.00  0.00     0.035 A 
ATOM     16  C   UNL d   1       2.195  -2.114   0.482  0.00  0.00     0.024 A 
ATOM     17 CL   UNL d   1       1.866  -4.695   1.194  0.00  0.00    -0.084 Cl
ATOM     18  C   UNL d   1       1.731  -0.820   0.222  0.00  0.00     0.012 A 
ENDBRANCH   8  11
ENDBRANCH   1   8
BRANCH   6  19
ATOM     19  C   UNL d   1       1.300   4.946   2.435  0.00  0.00     0.017 A 
ATOM     20  C   UNL d   1       0.594   6.151   2.535  0.00  0.00     0.018 A 
ATOM     21  C   UNL d   1       1.241   7.357   2.844  0.00  0.00     0.038 A 
ATOM     22  C   UNL d   1       2.607   7.362   3.103  0.00  0.00     0.078 A 
ATOM     23  C   UNL d   1       3.326   6.167   2.973  0.00  0.00     0.038 A 
ATOM     24  C   UNL d   1       2.684   4.972   2.641  0.00  0.00     0.018 A 
BRANCH  22  25
ATOM     25  O   UNL d   1       3.365   8.440   3.447  0.00  0.00    -0.255 OA
BRANCH  25  26
ATOM     26  C   UNL d   1       2.752   9.567   4.053  0.00  0.00     0.530 C 
ATOM     27  F   UNL d   1       1.560   9.299   4.626  0.00  0.00    -0.144 F 
ATOM     28  F   UNL d   1       3.575  10.029   5.021  0.00  0.00    -0.144 F 
ATOM     29  F   UNL d   1       2.590  10.546   3.136  0.00  0.00    -0.144 F 
ENDBRANCH  25  26
ENDBRANCH  22  25
ENDBRANCH   6  19
TORSDOF 5
