REMARK  3 active torsions:
REMARK  status: ('A' for Active; 'I' for Inactive)
REMARK    1  A    between atoms: C_10  and  C_3 
REMARK    2  A    between atoms: C_9  and  C_5 
REMARK    3  A    between atoms: O_13  and  C_12 
ROOT
ATOM      1  N   UNL d   1      -0.361   1.670  -0.644  0.00  0.00    -0.358 N 
ATOM      2  HN  UNL d   1      -0.131   2.288  -1.422  1.00  0.00     0.166 HD
ATOM      3  C   UNL d   1      -1.531   1.776  -0.085  0.00  0.00     0.021 C 
ATOM      4  S   UNL d   1      -1.160  -1.469  -0.405  0.00  0.00    -0.118 SA
ATOM      5  C   UNL d   1      -2.366  -0.535   0.639  0.00  0.00     0.091 C 
ATOM      6  C   UNL d   1      -1.982   0.891   1.061  0.00  0.00     0.078 C 
ATOM      7  C   UNL d   1       0.596   0.738  -0.215  0.00  0.00     0.049 A 
ATOM      8  C   UNL d   1       0.384  -0.647  -0.069  0.00  0.00     0.028 A 
ATOM      9  C   UNL d   1       1.891   1.240  -0.004  0.00  0.00     0.031 A 
ATOM     10  C   UNL d   1       1.457  -1.484   0.272  0.00  0.00     0.021 A 
ATOM     11  C   UNL d   1       2.732  -0.962   0.486  0.00  0.00     0.002 A 
ATOM     12  C   UNL d   1       2.948   0.403   0.347  0.00  0.00     0.002 A 
ENDROOT
BRANCH   5  13
ATOM     13  C   UNL d   1      -3.764  -0.624   0.027  0.00  0.00    -0.041 A 
ATOM     14  C   UNL d   1      -3.977  -0.428  -1.353  0.00  0.00     0.045 A 
ATOM     15  C   UNL d   1      -5.256  -0.494  -1.907  0.00  0.00     0.068 A 
ATOM     16  C   UNL d   1      -6.346  -0.739  -1.074  0.00  0.00     0.037 A 
ATOM     17  C   UNL d   1      -6.161  -0.925   0.297  0.00  0.00     0.003 A 
ATOM     18  C   UNL d   1      -4.878  -0.868   0.845  0.00  0.00     0.008 A 
BRANCH  15  19
ATOM     19  O   UNL d   1      -5.561  -0.325  -3.230  0.00  0.00    -0.356 OA
ATOM     20  C   UNL d   1      -4.460  -0.137  -4.115  0.00  0.00     0.210 C 
ENDBRANCH  15  19
ENDBRANCH   5  13
BRANCH   3  21
ATOM     21  C   UNL d   1      -2.441   2.864  -0.586  0.00  0.00    -0.014 A 
ATOM     22  C   UNL d   1      -3.833   2.798  -0.464  0.00  0.00     0.013 A 
ATOM     23  C   UNL d   1      -4.645   3.754  -1.077  0.00  0.00     0.001 A 
ATOM     24  C   UNL d   1      -4.074   4.815  -1.774  0.00  0.00     0.000 A 
ATOM     25  C   UNL d   1      -2.688   4.932  -1.843  0.00  0.00     0.001 A 
ATOM     26  C   UNL d   1      -1.876   3.959  -1.257  0.00  0.00     0.013 A 
ENDBRANCH   3  21
TORSDOF 3
