REMARK  5 active torsions:
REMARK  status: ('A' for Active; 'I' for Inactive)
REMARK    1  A    between atoms: C_2  and  C_1 
REMARK    2  A    between atoms: C_8  and  C_22 
REMARK       I    between atoms: N_10  and  C_8 
REMARK    3  A    between atoms: S_14  and  C_9 
REMARK    4  A    between atoms: C_12  and  N_10 
REMARK    5  A    between atoms: C_22  and  S_14 
ROOT
ATOM      1  N   UNL d   1       0.098 -12.790   6.786  0.00  0.00    -0.191 NA
ATOM      2  C   UNL d   1      -0.446 -11.774   6.664  0.00  0.00     0.100 C 
ATOM      3  C   UNL d   1      -1.126 -10.516   6.530  0.00  0.00     0.052 A 
ATOM      4  C   UNL d   1      -1.202  -8.311   5.504  0.00  0.00     0.036 A 
ATOM      5  C   UNL d   1      -0.578  -9.545   5.683  0.00  0.00     0.052 A 
ATOM      6  C   UNL d   1      -2.325 -10.261   7.220  0.00  0.00    -0.041 A 
ATOM      7  C   UNL d   1      -2.928  -9.006   7.070  0.00  0.00     0.010 A 
ATOM      8  C   UNL d   1      -2.368  -8.040   6.226  0.00  0.00     0.030 A 
ATOM      9  C   UNL d   1      -2.972 -11.312   8.086  0.00  0.00     0.049 C 
ENDROOT
BRANCH   4  10
ATOM     10  N   UNL d   1      -0.741  -7.325   4.603  0.00  0.00    -0.326 N 
ATOM     11  C   UNL d   1       0.272  -7.462   3.663  0.00  0.00     0.231 C 
ATOM     12  O   UNL d   1       0.953  -8.472   3.491  0.00  0.00    -0.272 OA
ATOM     13  H   UNL d   1      -1.233  -6.438   4.602  0.00  0.00     0.169 HD
BRANCH  11  14
ATOM     14  C   UNL d   1       0.403  -6.290   2.711  0.00  0.00     0.184 C 
BRANCH  14  15
ATOM     15  S   UNL d   1       0.593  -4.707   3.587  0.00  0.00    -0.103 SA
BRANCH  15  16
ATOM     16  C   UNL d   1       0.648  -3.607   2.182  0.00  0.00     0.070 A 
ATOM     17  C   UNL d   1       0.791  -2.241   2.383  0.00  0.00     0.038 A 
ATOM     18  C   UNL d   1       0.746  -1.392   1.277  0.00  0.00     0.020 A 
ATOM     19  C   UNL d   1       0.563  -1.924  -0.003  0.00  0.00     0.063 A 
ATOM     20  C   UNL d   1       0.467  -3.302  -0.107  0.00  0.00     0.105 A 
ATOM     21  N   UNL d   1       0.499  -4.144   0.951  0.00  0.00    -0.360 N 
ATOM     22  HN  UNL d   1       0.413  -5.153   0.824  1.00  0.00     0.166 HD
BRANCH  19  23
ATOM     23  C   UNL d   1       0.439  -1.054  -1.214  0.00  0.00     0.418 C 
ATOM     24  F   UNL d   1       0.249  -1.750  -2.369  0.00  0.00    -0.166 F 
ATOM     25  F   UNL d   1       1.539  -0.279  -1.420  0.00  0.00    -0.166 F 
ATOM     26  F   UNL d   1      -0.613  -0.193  -1.123  0.00  0.00    -0.166 F 
ENDBRANCH  19  23
ENDBRANCH  15  16
ENDBRANCH  14  15
ENDBRANCH  11  14
ENDBRANCH   4  10
TORSDOF 5
