REMARK  7 active torsions:
REMARK  status: ('A' for Active; 'I' for Inactive)
REMARK    1  A    between atoms: N_16  and  C_8 
REMARK    2  A    between atoms: S_14  and  C_11 
REMARK    3  A    between atoms: C_18  and  S_14 
REMARK    4  A    between atoms: C_15  and  C_18 
REMARK    5  A    between atoms: O_21  and  C_15 
REMARK    6  A    between atoms: C_22  and  N_16 
REMARK    7  A    between atoms: C_23  and  O_21 
ROOT
ATOM      1  C   UNL d   1       1.362  -0.777  -0.052  0.00  0.00     0.090 A 
ATOM      2  C   UNL d   1       0.819   0.497  -0.061  0.00  0.00     0.043 A 
ATOM      3  C   UNL d   1      -1.083  -0.880  -0.044  0.00  0.00    -0.008 A 
ATOM      4  N   UNL d   1       2.663  -1.092  -0.054  0.00  0.00    -0.330 N 
ATOM      5  HN  UNL d   1       3.008  -2.051  -0.076  1.00  0.00     0.168 HD
ATOM      6  N   UNL d   1       3.078   1.267  -0.001  0.00  0.00    -0.327 N 
ATOM      7  HN  UNL d   1       3.772   2.013   0.039  1.00  0.00     0.169 HD
ATOM      8  C   UNL d   1       1.754   1.561  -0.031  0.00  0.00     0.095 A 
ATOM      9  C   UNL d   1      -0.633   0.428  -0.098  0.00  0.00    -0.029 A 
ATOM     10  S   UNL d   1       0.185  -2.009  -0.045  0.00  0.00    -0.075 SA
ATOM     11  C   UNL d   1       3.462  -0.024  -0.025  0.00  0.00     0.146 A 
ATOM     12  C   UNL d   1      -1.602   1.579  -0.115  0.00  0.00     0.041 C 
ATOM     13  C   UNL d   1      -2.522  -1.307  -0.004  0.00  0.00     0.051 C 
ATOM     14  C   UNL d   1      -3.054   1.138  -0.344  0.00  0.00     0.009 C 
ATOM     15  C   UNL d   1      -3.427  -0.135   0.440  0.00  0.00    -0.014 C 
ATOM     16  C   UNL d   1      -3.362   0.090   1.955  0.00  0.00     0.010 C 
ENDROOT
BRANCH  11  17
ATOM     17  S   UNL d   1       5.201  -0.396  -0.168  0.00  0.00    -0.084 SA
BRANCH  17  18
ATOM     18  C   UNL d   1       5.913   0.899   0.878  0.00  0.00     0.193 C 
BRANCH  18  19
ATOM     19  C   UNL d   1       5.387   0.880   2.298  0.00  0.00     0.268 C 
ATOM     20  O   UNL d   1       4.618   0.067   2.782  0.00  0.00    -0.264 OA
BRANCH  19  21
ATOM     21  O   UNL d   1       5.930   1.929   2.986  0.00  0.00    -0.321 OA
BRANCH  21  22
ATOM     22  C   UNL d   1       5.479   2.059   4.343  0.00  0.00     0.174 C 
ATOM     23  C   UNL d   1       4.168   2.824   4.371  0.00  0.00     0.034 C 
ENDBRANCH  21  22
ENDBRANCH  19  21
ENDBRANCH  18  19
ENDBRANCH  17  18
ENDBRANCH  11  17
BRANCH   8  24
ATOM     24  N   UNL d   1       1.329   2.887  -0.082  0.00  0.00    -0.278 NA
ATOM     25  H   UNL d   1       0.345   2.976   0.122  0.00  0.00     0.129 HD
BRANCH  24  26
ATOM     26  C   UNL d   1       2.127   3.904   0.571  0.00  0.00     0.089 C 
ATOM     27  C   UNL d   1       1.390   5.233   0.429  0.00  0.00     0.021 C 
ENDBRANCH  24  26
ENDBRANCH   8  24
TORSDOF 7
