REMARK  2 active torsions:
REMARK  status: ('A' for Active; 'I' for Inactive)
REMARK    1  A    between atoms: C_8  and  C_2 
REMARK       I    between atoms: C_9  and  N_11 
REMARK    2  A    between atoms: N_11  and  C_15 
ROOT
ATOM      1  N   UNL d   1       1.309   1.212   1.308  0.00  0.00    -0.308 N 
ATOM      2  C   UNL d   1       1.725   1.586   0.046  0.00  0.00     0.118 A 
ATOM      3  N   UNL d   1       1.318   0.986  -1.027  0.00  0.00    -0.341 N 
ATOM      4  HN  UNL d   1       1.652   1.276  -1.946  1.00  0.00     0.167 HD
ATOM      5  C   UNL d   1       0.431   0.187   1.543  0.00  0.00     0.259 A 
ATOM      6  C   UNL d   1      -0.065  -0.511   0.347  0.00  0.00     0.059 A 
ATOM      7  C   UNL d   1       0.406  -0.073  -0.893  0.00  0.00     0.049 A 
ATOM      8  O   UNL d   1       0.090  -0.129   2.677  0.00  0.00    -0.267 OA
ATOM      9  C   UNL d   1      -0.960  -1.580   0.453  0.00  0.00     0.019 A 
ATOM     10  C   UNL d   1      -0.045  -0.721  -2.044  0.00  0.00     0.030 A 
ATOM     11  C   UNL d   1      -1.394  -2.223  -0.706  0.00  0.00     0.001 A 
ATOM     12  C   UNL d   1      -0.939  -1.792  -1.953  0.00  0.00     0.002 A 
ATOM     13  H   UNL d   1       1.678   1.651   2.137  0.00  0.00     0.170 HD
ENDROOT
BRANCH   2  14
ATOM     14  C   UNL d   1       2.688   2.713  -0.036  0.00  0.00     0.008 A 
ATOM     15  C   UNL d   1       3.588   2.771  -1.105  0.00  0.00     0.017 A 
ATOM     16  C   UNL d   1       4.503   3.829  -1.203  0.00  0.00     0.030 A 
ATOM     17  C   UNL d   1       4.523   4.844  -0.239  0.00  0.00     0.034 A 
ATOM     18  C   UNL d   1       3.610   4.786   0.816  0.00  0.00     0.030 A 
ATOM     19  C   UNL d   1       2.694   3.732   0.918  0.00  0.00     0.017 A 
BRANCH  17  20
ATOM     20  N   UNL d   1       5.467   5.883  -0.394  0.00  0.00    -0.328 N 
ATOM     21  C   UNL d   1       5.652   6.967   0.447  0.00  0.00     0.218 C 
ATOM     22  O   UNL d   1       5.031   7.212   1.477  0.00  0.00    -0.274 OA
ATOM     23  C   UNL d   1       6.742   7.904  -0.006  0.00  0.00     0.117 C 
ATOM     24  H   UNL d   1       6.068   5.819  -1.207  0.00  0.00     0.169 HD
ENDBRANCH  17  20
ENDBRANCH   2  14
TORSDOF 2
