REMARK  7 active torsions:
REMARK  status: ('A' for Active; 'I' for Inactive)
REMARK    1  A    between atoms: C_8  and  C_2 
REMARK    2  A    between atoms: S_13  and  C_7 
REMARK    3  A    between atoms: C_9  and  O_16 
REMARK    4  A    between atoms: C_20  and  S_13 
REMARK    5  A    between atoms: C_14  and  C_20 
REMARK    6  A    between atoms: C_17  and  C_14 
REMARK    7  A    between atoms: O_16  and  C_28 
ROOT
ATOM      1  C   UNL d   1       0.440  -0.707   0.637  0.00  0.00     0.140 A 
ATOM      2  C   UNL d   1      -0.458  -1.666   0.337  0.00  0.00     0.077 A 
ATOM      3  N   UNL d   1      -1.464   0.754   0.782  0.00  0.00    -0.302 N 
ATOM      4  C   UNL d   1      -0.110   0.642   0.876  0.00  0.00     0.270 A 
ATOM      5  N   UNL d   1      -1.824  -1.491   0.252  0.00  0.00    -0.334 N 
ATOM      6  HN  UNL d   1      -2.453  -2.259   0.019  1.00  0.00     0.168 HD
ATOM      7  C   UNL d   1      -2.259  -0.302   0.483  0.00  0.00     0.148 A 
ATOM      8  C   UNL d   1       1.835  -0.914   0.758  0.00  0.00     0.107 C 
ATOM      9  N   UNL d   1       2.976  -1.110   0.865  0.00  0.00    -0.191 NA
ATOM     10  O   UNL d   1       0.592   1.610   1.147  0.00  0.00    -0.266 OA
ATOM     11  H   UNL d   1      -1.877   1.660   0.951  0.00  0.00     0.171 HD
ENDROOT
BRANCH   2  12
ATOM     12  C   UNL d   1      -0.029  -3.013   0.125  0.00  0.00     0.033 A 
ATOM     13  S   UNL d   1       0.499  -3.531  -1.431  0.00  0.00    -0.100 SA
ATOM     14  C   UNL d   1       0.889  -5.093  -0.857  0.00  0.00     0.050 A 
ATOM     15  C   UNL d   1       0.594  -5.242   0.478  0.00  0.00     0.008 A 
ATOM     16  C   UNL d   1       0.051  -4.050   1.040  0.00  0.00     0.021 A 
ENDBRANCH   2  12
BRANCH   7  17
ATOM     17  S   UNL d   1      -3.926   0.151   0.455  0.00  0.00    -0.086 SA
BRANCH  17  18
ATOM     18  C   UNL d   1      -4.714  -1.410  -0.028  0.00  0.00     0.166 C 
BRANCH  18  19
ATOM     19  C   UNL d   1      -6.222  -1.254   0.003  0.00  0.00     0.169 C 
ATOM     20  O   UNL d   1      -6.918  -1.919   0.769  0.00  0.00    -0.291 OA
BRANCH  19  21
ATOM     21  C   UNL d   1      -6.890  -0.266  -0.901  0.00  0.00     0.011 A 
ATOM     22  C   UNL d   1      -6.327   0.158  -2.111  0.00  0.00     0.018 A 
ATOM     23  C   UNL d   1      -6.987   1.108  -2.907  0.00  0.00     0.038 A 
ATOM     24  C   UNL d   1      -8.226   1.615  -2.515  0.00  0.00     0.078 A 
ATOM     25  C   UNL d   1      -8.773   1.205  -1.296  0.00  0.00     0.038 A 
ATOM     26  C   UNL d   1      -8.119   0.264  -0.498  0.00  0.00     0.018 A 
BRANCH  24  27
ATOM     27  O   UNL d   1      -9.001   2.503  -3.197  0.00  0.00    -0.255 OA
BRANCH  27  28
ATOM     28  C   UNL d   1      -8.778   2.704  -4.583  0.00  0.00     0.530 C 
ATOM     29  F   UNL d   1      -8.323   1.599  -5.210  0.00  0.00    -0.144 F 
ATOM     30  F   UNL d   1      -9.953   3.049  -5.156  0.00  0.00    -0.144 F 
ATOM     31  F   UNL d   1      -7.903   3.715  -4.769  0.00  0.00    -0.144 F 
ENDBRANCH  27  28
ENDBRANCH  24  27
ENDBRANCH  19  21
ENDBRANCH  18  19
ENDBRANCH  17  18
ENDBRANCH   7  17
TORSDOF 7
