REMARK  6 active torsions:
REMARK  status: ('A' for Active; 'I' for Inactive)
REMARK    1  A    between atoms: C_4  and  C_1 
REMARK    2  A    between atoms: C_3  and  C_13 
REMARK    3  A    between atoms: O_12  and  C_4 
REMARK    4  A    between atoms: C_14  and  C_4 
REMARK    5  A    between atoms: N_11  and  C_14 
REMARK    6  A    between atoms: C_13  and  N_11 
ROOT
ATOM      1  N   UNL d   1       0.519   2.824  -2.805  0.00  0.00     0.091 N 
ATOM      2  H   UNL d   1      -0.487   2.991  -2.843  0.00  0.00     0.316 HD
ENDROOT
BRANCH   1   3
ATOM      3  C   UNL d   1       0.925   2.203  -1.548  0.00  0.00     0.310 C 
BRANCH   3   4
ATOM      4  C   UNL d   1       0.479   2.842  -0.221  0.00  0.00     0.253 C 
BRANCH   4   5
ATOM      5  C   UNL d   1      -1.035   3.051  -0.151  0.00  0.00     0.414 C 
ATOM      6  F   UNL d   1      -1.402   3.285   1.136  0.00  0.00    -0.168 F 
ATOM      7  F   UNL d   1      -1.728   1.976  -0.576  0.00  0.00    -0.168 F 
ATOM      8  F   UNL d   1      -1.426   4.119  -0.879  0.00  0.00    -0.168 F 
ENDBRANCH   4   5
BRANCH   4   9
ATOM      9  O   UNL d   1       0.963   2.000   0.855  0.00  0.00    -0.385 OA
ATOM     10  H   UNL d   1       0.374   2.135   1.622  0.00  0.00     0.210 HD
ENDBRANCH   4   9
ENDBRANCH   3   4
ENDBRANCH   1   3
BRANCH   1  11
ATOM     11  C   UNL d   1       1.220   4.066  -3.100  0.00  0.00     0.326 C 
BRANCH  11  12
ATOM     12  C   UNL d   1       0.666   4.643  -4.360  0.00  0.00     0.039 A 
ATOM     13  N   UNL d   1       0.835   4.085  -5.611  0.00  0.00    -0.363 N 
ATOM     14  C   UNL d   1       0.201   4.867  -6.550  0.00  0.00     0.090 A 
ATOM     15  C   UNL d   1       1.530   2.863  -5.948  0.00  0.00     0.155 C 
ATOM     16  C   UNL d   1      -0.385   5.926  -5.902  0.00  0.00     0.019 A 
ATOM     17  C   UNL d   1      -0.097   5.787  -4.526  0.00  0.00     0.028 A 
ENDBRANCH  11  12
ENDBRANCH   1  11
TORSDOF 6
