REMARK  2 active torsions:
REMARK  status: ('A' for Active; 'I' for Inactive)
REMARK    1  A    between atoms: C_14  and  N_7 
REMARK    2  A    between atoms: C_18  and  C_14 
ROOT
ATOM      1  C   UNL d   1       1.217   0.893  -0.062  0.00  0.00     0.102 A 
ATOM      2  C   UNL d   1       0.732  -0.386  -0.058  0.00  0.00     0.069 A 
ATOM      3  S   UNL d   1      -0.019   2.048  -0.047  0.00  0.00    -0.064 SA
ATOM      4  C   UNL d   1      -0.696  -0.466  -0.033  0.00  0.00     0.032 A 
ATOM      5  C   UNL d   1       2.621   1.197  -0.057  0.00  0.00     0.268 A 
ATOM      6  C   UNL d   1      -1.222   0.828  -0.029  0.00  0.00     0.088 A 
ATOM      7  N   UNL d   1       3.412   0.053  -0.013  0.00  0.00    -0.302 N 
ATOM      8  N   UNL d   1       1.587  -1.499  -0.074  0.00  0.00    -0.350 N 
ATOM      9  HN  UNL d   1       1.242  -2.459  -0.096  1.00  0.00     0.166 HD
ATOM     10  C   UNL d   1       2.850  -1.209  -0.058  0.00  0.00     0.187 A 
ATOM     11  N   UNL d   1      -2.526   1.176  -0.013  0.00  0.00    -0.354 N 
ATOM     12  HN  UNL d   1      -2.836   2.147  -0.008  1.00  0.00     0.166 HD
ATOM     13  C   UNL d   1      -1.628  -1.537  -0.015  0.00  0.00    -0.045 A 
ATOM     14  O   UNL d   1       3.105   2.329  -0.064  0.00  0.00    -0.266 OA
ATOM     15  C   UNL d   1      -2.991  -1.195  -0.003  0.00  0.00     0.032 A 
ATOM     16  C   UNL d   1      -3.385   0.138  -0.005  0.00  0.00     0.006 A 
ATOM     17  C   UNL d   1      -1.273  -2.998  -0.010  0.00  0.00     0.049 C 
ATOM     18  C   UNL d   1      -4.852   0.463  -0.004  0.00  0.00     0.068 C 
ENDROOT
BRANCH   7  19
ATOM     19  C   UNL d   1       4.855   0.201   0.101  0.00  0.00     0.211 C 
BRANCH  19  20
ATOM     20  C   UNL d   1       5.523   0.293  -1.264  0.00  0.00     0.141 C 
ATOM     21  O   UNL d   1       5.074  -0.285  -2.254  0.00  0.00    -0.297 OA
ATOM     22  C   UNL d   1       6.837   1.033  -1.331  0.00  0.00     0.092 C 
ENDBRANCH  19  20
ENDBRANCH   7  19
TORSDOF 2
