REMARK  9 active torsions:
REMARK  status: ('A' for Active; 'I' for Inactive)
REMARK    1  A    between atoms: C_19  and  N_1 
REMARK    2  A    between atoms: C_8  and  C_2 
REMARK    3  A    between atoms: S_16  and  C_5 
REMARK       I    between atoms: N_9  and  C_17 
REMARK       I    between atoms: C_11  and  N_9 
REMARK    4  A    between atoms: O_25  and  C_10 
REMARK       I    between atoms: N_21  and  C_11 
REMARK    5  A    between atoms: O_26  and  C_12 
REMARK    6  A    between atoms: O_27  and  C_13 
REMARK    7  A    between atoms: C_22  and  S_16 
REMARK    8  A    between atoms: C_17  and  C_22 
REMARK    9  A    between atoms: C_23  and  C_19 
ROOT
ATOM      1  N   UNL d   1      -0.156  -1.357  -0.151  0.00  0.00    -0.307 N 
ATOM      2  C   UNL d   1       1.054  -0.702   0.026  0.00  0.00     0.135 C 
ATOM      3  N   UNL d   1       0.777   0.566   0.290  0.00  0.00    -0.283 N 
ATOM      4  HN  UNL d   1       1.450   1.270   0.590  1.00  0.00     0.188 HD
ATOM      5  C   UNL d   1      -1.095  -0.364  -0.268  0.00  0.00     0.163 C 
ATOM      6  N   UNL d   1      -0.567   0.776   0.094  0.00  0.00    -0.278 N 
ATOM      7  HN  UNL d   1      -1.062   1.660   0.210  1.00  0.00     0.189 HD
ENDROOT
BRANCH   2   8
ATOM      8  C   UNL d   1       2.402  -1.282  -0.061  0.00  0.00     0.015 A 
ATOM      9  C   UNL d   1       2.677  -2.372  -0.894  0.00  0.00     0.055 A 
ATOM     10  C   UNL d   1       3.941  -2.982  -0.937  0.00  0.00     0.105 A 
ATOM     11  C   UNL d   1       4.996  -2.457  -0.167  0.00  0.00     0.135 A 
ATOM     12  C   UNL d   1       4.761  -1.278   0.575  0.00  0.00     0.105 A 
ATOM     13  C   UNL d   1       3.470  -0.723   0.643  0.00  0.00     0.055 A 
BRANCH  10  14
ATOM     14  O   UNL d   1       4.140  -4.134  -1.655  0.00  0.00    -0.353 OA
ATOM     15  C   UNL d   1       3.414  -4.284  -2.869  0.00  0.00     0.210 C 
ENDBRANCH  10  14
BRANCH  11  16
ATOM     16  O   UNL d   1       6.255  -2.986  -0.058  0.00  0.00    -0.351 OA
ATOM     17  C   UNL d   1       6.557  -4.250  -0.624  0.00  0.00     0.210 C 
ENDBRANCH  11  16
BRANCH  12  18
ATOM     18  O   UNL d   1       5.678  -0.589   1.333  0.00  0.00    -0.353 OA
ATOM     19  C   UNL d   1       7.032  -0.611   0.891  0.00  0.00     0.210 C 
ENDBRANCH  12  18
ENDBRANCH   2   8
BRANCH   1  20
ATOM     20  C   UNL d   1      -0.434  -2.769   0.088  0.00  0.00     0.159 C 
BRANCH  20  21
ATOM     21  C   UNL d   1      -0.548  -3.588  -1.163  0.00  0.00    -0.017 C 
ATOM     22  C   UNL d   1      -0.147  -4.865  -1.248  0.00  0.00     0.008 C 
ENDBRANCH  20  21
ENDBRANCH   1  20
BRANCH   5  23
ATOM     23  S   UNL d   1      -2.651  -0.580  -0.976  0.00  0.00    -0.083 SA
BRANCH  23  24
ATOM     24  C   UNL d   1      -3.757   0.427   0.032  0.00  0.00     0.185 C 
BRANCH  24  25
ATOM     25  C   UNL d   1      -3.644   1.921  -0.171  0.00  0.00     0.235 C 
ATOM     26  N   UNL d   1      -2.588   2.528   0.487  0.00  0.00    -0.279 N 
ATOM     27  C   UNL d   1      -2.284   3.859   0.613  0.00  0.00     0.322 C 
ATOM     28  H   UNL d   1      -1.807   1.948   0.777  0.00  0.00     0.173 HD
ATOM     29  O   UNL d   1      -1.227   4.204   1.132  0.00  0.00    -0.247 OA
ATOM     30  N   UNL d   1      -3.218   4.734   0.154  0.00  0.00    -0.347 N 
ATOM     31  C   UNL d   1      -3.036   6.160   0.190  0.00  0.00     0.151 C 
ATOM     32  H   UNL d   1      -4.061   4.342  -0.257  0.00  0.00     0.163 HD
ATOM     33  O   UNL d   1      -4.514   2.557  -0.779  0.00  0.00    -0.272 OA
ENDBRANCH  24  25
ENDBRANCH  23  24
ENDBRANCH   5  23
TORSDOF 9
