REMARK  1 active torsions:
REMARK  status: ('A' for Active; 'I' for Inactive)
REMARK    1  A    between atoms: C_7  and  C_2 
ROOT
ATOM      1  C   UNL d   1       2.405  -1.725   0.006  0.00  0.00    -0.008 A 
ATOM      2  C   UNL d   1       3.331  -1.651   1.055  0.00  0.00     0.014 A 
ATOM      3  C   UNL d   1       2.624  -2.655  -1.019  0.00  0.00     0.014 A 
ATOM      4  C   UNL d   1       3.732  -3.508  -0.985  0.00  0.00     0.007 A 
ATOM      5  C   UNL d   1       4.437  -2.506   1.091  0.00  0.00     0.007 A 
ATOM      6  C   UNL d   1       4.643  -3.445   0.074  0.00  0.00    -0.062 A 
ATOM      7  C   UNL d   1       5.824  -4.368   0.130  0.00  0.00     0.048 C 
ENDROOT
BRANCH   1   8
ATOM      8  C   UNL d   1       1.246  -0.842  -0.001  0.00  0.00     0.063 A 
ATOM      9  N   UNL d   1       1.287   0.412   0.601  0.00  0.00    -0.292 N 
ATOM     10  N   UNL d   1       0.135   1.052   0.492  0.00  0.00    -0.061 NA
ATOM     11  HN  UNL d   1       2.109   0.793   1.071  1.00  0.00     0.183 HD
ATOM     12  S   UNL d   1      -1.029   0.163  -0.313  0.00  0.00    -0.010 SA
ATOM     13  C   UNL d   1       0.022  -1.171  -0.560  0.00  0.00     0.096 A 
ENDBRANCH   1   8
TORSDOF 1
