REMARK  6 active torsions:
REMARK  status: ('A' for Active; 'I' for Inactive)
REMARK    1  A    between atoms: C_3  and  C_1 
REMARK    2  A    between atoms: N_4  and  C_1 
REMARK    3  A    between atoms: C_6  and  C_2 
REMARK       I    between atoms: N_13  and  C_3 
REMARK       I    between atoms: C_5  and  N_4 
REMARK    4  A    between atoms: C_17  and  C_5 
REMARK    5  A    between atoms: C_8  and  C_20 
REMARK    6  A    between atoms: N_10  and  N_13 
ROOT
ATOM      1  C   UNL d   1       1.171  -0.065   0.103  0.00  0.00     0.086 C 
ATOM      2  C   UNL d   1       0.483  -0.822   0.979  0.00  0.00     0.048 C 
ENDROOT
BRANCH   1   3
ATOM      3  C   UNL d   1       0.455   0.858  -0.861  0.00  0.00     0.281 C 
ATOM      4  N   UNL d   1      -0.839   0.502  -1.201  0.00  0.00    -0.265 N 
ATOM      5  H   UNL d   1      -1.230  -0.388  -0.917  0.00  0.00     0.190 HD
ATOM      6  O   UNL d   1       1.074   1.827  -1.310  0.00  0.00    -0.265 OA
BRANCH   4   7
ATOM      7  N   UNL d   1      -1.537   1.256  -2.097  0.00  0.00    -0.308 N 
ATOM      8  C   UNL d   1      -2.767   0.902  -2.303  0.00  0.00     0.120 C 
ATOM      9  HN  UNL d   1      -1.117   2.053  -2.576  1.00  0.00     0.186 HD
BRANCH   8  10
ATOM     10  C   UNL d   1      -3.601   1.597  -3.309  0.00  0.00     0.003 A 
ATOM     11  C   UNL d   1      -4.947   1.267  -3.520  0.00  0.00     0.047 A 
ATOM     12  C   UNL d   1      -5.673   1.906  -4.533  0.00  0.00     0.048 A 
ATOM     13 CL   UNL d   1      -5.782   0.088  -2.573  0.00  0.00    -0.083 Cl
ATOM     14  C   UNL d   1      -5.057   2.871  -5.327  0.00  0.00     0.035 A 
ATOM     15  C   UNL d   1      -3.727   3.221  -5.112  0.00  0.00     0.025 A 
ATOM     16 CL   UNL d   1      -5.942   3.631  -6.591  0.00  0.00    -0.084 Cl
ATOM     17  C   UNL d   1      -3.001   2.586  -4.103  0.00  0.00     0.016 A 
ENDBRANCH   8  10
ENDBRANCH   4   7
ENDBRANCH   1   3
BRANCH   1  18
ATOM     18  N   UNL d   1       2.560   0.033   0.060  0.00  0.00    -0.220 NA
ATOM     19  C   UNL d   1       3.319  -0.994  -0.489  0.00  0.00     0.235 C 
ATOM     20  O   UNL d   1       2.861  -2.013  -0.989  0.00  0.00    -0.274 OA
ATOM     21  H   UNL d   1       2.879   0.941  -0.282  0.00  0.00     0.137 HD
BRANCH  19  22
ATOM     22  C   UNL d   1       4.791  -0.751  -0.508  0.00  0.00     0.026 A 
ATOM     23  C   UNL d   1       5.435  -0.161   0.587  0.00  0.00     0.016 A 
ATOM     24  C   UNL d   1       6.824  -0.003   0.581  0.00  0.00     0.001 A 
ATOM     25  C   UNL d   1       7.570  -0.417  -0.521  0.00  0.00     0.000 A 
ATOM     26  C   UNL d   1       6.932  -0.999  -1.617  0.00  0.00     0.001 A 
ATOM     27  C   UNL d   1       5.545  -1.176  -1.609  0.00  0.00     0.016 A 
ENDBRANCH  19  22
ENDBRANCH   1  18
BRANCH   2  28
ATOM     28  C   UNL d   1       1.062  -1.614   2.014  0.00  0.00     0.006 A 
ATOM     29  S   UNL d   1       0.252  -3.057   2.511  0.00  0.00    -0.102 SA
ATOM     30  C   UNL d   1       1.455  -3.429   3.664  0.00  0.00     0.050 A 
ATOM     31  C   UNL d   1       2.433  -2.465   3.719  0.00  0.00     0.008 A 
ATOM     32  C   UNL d   1       2.188  -1.410   2.794  0.00  0.00     0.019 A 
ENDBRANCH   2  28
TORSDOF 6
