REMARK  6 active torsions:
REMARK  status: ('A' for Active; 'I' for Inactive)
REMARK       I    between atoms: C_2  and  N_1 
REMARK    1  A    between atoms: C_3  and  N_1 
REMARK    2  A    between atoms: C_15  and  C_2 
REMARK    3  A    between atoms: N_8  and  C_3 
REMARK    4  A    between atoms: N_4  and  C_6 
REMARK    5  A    between atoms: C_5  and  N_7 
REMARK    6  A    between atoms: N_7  and  N_8 
ROOT
ATOM      1  N   UNL d   1       2.354  -0.529   2.552  0.00  0.00    -0.186 NA
ATOM      2  H   UNL d   1       1.694  -1.298   2.511  0.00  0.00     0.154 HD
ENDROOT
BRANCH   1   3
ATOM      3  C   UNL d   1       3.182  -0.678   3.695  0.00  0.00     0.126 A 
ATOM      4  C   UNL d   1       2.695  -0.519   5.006  0.00  0.00     0.078 A 
ATOM      5  C   UNL d   1       3.624  -0.573   6.063  0.00  0.00     0.035 A 
ATOM      6  C   UNL d   1       4.974  -0.780   5.807  0.00  0.00     0.019 A 
ATOM      7  C   UNL d   1       5.364  -0.941   4.497  0.00  0.00     0.089 A 
ATOM      8  N   UNL d   1       4.507  -0.919   3.457  0.00  0.00    -0.354 N 
ATOM      9  HN  UNL d   1       4.842  -1.081   2.507  1.00  0.00     0.166 HD
BRANCH   4  10
ATOM     10  N   UNL d   1       1.327  -0.263   5.335  0.00  0.00    -0.330 N 
ATOM     11  C   UNL d   1       0.887   0.401   6.474  0.00  0.00     0.097 A 
ATOM     12  C   UNL d   1      -0.489   0.432   6.494  0.00  0.00     0.019 A 
ATOM     13  C   UNL d   1      -0.932  -0.250   5.347  0.00  0.00     0.019 A 
ATOM     14  C   UNL d   1       0.189  -0.672   4.664  0.00  0.00     0.097 A 
ENDBRANCH   4  10
ENDBRANCH   1   3
BRANCH   1  15
ATOM     15  N   UNL d   1       3.099  -0.428   1.366  0.00  0.00    -0.292 N 
ATOM     16  H   UNL d   1       3.841  -1.118   1.262  0.00  0.00     0.183 HD
BRANCH  15  17
ATOM     17  C   UNL d   1       2.749   0.392   0.346  0.00  0.00     0.189 C 
ATOM     18  S   UNL d   1       3.240   0.020  -1.210  0.00  0.00    -0.039 SA
BRANCH  17  19
ATOM     19  N   UNL d   1       1.999   1.522   0.539  0.00  0.00    -0.299 N 
ATOM     20  C   UNL d   1       1.928   2.332   1.668  0.00  0.00     0.257 C 
ATOM     21  O   UNL d   1       2.506   2.132   2.734  0.00  0.00    -0.267 OA
ATOM     22  H   UNL d   1       1.770   1.964  -0.338  0.00  0.00     0.171 HD
BRANCH  20  23
ATOM     23  C   UNL d   1       1.175   3.619   1.556  0.00  0.00     0.032 A 
ATOM     24  C   UNL d   1       0.379   3.988   0.464  0.00  0.00     0.017 A 
ATOM     25  C   UNL d   1      -0.267   5.231   0.463  0.00  0.00     0.001 A 
ATOM     26  C   UNL d   1      -0.134   6.102   1.546  0.00  0.00     0.000 A 
ATOM     27  C   UNL d   1       0.647   5.740   2.638  0.00  0.00     0.001 A 
ATOM     28  C   UNL d   1       1.295   4.509   2.640  0.00  0.00     0.017 A 
ENDBRANCH  20  23
ENDBRANCH  17  19
ENDBRANCH  15  17
ENDBRANCH   1  15
TORSDOF 6
