REMARK  3 active torsions:
REMARK  status: ('A' for Active; 'I' for Inactive)
REMARK    1  A    between atoms: C_7  and  C_2 
REMARK    2  A    between atoms: C_9  and  C_6 
REMARK    3  A    between atoms: O_15  and  C_12 
ROOT
ATOM      1  C   UNL d   1       0.264   1.563  -0.117  0.00  0.00     0.140 C 
ATOM      2  C   UNL d   1      -1.351  -0.294  -0.088  0.00  0.00     0.041 C 
ATOM      3  N   UNL d   1      -0.987   1.020  -0.032  0.00  0.00    -0.341 N 
ATOM      4  C   UNL d   1      -0.458  -1.287  -0.130  0.00  0.00     0.024 C 
ATOM      5  S   UNL d   1       1.619   0.538  -0.476  0.00  0.00    -0.087 SA
ATOM      6  C   UNL d   1       1.025  -1.121  -0.090  0.00  0.00     0.112 C 
ATOM      7  S   UNL d   1       0.423   3.221   0.046  0.00  0.00    -0.053 SA
ATOM      8  H   UNL d   1      -1.732   1.701   0.072  0.00  0.00     0.167 HD
ENDROOT
BRANCH   2   9
ATOM      9  C   UNL d   1      -2.785  -0.588  -0.014  0.00  0.00    -0.009 A 
ATOM     10  C   UNL d   1      -3.402  -0.732   1.235  0.00  0.00     0.016 A 
ATOM     11  C   UNL d   1      -4.775  -0.986   1.327  0.00  0.00     0.037 A 
ATOM     12  C   UNL d   1      -5.543  -1.103   0.169  0.00  0.00     0.068 A 
ATOM     13  C   UNL d   1      -4.925  -0.962  -1.078  0.00  0.00     0.037 A 
ATOM     14  C   UNL d   1      -3.555  -0.707  -1.173  0.00  0.00     0.016 A 
BRANCH  12  15
ATOM     15  O   UNL d   1      -6.886  -1.353   0.117  0.00  0.00    -0.356 OA
ATOM     16  C   UNL d   1      -7.564  -1.493   1.360  0.00  0.00     0.210 C 
ENDBRANCH  12  15
ENDBRANCH   2   9
BRANCH   6  17
ATOM     17  C   UNL d   1       1.622  -1.652   1.206  0.00  0.00    -0.040 A 
ATOM     18  C   UNL d   1       2.559  -2.699   1.177  0.00  0.00     0.009 A 
ATOM     19  C   UNL d   1       3.140  -3.171   2.356  0.00  0.00     0.001 A 
ATOM     20  C   UNL d   1       2.792  -2.606   3.581  0.00  0.00     0.000 A 
ATOM     21  C   UNL d   1       1.849  -1.582   3.631  0.00  0.00     0.001 A 
ATOM     22  C   UNL d   1       1.264  -1.111   2.454  0.00  0.00     0.009 A 
ENDBRANCH   6  17
TORSDOF 3
