REMARK  4 active torsions:
REMARK  status: ('A' for Active; 'I' for Inactive)
REMARK    1  A    between atoms: C_12  and  N_1 
REMARK    2  A    between atoms: C_10  and  C_23 
REMARK    3  A    between atoms: C_15  and  C_12 
REMARK       I    between atoms: N_18  and  C_15 
REMARK    4  A    between atoms: C_23  and  N_18 
ROOT
ATOM      1  C   UNL d   1       3.852   1.649  -0.058  0.00  0.00     0.236 C 
ATOM      2  N   UNL d   1       2.962   2.626  -0.437  0.00  0.00    -0.354 N 
ATOM      3  O   UNL d   1       5.051   1.871   0.109  0.00  0.00    -0.272 OA
ATOM      4  H   UNL d   1       1.989   2.399  -0.625  0.00  0.00     0.162 HD
ENDROOT
BRANCH   1   5
ATOM      5  C   UNL d   1       3.289   0.240   0.047  0.00  0.00     0.238 C 
BRANCH   5   6
ATOM      6  N   UNL d   1       2.330   0.047   1.113  0.00  0.00    -0.271 N 
ATOM      7  C   UNL d   1       0.986   0.187   0.919  0.00  0.00     0.262 A 
ATOM      8  C   UNL d   1       0.334  -0.543   2.003  0.00  0.00     0.048 A 
ATOM      9  O   UNL d   1       0.410   0.777   0.025  0.00  0.00    -0.267 OA
ATOM     10  C   UNL d   1      -0.983  -0.939   2.135  0.00  0.00     0.018 A 
ATOM     11  C   UNL d   1       1.319  -0.951   2.887  0.00  0.00     0.048 A 
ATOM     12  C   UNL d   1      -1.298  -1.746   3.231  0.00  0.00     0.001 A 
ATOM     13  C   UNL d   1      -0.311  -2.102   4.174  0.00  0.00     0.001 A 
ATOM     14  C   UNL d   1       1.022  -1.708   4.005  0.00  0.00     0.018 A 
ATOM     15  C   UNL d   1       2.613  -0.585   2.298  0.00  0.00     0.262 A 
ATOM     16  O   UNL d   1       3.684  -0.905   2.763  0.00  0.00    -0.267 OA
ENDBRANCH   5   6
ENDBRANCH   1   5
BRANCH   2  17
ATOM     17  C   UNL d   1       3.408   3.983  -0.669  0.00  0.00     0.180 C 
BRANCH  17  18
ATOM     18  C   UNL d   1       2.833   4.557  -1.930  0.00  0.00     0.034 A 
ATOM     19  N   UNL d   1       2.099   3.772  -2.815  0.00  0.00    -0.351 N 
ATOM     20  C   UNL d   1       1.720   4.482  -3.864  0.00  0.00     0.091 A 
ATOM     21  HN  UNL d   1       1.885   2.785  -2.674  1.00  0.00     0.166 HD
ATOM     22  C   UNL d   1       0.941   3.896  -4.932  0.00  0.00     0.038 A 
ATOM     23  S   UNL d   1       2.220   6.129  -3.837  0.00  0.00    -0.081 SA
ATOM     24  S   UNL d   1       0.321   4.778  -6.269  0.00  0.00    -0.099 SA
ATOM     25  C   UNL d   1       0.579   2.560  -5.025  0.00  0.00     0.022 A 
ATOM     26  C   UNL d   1      -0.418   3.393  -6.943  0.00  0.00     0.050 A 
ATOM     27  C   UNL d   1      -0.203   2.271  -6.180  0.00  0.00     0.008 A 
ATOM     28  C   UNL d   1       2.989   5.871  -2.334  0.00  0.00     0.078 A 
ENDBRANCH  17  18
ENDBRANCH   2  17
TORSDOF 4
