REMARK  4 active torsions:
REMARK  status: ('A' for Active; 'I' for Inactive)
REMARK    1  A    between atoms: N_2  and  C_1 
REMARK    2  A    between atoms: C_10  and  C_3 
REMARK    3  A    between atoms: C_11  and  C_4 
REMARK    4  A    between atoms: C_12  and  C_7 
ROOT
ATOM      1  C   UNL d   1       1.446  -0.207   0.097  0.00  0.00     0.116 A 
ATOM      2  C   UNL d   1       0.593  -1.339   0.049  0.00  0.00    -0.021 A 
ATOM      3  C   UNL d   1       0.971   1.126  -0.064  0.00  0.00    -0.021 A 
ATOM      4  C   UNL d   1      -0.420   1.291  -0.188  0.00  0.00     0.017 A 
ATOM      5  C   UNL d   1      -0.788  -1.091  -0.024  0.00  0.00     0.017 A 
ATOM      6  C   UNL d   1      -1.306   0.206  -0.141  0.00  0.00    -0.053 A 
ENDROOT
BRANCH   1   7
ATOM      7  N   UNL d   1       2.855  -0.409   0.418  0.00  0.00    -0.115 N 
ATOM      8  O   UNL d   1       3.575  -0.907  -0.461  0.00  0.00    -0.532 OA
ATOM      9  O   UNL d   1       3.228  -0.069   1.548  0.00  0.00    -0.532 OA
ENDBRANCH   1   7
BRANCH   2  10
ATOM     10  C   UNL d   1       1.089  -2.787   0.055  0.00  0.00     0.013 C 
ATOM     11  C   UNL d   1       1.193  -3.341   1.475  0.00  0.00     0.015 C 
ATOM     12  C   UNL d   1       0.237  -3.734  -0.812  0.00  0.00     0.015 C 
ENDBRANCH   2  10
BRANCH   3  13
ATOM     13  C   UNL d   1       1.903   2.341  -0.156  0.00  0.00     0.013 C 
ATOM     14  C   UNL d   1       2.700   2.322  -1.469  0.00  0.00     0.015 C 
ATOM     15  C   UNL d   1       1.207   3.712  -0.052  0.00  0.00     0.015 C 
ENDBRANCH   3  13
BRANCH   6  16
ATOM     16  C   UNL d   1      -2.803   0.446  -0.259  0.00  0.00     0.010 C 
ATOM     17  C   UNL d   1      -3.375  -0.248  -1.498  0.00  0.00     0.015 C 
ATOM     18  C   UNL d   1      -3.546   0.013   1.008  0.00  0.00     0.015 C 
ENDBRANCH   6  16
TORSDOF 4
