REMARK  4 active torsions:
REMARK  status: ('A' for Active; 'I' for Inactive)
REMARK    1  A    between atoms: C_6  and  N_1 
REMARK    2  A    between atoms: C_8  and  C_6 
REMARK    3  A    between atoms: C_7  and  C_17 
REMARK       I    between atoms: N_13  and  C_8 
REMARK    4  A    between atoms: C_17  and  N_13 
ROOT
ATOM      1  N   UNL d   1       1.886  -0.006   0.065  0.00  0.00    -0.271 N 
ATOM      2  C   UNL d   1       1.016   0.800   0.744  0.00  0.00     0.262 C 
ATOM      3  C   UNL d   1       1.245  -1.114  -0.418  0.00  0.00     0.262 C 
ATOM      4  C   UNL d   1      -0.188  -0.896  -0.204  0.00  0.00     0.048 A 
ATOM      5  C   UNL d   1      -0.324   0.301   0.470  0.00  0.00     0.048 A 
ATOM      6  O   UNL d   1       1.262   1.726   1.494  0.00  0.00    -0.267 OA
ATOM      7  O   UNL d   1       1.716  -2.138  -0.878  0.00  0.00    -0.267 OA
ATOM      8  C   UNL d   1      -1.555   0.837   0.791  0.00  0.00     0.018 A 
ATOM      9  C   UNL d   1      -1.285  -1.663  -0.546  0.00  0.00     0.018 A 
ATOM     10  C   UNL d   1      -2.547  -1.145  -0.229  0.00  0.00     0.001 A 
ATOM     11  C   UNL d   1      -2.683   0.099   0.421  0.00  0.00     0.001 A 
ENDROOT
BRANCH   1  12
ATOM     12  C   UNL d   1       3.330   0.097   0.180  0.00  0.00     0.238 C 
BRANCH  12  13
ATOM     13  C   UNL d   1       3.845   1.466  -0.272  0.00  0.00     0.236 C 
ATOM     14  N   UNL d   1       3.714   2.459   0.679  0.00  0.00    -0.355 N 
ATOM     15  H   UNL d   1       2.955   2.332   1.351  0.00  0.00     0.162 HD
ATOM     16  O   UNL d   1       4.315   1.665  -1.389  0.00  0.00    -0.272 OA
BRANCH  14  17
ATOM     17  C   UNL d   1       4.051   3.826   0.366  0.00  0.00     0.161 C 
BRANCH  17  18
ATOM     18  C   UNL d   1       3.754   4.693   1.554  0.00  0.00    -0.034 A 
ATOM     19  C   UNL d   1       2.944   5.814   1.522  0.00  0.00     0.058 A 
ATOM     20  S   UNL d   1       2.810   6.590   3.039  0.00  0.00    -0.113 SA
ATOM     21  C   UNL d   1       3.835   5.439   3.777  0.00  0.00     0.050 A 
ATOM     22  C   UNL d   1       4.270   4.488   2.881  0.00  0.00     0.016 A 
ENDBRANCH  17  18
ENDBRANCH  14  17
ENDBRANCH  12  13
ENDBRANCH   1  12
TORSDOF 4
