REMARK  2 active torsions:
REMARK  status: ('A' for Active; 'I' for Inactive)
REMARK    1  A    between atoms: N_14  and  N_9 
REMARK    2  A    between atoms: C_16  and  C_17 
ROOT
ATOM      1  C   UNL d   1       1.189   0.927  -0.008  0.00  0.00     0.104 A 
ATOM      2  C   UNL d   1       0.737  -0.365  -0.007  0.00  0.00     0.069 A 
ATOM      3  C   UNL d   1       2.580   1.286  -0.017  0.00  0.00     0.286 C 
ATOM      4  S   UNL d   1      -0.069   2.054  -0.007  0.00  0.00    -0.064 SA
ATOM      5  C   UNL d   1      -0.691  -0.475  -0.004  0.00  0.00     0.032 A 
ATOM      6  C   UNL d   1      -1.240   0.810  -0.003  0.00  0.00     0.088 A 
ATOM      7  N   UNL d   1       1.621  -1.457  -0.025  0.00  0.00    -0.349 N 
ATOM      8  HN  UNL d   1       1.305  -2.425  -0.078  1.00  0.00     0.167 HD
ATOM      9  N   UNL d   1       3.408   0.155   0.111  0.00  0.00    -0.215 N 
ATOM     10  C   UNL d   1       2.876  -1.125   0.030  0.00  0.00     0.211 C 
ATOM     11  N   UNL d   1      -2.545   1.139  -0.001  0.00  0.00    -0.354 N 
ATOM     12  HN  UNL d   1      -2.868   2.107   0.002  1.00  0.00     0.166 HD
ATOM     13  C   UNL d   1      -1.608  -1.560  -0.004  0.00  0.00    -0.045 A 
ATOM     14  O   UNL d   1       2.985   2.438  -0.160  0.00  0.00    -0.265 OA
ATOM     15  C   UNL d   1      -2.977  -1.234  -0.005  0.00  0.00     0.032 A 
ATOM     16  C   UNL d   1      -3.390   0.093  -0.004  0.00  0.00     0.006 A 
ATOM     17  C   UNL d   1      -1.235  -3.016  -0.005  0.00  0.00     0.049 C 
ATOM     18  C   UNL d   1      -4.856   0.415  -0.008  0.00  0.00     0.068 C 
ENDROOT
BRANCH   9  19
ATOM     19  N   UNL d   1       4.795   0.220   0.104  0.00  0.00    -0.301 N 
ATOM     20  C   UNL d   1       5.367   1.260   0.628  0.00  0.00     0.120 C 
ATOM     21  HN  UNL d   1       5.351  -0.533  -0.303  1.00  0.00     0.186 HD
BRANCH  20  22
ATOM     22  C   UNL d   1       6.837   1.439   0.568  0.00  0.00     0.003 A 
ATOM     23  C   UNL d   1       7.475   2.540   1.156  0.00  0.00     0.047 A 
ATOM     24  C   UNL d   1       8.864   2.677   1.061  0.00  0.00     0.048 A 
ATOM     25 CL   UNL d   1       6.623   3.770   2.021  0.00  0.00    -0.083 Cl
ATOM     26  C   UNL d   1       9.612   1.719   0.381  0.00  0.00     0.035 A 
ATOM     27  C   UNL d   1       8.989   0.620  -0.206  0.00  0.00     0.025 A 
ATOM     28 CL   UNL d   1      11.319   1.892   0.264  0.00  0.00    -0.084 Cl
ATOM     29  C   UNL d   1       7.604   0.480  -0.113  0.00  0.00     0.016 A 
ENDBRANCH  20  22
ENDBRANCH   9  19
TORSDOF 2
