REMARK  11 active torsions:
REMARK  status: ('A' for Active; 'I' for Inactive)
REMARK    1  A    between atoms: N_2  and  C_1 
REMARK    2  A    between atoms: C_4  and  C_10 
REMARK    3  A    between atoms: O_29  and  C_5 
REMARK    4  A    between atoms: C_6  and  N_17 
REMARK    5  A    between atoms: N_9  and  C_6 
REMARK    6  A    between atoms: C_7  and  N_9 
REMARK    7  A    between atoms: S_16  and  C_11 
REMARK    8  A    between atoms: C_12  and  C_24 
REMARK       I    between atoms: N_18  and  C_12 
REMARK    9  A    between atoms: O_31  and  C_13 
REMARK   10  A    between atoms: C_24  and  S_16 
REMARK   11  A    between atoms: N_17  and  N_18 
ROOT
ATOM      1  C   UNL d   1      -5.173  -0.826  -0.923  0.00  0.00     0.245 C 
ATOM      2  N   UNL d   1      -5.641   0.453  -1.161  0.00  0.00    -0.267 N 
ATOM      3  O   UNL d   1      -5.834  -1.836  -1.181  0.00  0.00    -0.271 OA
ATOM      4  H   UNL d   1      -4.996   1.240  -1.143  0.00  0.00     0.190 HD
ENDROOT
BRANCH   2   5
ATOM      5  N   UNL d   1      -6.850   0.613  -1.860  0.00  0.00    -0.274 N 
ATOM      6  H   UNL d   1      -6.771   0.783  -2.855  0.00  0.00     0.189 HD
BRANCH   5   7
ATOM      7  C   UNL d   1      -8.073   0.273  -1.319  0.00  0.00     0.191 C 
ATOM      8  S   UNL d   1      -8.429   0.253   0.318  0.00  0.00    -0.039 SA
BRANCH   7   9
ATOM      9  N   UNL d   1      -9.098   0.056  -2.210  0.00  0.00    -0.331 N 
ATOM     10  H   UNL d   1     -10.026   0.145  -1.802  0.00  0.00     0.168 HD
BRANCH   9  11
ATOM     11  C   UNL d   1      -9.056  -0.221  -3.596  0.00  0.00     0.057 A 
ATOM     12  C   UNL d   1      -7.954  -0.853  -4.189  0.00  0.00     0.047 A 
ATOM     13  C   UNL d   1      -7.873  -1.019  -5.581  0.00  0.00     0.050 A 
ATOM     14  C   UNL d   1      -8.944  -0.592  -6.378  0.00  0.00     0.018 A 
ATOM     15  C   UNL d   1     -10.086  -0.043  -5.791  0.00  0.00     0.027 A 
ATOM     16  C   UNL d   1     -10.149   0.126  -4.405  0.00  0.00     0.060 A 
ATOM     17 CL   UNL d   1     -11.573   0.838  -3.732  0.00  0.00    -0.082 Cl
BRANCH  13  18
ATOM     18  C   UNL d   1      -6.641  -1.617  -6.221  0.00  0.00     0.417 C 
ATOM     19  F   UNL d   1      -5.706  -2.033  -5.323  0.00  0.00    -0.166 F 
ATOM     20  F   UNL d   1      -6.922  -2.692  -7.003  0.00  0.00    -0.166 F 
ATOM     21  F   UNL d   1      -6.004  -0.721  -7.026  0.00  0.00    -0.166 F 
ENDBRANCH  13  18
ENDBRANCH   9  11
ENDBRANCH   7   9
ENDBRANCH   5   7
ENDBRANCH   2   5
BRANCH   1  22
ATOM     22  C   UNL d   1      -3.765  -0.972  -0.372  0.00  0.00     0.184 C 
BRANCH  22  23
ATOM     23  S   UNL d   1      -2.898   0.579   0.031  0.00  0.00    -0.118 SA
BRANCH  23  24
ATOM     24  C   UNL d   1      -1.351  -0.118   0.651  0.00  0.00     0.037 A 
ATOM     25  C   UNL d   1      -1.020   0.123   1.997  0.00  0.00     0.060 A 
ATOM     26  C   UNL d   1       0.143  -0.407   2.580  0.00  0.00     0.102 A 
ATOM     27  C   UNL d   1       0.957  -1.207   1.778  0.00  0.00     0.138 A 
ATOM     28  C   UNL d   1       0.666  -1.440   0.423  0.00  0.00     0.077 A 
ATOM     29  C   UNL d   1      -0.485  -0.892  -0.149  0.00  0.00     0.087 A 
BRANCH  26  30
ATOM     30  O   UNL d   1       0.270  -0.097   3.905  0.00  0.00    -0.353 OA
ATOM     31  C   UNL d   1       1.575   0.110   4.437  0.00  0.00     0.210 C 
ENDBRANCH  26  30
BRANCH  27  32
ATOM     32  N   UNL d   1       2.103  -1.915   2.307  0.00  0.00    -0.113 N 
ATOM     33  O   UNL d   1       3.196  -1.659   1.780  0.00  0.00    -0.532 OA
ATOM     34  O   UNL d   1       1.902  -2.738   3.208  0.00  0.00    -0.532 OA
ENDBRANCH  27  32
BRANCH  29  35
ATOM     35  O   UNL d   1      -0.836  -1.055  -1.464  0.00  0.00    -0.355 OA
ATOM     36  C   UNL d   1      -0.057  -1.939  -2.262  0.00  0.00     0.210 C 
ENDBRANCH  29  35
ENDBRANCH  23  24
ENDBRANCH  22  23
ENDBRANCH   1  22
TORSDOF 11
