REMARK  7 active torsions:
REMARK  status: ('A' for Active; 'I' for Inactive)
REMARK    1  A    between atoms: C_19  and  N_1 
REMARK    2  A    between atoms: C_16  and  N_2 
REMARK    3  A    between atoms: C_18  and  C_3 
REMARK    4  A    between atoms: S_14  and  C_6 
REMARK    5  A    between atoms: C_10  and  C_17 
REMARK    6  A    between atoms: C_17  and  S_14 
REMARK    7  A    between atoms: C_20  and  C_19 
ROOT
ATOM      1  N   UNL d   1      -0.188  -1.286   0.398  0.00  0.00    -0.307 N 
ATOM      2  C   UNL d   1       1.008  -0.631   0.166  0.00  0.00     0.135 A 
ATOM      3  N   UNL d   1       0.771   0.672   0.190  0.00  0.00    -0.283 N 
ATOM      4  HN  UNL d   1       1.453   1.402  -0.013  1.00  0.00     0.188 HD
ATOM      5  C   UNL d   1      -1.096  -0.299   0.682  0.00  0.00     0.163 A 
ATOM      6  N   UNL d   1      -0.542   0.878   0.532  0.00  0.00    -0.278 N 
ATOM      7  HN  UNL d   1      -1.001   1.782   0.647  1.00  0.00     0.189 HD
ENDROOT
BRANCH   5   8
ATOM      8  S   UNL d   1      -2.715  -0.607   1.194  0.00  0.00    -0.085 SA
BRANCH   8   9
ATOM      9  C   UNL d   1      -3.338   1.081   1.467  0.00  0.00     0.161 C 
BRANCH   9  10
ATOM     10  C   UNL d   1      -4.745   1.074   2.034  0.00  0.00     0.115 A 
ATOM     11  N   UNL d   1      -5.309   2.142   2.674  0.00  0.00    -0.275 N 
ATOM     12  C   UNL d   1      -6.564   1.692   3.067  0.00  0.00     0.199 A 
ATOM     13  S   UNL d   1      -7.866   2.435   3.785  0.00  0.00    -0.039 SA
ATOM     14  N   UNL d   1      -6.641   0.373   2.644  0.00  0.00    -0.274 N 
ATOM     15  N   UNL d   1      -5.516   0.018   1.982  0.00  0.00    -0.286 N 
ATOM     16  H   UNL d   1      -7.440  -0.244   2.730  0.00  0.00     0.189 HD
ATOM     17  HN  UNL d   1      -5.314  -0.878   1.537  1.00  0.00     0.188 HD
BRANCH  11  18
ATOM     18  C   UNL d   1      -4.784   3.450   2.846  0.00  0.00     0.043 A 
ATOM     19  C   UNL d   1      -4.057   4.087   1.830  0.00  0.00     0.030 A 
ATOM     20  C   UNL d   1      -3.568   5.388   1.996  0.00  0.00     0.002 A 
ATOM     21  C   UNL d   1      -3.804   6.080   3.179  0.00  0.00     0.000 A 
ATOM     22  C   UNL d   1      -4.521   5.467   4.200  0.00  0.00     0.002 A 
ATOM     23  C   UNL d   1      -5.000   4.163   4.035  0.00  0.00     0.030 A 
ENDBRANCH  11  18
ENDBRANCH   9  10
ENDBRANCH   8   9
ENDBRANCH   5   8
BRANCH   1  24
ATOM     24  C   UNL d   1      -0.479  -2.699   0.204  0.00  0.00     0.159 C 
BRANCH  24  25
ATOM     25  C   UNL d   1      -0.525  -3.470   1.494  0.00  0.00    -0.017 C 
ATOM     26  C   UNL d   1      -0.013  -4.696   1.658  0.00  0.00     0.008 C 
ENDBRANCH  24  25
ENDBRANCH   1  24
BRANCH   2  27
ATOM     27  C   UNL d   1       2.323  -1.231  -0.085  0.00  0.00     0.009 A 
ATOM     28  C   UNL d   1       3.181  -0.643  -1.027  0.00  0.00     0.015 A 
ATOM     29  C   UNL d   1       4.460  -1.161  -1.254  0.00  0.00     0.001 A 
ATOM     30  C   UNL d   1       4.899  -2.274  -0.540  0.00  0.00     0.000 A 
ATOM     31  C   UNL d   1       4.066  -2.858   0.409  0.00  0.00     0.001 A 
ATOM     32  C   UNL d   1       2.792  -2.332   0.644  0.00  0.00     0.015 A 
ENDBRANCH   2  27
TORSDOF 7
