REMARK  7 active torsions:
REMARK  status: ('A' for Active; 'I' for Inactive)
REMARK    1  A    between atoms: O_14  and  C_2 
REMARK    2  A    between atoms: N_3  and  C_13 
REMARK    3  A    between atoms: C_9  and  C_4 
REMARK    4  A    between atoms: C_16  and  C_7 
REMARK    5  A    between atoms: C_21  and  O_14 
REMARK    6  A    between atoms: C_18  and  C_21 
REMARK    7  A    between atoms: C_28  and  C_18 
ROOT
ATOM      1  C   UNL d   1       0.569   0.070   0.069  0.00  0.00     0.107 A 
ATOM      2  C   UNL d   1      -0.216  -1.083   0.110  0.00  0.00     0.165 A 
ATOM      3  C   UNL d   1      -0.092   1.310  -0.009  0.00  0.00     0.008 A 
ATOM      4  N   UNL d   1      -1.567  -1.082   0.022  0.00  0.00    -0.335 N 
ATOM      5  HN  UNL d   1      -2.090  -1.957   0.002  1.00  0.00     0.168 HD
ATOM      6  C   UNL d   1      -2.204   0.105  -0.038  0.00  0.00     0.045 A 
ATOM      7  C   UNL d   1      -1.498   1.302  -0.040  0.00  0.00     0.044 A 
ATOM      8  C   UNL d   1       2.001  -0.042   0.101  0.00  0.00     0.104 C 
ATOM      9  N   UNL d   1       3.159  -0.070   0.130  0.00  0.00    -0.191 NA
ENDROOT
BRANCH   2  10
ATOM     10  O   UNL d   1       0.403  -2.313   0.205  0.00  0.00    -0.327 OA
BRANCH  10  11
ATOM     11  C   UNL d   1      -0.439  -3.335   0.745  0.00  0.00     0.261 C 
BRANCH  11  12
ATOM     12  C   UNL d   1      -0.767  -3.181   2.234  0.00  0.00     0.183 C 
ATOM     13  O   UNL d   1      -0.351  -2.236   2.905  0.00  0.00    -0.290 OA
BRANCH  12  14
ATOM     14  C   UNL d   1      -1.595  -4.240   2.895  0.00  0.00     0.012 A 
ATOM     15  C   UNL d   1      -2.094  -5.355   2.208  0.00  0.00     0.015 A 
ATOM     16  C   UNL d   1      -2.828  -6.332   2.891  0.00  0.00     0.001 A 
ATOM     17  C   UNL d   1      -3.070  -6.202   4.258  0.00  0.00     0.000 A 
ATOM     18  C   UNL d   1      -2.590  -5.090   4.945  0.00  0.00     0.001 A 
ATOM     19  C   UNL d   1      -1.857  -4.113   4.268  0.00  0.00     0.015 A 
ENDBRANCH  12  14
ENDBRANCH  11  12
ENDBRANCH  10  11
ENDBRANCH   2  10
BRANCH   3  20
ATOM     20  C   UNL d   1       0.609   2.618  -0.028  0.00  0.00     0.016 A 
ATOM     21  S   UNL d   1      -0.053   3.960  -0.897  0.00  0.00    -0.101 SA
ATOM     22  C   UNL d   1       1.193   5.009  -0.397  0.00  0.00     0.050 A 
ATOM     23  C   UNL d   1       2.132   4.361   0.366  0.00  0.00     0.008 A 
ATOM     24  C   UNL d   1       1.792   2.995   0.583  0.00  0.00     0.020 A 
ENDBRANCH   3  20
BRANCH   6  25
ATOM     25  C   UNL d   1      -3.677   0.046  -0.124  0.00  0.00    -0.009 A 
ATOM     26  C   UNL d   1      -4.313  -1.059  -0.723  0.00  0.00     0.016 A 
ATOM     27  C   UNL d   1      -5.706  -1.135  -0.829  0.00  0.00     0.037 A 
ATOM     28  C   UNL d   1      -6.490  -0.091  -0.328  0.00  0.00     0.102 A 
ATOM     29  C   UNL d   1      -5.890   1.021   0.268  0.00  0.00     0.037 A 
ATOM     30  C   UNL d   1      -4.496   1.081   0.368  0.00  0.00     0.016 A 
BRANCH  28  31
ATOM     31  N   UNL d   1      -7.952  -0.166  -0.419  0.00  0.00    -0.116 N 
ATOM     32  O   UNL d   1      -8.446  -1.168  -0.953  0.00  0.00    -0.532 OA
ATOM     33  O   UNL d   1      -8.607   0.779   0.045  0.00  0.00    -0.532 OA
ENDBRANCH  28  31
ENDBRANCH   6  25
TORSDOF 7
