REMARK  5 active torsions:
REMARK  status: ('A' for Active; 'I' for Inactive)
REMARK    1  A    between atoms: C_9  and  C_3 
REMARK    2  A    between atoms: C_5  and  C_4 
REMARK    3  A    between atoms: C_7  and  C_11 
REMARK    4  A    between atoms: O_20  and  C_9 
REMARK    5  A    between atoms: C_21  and  O_20 
ROOT
ATOM      1  N   UNL d   1       1.438  -0.571  -0.080  0.00  0.00    -0.345 N 
ATOM      2  HN  UNL d   1       2.321  -1.072  -0.177  1.00  0.00     0.167 HD
ATOM      3  C   UNL d   1       1.325   0.816  -0.022  0.00  0.00     0.115 A 
ATOM      4  C   UNL d   1       0.261  -1.155   0.008  0.00  0.00     0.086 A 
ATOM      5  S   UNL d   1      -1.064  -0.051   0.122  0.00  0.00    -0.081 SA
ATOM      6  C   UNL d   1       0.021   1.268   0.062  0.00  0.00     0.087 A 
ENDROOT
BRANCH   4   7
ATOM      7  C   UNL d   1       0.041  -2.615   0.014  0.00  0.00     0.019 A 
ATOM      8  C   UNL d   1       0.939  -3.505   0.632  0.00  0.00     0.047 A 
ATOM      9  C   UNL d   1       0.713  -4.890   0.608  0.00  0.00     0.041 A 
ATOM     10 CL   UNL d   1       2.347  -2.987   1.501  0.00  0.00    -0.083 Cl
ATOM     11  C   UNL d   1      -0.416  -5.426  -0.028  0.00  0.00     0.049 A 
ATOM     12  C   UNL d   1      -1.312  -4.550  -0.645  0.00  0.00     0.017 A 
ATOM     13  C   UNL d   1      -1.084  -3.169  -0.632  0.00  0.00     0.017 A 
BRANCH  11  14
ATOM     14  C   UNL d   1      -0.667  -6.914  -0.048  0.00  0.00     0.417 C 
ATOM     15  F   UNL d   1       0.300  -7.641   0.574  0.00  0.00    -0.166 F 
ATOM     16  F   UNL d   1      -1.838  -7.248   0.562  0.00  0.00    -0.166 F 
ATOM     17  F   UNL d   1      -0.751  -7.407  -1.314  0.00  0.00    -0.166 F 
ENDBRANCH  11  14
ENDBRANCH   4   7
BRANCH   3  18
ATOM     18  C   UNL d   1       2.481   1.706  -0.113  0.00  0.00     0.310 C 
ATOM     19  O   UNL d   1       2.384   2.926  -0.162  0.00  0.00    -0.258 OA
BRANCH  18  20
ATOM     20  O   UNL d   1       3.654   1.016  -0.217  0.00  0.00    -0.317 OA
BRANCH  20  21
ATOM     21  C   UNL d   1       4.761   1.760  -0.739  0.00  0.00     0.175 C 
ATOM     22  C   UNL d   1       4.714   1.661  -2.254  0.00  0.00     0.034 C 
ENDBRANCH  20  21
ENDBRANCH  18  20
ENDBRANCH   3  18
TORSDOF 5
