REMARK  7 active torsions:
REMARK  status: ('A' for Active; 'I' for Inactive)
REMARK    1  A    between atoms: C_11  and  C_2 
REMARK    2  A    between atoms: O_9  and  C_4 
REMARK    3  A    between atoms: C_17  and  C_11 
REMARK    4  A    between atoms: C_20  and  C_17 
REMARK    5  A    between atoms: C_18  and  C_19 
REMARK    6  A    between atoms: C_19  and  C_21 
REMARK    7  A    between atoms: C_21  and  C_20 
ROOT
ATOM      1  N   UNL d   1       0.679   1.159   0.034  0.00  0.00    -0.312 N 
ATOM      2  C   UNL d   1      -1.456   2.400   0.047  0.00  0.00     0.044 A 
ATOM      3  C   UNL d   1       0.033   2.388   0.105  0.00  0.00     0.257 A 
ATOM      4  C   UNL d   1      -2.139   1.244   0.013  0.00  0.00     0.089 A 
ATOM      5  C   UNL d   1      -1.438  -0.058   0.012  0.00  0.00     0.025 A 
ATOM      6  C   UNL d   1      -0.024  -0.067   0.003  0.00  0.00     0.056 A 
ATOM      7  O   UNL d   1       0.649   3.451   0.199  0.00  0.00    -0.267 OA
ATOM      8  C   UNL d   1       0.673  -1.282  -0.018  0.00  0.00    -0.030 A 
ATOM      9  C   UNL d   1       2.124   1.217  -0.021  0.00  0.00     0.133 A 
ATOM     10  C   UNL d   1      -2.121  -1.290   0.008  0.00  0.00     0.016 A 
ATOM     11  C   UNL d   1       2.928  -0.068  -0.015  0.00  0.00     0.025 A 
ATOM     12  C   UNL d   1      -1.426  -2.496  -0.001  0.00  0.00     0.002 A 
ATOM     13  C   UNL d   1      -0.040  -2.492  -0.016  0.00  0.00     0.009 A 
ATOM     14  C   UNL d   1       2.166  -1.374  -0.042  0.00  0.00     0.042 A 
ENDROOT
BRANCH   2  15
ATOM     15  C   UNL d   1      -2.117   3.758   0.053  0.00  0.00     0.047 C 
BRANCH  15  16
ATOM     16  C   UNL d   1      -1.831   4.558  -1.221  0.00  0.00     0.005 C 
BRANCH  16  17
ATOM     17  C   UNL d   1      -2.568   5.896  -1.215  0.00  0.00     0.000 C 
BRANCH  17  18
ATOM     18  C   UNL d   1      -2.201   6.712  -2.453  0.00  0.00     0.000 C 
BRANCH  18  19
ATOM     19  C   UNL d   1      -2.927   8.053  -2.468  0.00  0.00    -0.000 C 
BRANCH  19  20
ATOM     20  C   UNL d   1      -2.554   8.863  -3.707  0.00  0.00    -0.005 C 
ATOM     21  C   UNL d   1      -3.278  10.198  -3.728  0.00  0.00     0.005 C 
ENDBRANCH  19  20
ENDBRANCH  18  19
ENDBRANCH  17  18
ENDBRANCH  16  17
ENDBRANCH  15  16
ENDBRANCH   2  15
BRANCH   4  22
ATOM     22  O   UNL d   1      -3.523   1.281  -0.033  0.00  0.00    -0.359 OA
ATOM     23  H   UNL d   1      -3.897   0.394   0.033  0.00  0.00     0.217 HD
ENDBRANCH   4  22
TORSDOF 7
