REMARK  0 active torsions:
REMARK  status: ('A' for Active; 'I' for Inactive)
ROOT
ATOM      1  C   UNL d   1       0.714   0.537  -0.000  0.00  0.00     0.012 A 
ATOM      2  C   UNL d   1      -0.711   0.540  -0.000  0.00  0.00     0.012 A 
ATOM      3  O   UNL d   1      -0.003  -1.609   0.000  0.00  0.00    -0.309 OA
ATOM      4  C   UNL d   1      -1.096  -0.796   0.000  0.00  0.00     0.087 A 
ATOM      5  C   UNL d   1       1.093  -0.801   0.000  0.00  0.00     0.087 A 
ATOM      6  C   UNL d   1      -1.711   1.531   0.000  0.00  0.00     0.033 A 
ATOM      7  C   UNL d   1       1.717   1.524  -0.001  0.00  0.00     0.033 A 
ATOM      8  C   UNL d   1       2.417  -1.235   0.000  0.00  0.00     0.039 A 
ATOM      9  C   UNL d   1      -2.422  -1.225   0.000  0.00  0.00     0.039 A 
ATOM     10  C   UNL d   1       3.057   1.113  -0.001  0.00  0.00     0.007 A 
ATOM     11  C   UNL d   1      -3.052   1.125   0.000  0.00  0.00     0.007 A 
ATOM     12  C   UNL d   1       3.404  -0.241  -0.001  0.00  0.00     0.021 A 
ATOM     13  C   UNL d   1      -3.405  -0.227   0.000  0.00  0.00     0.021 A 
ATOM     14  I   UNL d   1       4.558   2.558  -0.003  0.00  0.00    -0.045 I 
ATOM     15  I   UNL d   1      -4.547   2.576   0.000  0.00  0.00    -0.045 I 
ENDROOT
TORSDOF 0
