REMARK  6 active torsions:
REMARK  status: ('A' for Active; 'I' for Inactive)
REMARK    1  A    between atoms: N_3  and  S_1 
REMARK    2  A    between atoms: C_4  and  S_1 
REMARK    3  A    between atoms: C_2  and  O_14 
REMARK    4  A    between atoms: C_16  and  N_3 
REMARK    5  A    between atoms: C_11  and  C_16 
REMARK    6  A    between atoms: O_14  and  C_22 
ROOT
ATOM      1  C   UNL d   1      -0.694  -6.481   0.390  0.00  0.00     0.117 A 
ATOM      2  N   UNL d   1      -2.123  -4.062  -1.847  0.00  0.00    -0.191 NA
ATOM      3  N   UNL d   1       0.586  -8.212   3.219  0.00  0.00    -0.191 NA
ATOM      4  C   UNL d   1      -0.338  -7.774   0.827  0.00  0.00     0.080 A 
ATOM      5  C   UNL d   1      -1.247  -6.315  -0.895  0.00  0.00     0.080 A 
ATOM      6  C   UNL d   1       0.170  -8.000   2.152  0.00  0.00     0.102 C 
ATOM      7  C   UNL d   1      -1.740  -5.062  -1.397  0.00  0.00     0.102 C 
ATOM      8  C   UNL d   1      -1.357  -7.424  -1.749  0.00  0.00     0.026 A 
ATOM      9  C   UNL d   1      -0.488  -8.874  -0.032  0.00  0.00     0.026 A 
ATOM     10  C   UNL d   1      -0.982  -8.696  -1.321  0.00  0.00     0.003 A 
ENDROOT
BRANCH   1  11
ATOM     11  O   UNL d   1      -0.566  -5.484   1.337  0.00  0.00    -0.308 OA
BRANCH  11  12
ATOM     12  C   UNL d   1      -0.149  -4.223   0.986  0.00  0.00     0.076 A 
ATOM     13  C   UNL d   1      -0.685  -3.186   1.752  0.00  0.00     0.039 A 
ATOM     14  C   UNL d   1      -0.356  -1.859   1.469  0.00  0.00     0.027 A 
ATOM     15  C   UNL d   1       0.487  -1.570   0.394  0.00  0.00     0.074 A 
ATOM     16  C   UNL d   1       1.053  -2.610  -0.353  0.00  0.00     0.027 A 
ATOM     17  C   UNL d   1       0.769  -3.939  -0.028  0.00  0.00     0.039 A 
BRANCH  15  18
ATOM     18  S   UNL d   1       0.951   0.113   0.035  0.00  0.00     0.241 S 
ATOM     19  O   UNL d   1       1.513   0.664   1.247  0.00  0.00    -0.206 OA
ATOM     20  O   UNL d   1       1.692   0.089  -1.208  0.00  0.00    -0.206 OA
BRANCH  18  21
ATOM     21  N   UNL d   1      -0.507   0.892  -0.299  0.00  0.00    -0.209 NA
ATOM     22  H   UNL d   1      -1.149   0.316  -0.845  0.00  0.00     0.140 HD
BRANCH  21  23
ATOM     23  C   UNL d   1      -1.147   1.551   0.846  0.00  0.00     0.169 C 
BRANCH  23  24
ATOM     24  C   UNL d   1      -2.369   2.255   0.386  0.00  0.00     0.066 A 
ATOM     25  O   UNL d   1      -3.518   1.520   0.346  0.00  0.00    -0.326 OA
ATOM     26  C   UNL d   1      -4.514   2.367  -0.022  0.00  0.00     0.142 A 
ATOM     27  C   UNL d   1      -4.019   3.633  -0.231  0.00  0.00     0.027 A 
ATOM     28  C   UNL d   1      -2.628   3.560   0.021  0.00  0.00     0.036 A 
ENDBRANCH  23  24
ENDBRANCH  21  23
ENDBRANCH  18  21
ENDBRANCH  15  18
ENDBRANCH  11  12
ENDBRANCH   1  11
TORSDOF 6
