REMARK  4 active torsions:
REMARK  status: ('A' for Active; 'I' for Inactive)
REMARK    1  A    between atoms: C_8  and  C_1 
REMARK    2  A    between atoms: C_17  and  C_5 
REMARK    3  A    between atoms: C_6  and  C_11 
REMARK       I    between atoms: N_15  and  C_8 
REMARK       I    between atoms: C_11  and  N_16 
REMARK    4  A    between atoms: N_16  and  N_15 
ROOT
ATOM      1  C   UNL d   1      -0.241  -2.602   0.089  0.00  0.00     0.279 C 
ATOM      2  N   UNL d   1       0.909  -3.354   0.273  0.00  0.00    -0.262 N 
ATOM      3  O   UNL d   1      -1.322  -3.180  -0.061  0.00  0.00    -0.265 OA
ATOM      4  H   UNL d   1       1.826  -2.952   0.460  0.00  0.00     0.190 HD
ENDROOT
BRANCH   1   5
ATOM      5  C   UNL d   1      -0.098  -1.159   0.082  0.00  0.00     0.098 A 
ATOM      6  S   UNL d   1       1.419  -0.365   0.208  0.00  0.00    -0.064 SA
ATOM      7  C   UNL d   1       0.648   1.169   0.064  0.00  0.00     0.085 A 
ATOM      8  N   UNL d   1      -0.666   1.107  -0.018  0.00  0.00    -0.352 N 
ATOM      9  C   UNL d   1      -1.101  -0.208  -0.035  0.00  0.00     0.029 A 
ATOM     10  HN  UNL d   1      -1.281   1.919  -0.063  1.00  0.00     0.166 HD
ATOM     11  C   UNL d   1      -2.562  -0.453  -0.183  0.00  0.00     0.070 C 
BRANCH   7  12
ATOM     12  C   UNL d   1       1.405   2.434   0.059  0.00  0.00    -0.002 A 
ATOM     13  C   UNL d   1       2.719   2.536  -0.424  0.00  0.00     0.014 A 
ATOM     14  C   UNL d   1       3.378   3.771  -0.455  0.00  0.00     0.001 A 
ATOM     15  C   UNL d   1       2.736   4.920  -0.001  0.00  0.00     0.000 A 
ATOM     16  C   UNL d   1       1.433   4.840   0.483  0.00  0.00     0.001 A 
ATOM     17  C   UNL d   1       0.773   3.607   0.508  0.00  0.00     0.014 A 
ENDBRANCH   7  12
ENDBRANCH   1   5
BRANCH   2  18
ATOM     18  N   UNL d   1       0.781  -4.753   0.325  0.00  0.00    -0.263 N 
ATOM     19  C   UNL d   1       1.884  -5.534   0.600  0.00  0.00     0.274 C 
ATOM     20  O   UNL d   1       2.992  -5.027   0.771  0.00  0.00    -0.266 OA
ATOM     21  H   UNL d   1      -0.144  -5.112   0.113  0.00  0.00     0.190 HD
BRANCH  19  22
ATOM     22  C   UNL d   1       1.667  -6.971   0.667  0.00  0.00     0.089 A 
ATOM     23  C   UNL d   1       0.492  -7.704   0.666  0.00  0.00     0.090 A 
ATOM     24  O   UNL d   1       0.784  -9.029   0.768  0.00  0.00    -0.242 OA
ATOM     25  C   UNL d   1      -0.953  -7.406   0.597  0.00  0.00     0.080 C 
ATOM     26  N   UNL d   1       2.145  -9.205   0.835  0.00  0.00    -0.265 N 
ATOM     27  C   UNL d   1       2.675  -7.979   0.775  0.00  0.00     0.047 A 
ATOM     28  HN  UNL d   1       2.648 -10.089   0.915  1.00  0.00     0.194 HD
ATOM     29  C   UNL d   1       4.149  -7.819   0.811  0.00  0.00     0.071 C 
ENDBRANCH  19  22
ENDBRANCH   2  18
TORSDOF 4
