REMARK  6 active torsions:
REMARK  status: ('A' for Active; 'I' for Inactive)
REMARK    1  A    between atoms: N_7  and  C_1 
REMARK    2  A    between atoms: C_12  and  N_2 
REMARK    3  A    between atoms: N_6  and  C_13 
REMARK    4  A    between atoms: C_9  and  N_7 
REMARK    5  A    between atoms: C_11  and  C_8 
REMARK    6  A    between atoms: O_21  and  C_11 
ROOT
ATOM      1  C   UNL d   1      -0.458  -1.073   0.107  0.00  0.00     0.130 A 
ATOM      2  N   UNL d   1       0.873  -0.684   0.276  0.00  0.00    -0.240 N 
ATOM      3  N   UNL d   1       0.972   0.663   0.474  0.00  0.00    -0.297 N 
ATOM      4  HN  UNL d   1       1.805   1.196   0.723  1.00  0.00     0.187 HD
ATOM      5  C   UNL d   1      -1.192   0.094   0.102  0.00  0.00     0.076 A 
ATOM      6  C   UNL d   1      -0.263   1.131   0.269  0.00  0.00     0.026 A 
ATOM      7  C   UNL d   1      -0.528   2.589   0.234  0.00  0.00     0.070 C 
ENDROOT
BRANCH   1   8
ATOM      8  N   UNL d   1      -0.887  -2.363   0.032  0.00  0.00    -0.340 N 
ATOM      9  H   UNL d   1      -0.388  -3.116   0.526  0.00  0.00     0.167 HD
BRANCH   8  10
ATOM     10  C   UNL d   1      -1.949  -2.840  -0.777  0.00  0.00     0.050 A 
ATOM     11  C   UNL d   1      -2.643  -4.030  -0.458  0.00  0.00     0.064 A 
ATOM     12  C   UNL d   1      -3.710  -4.471  -1.262  0.00  0.00     0.020 A 
ATOM     13  C   UNL d   1      -4.124  -3.713  -2.358  0.00  0.00     0.001 A 
ATOM     14  C   UNL d   1      -3.467  -2.532  -2.672  0.00  0.00     0.002 A 
ATOM     15  C   UNL d   1      -2.391  -2.106  -1.891  0.00  0.00     0.030 A 
BRANCH  11  16
ATOM     16  C   UNL d   1      -2.206  -4.847   0.702  0.00  0.00     0.178 C 
ATOM     17  O   UNL d   1      -1.036  -4.922   1.049  0.00  0.00    -0.646 OA
BRANCH  16  18
ATOM     18  O   UNL d   1      -3.211  -5.471   1.352  0.00  0.00    -0.773 OA
ATOM     19  H   UNL d   1      -4.110  -5.190   1.099  0.00  0.00     0.167 HD
ENDBRANCH  16  18
ENDBRANCH  11  16
ENDBRANCH   8  10
ENDBRANCH   1   8
BRANCH   2  20
ATOM     20  C   UNL d   1       2.067  -1.456   0.154  0.00  0.00     0.058 A 
ATOM     21  C   UNL d   1       2.100  -2.623  -0.623  0.00  0.00     0.034 A 
ATOM     22  C   UNL d   1       3.291  -3.344  -0.760  0.00  0.00     0.038 A 
ATOM     23  C   UNL d   1       4.449  -2.904  -0.107  0.00  0.00     0.103 A 
ATOM     24  C   UNL d   1       4.431  -1.732   0.660  0.00  0.00     0.038 A 
ATOM     25  C   UNL d   1       3.243  -1.001   0.774  0.00  0.00     0.034 A 
BRANCH  23  26
ATOM     26  N   UNL d   1       5.692  -3.671  -0.237  0.00  0.00    -0.116 N 
ATOM     27  O   UNL d   1       5.686  -4.660  -0.984  0.00  0.00    -0.532 OA
ATOM     28  O   UNL d   1       6.681  -3.283   0.406  0.00  0.00    -0.532 OA
ENDBRANCH  23  26
ENDBRANCH   2  20
TORSDOF 6
