REMARK  4 active torsions:
REMARK  status: ('A' for Active; 'I' for Inactive)
REMARK    1  A    between atoms: C_6  and  C_1 
REMARK    2  A    between atoms: C_10  and  N_2 
REMARK    3  A    between atoms: O_14  and  C_9 
REMARK    4  A    between atoms: C_11  and  C_10 
ROOT
ATOM      1  C   UNL d   1       0.892  -0.687   0.040  0.00  0.00     0.138 A 
ATOM      2  N   UNL d   1       0.996   0.674  -0.069  0.00  0.00    -0.303 N 
ATOM      3  N   UNL d   1      -0.340  -1.111   0.170  0.00  0.00    -0.282 N 
ATOM      4  HN  UNL d   1      -0.658  -2.074   0.281  1.00  0.00     0.188 HD
ATOM      5  C   UNL d   1      -0.302   1.135  -0.014  0.00  0.00     0.194 A 
ATOM      6  N   UNL d   1      -1.101   0.012   0.124  0.00  0.00    -0.274 N 
ATOM      7  S   UNL d   1      -0.912   2.675  -0.077  0.00  0.00    -0.039 SA
ATOM      8  H   UNL d   1      -2.112  -0.006   0.188  0.00  0.00     0.189 HD
ENDROOT
BRANCH   1   9
ATOM      9  C   UNL d   1       2.017  -1.653   0.047  0.00  0.00     0.043 A 
ATOM     10  C   UNL d   1       1.889  -2.847   0.778  0.00  0.00     0.079 A 
ATOM     11  C   UNL d   1       2.894  -3.814   0.760  0.00  0.00     0.037 A 
ATOM     12  C   UNL d   1       4.040  -3.611  -0.004  0.00  0.00     0.003 A 
ATOM     13  C   UNL d   1       4.177  -2.441  -0.748  0.00  0.00     0.001 A 
ATOM     14  C   UNL d   1       3.167  -1.472  -0.730  0.00  0.00     0.018 A 
BRANCH  10  15
ATOM     15  O   UNL d   1       0.786  -3.150   1.534  0.00  0.00    -0.360 OA
ATOM     16  H   UNL d   1       0.068  -2.532   1.276  0.00  0.00     0.217 HD
ENDBRANCH  10  15
ENDBRANCH   1   9
BRANCH   2  17
ATOM     17  C   UNL d   1       2.179   1.526  -0.081  0.00  0.00     0.160 C 
BRANCH  17  18
ATOM     18  C   UNL d   1       2.585   1.936  -1.475  0.00  0.00    -0.017 C 
ATOM     19  C   UNL d   1       2.046   1.554  -2.643  0.00  0.00     0.008 C 
ENDBRANCH  17  18
ENDBRANCH   2  17
TORSDOF 4
