REMARK  5 active torsions:
REMARK  status: ('A' for Active; 'I' for Inactive)
REMARK    1  A    between atoms: C_3  and  C_1 
REMARK    2  A    between atoms: C_11  and  C_2 
REMARK    3  A    between atoms: C_10  and  C_9 
REMARK    4  A    between atoms: O_18  and  C_15 
REMARK    5  A    between atoms: C_23  and  O_18 
ROOT
ATOM      1  C   UNL d   1      -0.830   2.352  -0.011  0.00  0.00     0.047 A 
ATOM      2  C   UNL d   1      -1.616   2.869   1.032  0.00  0.00     0.067 A 
ATOM      3  C   UNL d   1      -0.526   3.220  -1.064  0.00  0.00     0.106 A 
ATOM      4  N   UNL d   1      -0.910   4.511  -1.141  0.00  0.00    -0.346 N 
ATOM      5  HN  UNL d   1      -0.666   5.093  -1.942  1.00  0.00     0.167 HD
ATOM      6  C   UNL d   1      -1.631   4.996  -0.113  0.00  0.00     0.148 A 
ATOM      7  C   UNL d   1      -2.034   4.218   0.956  0.00  0.00     0.073 A 
ENDROOT
BRANCH   1   8
ATOM      8  C   UNL d   1      -0.312   0.997  -0.084  0.00  0.00     0.177 A 
ATOM      9  O   UNL d   1       0.929   0.864  -0.649  0.00  0.00    -0.272 OA
ATOM     10  C   UNL d   1       1.106  -0.493  -0.648  0.00  0.00     0.176 A 
ATOM     11  N   UNL d   1       0.099  -1.125  -0.080  0.00  0.00    -0.277 N 
ATOM     12  N   UNL d   1      -0.833  -0.160   0.260  0.00  0.00    -0.277 N 
ATOM     13  HN  UNL d   1       0.022  -2.129   0.078  1.00  0.00     0.189 HD
ATOM     14  HN  UNL d   1      -1.744  -0.315   0.691  1.00  0.00     0.189 HD
BRANCH  10  15
ATOM     15  C   UNL d   1       2.360  -1.007  -1.182  0.00  0.00     0.038 A 
ATOM     16  C   UNL d   1       3.009  -0.473  -2.309  0.00  0.00     0.048 A 
ATOM     17 CL   UNL d   1       2.372   0.847  -3.233  0.00  0.00    -0.083 Cl
ATOM     18  C   UNL d   1       4.210  -1.031  -2.770  0.00  0.00     0.025 A 
ATOM     19  C   UNL d   1       4.775  -2.129  -2.119  0.00  0.00     0.002 A 
ATOM     20  C   UNL d   1       4.139  -2.674  -1.009  0.00  0.00     0.001 A 
ATOM     21  C   UNL d   1       2.941  -2.122  -0.547  0.00  0.00     0.017 A 
ENDBRANCH  10  15
ENDBRANCH   1   8
BRANCH   2  22
ATOM     22  C   UNL d   1      -2.032   2.106   2.263  0.00  0.00     0.418 C 
ATOM     23  F   UNL d   1      -1.378   0.941   2.491  0.00  0.00    -0.166 F 
ATOM     24  F   UNL d   1      -1.827   2.845   3.394  0.00  0.00    -0.166 F 
ATOM     25  F   UNL d   1      -3.360   1.813   2.260  0.00  0.00    -0.166 F 
ENDBRANCH   2  22
BRANCH   6  26
ATOM     26  O   UNL d   1      -1.983   6.337  -0.099  0.00  0.00    -0.294 OA
BRANCH  26  27
ATOM     27  C   UNL d   1      -1.075   7.224  -0.638  0.00  0.00     0.077 A 
ATOM     28  C   UNL d   1      -1.593   8.300  -1.359  0.00  0.00     0.037 A 
ATOM     29  C   UNL d   1      -0.729   9.239  -1.927  0.00  0.00     0.003 A 
ATOM     30  C   UNL d   1       0.651   9.107  -1.766  0.00  0.00     0.000 A 
ATOM     31  C   UNL d   1       1.170   8.052  -1.018  0.00  0.00     0.003 A 
ATOM     32  C   UNL d   1       0.307   7.122  -0.439  0.00  0.00     0.037 A 
ENDBRANCH  26  27
ENDBRANCH   6  26
TORSDOF 5
