REMARK  8 active torsions:
REMARK  status: ('A' for Active; 'I' for Inactive)
REMARK    1  A    between atoms: N_7  and  C_1 
REMARK    2  A    between atoms: N_3  and  C_18 
REMARK    3  A    between atoms: C_19  and  C_6 
REMARK       I    between atoms: C_17  and  N_7 
REMARK    4  A    between atoms: S_25  and  C_8 
REMARK    5  A    between atoms: C_16  and  C_31 
REMARK    6  A    between atoms: C_24  and  C_17 
REMARK    7  A    between atoms: C_31  and  S_25 
REMARK    8  A    between atoms: C_27  and  C_28 
ROOT
ATOM      1  C   UNL d   1      -0.001   1.139   0.164  0.00  0.00     0.168 A 
ATOM      2  S   UNL d   1       1.156  -0.100   0.348  0.00  0.00    -0.026 SA
ATOM      3  C   UNL d   1      -0.105  -1.223   0.076  0.00  0.00     0.130 A 
ATOM      4  N   UNL d   1      -1.232   0.706  -0.007  0.00  0.00    -0.278 N 
ATOM      5  HN  UNL d   1      -2.046   1.317  -0.083  1.00  0.00     0.189 HD
ATOM      6  N   UNL d   1      -1.293  -0.675  -0.072  0.00  0.00    -0.286 N 
ATOM      7  HN  UNL d   1      -2.153  -1.205  -0.216  1.00  0.00     0.188 HD
ENDROOT
BRANCH   3   8
ATOM      8  S   UNL d   1       0.163  -2.947   0.017  0.00  0.00    -0.095 SA
BRANCH   8   9
ATOM      9  C   UNL d   1      -1.134  -3.470  -1.139  0.00  0.00     0.167 C 
BRANCH   9  10
ATOM     10  C   UNL d   1      -0.906  -2.987  -2.521  0.00  0.00     0.150 A 
ATOM     11  O   UNL d   1      -1.550  -1.840  -2.909  0.00  0.00    -0.277 OA
ATOM     12  C   UNL d   1      -1.141  -1.714  -4.210  0.00  0.00     0.174 A 
ATOM     13  N   UNL d   1      -0.342  -2.695  -4.583  0.00  0.00    -0.277 N 
ATOM     14  N   UNL d   1      -0.191  -3.520  -3.489  0.00  0.00    -0.281 N 
ATOM     15  HN  UNL d   1       0.082  -2.818  -5.502  1.00  0.00     0.189 HD
ATOM     16  HN  UNL d   1       0.365  -4.375  -3.439  1.00  0.00     0.189 HD
BRANCH  12  17
ATOM     17  C   UNL d   1      -1.625  -0.565  -4.967  0.00  0.00     0.017 A 
ATOM     18  C   UNL d   1      -2.473   0.403  -4.402  0.00  0.00     0.025 A 
ATOM     19  C   UNL d   1      -2.926   1.526  -5.135  0.00  0.00    -0.028 A 
ATOM     20  C   UNL d   1      -3.817   2.506  -4.419  0.00  0.00     0.050 C 
ATOM     21  C   UNL d   1      -2.510   1.659  -6.478  0.00  0.00     0.108 A 
ATOM     22  C   UNL d   1      -1.667   0.689  -7.051  0.00  0.00     0.037 A 
ATOM     23  C   UNL d   1      -1.232  -0.406  -6.301  0.00  0.00     0.018 A 
BRANCH  21  24
ATOM     24  N   UNL d   1      -2.914   2.793  -7.342  0.00  0.00    -0.115 N 
ATOM     25  O   UNL d   1      -3.662   3.663  -6.875  0.00  0.00    -0.532 OA
ATOM     26  O   UNL d   1      -2.477   2.814  -8.499  0.00  0.00    -0.532 OA
ENDBRANCH  21  24
ENDBRANCH  12  17
ENDBRANCH   9  10
ENDBRANCH   8   9
ENDBRANCH   3   8
BRANCH   1  27
ATOM     27  N   UNL d   1       0.309   2.478   0.243  0.00  0.00    -0.302 N 
ATOM     28  C   UNL d   1       1.576   3.018   0.186  0.00  0.00     0.257 C 
ATOM     29  O   UNL d   1       2.617   2.407  -0.026  0.00  0.00    -0.267 OA
ATOM     30  H   UNL d   1      -0.496   3.085   0.191  0.00  0.00     0.171 HD
BRANCH  28  31
ATOM     31  C   UNL d   1       1.651   4.502   0.336  0.00  0.00     0.032 A 
ATOM     32  C   UNL d   1       0.752   5.231   1.120  0.00  0.00     0.017 A 
ATOM     33  C   UNL d   1       0.893   6.622   1.246  0.00  0.00     0.009 A 
ATOM     34  C   UNL d   1       1.933   7.324   0.604  0.00  0.00    -0.051 A 
ATOM     35  C   UNL d   1       2.829   6.568  -0.170  0.00  0.00     0.009 A 
ATOM     36  C   UNL d   1       2.695   5.180  -0.300  0.00  0.00     0.017 A 
BRANCH  34  37
ATOM     37  C   UNL d   1       2.065   8.854   0.759  0.00  0.00    -0.024 C 
ATOM     38  C   UNL d   1       3.287   9.440   0.014  0.00  0.00     0.019 C 
ATOM     39  C   UNL d   1       0.806   9.550   0.199  0.00  0.00     0.019 C 
ATOM     40  C   UNL d   1       2.217   9.238   2.247  0.00  0.00     0.019 C 
ENDBRANCH  34  37
ENDBRANCH  28  31
ENDBRANCH   1  27
TORSDOF 8
