REMARK  4 active torsions:
REMARK  status: ('A' for Active; 'I' for Inactive)
REMARK    1  A    between atoms: C_4  and  C_1 
REMARK    2  A    between atoms: N_6  and  N_2 
REMARK    3  A    between atoms: O_17  and  C_4 
REMARK    4  A    between atoms: C_7  and  N_6 
ROOT
ATOM      1  C   UNL d   1       0.648  -1.183  -0.146  0.00  0.00     0.141 C 
ATOM      2  N   UNL d   1       2.455   0.038   0.862  0.00  0.00    -0.324 N 
ATOM      3  HN  UNL d   1       2.851  -0.867   1.117  1.00  0.00     0.180 HD
ATOM      4  C   UNL d   1       1.319   0.125   0.235  0.00  0.00     0.014 C 
ATOM      5  S   UNL d   1      -0.170   0.065  -2.523  0.00  0.00    -0.168 SA
ATOM      6  C   UNL d   1       0.677  -1.309  -1.667  0.00  0.00     0.094 C 
ATOM      7  C   UNL d   1       0.678   1.413  -0.254  0.00  0.00     0.064 C 
ATOM      8  C   UNL d   1       0.735   1.460  -1.772  0.00  0.00     0.079 C 
ENDROOT
BRANCH   2   9
ATOM      9  N   UNL d   1       3.097   1.200   1.164  0.00  0.00    -0.204 NA
ATOM     10  H   UNL d   1       2.712   1.709   1.966  0.00  0.00     0.153 HD
BRANCH   9  11
ATOM     11  C   UNL d   1       4.509   1.087   1.316  0.00  0.00     0.049 A 
ATOM     12  C   UNL d   1       5.230   1.966   2.146  0.00  0.00     0.058 A 
ATOM     13  C   UNL d   1       6.623   1.886   2.248  0.00  0.00     0.049 A 
ATOM     14 CL   UNL d   1       4.408   3.158   3.093  0.00  0.00    -0.082 Cl
ATOM     15  C   UNL d   1       7.312   0.940   1.494  0.00  0.00     0.035 A 
ATOM     16  C   UNL d   1       6.627   0.085   0.635  0.00  0.00     0.026 A 
ATOM     17 CL   UNL d   1       9.024   0.828   1.617  0.00  0.00    -0.084 Cl
ATOM     18  C   UNL d   1       5.236   0.168   0.541  0.00  0.00     0.028 A 
ENDBRANCH   9  11
ENDBRANCH   2   9
BRANCH   1  19
ATOM     19  C   UNL d   1      -0.735  -1.349   0.436  0.00  0.00     0.269 C 
ATOM     20  O   UNL d   1      -1.248  -0.592   1.249  0.00  0.00    -0.264 OA
BRANCH  19  21
ATOM     21  O   UNL d   1      -1.310  -2.498  -0.019  0.00  0.00    -0.326 OA
ATOM     22  C   UNL d   1      -2.640  -2.718   0.454  0.00  0.00     0.213 C 
ENDBRANCH  19  21
ENDBRANCH   1  19
TORSDOF 4
