REMARK  8 active torsions:
REMARK  status: ('A' for Active; 'I' for Inactive)
REMARK    1  A    between atoms: C_7  and  C_1 
REMARK    2  A    between atoms: C_9  and  C_2 
REMARK    3  A    between atoms: S_3  and  N_10 
REMARK    4  A    between atoms: C_11  and  S_3 
REMARK    5  A    between atoms: C_12  and  N_4 
REMARK    6  A    between atoms: O_24  and  C_9 
REMARK    7  A    between atoms: N_10  and  C_21 
REMARK    8  A    between atoms: C_31  and  O_24 
ROOT
ATOM      1  C   UNL d   1       1.972   1.540  -0.066  0.00  0.00     0.057 A 
ATOM      2  C   UNL d   1       4.189   3.224  -0.252  0.00  0.00     0.042 A 
ATOM      3  C   UNL d   1       2.693   1.627  -1.261  0.00  0.00     0.034 A 
ATOM      4  C   UNL d   1       2.284   2.407   0.992  0.00  0.00     0.034 A 
ATOM      5  C   UNL d   1       3.409   3.238   0.904  0.00  0.00     0.032 A 
ATOM      6  C   UNL d   1       3.800   2.466  -1.351  0.00  0.00     0.032 A 
ENDROOT
BRANCH   1   7
ATOM      7  N   UNL d   1       0.938   0.576   0.093  0.00  0.00    -0.251 N 
ATOM      8  C   UNL d   1       0.842  -0.707  -0.417  0.00  0.00     0.158 C 
ATOM      9  C   UNL d   1      -0.459  -1.129  -0.171  0.00  0.00     0.089 C 
ATOM     10  C   UNL d   1      -1.007  -0.103   0.621  0.00  0.00     0.127 C 
ATOM     11  N   UNL d   1      -0.143   0.883   0.855  0.00  0.00    -0.303 N 
ATOM     12  HN  UNL d   1      -0.266   1.688   1.469  1.00  0.00     0.186 HD
BRANCH   8  13
ATOM     13  C   UNL d   1       1.997  -1.411  -1.006  0.00  0.00     0.435 C 
ATOM     14  F   UNL d   1       1.870  -2.759  -1.003  0.00  0.00    -0.165 F 
ATOM     15  F   UNL d   1       2.216  -1.048  -2.293  0.00  0.00    -0.165 F 
ATOM     16  F   UNL d   1       3.143  -1.160  -0.320  0.00  0.00    -0.165 F 
ENDBRANCH   8  13
BRANCH   9  17
ATOM     17  C   UNL d   1      -1.095  -2.346  -0.635  0.00  0.00     0.297 C 
ATOM     18  O   UNL d   1      -0.551  -3.145  -1.381  0.00  0.00    -0.259 OA
BRANCH  17  19
ATOM     19  O   UNL d   1      -2.399  -2.427  -0.243  0.00  0.00    -0.318 OA
BRANCH  19  20
ATOM     20  C   UNL d   1      -3.188  -3.363  -0.993  0.00  0.00     0.174 C 
ATOM     21  C   UNL d   1      -3.668  -2.675  -2.260  0.00  0.00     0.034 C 
ENDBRANCH  19  20
ENDBRANCH  17  19
ENDBRANCH   9  17
ENDBRANCH   1   7
BRANCH   2  22
ATOM     22  N   UNL d   1       5.398   3.947  -0.342  0.00  0.00    -0.281 N 
ATOM     23  H   UNL d   1       5.396   4.959  -0.448  0.00  0.00     0.179 HD
BRANCH  22  24
ATOM     24  S   UNL d   1       6.818   3.272   0.246  0.00  0.00     0.263 S 
ATOM     25  O   UNL d   1       7.851   4.260   0.038  0.00  0.00    -0.200 OA
ATOM     26  O   UNL d   1       6.573   2.717   1.566  0.00  0.00    -0.200 OA
BRANCH  24  27
ATOM     27  C   UNL d   1       7.132   1.925  -0.876  0.00  0.00     0.080 A 
ATOM     28  C   UNL d   1       7.878   2.141  -2.040  0.00  0.00     0.027 A 
ATOM     29  C   UNL d   1       8.139   1.070  -2.900  0.00  0.00     0.025 A 
ATOM     30  C   UNL d   1       7.665  -0.205  -2.589  0.00  0.00     0.034 A 
ATOM     31  C   UNL d   1       6.937  -0.426  -1.420  0.00  0.00     0.025 A 
ATOM     32 CL   UNL d   1       7.988  -1.519  -3.653  0.00  0.00    -0.084 Cl
ATOM     33  C   UNL d   1       6.676   0.638  -0.554  0.00  0.00     0.027 A 
ENDBRANCH  24  27
ENDBRANCH  22  24
ENDBRANCH   2  22
TORSDOF 8
