REMARK  4 active torsions:
REMARK  status: ('A' for Active; 'I' for Inactive)
REMARK    1  A    between atoms: C_5  and  N_1 
REMARK    2  A    between atoms: C_6  and  N_2 
REMARK    3  A    between atoms: C_7  and  C_5 
REMARK    4  A    between atoms: C_12  and  C_6 
ROOT
ATOM      1  N   UNL d   1      -1.489   0.059   0.339  0.00  0.00     0.096 N 
ATOM      2  N   UNL d   1       1.471  -0.054  -0.341  0.00  0.00     0.096 N 
ATOM      3  C   UNL d   1      -0.807  -1.155  -0.165  0.00  0.00     0.303 C 
ATOM      4  C   UNL d   1       0.702  -1.213   0.159  0.00  0.00     0.303 C 
ATOM      5  C   UNL d   1       0.807   1.190   0.109  0.00  0.00     0.303 C 
ATOM      6  C   UNL d   1      -0.730   1.247  -0.120  0.00  0.00     0.303 C 
ENDROOT
BRANCH   1   7
ATOM      7  C   UNL d   1      -1.625   0.073   1.807  0.00  0.00     0.312 C 
BRANCH   7   8
ATOM      8  C   UNL d   1      -2.388  -1.099   2.375  0.00  0.00    -0.015 A 
ATOM      9  C   UNL d   1      -1.775  -1.986   3.258  0.00  0.00     0.096 A 
ATOM     10  N   UNL d   1      -2.387  -3.054   3.815  0.00  0.00    -0.375 N 
ATOM     11  C   UNL d   1      -3.679  -3.254   3.476  0.00  0.00     0.087 A 
ATOM     12  HN  UNL d   1      -1.899  -3.677   4.458  1.00  0.00     0.164 HD
ATOM     13  C   UNL d   1      -4.382  -2.437   2.606  0.00  0.00     0.018 A 
ATOM     14  C   UNL d   1      -3.724  -1.344   2.048  0.00  0.00     0.011 A 
ENDBRANCH   7   8
ENDBRANCH   1   7
BRANCH   2  15
ATOM     15  C   UNL d   1       1.621  -0.059  -1.810  0.00  0.00     0.311 C 
BRANCH  15  16
ATOM     16  C   UNL d   1       2.308  -1.295  -2.354  0.00  0.00    -0.030 A 
ATOM     17  C   UNL d   1       1.616  -2.181  -3.194  0.00  0.00     0.009 A 
ATOM     18  C   UNL d   1       2.237  -3.335  -3.674  0.00  0.00     0.001 A 
ATOM     19  C   UNL d   1       3.558  -3.614  -3.325  0.00  0.00     0.000 A 
ATOM     20  C   UNL d   1       4.257  -2.740  -2.493  0.00  0.00     0.001 A 
ATOM     21  C   UNL d   1       3.636  -1.587  -2.010  0.00  0.00     0.009 A 
ENDBRANCH  15  16
ENDBRANCH   2  15
TORSDOF 4
