REMARK  5 active torsions:
REMARK  status: ('A' for Active; 'I' for Inactive)
REMARK    1  A    between atoms: C_2  and  C_1 
REMARK    2  A    between atoms: N_6  and  C_3 
REMARK       I    between atoms: C_8  and  N_6 
REMARK       I    between atoms: N_14  and  C_8 
REMARK    3  A    between atoms: C_9  and  O_16 
REMARK    4  A    between atoms: C_21  and  N_14 
REMARK    5  A    between atoms: O_16  and  C_22 
ROOT
ATOM      1  N   UNL d   1      -4.241  -0.355  -2.299  0.00  0.00    -0.302 N 
ATOM      2  C   UNL d   1      -3.209   0.352  -2.854  0.00  0.00     0.325 C 
ATOM      3  N   UNL d   1      -1.958   0.295  -2.292  0.00  0.00    -0.309 N 
ATOM      4  O   UNL d   1      -3.463   0.976  -3.890  0.00  0.00    -0.247 OA
ATOM      5  H   UNL d   1      -5.066  -0.338  -2.895  0.00  0.00     0.171 HD
ATOM      6  H   UNL d   1      -1.736  -0.585  -1.845  0.00  0.00     0.170 HD
ENDROOT
BRANCH   1   7
ATOM      7  C   UNL d   1      -4.463  -0.834  -1.022  0.00  0.00     0.090 A 
ATOM      8  C   UNL d   1      -5.636  -1.375  -0.503  0.00  0.00     0.032 A 
ATOM      9  C   UNL d   1      -5.495  -1.659   0.899  0.00  0.00     0.024 A 
ATOM     10  C   UNL d   1      -4.246  -1.355   1.385  0.00  0.00     0.053 A 
ATOM     11  S   UNL d   1      -3.239  -0.739   0.164  0.00  0.00    -0.083 SA
BRANCH   8  12
ATOM     12  C   UNL d   1      -6.940  -1.625  -1.258  0.00  0.00     0.088 A 
ATOM     13  N   UNL d   1      -7.133  -1.372  -2.536  0.00  0.00    -0.349 N 
ATOM     14  C   UNL d   1      -8.441  -1.739  -2.908  0.00  0.00     0.050 A 
ATOM     15  HN  UNL d   1      -6.438  -0.969  -3.164  1.00  0.00     0.166 HD
ATOM     16  C   UNL d   1      -9.028  -1.635  -4.188  0.00  0.00     0.031 A 
ATOM     17  C   UNL d   1      -9.224  -2.266  -1.880  0.00  0.00     0.033 A 
ATOM     18  C   UNL d   1     -10.352  -2.056  -4.396  0.00  0.00     0.002 A 
ATOM     19  C   UNL d   1     -11.105  -2.576  -3.349  0.00  0.00     0.002 A 
ATOM     20  C   UNL d   1     -10.552  -2.688  -2.073  0.00  0.00     0.021 A 
ATOM     21  S   UNL d   1      -8.309  -2.292  -0.438  0.00  0.00    -0.069 SA
ENDBRANCH   8  12
ENDBRANCH   1   7
BRANCH   3  22
ATOM     22  C   UNL d   1      -0.875   1.091  -2.748  0.00  0.00     0.036 C 
ATOM     23  C   UNL d   1      -1.069   2.422  -3.132  0.00  0.00     0.032 C 
ATOM     24  C   UNL d   1      -0.028   3.177  -3.688  0.00  0.00     0.039 C 
ATOM     25  C   UNL d   1       1.211   2.588  -3.915  0.00  0.00     0.078 C 
ATOM     26  C   UNL d   1       1.443   1.299  -3.425  0.00  0.00     0.039 C 
ATOM     27  C   UNL d   1       0.411   0.554  -2.827  0.00  0.00     0.032 C 
BRANCH  25  28
ATOM     28  O   UNL d   1       2.260   3.169  -4.563  0.00  0.00    -0.255 OA
BRANCH  28  29
ATOM     29  C   UNL d   1       1.994   4.137  -5.573  0.00  0.00     0.530 C 
ATOM     30  F   UNL d   1       0.718   4.146  -6.014  0.00  0.00    -0.144 F 
ATOM     31  F   UNL d   1       2.306   5.368  -5.112  0.00  0.00    -0.144 F 
ATOM     32  F   UNL d   1       2.789   3.877  -6.638  0.00  0.00    -0.144 F 
ENDBRANCH  28  29
ENDBRANCH  25  28
ENDBRANCH   3  22
TORSDOF 5
