REMARK  4 active torsions:
REMARK  status: ('A' for Active; 'I' for Inactive)
REMARK    1  A    between atoms: C_3  and  N_1 
REMARK    2  A    between atoms: C_12  and  C_4 
REMARK    3  A    between atoms: C_9  and  C_6 
REMARK    4  A    between atoms: O_17  and  C_9 
ROOT
ATOM      1  N   UNL d   1      -0.363  -1.111   0.184  0.00  0.00    -0.241 N 
ATOM      2  N   UNL d   1       0.900  -0.652   0.376  0.00  0.00    -0.014 NA
ATOM      3  C   UNL d   1      -0.377   1.083   0.048  0.00  0.00     0.115 A 
ATOM      4  C   UNL d   1      -1.217  -0.023   0.043  0.00  0.00     0.060 A 
ATOM      5  N   UNL d   1       0.906   0.663   0.257  0.00  0.00    -0.278 N 
ATOM      6  HN  UNL d   1       1.728   1.264   0.311  1.00  0.00     0.184 HD
ATOM      7  C   UNL d   1      -2.697  -0.112  -0.002  0.00  0.00     0.072 C 
ENDROOT
BRANCH   1   8
ATOM      8  C   UNL d   1      -0.652  -2.510   0.073  0.00  0.00     0.078 A 
ATOM      9  C   UNL d   1       0.098  -3.516   0.672  0.00  0.00     0.108 A 
ATOM     10  S   UNL d   1      -0.437  -5.075   0.179  0.00  0.00    -0.094 SA
ATOM     11  C   UNL d   1      -1.704  -4.424  -0.755  0.00  0.00     0.053 A 
ATOM     12  C   UNL d   1      -1.711  -3.049  -0.729  0.00  0.00     0.040 A 
BRANCH   9  13
ATOM     13  C   UNL d   1       1.166  -3.460   1.652  0.00  0.00     0.302 C 
ATOM     14  O   UNL d   1       2.100  -4.248   1.750  0.00  0.00    -0.259 OA
BRANCH  13  15
ATOM     15  O   UNL d   1       0.920  -2.450   2.537  0.00  0.00    -0.322 OA
ATOM     16  C   UNL d   1       1.906  -2.297   3.556  0.00  0.00     0.213 C 
ENDBRANCH  13  15
ENDBRANCH   9  13
ENDBRANCH   1   8
BRANCH   3  17
ATOM     17  C   UNL d   1      -0.729   2.491  -0.108  0.00  0.00     0.175 C 
ATOM     18  O   UNL d   1      -1.891   2.853  -0.304  0.00  0.00    -0.291 OA
ATOM     19  C   UNL d   1       0.364   3.525  -0.003  0.00  0.00     0.098 C 
ENDBRANCH   3  17
TORSDOF 4
