REMARK  2 active torsions:
REMARK  status: ('A' for Active; 'I' for Inactive)
REMARK    1  A    between atoms: C_7  and  C_1 
REMARK    2  A    between atoms: C_12  and  C_7 
ROOT
ATOM      1  C   UNL d   1       2.430  -0.368   0.025  0.00  0.00     0.010 C 
ATOM      2  C   UNL d   1       1.216  -1.205   0.305  0.00  0.00     0.191 C 
ATOM      3  C   UNL d   1       2.389   0.983   0.015  0.00  0.00    -0.010 C 
ATOM      4  S   UNL d   1       0.975   1.920   0.423  0.00  0.00    -0.094 SA
ATOM      5  C   UNL d   1      -0.137  -0.617   0.168  0.00  0.00     0.032 A 
ATOM      6  C   UNL d   1      -0.331   0.759   0.180  0.00  0.00     0.019 A 
ATOM      7  O   UNL d   1       1.323  -2.397   0.587  0.00  0.00    -0.287 OA
ATOM      8  C   UNL d   1       3.576   1.863  -0.309  0.00  0.00     0.057 C 
ATOM      9  C   UNL d   1      -1.236  -1.480   0.029  0.00  0.00     0.017 A 
ATOM     10  C   UNL d   1      -1.634   1.267   0.047  0.00  0.00     0.020 A 
ATOM     11  C   UNL d   1      -2.526  -0.966  -0.108  0.00  0.00     0.001 A 
ATOM     12  C   UNL d   1      -2.726   0.410  -0.102  0.00  0.00     0.001 A 
ENDROOT
BRANCH   1  13
ATOM     13  C   UNL d   1       3.700  -1.189  -0.167  0.00  0.00     0.082 C 
BRANCH  13  14
ATOM     14  C   UNL d   1       3.938  -1.611  -1.603  0.00  0.00    -0.052 A 
ATOM     15  C   UNL d   1       4.830  -0.901  -2.422  0.00  0.00     0.033 A 
ATOM     16  C   UNL d   1       4.987  -1.232  -3.772  0.00  0.00     0.056 A 
ATOM     17 CL   UNL d   1       6.066  -0.263  -4.712  0.00  0.00    -0.083 Cl
ATOM     18  C   UNL d   1       4.272  -2.303  -4.313  0.00  0.00     0.055 A 
ATOM     19  C   UNL d   1       3.418  -3.047  -3.495  0.00  0.00     0.026 A 
ATOM     20 CL   UNL d   1       4.395  -2.753  -5.976  0.00  0.00    -0.083 Cl
ATOM     21  C   UNL d   1       3.251  -2.701  -2.150  0.00  0.00     0.009 A 
ENDBRANCH  13  14
ENDBRANCH   1  13
TORSDOF 2
