REMARK  6 active torsions:
REMARK  status: ('A' for Active; 'I' for Inactive)
REMARK    1  A    between atoms: C_2  and  C_1 
REMARK       I    between atoms: N_6  and  C_2 
REMARK    2  A    between atoms: N_4  and  C_3 
REMARK       I    between atoms: C_5  and  N_4 
REMARK    3  A    between atoms: C_8  and  C_5 
REMARK    4  A    between atoms: C_14  and  N_6 
REMARK    5  A    between atoms: S_10  and  C_8 
REMARK    6  A    between atoms: C_11  and  S_10 
ROOT
ATOM      1  C   UNL d   1       1.491  -0.360  -0.132  0.00  0.00     0.058 A 
ATOM      2  C   UNL d   1       0.650  -1.492  -0.104  0.00  0.00     0.052 A 
ATOM      3  C   UNL d   1       0.898   0.916  -0.206  0.00  0.00     0.019 A 
ATOM      4  C   UNL d   1      -0.745  -1.330  -0.092  0.00  0.00     0.031 A 
ATOM      5  C   UNL d   1      -0.492   1.062  -0.238  0.00  0.00     0.001 A 
ATOM      6  C   UNL d   1      -1.312  -0.059  -0.161  0.00  0.00     0.002 A 
ENDROOT
BRANCH   2   7
ATOM      7  N   UNL d   1       1.155  -2.823  -0.118  0.00  0.00    -0.321 N 
ATOM      8  C   UNL d   1       1.750  -3.296  -1.288  0.00  0.00     0.233 C 
ATOM      9  O   UNL d   1       1.862  -2.599  -2.305  0.00  0.00    -0.272 OA
ATOM     10  C   UNL d   1       0.952  -3.594   1.103  0.00  0.00     0.159 C 
BRANCH   8  11
ATOM     11  C   UNL d   1       2.266  -4.732  -1.315  0.00  0.00     0.182 C 
BRANCH  11  12
ATOM     12  S   UNL d   1       0.870  -5.917  -1.307  0.00  0.00    -0.121 SA
BRANCH  12  13
ATOM     13  C   UNL d   1       1.703  -7.490  -1.448  0.00  0.00     0.001 A 
ATOM     14  C   UNL d   1       1.275  -8.549  -0.634  0.00  0.00     0.020 A 
ATOM     15  C   UNL d   1       1.806  -9.833  -0.794  0.00  0.00     0.025 A 
ATOM     16  C   UNL d   1       2.768 -10.065  -1.773  0.00  0.00     0.034 A 
ATOM     17  C   UNL d   1       3.213  -9.020  -2.580  0.00  0.00     0.025 A 
ATOM     18 CL   UNL d   1       3.387 -11.652  -2.008  0.00  0.00    -0.084 Cl
ATOM     19  C   UNL d   1       2.679  -7.737  -2.419  0.00  0.00     0.020 A 
ENDBRANCH  12  13
ENDBRANCH  11  12
ENDBRANCH   8  11
ENDBRANCH   2   7
BRANCH   1  20
ATOM     20  C   UNL d   1       2.964  -0.480   0.147  0.00  0.00     0.254 C 
ATOM     21  N   UNL d   1       3.749   0.584  -0.239  0.00  0.00    -0.352 N 
ATOM     22  H   UNL d   1       3.359   1.246  -0.897  0.00  0.00     0.163 HD
ATOM     23  O   UNL d   1       3.402  -1.443   0.767  0.00  0.00    -0.268 OA
BRANCH  21  24
ATOM     24  C   UNL d   1       5.080   0.899   0.279  0.00  0.00     0.084 C 
ATOM     25  C   UNL d   1       6.183  -0.083  -0.140  0.00  0.00     0.025 C 
ATOM     26  C   UNL d   1       6.571  -1.142   0.892  0.00  0.00     0.002 C 
ATOM     27  C   UNL d   1       6.696  -0.573   2.298  0.00  0.00     0.000 C 
ATOM     28  C   UNL d   1       5.406   0.113   2.720  0.00  0.00     0.002 C 
ATOM     29  C   UNL d   1       5.061   1.259   1.776  0.00  0.00     0.025 C 
ENDBRANCH  21  24
ENDBRANCH   1  20
TORSDOF 6
