REMARK  3 active torsions:
REMARK  status: ('A' for Active; 'I' for Inactive)
REMARK    1  A    between atoms: C_10  and  C_5 
REMARK    2  A    between atoms: S_13  and  C_8 
REMARK    3  A    between atoms: N_14  and  C_9 
ROOT
ATOM      1  N   UNL d   1       1.768  -0.025  -0.048  0.00  0.00    -0.322 N 
ATOM      2  HN  UNL d   1       2.786  -0.011  -0.108  1.00  0.00     0.169 HD
ATOM      3  N   UNL d   1      -0.288   1.114   0.093  0.00  0.00    -0.318 N 
ATOM      4  HN  UNL d   1      -0.815   1.986   0.130  1.00  0.00     0.170 HD
ATOM      5  C   UNL d   1       1.043   1.088   0.019  0.00  0.00     0.121 A 
ATOM      6  N   UNL d   1      -0.255  -1.235   0.037  0.00  0.00    -0.313 N 
ATOM      7  HN  UNL d   1      -0.754  -2.125   0.029  1.00  0.00     0.170 HD
ATOM      8  C   UNL d   1       1.071  -1.155  -0.032  0.00  0.00     0.147 A 
ATOM      9  C   UNL d   1      -0.877  -0.070   0.115  0.00  0.00     0.158 A 
ENDROOT
BRANCH   5  10
ATOM     10  C   UNL d   1       1.762   2.369   0.016  0.00  0.00     0.024 A 
ATOM     11  C   UNL d   1       1.095   3.592   0.106  0.00  0.00     0.102 A 
ATOM     12  N   UNL d   1       1.693   4.813   0.114  0.00  0.00    -0.374 N 
ATOM     13  C   UNL d   1       3.039   4.827   0.030  0.00  0.00     0.087 A 
ATOM     14  HN  UNL d   1       1.152   5.674   0.179  1.00  0.00     0.164 HD
ATOM     15  C   UNL d   1       3.810   3.684  -0.064  0.00  0.00     0.018 A 
ATOM     16  C   UNL d   1       3.161   2.449  -0.071  0.00  0.00     0.018 A 
ENDBRANCH   5  10
BRANCH   9  17
ATOM     17  N   UNL d   1      -2.253  -0.083   0.206  0.00  0.00    -0.274 NA
ATOM     18  H   UNL d   1      -2.645  -0.932  -0.171  0.00  0.00     0.127 HD
ATOM     19  H   UNL d   1      -2.647   0.794  -0.107  0.00  0.00     0.127 HD
ENDBRANCH   9  17
BRANCH   8  20
ATOM     20  S   UNL d   1       2.042  -2.644  -0.111  0.00  0.00    -0.098 SA
ATOM     21  C   UNL d   1       0.749  -3.904  -0.024  0.00  0.00     0.099 C 
ENDBRANCH   8  20
TORSDOF 3
