REMARK  6 active torsions:
REMARK  status: ('A' for Active; 'I' for Inactive)
REMARK    1  A    between atoms: C_11  and  N_7 
REMARK    2  A    between atoms: O_18  and  C_10 
REMARK    3  A    between atoms: C_16  and  C_11 
REMARK    4  A    between atoms: C_28  and  O_18 
REMARK    5  A    between atoms: C_27  and  C_21 
REMARK    6  A    between atoms: C_23  and  C_28 
ROOT
ATOM      1  C   UNL d   1      -0.262  -0.815   0.025  0.00  0.00     0.147 A 
ATOM      2  C   UNL d   1      -0.523   0.521   0.034  0.00  0.00     0.151 A 
ATOM      3  N   UNL d   1      -1.397  -1.558   0.035  0.00  0.00    -0.306 N 
ATOM      4  HN  UNL d   1      -1.477  -2.575   0.041  1.00  0.00     0.171 HD
ATOM      5  N   UNL d   1       1.020  -1.310   0.011  0.00  0.00    -0.287 N 
ATOM      6  N   UNL d   1       1.797   0.949   0.016  0.00  0.00    -0.269 N 
ATOM      7  N   UNL d   1      -1.893   0.617   0.040  0.00  0.00    -0.301 N 
ATOM      8  C   UNL d   1       2.101  -0.425   0.007  0.00  0.00     0.332 A 
ATOM      9  C   UNL d   1       0.508   1.504   0.027  0.00  0.00     0.282 A 
ATOM     10  C   UNL d   1      -2.372  -0.676   0.036  0.00  0.00     0.228 A 
ATOM     11  O   UNL d   1       3.260  -0.841  -0.004  0.00  0.00    -0.246 OA
ATOM     12  O   UNL d   1       0.284   2.715   0.029  0.00  0.00    -0.265 OA
ATOM     13  C   UNL d   1       1.285  -2.735  -0.004  0.00  0.00     0.163 C 
ATOM     14  C   UNL d   1       2.902   1.887   0.012  0.00  0.00     0.164 C 
ENDROOT
BRANCH  10  15
ATOM     15  O   UNL d   1      -3.670  -0.980   0.049  0.00  0.00    -0.318 OA
BRANCH  15  16
ATOM     16  C   UNL d   1      -3.928  -2.305   0.528  0.00  0.00     0.206 C 
BRANCH  16  17
ATOM     17  C   UNL d   1      -5.395  -2.601   0.409  0.00  0.00     0.000 C 
ATOM     18  C   UNL d   1      -6.189  -2.873   1.459  0.00  0.00     0.009 C 
BRANCH  18  19
ATOM     19  C   UNL d   1      -7.613  -3.238   1.373  0.00  0.00    -0.036 A 
ATOM     20  C   UNL d   1      -8.141  -3.980   0.308  0.00  0.00     0.011 A 
ATOM     21  C   UNL d   1      -9.493  -4.336   0.286  0.00  0.00     0.001 A 
ATOM     22  C   UNL d   1     -10.331  -3.966   1.336  0.00  0.00     0.000 A 
ATOM     23  C   UNL d   1      -9.815  -3.249   2.413  0.00  0.00     0.001 A 
ATOM     24  C   UNL d   1      -8.463  -2.893   2.434  0.00  0.00     0.011 A 
ENDBRANCH  18  19
ENDBRANCH  16  17
ENDBRANCH  15  16
ENDBRANCH  10  15
BRANCH   7  25
ATOM     25  C   UNL d   1      -2.697   1.825  -0.017  0.00  0.00     0.171 C 
BRANCH  25  26
ATOM     26  C   UNL d   1      -3.070   2.361   1.349  0.00  0.00    -0.038 A 
ATOM     27  C   UNL d   1      -3.928   1.643   2.199  0.00  0.00     0.034 A 
ATOM     28  C   UNL d   1      -4.354   2.181   3.420  0.00  0.00     0.056 A 
ATOM     29 CL   UNL d   1      -5.420   1.223   4.387  0.00  0.00    -0.083 Cl
ATOM     30  C   UNL d   1      -3.932   3.455   3.804  0.00  0.00     0.055 A 
ATOM     31  C   UNL d   1      -3.066   4.174   2.976  0.00  0.00     0.026 A 
ATOM     32 CL   UNL d   1      -4.456   4.204   5.270  0.00  0.00    -0.083 Cl
ATOM     33  C   UNL d   1      -2.635   3.629   1.760  0.00  0.00     0.010 A 
ENDBRANCH  25  26
ENDBRANCH   7  25
TORSDOF 6
