REMARK  3 active torsions:
REMARK  status: ('A' for Active; 'I' for Inactive)
REMARK    1  A    between atoms: C_4  and  C_1 
REMARK    2  A    between atoms: C_10  and  N_2 
REMARK       I    between atoms: N_8  and  C_4 
REMARK    3  A    between atoms: C_11  and  N_8 
ROOT
ATOM      1  C   UNL d   1      -0.093   1.283   0.030  0.00  0.00     0.073 A 
ATOM      2  N   UNL d   1       0.900  -0.716   0.126  0.00  0.00    -0.260 N 
ATOM      3  C   UNL d   1       1.068   0.633   0.456  0.00  0.00     0.048 A 
ATOM      4  N   UNL d   1      -0.346  -0.961  -0.345  0.00  0.00    -0.304 N 
ATOM      5  HN  UNL d   1      -0.758  -1.865  -0.576  1.00  0.00     0.186 HD
ATOM      6  C   UNL d   1      -0.911   0.235  -0.439  0.00  0.00     0.126 A 
ATOM      7  C   UNL d   1       2.201   1.134   1.281  0.00  0.00     0.071 C 
ENDROOT
BRANCH   1   8
ATOM      8  C   UNL d   1      -0.583   2.651   0.179  0.00  0.00     0.257 C 
ATOM      9  N   UNL d   1       0.273   3.759   0.104  0.00  0.00    -0.347 N 
ATOM     10  C   UNL d   1       1.581   3.744  -0.532  0.00  0.00     0.153 C 
ATOM     11  O   UNL d   1      -1.790   2.811   0.378  0.00  0.00    -0.267 OA
BRANCH   9  12
ATOM     12  C   UNL d   1      -0.324   5.060   0.459  0.00  0.00     0.087 C 
ATOM     13  C   UNL d   1       0.645   6.068   1.093  0.00  0.00     0.025 C 
ATOM     14  C   UNL d   1      -0.138   7.271   1.624  0.00  0.00     0.002 C 
ATOM     15  C   UNL d   1      -0.997   7.930   0.543  0.00  0.00     0.000 C 
ATOM     16  C   UNL d   1      -1.854   6.933  -0.239  0.00  0.00     0.002 C 
ATOM     17  C   UNL d   1      -1.048   5.727  -0.724  0.00  0.00     0.025 C 
ENDBRANCH   9  12
ENDBRANCH   1   8
BRANCH   2  18
ATOM     18  C   UNL d   1       1.805  -1.810   0.227  0.00  0.00     0.056 A 
ATOM     19  C   UNL d   1       1.282  -3.099   0.432  0.00  0.00     0.031 A 
ATOM     20  C   UNL d   1       2.132  -4.205   0.489  0.00  0.00     0.002 A 
ATOM     21  C   UNL d   1       3.502  -4.035   0.309  0.00  0.00     0.000 A 
ATOM     22  C   UNL d   1       4.025  -2.759   0.090  0.00  0.00     0.002 A 
ATOM     23  C   UNL d   1       3.182  -1.644   0.060  0.00  0.00     0.031 A 
ENDBRANCH   2  18
TORSDOF 3
