REMARK  1 active torsions:
REMARK  status: ('A' for Active; 'I' for Inactive)
REMARK    1  A    between atoms: C_12  and  N_4 
ROOT
ATOM      1  C   UNL d   1       0.904  -0.946  -0.355  0.00  0.00     0.102 C 
ATOM      2  C   UNL d   1       0.485   0.374  -0.318  0.00  0.00     0.071 C 
ATOM      3  C   UNL d   1       2.217  -1.508  -0.135  0.00  0.00     0.268 C 
ATOM      4  N   UNL d   1       2.887  -0.756   0.824  0.00  0.00    -0.304 N 
ATOM      5  S   UNL d   1      -0.385  -2.043  -0.528  0.00  0.00    -0.064 SA
ATOM      6  C   UNL d   1      -0.978   0.472  -0.323  0.00  0.00     0.032 A 
ATOM      7  C   UNL d   1      -1.527  -0.813  -0.307  0.00  0.00     0.088 A 
ATOM      8  N   UNL d   1       1.328   1.477  -0.219  0.00  0.00    -0.324 N 
ATOM      9  N   UNL d   1      -2.814  -1.160  -0.135  0.00  0.00    -0.354 N 
ATOM     10  HN  UNL d   1      -3.125  -2.132  -0.147  1.00  0.00     0.166 HD
ATOM     11  C   UNL d   1      -1.925   1.542  -0.258  0.00  0.00    -0.045 A 
ATOM     12  C   UNL d   1       2.668   1.589   0.002  0.00  0.00     0.240 C 
ATOM     13  C   UNL d   1       3.576   0.395   0.276  0.00  0.00     0.235 C 
ATOM     14  O   UNL d   1       2.627  -2.556  -0.623  0.00  0.00    -0.266 OA
ATOM     15  C   UNL d   1      -3.275   1.189  -0.043  0.00  0.00     0.032 A 
ATOM     16  C   UNL d   1      -3.659  -0.139   0.052  0.00  0.00     0.006 A 
ATOM     17  O   UNL d   1       3.160   2.718  -0.099  0.00  0.00    -0.271 OA
ATOM     18  C   UNL d   1      -1.663   3.024  -0.355  0.00  0.00     0.049 C 
ATOM     19  C   UNL d   1      -5.077  -0.486   0.394  0.00  0.00     0.068 C 
ATOM     20  H   UNL d   1       0.910   2.388  -0.319  0.00  0.00     0.169 HD
ENDROOT
BRANCH   4  21
ATOM     21  C   UNL d   1       3.534  -1.415   1.900  0.00  0.00     0.044 A 
ATOM     22  C   UNL d   1       3.145  -1.078   3.212  0.00  0.00    -0.035 A 
ATOM     23  C   UNL d   1       2.098  -0.040   3.516  0.00  0.00     0.050 C 
ATOM     24  C   UNL d   1       3.751  -1.742   4.289  0.00  0.00     0.009 A 
ATOM     25  C   UNL d   1       4.702  -2.737   4.067  0.00  0.00     0.001 A 
ATOM     26  C   UNL d   1       5.069  -3.075   2.767  0.00  0.00     0.002 A 
ATOM     27  C   UNL d   1       4.489  -2.415   1.683  0.00  0.00     0.030 A 
ENDBRANCH   4  21
TORSDOF 1
