REMARK  3 active torsions:
REMARK  status: ('A' for Active; 'I' for Inactive)
REMARK    1  A    between atoms: C_2  and  N_1 
REMARK    2  A    between atoms: C_4  and  C_5 
REMARK       I    between atoms: N_12  and  C_4 
REMARK    3  A    between atoms: N_13  and  N_12 
ROOT
ATOM      1  C   UNL d   1       0.254  -0.931  -0.976  0.00  0.00     0.108 A 
ATOM      2  C   UNL d   1      -0.786  -0.504  -1.820  0.00  0.00    -0.028 A 
ATOM      3  C   UNL d   1      -0.869  -2.778  -2.735  0.00  0.00     0.034 A 
ATOM      4  C   UNL d   1      -1.346  -1.456  -2.692  0.00  0.00     0.026 A 
ATOM      5  C   UNL d   1       0.737  -2.248  -1.004  0.00  0.00     0.037 A 
ATOM      6  C   UNL d   1       0.171  -3.173  -1.885  0.00  0.00     0.019 A 
ATOM      7  C   UNL d   1      -1.337   0.894  -1.856  0.00  0.00     0.050 C 
ENDROOT
BRANCH   3   8
ATOM      8  C   UNL d   1      -1.520  -3.737  -3.669  0.00  0.00     0.265 C 
ATOM      9  O   UNL d   1      -2.698  -3.595  -3.988  0.00  0.00    -0.266 OA
ATOM     10  N   UNL d   1      -0.714  -4.756  -4.163  0.00  0.00    -0.290 N 
ATOM     11  H   UNL d   1       0.298  -4.699  -4.077  0.00  0.00     0.183 HD
BRANCH  10  12
ATOM     12  N   UNL d   1      -1.245  -5.635  -5.134  0.00  0.00    -0.247 NA
ATOM     13  H   UNL d   1      -2.147  -5.234  -5.434  0.00  0.00     0.143 HD
ATOM     14  H   UNL d   1      -1.513  -6.502  -4.660  0.00  0.00     0.143 HD
ENDBRANCH  10  12
ENDBRANCH   3   8
BRANCH   1  15
ATOM     15  N   UNL d   1       0.871  -0.025  -0.018  0.00  0.00    -0.115 N 
ATOM     16  O   UNL d   1       0.138   0.470   0.847  0.00  0.00    -0.532 OA
ATOM     17  O   UNL d   1       2.093   0.147  -0.120  0.00  0.00    -0.532 OA
ENDBRANCH   1  15
TORSDOF 3
