REMARK  6 active torsions:
REMARK  status: ('A' for Active; 'I' for Inactive)
REMARK    1  A    between atoms: C_3  and  C_1 
REMARK    2  A    between atoms: O_6  and  C_2 
REMARK    3  A    between atoms: C_14  and  O_6 
REMARK    4  A    between atoms: O_15  and  C_9 
REMARK    5  A    between atoms: O_16  and  C_10 
REMARK    6  A    between atoms: C_17  and  C_14 
ROOT
ATOM      1  C   UNL d   1       1.508  -0.218   0.071  0.00  0.00     0.061 A 
ATOM      2  C   UNL d   1       0.675  -1.375   0.114  0.00  0.00     0.117 A 
ATOM      3  C   UNL d   1       0.921   1.071  -0.020  0.00  0.00     0.083 A 
ATOM      4  C   UNL d   1      -0.725  -1.212   0.045  0.00  0.00     0.102 A 
ATOM      5  C   UNL d   1      -0.466   1.206  -0.074  0.00  0.00     0.040 A 
ATOM      6  C   UNL d   1      -1.271   0.076  -0.035  0.00  0.00     0.042 A 
ENDROOT
BRANCH   2   7
ATOM      7  O   UNL d   1       1.167  -2.663   0.120  0.00  0.00    -0.343 OA
BRANCH   7   8
ATOM      8  C   UNL d   1       2.108  -2.966   1.157  0.00  0.00     0.214 C 
BRANCH   8   9
ATOM      9  C   UNL d   1       1.927  -4.370   1.687  0.00  0.00    -0.034 A 
ATOM     10  C   UNL d   1       1.732  -5.464   0.827  0.00  0.00     0.009 A 
ATOM     11  C   UNL d   1       1.671  -6.762   1.337  0.00  0.00     0.001 A 
ATOM     12  C   UNL d   1       1.816  -6.983   2.706  0.00  0.00     0.000 A 
ATOM     13  C   UNL d   1       2.014  -5.910   3.567  0.00  0.00     0.001 A 
ATOM     14  C   UNL d   1       2.072  -4.611   3.063  0.00  0.00     0.009 A 
ENDBRANCH   8   9
ENDBRANCH   7   8
ENDBRANCH   2   7
BRANCH   1  15
ATOM     15  C   UNL d   1       2.972  -0.307   0.116  0.00  0.00     0.065 A 
ATOM     16  N   UNL d   1       3.674   0.252   1.117  0.00  0.00    -0.300 N 
ATOM     17  N   UNL d   1       4.953  -0.024   0.829  0.00  0.00    -0.311 N 
ATOM     18  HN  UNL d   1       3.313   0.770   1.918  1.00  0.00     0.187 HD
ATOM     19  C   UNL d   1       5.102  -0.838  -0.252  0.00  0.00     0.109 A 
ATOM     20  H   UNL d   1       5.672   0.357   1.435  0.00  0.00     0.186 HD
ATOM     21  C   UNL d   1       3.840  -1.005  -0.769  0.00  0.00     0.050 A 
ENDBRANCH   1  15
BRANCH   4  22
ATOM     22  O   UNL d   1      -1.714  -2.161   0.031  0.00  0.00    -0.353 OA
ATOM     23  C   UNL d   1      -1.387  -3.522   0.242  0.00  0.00     0.210 C 
ENDBRANCH   4  22
BRANCH   3  24
ATOM     24  O   UNL d   1       1.759   2.155  -0.146  0.00  0.00    -0.355 OA
ATOM     25  C   UNL d   1       1.268   3.392   0.359  0.00  0.00     0.210 C 
ENDBRANCH   3  24
TORSDOF 6
