REMARK  4 active torsions:
REMARK  status: ('A' for Active; 'I' for Inactive)
REMARK    1  A    between atoms: O_3  and  C_1 
REMARK    2  A    between atoms: C_6  and  C_1 
REMARK    3  A    between atoms: C_9  and  O_3 
REMARK    4  A    between atoms: C_15  and  C_10 
ROOT
ATOM      1  N   UNL d   1       5.214   5.974   1.366  0.00  0.00    -0.197 NA
ATOM      2  C   UNL d   1       4.251   6.082   0.728  0.00  0.00     0.063 C 
ATOM      3  C   UNL d   1       3.028   6.245  -0.087  0.00  0.00     0.162 C 
ENDROOT
BRANCH   3   4
ATOM      4  C   UNL d   1       2.207   4.977  -0.146  0.00  0.00    -0.045 A 
ATOM      5  C   UNL d   1       1.255   4.689   0.845  0.00  0.00     0.011 A 
ATOM      6  C   UNL d   1       0.615   3.445   0.875  0.00  0.00     0.038 A 
ATOM      7  C   UNL d   1       0.928   2.482  -0.084  0.00  0.00     0.079 A 
ATOM      8  C   UNL d   1       1.791   2.794  -1.133  0.00  0.00     0.038 A 
ATOM      9  C   UNL d   1       2.444   4.029  -1.152  0.00  0.00     0.011 A 
BRANCH   7  10
ATOM     10  O   UNL d   1       0.341   1.208   0.078  0.00  0.00    -0.275 OA
BRANCH  10  11
ATOM     11  C   UNL d   1       1.144   0.094  -0.137  0.00  0.00     0.298 C 
ATOM     12  O   UNL d   1       2.286   0.082  -0.576  0.00  0.00    -0.259 OA
BRANCH  11  13
ATOM     13  C   UNL d   1       0.463  -1.165   0.262  0.00  0.00     0.042 A 
ATOM     14  C   UNL d   1       1.145  -2.364   0.021  0.00  0.00     0.034 A 
ATOM     15  C   UNL d   1       0.561  -3.549   0.421  0.00  0.00     0.088 A 
ATOM     16  N   UNL d   1      -0.639  -3.613   1.033  0.00  0.00    -0.375 N 
ATOM     17  C   UNL d   1      -1.281  -2.445   1.254  0.00  0.00     0.088 A 
ATOM     18  HN  UNL d   1      -1.044  -4.505   1.317  1.00  0.00     0.164 HD
ATOM     19  C   UNL d   1      -0.782  -1.204   0.889  0.00  0.00     0.034 A 
ENDBRANCH  11  13
ENDBRANCH  10  11
ENDBRANCH   7  10
ENDBRANCH   3   4
TORSDOF 4
