REMARK  6 active torsions:
REMARK  status: ('A' for Active; 'I' for Inactive)
REMARK    1  A    between atoms: C_6  and  C_1 
REMARK    2  A    between atoms: C_7  and  C_3 
REMARK    3  A    between atoms: C_4  and  C_13 
REMARK       I    between atoms: N_11  and  C_4 
REMARK    4  A    between atoms: O_8  and  C_5 
REMARK    5  A    between atoms: C_13  and  O_8 
REMARK    6  A    between atoms: N_14  and  N_11 
ROOT
ATOM      1  C   UNL d   1       1.406  -0.156   0.050  0.00  0.00    -0.017 C 
ATOM      2  C   UNL d   1       0.469  -1.227   0.028  0.00  0.00     0.018 C 
ATOM      3  C   UNL d   1      -0.930  -1.059   0.027  0.00  0.00    -0.050 C 
ATOM      4  C   UNL d   1       0.878   1.145  -0.093  0.00  0.00     0.076 C 
ATOM      5  C   UNL d   1      -1.403   0.247   0.050  0.00  0.00     0.011 C 
ATOM      6  C   UNL d   1      -0.518   1.320  -0.009  0.00  0.00     0.038 C 
ENDROOT
BRANCH   4   7
ATOM      7  O   UNL d   1       1.714   2.218  -0.355  0.00  0.00    -0.341 OA
BRANCH   7   8
ATOM      8  C   UNL d   1       1.039   3.383  -0.834  0.00  0.00     0.279 C 
BRANCH   8   9
ATOM      9  C   UNL d   1       1.826   4.494  -1.530  0.00  0.00     0.255 C 
ATOM     10  O   UNL d   1       1.264   5.406  -2.140  0.00  0.00    -0.270 OA
ATOM     11  N   UNL d   1       3.201   4.417  -1.422  0.00  0.00    -0.292 N 
ATOM     12  H   UNL d   1       3.616   3.756  -0.764  0.00  0.00     0.183 HD
BRANCH  11  13
ATOM     13  N   UNL d   1       3.980   5.463  -1.969  0.00  0.00    -0.247 NA
ATOM     14  H   UNL d   1       3.323   6.208  -2.251  0.00  0.00     0.143 HD
ATOM     15  H   UNL d   1       4.360   5.132  -2.860  0.00  0.00     0.143 HD
ENDBRANCH  11  13
ENDBRANCH   8   9
ENDBRANCH   7   8
ENDBRANCH   4   7
BRANCH   1  16
ATOM     16  C   UNL d   1       2.903  -0.505   0.239  0.00  0.00    -0.021 C 
ATOM     17  C   UNL d   1       3.595  -0.621  -1.127  0.00  0.00     0.019 C 
ATOM     18  C   UNL d   1       3.659   0.513   1.123  0.00  0.00     0.019 C 
ATOM     19  C   UNL d   1       3.108  -1.868   0.976  0.00  0.00     0.019 C 
ENDBRANCH   1  16
BRANCH   3  20
ATOM     20  C   UNL d   1      -1.867  -2.276   0.062  0.00  0.00    -0.024 C 
ATOM     21  C   UNL d   1      -1.594  -3.079   1.351  0.00  0.00     0.019 C 
ATOM     22  C   UNL d   1      -3.366  -1.900   0.059  0.00  0.00     0.019 C 
ATOM     23  C   UNL d   1      -1.622  -3.178  -1.167  0.00  0.00     0.019 C 
ENDBRANCH   3  20
TORSDOF 6
