REMARK  8 active torsions:
REMARK  status: ('A' for Active; 'I' for Inactive)
REMARK    1  A    between atoms: C_2  and  C_1 
REMARK       I    between atoms: N_6  and  C_1 
REMARK    2  A    between atoms: O_17  and  C_3 
REMARK    3  A    between atoms: O_19  and  C_4 
REMARK    4  A    between atoms: O_20  and  C_5 
REMARK    5  A    between atoms: N_8  and  N_6 
REMARK       I    between atoms: C_7  and  N_8 
REMARK    6  A    between atoms: C_18  and  C_7 
REMARK    7  A    between atoms: C_12  and  C_21 
REMARK    8  A    between atoms: C_21  and  C_18 
ROOT
ATOM      1  C   UNL d   1      -3.269  -1.620   1.878  0.00  0.00     0.109 C 
ENDROOT
BRANCH   1   2
ATOM      2  C   UNL d   1      -1.760  -1.685   1.904  0.00  0.00     0.236 C 
ATOM      3  N   UNL d   1      -1.156  -0.784   1.051  0.00  0.00    -0.267 N 
ATOM      4  H   UNL d   1      -1.651  -0.139   0.439  0.00  0.00     0.190 HD
ATOM      5  O   UNL d   1      -1.115  -2.457   2.601  0.00  0.00    -0.272 OA
BRANCH   3   6
ATOM      6  N   UNL d   1       0.236  -0.804   1.000  0.00  0.00    -0.260 N 
ATOM      7  C   UNL d   1       0.916   0.113   0.213  0.00  0.00     0.343 C 
ATOM      8  O   UNL d   1       0.318   0.929  -0.492  0.00  0.00    -0.262 OA
ATOM      9  H   UNL d   1       0.712  -1.456   1.631  0.00  0.00     0.190 HD
BRANCH   7  10
ATOM     10  C   UNL d   1       2.445  -0.014   0.309  0.00  0.00     0.473 C 
ATOM     11  F   UNL d   1       2.822  -0.971   1.208  0.00  0.00    -0.162 F 
ATOM     12  F   UNL d   1       3.015  -0.363  -0.876  0.00  0.00    -0.162 F 
ATOM     13  F   UNL d   1       3.043   1.140   0.711  0.00  0.00    -0.162 F 
ENDBRANCH   7  10
ENDBRANCH   3   6
ENDBRANCH   1   2
BRANCH   1  14
ATOM     14  C   UNL d   1      -3.871  -2.643   2.838  0.00  0.00     0.048 C 
BRANCH  14  15
ATOM     15  C   UNL d   1      -5.373  -2.605   2.784  0.00  0.00    -0.052 A 
ATOM     16  C   UNL d   1      -6.062  -3.350   1.828  0.00  0.00     0.047 A 
ATOM     17  C   UNL d   1      -7.463  -3.298   1.723  0.00  0.00     0.104 A 
ATOM     18  C   UNL d   1      -8.203  -2.454   2.586  0.00  0.00     0.135 A 
ATOM     19  C   UNL d   1      -7.496  -1.693   3.545  0.00  0.00     0.104 A 
ATOM     20  C   UNL d   1      -6.101  -1.787   3.642  0.00  0.00     0.047 A 
BRANCH  17  21
ATOM     21  O   UNL d   1      -8.095  -4.018   0.736  0.00  0.00    -0.353 OA
ATOM     22  C   UNL d   1      -7.530  -5.303   0.463  0.00  0.00     0.210 C 
ENDBRANCH  17  21
BRANCH  18  23
ATOM     23  O   UNL d   1      -9.566  -2.314   2.619  0.00  0.00    -0.351 OA
ATOM     24  C   UNL d   1     -10.402  -3.201   1.894  0.00  0.00     0.210 C 
ENDBRANCH  18  23
BRANCH  19  25
ATOM     25  O   UNL d   1      -8.014  -0.879   4.522  0.00  0.00    -0.353 OA
ATOM     26  C   UNL d   1      -9.159  -0.099   4.213  0.00  0.00     0.210 C 
ENDBRANCH  19  25
ENDBRANCH  14  15
ENDBRANCH   1  14
TORSDOF 8
