REMARK  10 active torsions:
REMARK  status: ('A' for Active; 'I' for Inactive)
REMARK    1  A    between atoms: C_4  and  N_1 
REMARK       I    between atoms: C_5  and  N_1 
REMARK    2  A    between atoms: N_2  and  C_3 
REMARK       I    between atoms: C_6  and  N_2 
REMARK    3  A    between atoms: C_3  and  N_7 
REMARK    4  A    between atoms: N_8  and  C_4 
REMARK    5  A    between atoms: C_14  and  C_5 
REMARK    6  A    between atoms: C_13  and  C_6 
REMARK    7  A    between atoms: N_7  and  C_15 
REMARK    8  A    between atoms: C_16  and  N_8 
REMARK    9  A    between atoms: C_19  and  C_17 
REMARK   10  A    between atoms: C_18  and  C_19 
ROOT
ATOM      1  C   UNL d   1       6.597   1.844   1.345  0.00  0.00     0.077 C 
ENDROOT
BRANCH   1   2
ATOM      2  C   UNL d   1       7.348   1.419   0.096  0.00  0.00    -0.054 A 
ATOM      3  C   UNL d   1       8.053   2.361  -0.672  0.00  0.00     0.010 A 
ATOM      4  C   UNL d   1       9.008   1.953  -1.621  0.00  0.00     0.030 A 
ATOM      5  C   UNL d   1       9.242   0.597  -1.866  0.00  0.00     0.034 A 
ATOM      6  C   UNL d   1       8.480  -0.340  -1.162  0.00  0.00     0.030 A 
ATOM      7  C   UNL d   1       7.550   0.065  -0.191  0.00  0.00     0.010 A 
BRANCH   5   8
ATOM      8  N   UNL d   1      10.326   0.240  -2.705  0.00  0.00    -0.333 N 
ATOM      9  H   UNL d   1      11.045   0.956  -2.833  0.00  0.00     0.168 HD
BRANCH   8  10
ATOM     10  C   UNL d   1      10.562  -0.922  -3.401  0.00  0.00     0.179 C 
ATOM     11  S   UNL d   1       9.444  -2.057  -3.920  0.00  0.00    -0.040 SA
BRANCH  10  12
ATOM     12  N   UNL d   1      11.881  -1.180  -3.731  0.00  0.00    -0.299 N 
ATOM     13  C   UNL d   1      13.038  -0.487  -3.394  0.00  0.00     0.257 C 
ATOM     14  O   UNL d   1      13.039   0.689  -3.039  0.00  0.00    -0.267 OA
ATOM     15  H   UNL d   1      11.987  -2.062  -4.215  0.00  0.00     0.171 HD
BRANCH  13  16
ATOM     16  C   UNL d   1      14.323  -1.236  -3.582  0.00  0.00     0.032 A 
ATOM     17  C   UNL d   1      15.503  -0.512  -3.817  0.00  0.00     0.017 A 
ATOM     18  C   UNL d   1      16.720  -1.179  -3.989  0.00  0.00     0.001 A 
ATOM     19  C   UNL d   1      16.777  -2.569  -3.922  0.00  0.00     0.000 A 
ATOM     20  C   UNL d   1      15.614  -3.296  -3.671  0.00  0.00     0.001 A 
ATOM     21  C   UNL d   1      14.392  -2.635  -3.494  0.00  0.00     0.017 A 
ENDBRANCH  13  16
ENDBRANCH  10  12
ENDBRANCH   8  10
ENDBRANCH   5   8
ENDBRANCH   1   2
BRANCH   1  22
ATOM     22  C   UNL d   1       5.084   1.931   1.375  0.00  0.00    -0.054 A 
ATOM     23  C   UNL d   1       4.222   0.907   0.954  0.00  0.00     0.010 A 
ATOM     24  C   UNL d   1       2.821   1.030   1.090  0.00  0.00     0.030 A 
ATOM     25  C   UNL d   1       2.266   2.199   1.615  0.00  0.00     0.034 A 
ATOM     26  C   UNL d   1       3.121   3.171   2.135  0.00  0.00     0.030 A 
ATOM     27  C   UNL d   1       4.506   3.043   2.010  0.00  0.00     0.010 A 
BRANCH  25  28
ATOM     28  N   UNL d   1       0.864   2.435   1.553  0.00  0.00    -0.333 N 
ATOM     29  H   UNL d   1       0.255   1.619   1.544  0.00  0.00     0.168 HD
BRANCH  28  30
ATOM     30  C   UNL d   1       0.333   3.533   0.915  0.00  0.00     0.179 C 
ATOM     31  S   UNL d   1       1.135   4.783   0.120  0.00  0.00    -0.040 SA
BRANCH  30  32
ATOM     32  N   UNL d   1      -1.037   3.649   0.840  0.00  0.00    -0.299 N 
ATOM     33  C   UNL d   1      -2.139   2.965   1.336  0.00  0.00     0.257 C 
ATOM     34  O   UNL d   1      -2.071   1.945   2.014  0.00  0.00    -0.267 OA
ATOM     35  H   UNL d   1      -1.234   4.435   0.237  0.00  0.00     0.171 HD
BRANCH  33  36
ATOM     36  C   UNL d   1      -3.473   3.550   0.912  0.00  0.00     0.032 A 
ATOM     37  C   UNL d   1      -4.627   2.759   0.998  0.00  0.00     0.017 A 
ATOM     38  C   UNL d   1      -5.846   3.222   0.484  0.00  0.00     0.001 A 
ATOM     39  C   UNL d   1      -5.927   4.478  -0.118  0.00  0.00     0.000 A 
ATOM     40  C   UNL d   1      -4.804   5.294  -0.165  0.00  0.00     0.001 A 
ATOM     41  C   UNL d   1      -3.593   4.844   0.369  0.00  0.00     0.017 A 
ENDBRANCH  33  36
ENDBRANCH  30  32
ENDBRANCH  28  30
ENDBRANCH  25  28
ENDBRANCH   1  22
TORSDOF 10
