REMARK  4 active torsions:
REMARK  status: ('A' for Active; 'I' for Inactive)
REMARK    1  A    between atoms: C_9  and  C_2 
REMARK    2  A    between atoms: C_5  and  C_11 
REMARK       I    between atoms: N_8  and  C_5 
REMARK    3  A    between atoms: C_21  and  N_8 
REMARK    4  A    between atoms: C_10  and  C_21 
ROOT
ATOM      1  C   UNL d   1       2.362  -1.701  -0.106  0.00  0.00    -0.008 A 
ATOM      2  C   UNL d   1       4.741  -3.246   0.002  0.00  0.00     0.032 A 
ATOM      3  C   UNL d   1       2.628  -2.666  -1.084  0.00  0.00     0.015 A 
ATOM      4  C   UNL d   1       3.298  -1.525   0.926  0.00  0.00     0.015 A 
ATOM      5  C   UNL d   1       3.803  -3.427  -1.028  0.00  0.00     0.018 A 
ATOM      6  C   UNL d   1       4.480  -2.285   0.981  0.00  0.00     0.018 A 
ENDROOT
BRANCH   2   7
ATOM      7  C   UNL d   1       5.963  -4.108  -0.026  0.00  0.00     0.251 C 
ATOM      8  N   UNL d   1       6.918  -3.961   0.958  0.00  0.00    -0.351 N 
ATOM      9  H   UNL d   1       6.822  -3.329   1.739  0.00  0.00     0.163 HD
ATOM     10  O   UNL d   1       6.093  -4.937  -0.927  0.00  0.00    -0.268 OA
BRANCH   8  11
ATOM     11  C   UNL d   1       8.074  -4.829   0.944  0.00  0.00     0.187 C 
BRANCH  11  12
ATOM     12  C   UNL d   1       9.057  -4.494   2.009  0.00  0.00     0.070 A 
ATOM     13  O   UNL d   1       8.714  -3.568   2.955  0.00  0.00    -0.325 OA
ATOM     14  C   UNL d   1       9.778  -3.452   3.795  0.00  0.00     0.142 A 
ATOM     15  C   UNL d   1      10.797  -4.290   3.407  0.00  0.00     0.027 A 
ATOM     16  C   UNL d   1      10.331  -4.966   2.257  0.00  0.00     0.036 A 
ENDBRANCH  11  12
ENDBRANCH   8  11
ENDBRANCH   2   7
BRANCH   1  17
ATOM     17  C   UNL d   1       1.141  -0.902  -0.124  0.00  0.00     0.063 A 
ATOM     18  N   UNL d   1       0.619  -0.364   1.049  0.00  0.00    -0.292 N 
ATOM     19  N   UNL d   1      -0.489   0.323   0.832  0.00  0.00    -0.061 NA
ATOM     20  HN  UNL d   1       1.043  -0.486   1.969  1.00  0.00     0.183 HD
ATOM     21  S   UNL d   1      -0.926   0.358  -0.780  0.00  0.00    -0.010 SA
ATOM     22  C   UNL d   1       0.416  -0.596  -1.264  0.00  0.00     0.096 A 
ENDBRANCH   1  17
TORSDOF 4
