REMARK  3 active torsions:
REMARK  status: ('A' for Active; 'I' for Inactive)
REMARK    1  A    between atoms: O_11  and  C_9 
REMARK    2  A    between atoms: C_15  and  O_11 
REMARK    3  A    between atoms: C_14  and  C_15 
ROOT
ATOM      1  C   UNL d   1      -0.005   0.618   0.012  0.00  0.00     0.092 A 
ATOM      2  C   UNL d   1       0.047  -0.777   0.004  0.00  0.00     0.044 A 
ATOM      3  C   UNL d   1       1.190   1.360   0.056  0.00  0.00     0.006 A 
ATOM      4  C   UNL d   1      -1.212  -1.543   0.065  0.00  0.00     0.165 C 
ATOM      5  O   UNL d   1      -1.184   1.320  -0.012  0.00  0.00    -0.339 OA
ATOM      6  C   UNL d   1      -2.351   0.589  -0.433  0.00  0.00     0.067 C 
ATOM      7  C   UNL d   1      -2.457  -0.742   0.306  0.00  0.00     0.121 C 
ATOM      8  C   UNL d   1       1.270  -1.450  -0.031  0.00  0.00     0.021 A 
ATOM      9  C   UNL d   1       2.423   0.673   0.053  0.00  0.00     0.078 A 
ATOM     10  O   UNL d   1      -1.217  -2.769  -0.008  0.00  0.00    -0.292 OA
ATOM     11  C   UNL d   1       2.458  -0.722  -0.020  0.00  0.00     0.038 A 
ATOM     12  C   UNL d   1       1.183   2.865   0.116  0.00  0.00     0.054 C 
ATOM     13  C   UNL d   1      -2.351   0.423  -1.964  0.00  0.00     0.046 C 
ATOM     14  C   UNL d   1      -3.556   1.461  -0.050  0.00  0.00     0.046 C 
ENDROOT
BRANCH   9  15
ATOM     15  O   UNL d   1       3.549   1.454   0.086  0.00  0.00    -0.343 OA
BRANCH  15  16
ATOM     16  C   UNL d   1       4.697   0.877   0.698  0.00  0.00     0.253 C 
BRANCH  16  17
ATOM     17  C   UNL d   1       5.586   1.982   1.242  0.00  0.00     0.146 C 
ATOM     18  O   UNL d   1       6.811   1.850   1.300  0.00  0.00    -0.296 OA
ATOM     19  C   UNL d   1       4.908   3.204   1.809  0.00  0.00     0.093 C 
ENDBRANCH  16  17
ENDBRANCH  15  16
ENDBRANCH   9  15
TORSDOF 3
