REMARK  4 active torsions:
REMARK  status: ('A' for Active; 'I' for Inactive)
REMARK    1  A    between atoms: O_5  and  C_2 
REMARK    2  A    between atoms: C_3  and  O_5 
REMARK    3  A    between atoms: C_6  and  C_3 
REMARK    4  A    between atoms: O_11  and  C_6 
ROOT
ATOM      1  C   UNL d   1      -0.277   0.635   0.009  0.00  0.00    -0.018 A 
ATOM      2  C   UNL d   1       0.805   1.509   0.061  0.00  0.00     0.077 A 
ATOM      3  C   UNL d   1      -0.096  -0.758   0.004  0.00  0.00    -0.043 A 
ATOM      4  C   UNL d   1       1.178  -1.321   0.039  0.00  0.00    -0.055 A 
ATOM      5  C   UNL d   1       2.085   0.950   0.072  0.00  0.00     0.038 A 
ATOM      6  C   UNL d   1       2.267  -0.444   0.076  0.00  0.00     0.010 A 
ATOM      7  C   UNL d   1      -1.728   0.993  -0.039  0.00  0.00     0.042 A 
ATOM      8  C   UNL d   1      -1.402  -1.484  -0.051  0.00  0.00     0.040 A 
ATOM      9  C   UNL d   1      -2.448  -0.363  -0.027  0.00  0.00     0.009 A 
ATOM     10  C   UNL d   1       1.421  -2.797   0.018  0.00  0.00     0.049 C 
ENDROOT
BRANCH   2  11
ATOM     11  O   UNL d   1       0.524   2.846   0.071  0.00  0.00    -0.330 OA
BRANCH  11  12
ATOM     12  C   UNL d   1       1.424   3.767   0.706  0.00  0.00     0.148 C 
ATOM     13  C   UNL d   1       2.411   4.337  -0.329  0.00  0.00     0.057 C 
ATOM     14  C   UNL d   1       0.551   4.953   1.171  0.00  0.00     0.057 C 
BRANCH  12  15
ATOM     15  C   UNL d   1       2.167   3.271   1.975  0.00  0.00     0.293 C 
ATOM     16  O   UNL d   1       3.386   3.254   2.111  0.00  0.00    -0.262 OA
BRANCH  15  17
ATOM     17  O   UNL d   1       1.275   2.827   2.907  0.00  0.00    -0.324 OA
ATOM     18  C   UNL d   1       1.870   2.255   4.069  0.00  0.00     0.213 C 
ENDBRANCH  15  17
ENDBRANCH  12  15
ENDBRANCH  11  12
ENDBRANCH   2  11
TORSDOF 4
