REMARK  4 active torsions:
REMARK  status: ('A' for Active; 'I' for Inactive)
REMARK    1  A    between atoms: C_7  and  C_1 
REMARK    2  A    between atoms: C_2  and  C_18 
REMARK    3  A    between atoms: O_17  and  C_7 
REMARK    4  A    between atoms: C_22  and  O_17 
ROOT
ATOM      1  C   UNL d   1       6.097  -1.790   0.307  0.00  0.00     0.095 A 
ATOM      2  C   UNL d   1       6.833  -1.347   1.384  0.00  0.00     0.155 A 
ATOM      3  N   UNL d   1       8.058  -1.186  -0.477  0.00  0.00    -0.021 NA
ATOM      4  N   UNL d   1       6.883  -1.702  -0.820  0.00  0.00    -0.281 N 
ATOM      5  HN  UNL d   1       6.609  -1.984  -1.761  1.00  0.00     0.184 HD
ATOM      6  N   UNL d   1       8.023  -0.962   0.844  0.00  0.00    -0.273 N 
ATOM      7  C   UNL d   1       6.539  -1.266   2.758  0.00  0.00     0.121 C 
ATOM      8  N   UNL d   1       6.311  -1.174   3.892  0.00  0.00    -0.190 NA
ATOM      9  H   UNL d   1       8.836  -0.554   1.294  0.00  0.00     0.185 HD
ENDROOT
BRANCH   1  10
ATOM     10  C   UNL d   1       4.724  -2.270   0.273  0.00  0.00    -0.005 A 
ATOM     11  C   UNL d   1       3.746  -1.792   1.158  0.00  0.00     0.016 A 
ATOM     12  C   UNL d   1       2.410  -2.204   1.055  0.00  0.00     0.038 A 
ATOM     13  C   UNL d   1       2.042  -3.104   0.060  0.00  0.00     0.079 A 
ATOM     14  C   UNL d   1       2.999  -3.601  -0.825  0.00  0.00     0.038 A 
ATOM     15  C   UNL d   1       4.334  -3.188  -0.715  0.00  0.00     0.016 A 
BRANCH  13  16
ATOM     16  O   UNL d   1       0.703  -3.478  -0.204  0.00  0.00    -0.275 OA
BRANCH  16  17
ATOM     17  C   UNL d   1      -0.305  -3.519   0.772  0.00  0.00     0.309 C 
ATOM     18  O   UNL d   1      -0.105  -3.355   1.971  0.00  0.00    -0.258 OA
BRANCH  17  19
ATOM     19  C   UNL d   1      -1.598  -3.771   0.185  0.00  0.00     0.122 A 
ATOM     20  C   UNL d   1      -2.840  -3.947   0.792  0.00  0.00     0.047 A 
ATOM     21  N   UNL d   1      -3.900  -4.120  -0.096  0.00  0.00    -0.298 N 
ATOM     22  C   UNL d   1      -3.172  -3.988   2.240  0.00  0.00     0.071 C 
ATOM     23  N   UNL d   1      -3.500  -4.114  -1.354  0.00  0.00    -0.269 N 
ATOM     24  HN  UNL d   1      -4.871  -4.237   0.193  1.00  0.00     0.187 HD
ATOM     25  S   UNL d   1      -1.853  -3.902  -1.506  0.00  0.00     0.010 SA
ATOM     26  HN  UNL d   1      -4.131  -4.227  -2.147  1.00  0.00     0.195 HD
ENDBRANCH  17  19
ENDBRANCH  16  17
ENDBRANCH  13  16
ENDBRANCH   1  10
TORSDOF 4
