REMARK  6 active torsions:
REMARK  status: ('A' for Active; 'I' for Inactive)
REMARK    1  A    between atoms: N_2  and  C_1 
REMARK    2  A    between atoms: N_8  and  C_1 
REMARK    3  A    between atoms: C_5  and  N_2 
REMARK    4  A    between atoms: C_14  and  N_8 
REMARK    5  A    between atoms: O_11  and  C_15 
REMARK    6  A    between atoms: C_15  and  C_14 
ROOT
ATOM      1  N   UNL d   1       0.375   1.089  -0.639  0.00  0.00    -0.333 N 
ATOM      2  H   UNL d   1       0.822   0.184  -0.560  0.00  0.00     0.168 HD
ENDROOT
BRANCH   1   3
ATOM      3  C   UNL d   1      -0.866   1.127  -0.058  0.00  0.00     0.172 C 
ATOM      4  S   UNL d   1      -2.252   1.845  -0.650  0.00  0.00    -0.041 SA
BRANCH   3   5
ATOM      5  N   UNL d   1      -0.962   0.413   1.108  0.00  0.00    -0.365 N 
ATOM      6  H   UNL d   1      -1.896   0.407   1.508  0.00  0.00     0.161 HD
BRANCH   5   7
ATOM      7  C   UNL d   1       0.101   0.268   2.102  0.00  0.00     0.148 C 
BRANCH   7   8
ATOM      8  C   UNL d   1      -0.157   1.197   3.291  0.00  0.00     0.183 C 
BRANCH   8   9
ATOM      9  O   UNL d   1      -1.368   0.806   3.938  0.00  0.00    -0.399 OA
ATOM     10  H   UNL d   1      -1.527   1.444   4.655  0.00  0.00     0.209 HD
ENDBRANCH   8   9
ENDBRANCH   7   8
ENDBRANCH   5   7
ENDBRANCH   3   5
ENDBRANCH   1   3
BRANCH   1  11
ATOM     11  C   UNL d   1       0.992   2.011  -1.506  0.00  0.00     0.034 A 
ATOM     12  C   UNL d   1       2.025   1.547  -2.329  0.00  0.00     0.036 A 
ATOM     13  C   UNL d   1       2.746   2.423  -3.160  0.00  0.00    -0.054 A 
ATOM     14  C   UNL d   1       3.823   1.872  -4.055  0.00  0.00     0.049 C 
ATOM     15  C   UNL d   1       2.453   3.799  -3.127  0.00  0.00    -0.056 A 
ATOM     16  C   UNL d   1       1.420   4.256  -2.298  0.00  0.00     0.009 A 
ATOM     17  C   UNL d   1       3.241   4.792  -3.936  0.00  0.00     0.049 C 
ATOM     18  C   UNL d   1       0.693   3.372  -1.498  0.00  0.00     0.030 A 
ENDBRANCH   1  11
TORSDOF 6
