REMARK  4 active torsions:
REMARK  status: ('A' for Active; 'I' for Inactive)
REMARK    1  A    between atoms: C_7  and  C_3 
REMARK    2  A    between atoms: O_14  and  C_9 
REMARK    3  A    between atoms: O_16  and  C_11 
REMARK    4  A    between atoms: C_18  and  O_16 
ROOT
ATOM      1  N   UNL d   1       2.212  -0.244   0.091  0.00  0.00    -0.336 N 
ATOM      2  C   UNL d   1       1.360   0.814  -0.068  0.00  0.00     0.255 C 
ATOM      3  C   UNL d   1       1.836  -1.589  -0.225  0.00  0.00     0.196 C 
ATOM      4  N   UNL d   1       0.486  -1.848   0.234  0.00  0.00    -0.267 NA
ATOM      5  C   UNL d   1      -0.081   0.497  -0.092  0.00  0.00     0.053 A 
ATOM      6  C   UNL d   1      -0.460  -0.844   0.031  0.00  0.00     0.026 A 
ATOM      7  O   UNL d   1       1.778   1.964  -0.153  0.00  0.00    -0.268 OA
ATOM      8  C   UNL d   1      -1.034   1.518  -0.182  0.00  0.00     0.019 A 
ATOM      9  C   UNL d   1      -1.824  -1.141   0.124  0.00  0.00     0.024 A 
ATOM     10  C   UNL d   1      -2.389   1.200  -0.124  0.00  0.00     0.001 A 
ATOM     11  C   UNL d   1      -2.784  -0.129   0.033  0.00  0.00     0.002 A 
ATOM     12  H   UNL d   1       3.190   0.001   0.026  0.00  0.00     0.164 HD
ATOM     13  H   UNL d   1       0.161  -2.777  -0.010  0.00  0.00     0.130 HD
ENDROOT
BRANCH   3  14
ATOM     14  C   UNL d   1       2.751  -2.576   0.470  0.00  0.00    -0.018 A 
ATOM     15  C   UNL d   1       2.839  -2.566   1.877  0.00  0.00     0.050 A 
ATOM     16  C   UNL d   1       3.599  -3.505   2.585  0.00  0.00     0.102 A 
ATOM     17  C   UNL d   1       4.310  -4.477   1.861  0.00  0.00     0.102 A 
ATOM     18  C   UNL d   1       4.242  -4.474   0.457  0.00  0.00     0.040 A 
ATOM     19  C   UNL d   1       3.470  -3.540  -0.237  0.00  0.00     0.013 A 
BRANCH  16  20
ATOM     20  O   UNL d   1       3.668  -3.512   3.952  0.00  0.00    -0.353 OA
ATOM     21  C   UNL d   1       2.891  -2.564   4.674  0.00  0.00     0.210 C 
ENDBRANCH  16  20
BRANCH  17  22
ATOM     22  O   UNL d   1       5.101  -5.492   2.341  0.00  0.00    -0.349 OA
BRANCH  22  23
ATOM     23  C   UNL d   1       5.224  -5.653   3.751  0.00  0.00     0.171 C 
ATOM     24  C   UNL d   1       6.115  -6.852   4.023  0.00  0.00     0.034 C 
ENDBRANCH  22  23
ENDBRANCH  17  22
ENDBRANCH   3  14
TORSDOF 4
