REMARK  6 active torsions:
REMARK  status: ('A' for Active; 'I' for Inactive)
REMARK    1  A    between atoms: C_14  and  N_5 
REMARK    2  A    between atoms: C_21  and  N_11 
REMARK    3  A    between atoms: C_18  and  C_12 
REMARK    4  A    between atoms: C_15  and  C_14 
REMARK       I    between atoms: N_20  and  C_15 
REMARK    5  A    between atoms: C_24  and  C_21 
REMARK    6  A    between atoms: C_25  and  C_24 
ROOT
ATOM      1  N   UNL d   1       1.200  -0.568   0.054  0.00  0.00    -0.203 N 
ATOM      2  C   UNL d   1       1.183   0.820  -0.049  0.00  0.00     0.136 A 
ATOM      3  C   UNL d   1      -1.206  -0.629  -0.000  0.00  0.00     0.062 A 
ATOM      4  C   UNL d   1      -1.161   0.701  -0.124  0.00  0.00     0.118 A 
ATOM      5  N   UNL d   1      -0.018   1.479  -0.122  0.00  0.00    -0.318 N 
ATOM      6  C   UNL d   1       0.048  -1.389   0.107  0.00  0.00     0.278 A 
ATOM      7  N   UNL d   1       2.466  -1.060   0.115  0.00  0.00    -0.289 N 
ATOM      8  HN  UNL d   1       2.750  -2.035   0.217  1.00  0.00     0.188 HD
ATOM      9  C   UNL d   1       2.494   1.216  -0.050  0.00  0.00     0.082 A 
ATOM     10  C   UNL d   1      -2.576   1.135  -0.250  0.00  0.00     0.271 C 
ATOM     11  N   UNL d   1      -3.354   0.023   0.035  0.00  0.00    -0.342 N 
ATOM     12  C   UNL d   1       3.261   0.020   0.013  0.00  0.00     0.062 A 
ATOM     13  C   UNL d   1      -2.565  -1.194   0.066  0.00  0.00     0.173 C 
ATOM     14  O   UNL d   1       0.102  -2.603   0.228  0.00  0.00    -0.265 OA
ATOM     15  O   UNL d   1      -2.940   2.252  -0.575  0.00  0.00    -0.266 OA
ENDROOT
BRANCH   5  16
ATOM     16  C   UNL d   1      -0.037   2.947   0.017  0.00  0.00     0.233 C 
BRANCH  16  17
ATOM     17  C   UNL d   1       0.132   3.644  -1.329  0.00  0.00     0.233 C 
ATOM     18  O   UNL d   1       1.221   3.997  -1.777  0.00  0.00    -0.272 OA
ATOM     19  N   UNL d   1      -1.022   3.881  -2.021  0.00  0.00    -0.369 N 
ATOM     20  H   UNL d   1      -1.893   3.420  -1.760  0.00  0.00     0.159 HD
ATOM     21  H   UNL d   1      -0.950   4.298  -2.938  0.00  0.00     0.159 HD
ENDBRANCH  16  17
ENDBRANCH   5  16
BRANCH  12  22
ATOM     22  C   UNL d   1       4.723  -0.082  -0.033  0.00  0.00    -0.008 A 
ATOM     23  C   UNL d   1       5.488   0.945  -0.610  0.00  0.00     0.014 A 
ATOM     24  C   UNL d   1       6.881   0.856  -0.662  0.00  0.00     0.001 A 
ATOM     25  C   UNL d   1       7.526  -0.260  -0.137  0.00  0.00     0.000 A 
ATOM     26  C   UNL d   1       6.780  -1.287   0.439  0.00  0.00     0.001 A 
ATOM     27  C   UNL d   1       5.385  -1.200   0.489  0.00  0.00     0.014 A 
ENDBRANCH  12  22
BRANCH  11  28
ATOM     28  C   UNL d   1      -4.806   0.027  -0.019  0.00  0.00     0.126 C 
BRANCH  28  29
ATOM     29  C   UNL d   1      -5.480  -0.707   1.143  0.00  0.00     0.020 C 
BRANCH  29  30
ATOM     30  C   UNL d   1      -5.177  -0.095   2.513  0.00  0.00    -0.003 C 
ATOM     31  C   UNL d   1      -5.899  -0.852   3.620  0.00  0.00     0.005 C 
ENDBRANCH  29  30
ENDBRANCH  28  29
ENDBRANCH  11  28
TORSDOF 6
