REMARK  2 active torsions:
REMARK  status: ('A' for Active; 'I' for Inactive)
REMARK    1  A    between atoms: C_13  and  N_6 
REMARK    2  A    between atoms: C_20  and  C_14 
ROOT
ATOM      1  C   UNL d   1       0.752  -0.801  -0.141  0.00  0.00     0.173 A 
ATOM      2  C   UNL d   1       0.468   0.548  -0.184  0.00  0.00     0.090 A 
ATOM      3  C   UNL d   1       1.954  -1.552   0.105  0.00  0.00     0.285 C 
ATOM      4  C   UNL d   1      -0.964   0.660  -0.252  0.00  0.00     0.051 A 
ATOM      5  C   UNL d   1      -1.438  -0.649  -0.181  0.00  0.00     0.162 A 
ATOM      6  N   UNL d   1       2.923  -0.844   0.823  0.00  0.00    -0.303 N 
ATOM      7  O   UNL d   1      -0.403  -1.522  -0.199  0.00  0.00    -0.285 OA
ATOM      8  N   UNL d   1       1.361   1.597  -0.102  0.00  0.00    -0.322 N 
ATOM      9  N   UNL d   1      -2.707  -1.065  -0.060  0.00  0.00    -0.335 N 
ATOM     10  HN  UNL d   1      -2.964  -2.052  -0.034  1.00  0.00     0.168 HD
ATOM     11  C   UNL d   1      -1.935   1.687  -0.301  0.00  0.00    -0.043 A 
ATOM     12  C   UNL d   1       2.710   1.587   0.070  0.00  0.00     0.240 C 
ATOM     13  C   UNL d   1      -3.615  -0.072   0.025  0.00  0.00     0.044 A 
ATOM     14  C   UNL d   1       3.531   0.301   0.161  0.00  0.00     0.235 C 
ATOM     15  C   UNL d   1      -3.272   1.273  -0.139  0.00  0.00     0.038 A 
ATOM     16  O   UNL d   1       2.065  -2.750  -0.148  0.00  0.00    -0.265 OA
ATOM     17  O   UNL d   1       3.287   2.681   0.017  0.00  0.00    -0.271 OA
ATOM     18  C   UNL d   1      -1.682   3.161  -0.444  0.00  0.00     0.049 C 
ATOM     19  H   UNL d   1       0.990   2.535  -0.155  0.00  0.00     0.169 HD
ENDROOT
BRANCH   6  20
ATOM     20  C   UNL d   1       3.551  -1.510   1.926  0.00  0.00     0.039 A 
ATOM     21  C   UNL d   1       2.761  -2.343   2.739  0.00  0.00     0.053 A 
ATOM     22  C   UNL d   1       3.299  -2.975   3.861  0.00  0.00     0.036 A 
ATOM     23 CL   UNL d   1       2.292  -3.951   4.858  0.00  0.00    -0.084 Cl
ATOM     24  C   UNL d   1       4.637  -2.802   4.187  0.00  0.00     0.024 A 
ATOM     25  C   UNL d   1       5.440  -1.991   3.387  0.00  0.00     0.004 A 
ATOM     26  C   UNL d   1       4.898  -1.342   2.269  0.00  0.00     0.030 A 
ENDBRANCH   6  20
BRANCH  13  27
ATOM     27  C   UNL d   1      -4.998  -0.494   0.342  0.00  0.00    -0.009 A 
ATOM     28  C   UNL d   1      -5.863   0.320   1.101  0.00  0.00     0.013 A 
ATOM     29  C   UNL d   1      -7.172  -0.074   1.392  0.00  0.00     0.001 A 
ATOM     30  C   UNL d   1      -7.644  -1.301   0.940  0.00  0.00     0.000 A 
ATOM     31  C   UNL d   1      -6.804  -2.139   0.211  0.00  0.00     0.001 A 
ATOM     32  C   UNL d   1      -5.495  -1.740  -0.079  0.00  0.00     0.013 A 
ENDBRANCH  13  27
TORSDOF 2
