REMARK  5 active torsions:
REMARK  status: ('A' for Active; 'I' for Inactive)
REMARK    1  A    between atoms: N_2  and  S_1 
REMARK    2  A    between atoms: C_7  and  S_1 
REMARK    3  A    between atoms: C_8  and  N_2 
REMARK    4  A    between atoms: C_3  and  C_8 
REMARK    5  A    between atoms: C_12  and  C_7 
ROOT
ATOM      1  S   UNL d   1       1.002  -0.161  -0.136  0.00  0.00     0.230 S 
ATOM      2  O   UNL d   1       0.421   1.148  -0.329  0.00  0.00    -0.206 OA
ATOM      3  O   UNL d   1       0.735  -1.262  -1.039  0.00  0.00    -0.206 OA
ENDROOT
BRANCH   1   4
ATOM      4  N   UNL d   1       0.542  -0.701   1.395  0.00  0.00    -0.315 N 
ATOM      5  H   UNL d   1       1.227  -1.271   1.889  0.00  0.00     0.172 HD
BRANCH   4   6
ATOM      6  C   UNL d   1      -0.193   0.251   2.234  0.00  0.00     0.178 C 
BRANCH   6   7
ATOM      7  C   UNL d   1      -0.579  -0.443   3.507  0.00  0.00     0.001 A 
ATOM      8  S   UNL d   1       0.390  -0.278   4.912  0.00  0.00    -0.105 SA
ATOM      9  C   UNL d   1      -0.682  -1.230   5.845  0.00  0.00     0.050 A 
ATOM     10  C   UNL d   1      -1.746  -1.687   5.101  0.00  0.00     0.008 A 
ATOM     11  C   UNL d   1      -1.683  -1.240   3.749  0.00  0.00     0.017 A 
ENDBRANCH   6   7
ENDBRANCH   4   6
ENDBRANCH   1   4
BRANCH   1  12
ATOM     12  C   UNL d   1       2.787  -0.001   0.044  0.00  0.00     0.201 C 
BRANCH  12  13
ATOM     13  C   UNL d   1       3.380   0.529  -1.240  0.00  0.00    -0.043 A 
ATOM     14  C   UNL d   1       3.570   1.908  -1.418  0.00  0.00     0.010 A 
ATOM     15  C   UNL d   1       4.130   2.402  -2.600  0.00  0.00     0.024 A 
ATOM     16  C   UNL d   1       4.499   1.521  -3.614  0.00  0.00     0.034 A 
ATOM     17  C   UNL d   1       4.306   0.151  -3.459  0.00  0.00     0.024 A 
ATOM     18 CL   UNL d   1       5.197   2.131  -5.064  0.00  0.00    -0.084 Cl
ATOM     19  C   UNL d   1       3.747  -0.344  -2.277  0.00  0.00     0.010 A 
ENDBRANCH  12  13
ENDBRANCH   1  12
TORSDOF 5
