REMARK  4 active torsions:
REMARK  status: ('A' for Active; 'I' for Inactive)
REMARK    1  A    between atoms: C_7  and  N_1 
REMARK    2  A    between atoms: C_10  and  C_6 
REMARK    3  A    between atoms: N_14  and  C_7 
REMARK    4  A    between atoms: C_23  and  N_14 
ROOT
ATOM      1  N   UNL d   1      -3.084   1.065  -0.224  0.00  0.00    -0.257 N 
ATOM      2  N   UNL d   1      -1.768   1.485  -0.404  0.00  0.00    -0.298 N 
ATOM      3  HN  UNL d   1      -1.451   2.378  -0.782  1.00  0.00     0.187 HD
ATOM      4  C   UNL d   1      -1.029   0.501   0.010  0.00  0.00     0.043 C 
ATOM      5  C   UNL d   1      -1.757  -0.655   0.649  0.00  0.00     0.068 C 
ATOM      6  C   UNL d   1      -3.171  -0.370   0.129  0.00  0.00     0.153 C 
ATOM      7  C   UNL d   1       0.431   0.446  -0.036  0.00  0.00    -0.005 A 
ATOM      8  C   UNL d   1      -1.106  -2.023   0.449  0.00  0.00     0.018 C 
ATOM      9  C   UNL d   1       1.011  -0.819  -0.206  0.00  0.00    -0.046 A 
ATOM     10  C   UNL d   1       0.127  -2.013  -0.461  0.00  0.00     0.040 C 
ATOM     11  C   UNL d   1       1.205   1.593   0.117  0.00  0.00     0.014 A 
ATOM     12  C   UNL d   1       2.405  -0.920  -0.225  0.00  0.00     0.008 A 
ATOM     13  C   UNL d   1       2.594   1.475   0.122  0.00  0.00     0.001 A 
ATOM     14  C   UNL d   1       3.191   0.222  -0.048  0.00  0.00     0.001 A 
ENDROOT
BRANCH   6  15
ATOM     15  C   UNL d   1      -3.620  -1.199  -1.066  0.00  0.00    -0.033 A 
ATOM     16  C   UNL d   1      -4.762  -2.011  -0.954  0.00  0.00     0.012 A 
ATOM     17  C   UNL d   1      -5.183  -2.798  -2.030  0.00  0.00     0.043 A 
ATOM     18  C   UNL d   1      -4.462  -2.780  -3.216  0.00  0.00     0.116 A 
ATOM     19  C   UNL d   1      -3.340  -1.975  -3.358  0.00  0.00     0.043 A 
ATOM     20  F   UNL d   1      -4.856  -3.548  -4.240  0.00  0.00    -0.206 F 
ATOM     21  C   UNL d   1      -2.929  -1.177  -2.291  0.00  0.00     0.012 A 
ENDBRANCH   6  15
BRANCH   1  22
ATOM     22  C   UNL d   1      -4.141   1.968  -0.363  0.00  0.00     0.189 C 
ATOM     23  S   UNL d   1      -5.700   1.683   0.183  0.00  0.00    -0.039 SA
BRANCH  22  24
ATOM     24  N   UNL d   1      -3.736   3.121  -1.006  0.00  0.00    -0.366 N 
ATOM     25  H   UNL d   1      -2.728   3.122  -1.139  0.00  0.00     0.161 HD
BRANCH  24  26
ATOM     26  C   UNL d   1      -4.458   4.377  -1.104  0.00  0.00     0.117 C 
ATOM     27  C   UNL d   1      -3.984   5.200  -2.286  0.00  0.00     0.026 C 
ENDBRANCH  24  26
ENDBRANCH  22  24
ENDBRANCH   1  22
TORSDOF 4
