REMARK  4 active torsions:
REMARK  status: ('A' for Active; 'I' for Inactive)
REMARK    1  A    between atoms: N_6  and  C_1 
REMARK       I    between atoms: C_8  and  N_6 
REMARK    2  A    between atoms: C_13  and  C_7 
REMARK       I    between atoms: N_9  and  C_8 
REMARK    3  A    between atoms: C_16  and  N_9 
REMARK    4  A    between atoms: C_10  and  C_11 
ROOT
ATOM      1  N   UNL d   1      -0.520  -2.284  -0.144  0.00  0.00    -0.293 N 
ATOM      2  C   UNL d   1      -1.875  -2.720  -0.047  0.00  0.00     0.326 C 
ATOM      3  N   UNL d   1      -2.874  -1.845  -0.331  0.00  0.00    -0.309 N 
ATOM      4  O   UNL d   1      -1.972  -3.875   0.348  0.00  0.00    -0.247 OA
ATOM      5  H   UNL d   1       0.087  -3.026   0.186  0.00  0.00     0.172 HD
ATOM      6  H   UNL d   1      -2.626  -0.959  -0.728  0.00  0.00     0.170 HD
ENDROOT
BRANCH   1   7
ATOM      7  C   UNL d   1       0.091  -1.076  -0.457  0.00  0.00     0.127 A 
ATOM      8  C   UNL d   1      -0.385   0.052  -1.091  0.00  0.00     0.082 A 
ATOM      9  C   UNL d   1       0.667   1.015  -1.025  0.00  0.00     0.062 A 
ATOM     10  N   UNL d   1       1.764   0.467  -0.494  0.00  0.00    -0.296 N 
ATOM     11  N   UNL d   1       1.408  -0.776  -0.164  0.00  0.00    -0.281 N 
ATOM     12  HN  UNL d   1       2.677   0.904  -0.370  1.00  0.00     0.187 HD
ATOM     13  C   UNL d   1       2.380  -1.570   0.554  0.00  0.00     0.179 C 
BRANCH   9  14
ATOM     14  C   UNL d   1       0.670   2.431  -1.391  0.00  0.00    -0.008 A 
ATOM     15  C   UNL d   1       1.488   3.318  -0.669  0.00  0.00     0.014 A 
ATOM     16  C   UNL d   1       1.515   4.679  -0.973  0.00  0.00     0.001 A 
ATOM     17  C   UNL d   1       0.728   5.168  -2.008  0.00  0.00     0.000 A 
ATOM     18  C   UNL d   1      -0.089   4.300  -2.734  0.00  0.00     0.001 A 
ATOM     19  C   UNL d   1      -0.123   2.935  -2.426  0.00  0.00     0.014 A 
ENDBRANCH   9  14
ENDBRANCH   1   7
BRANCH   3  20
ATOM     20  C   UNL d   1      -4.234  -1.961   0.064  0.00  0.00     0.036 C 
ATOM     21  C   UNL d   1      -4.746  -2.995   0.850  0.00  0.00     0.030 C 
ATOM     22  C   UNL d   1      -6.007  -2.870   1.466  0.00  0.00     0.010 C 
ATOM     23  C   UNL d   1      -6.793  -1.717   1.303  0.00  0.00    -0.051 C 
ATOM     24  C   UNL d   1      -6.349  -0.789   0.348  0.00  0.00     0.010 C 
ATOM     25  C   UNL d   1      -5.087  -0.903  -0.254  0.00  0.00     0.030 C 
BRANCH  23  26
ATOM     26  C   UNL d   1      -7.993  -1.432   2.234  0.00  0.00    -0.024 C 
ATOM     27  C   UNL d   1      -8.631  -0.043   1.991  0.00  0.00     0.019 C 
ATOM     28  C   UNL d   1      -9.111  -2.483   2.099  0.00  0.00     0.019 C 
ATOM     29  C   UNL d   1      -7.501  -1.442   3.703  0.00  0.00     0.019 C 
ENDBRANCH  23  26
ENDBRANCH   3  20
TORSDOF 4
