REMARK  1 active torsions:
REMARK  status: ('A' for Active; 'I' for Inactive)
REMARK    1  A    between atoms: C_6  and  N_2 
ROOT
ATOM      1  C   UNL d   1       2.480   1.177  -0.037  0.00  0.00     0.084 C 
ATOM      2  C   UNL d   1       1.830   1.792   2.465  0.00  0.00    -0.045 C 
ATOM      3  C   UNL d   1       2.933   1.620   1.369  0.00  0.00     0.034 C 
ATOM      4  C   UNL d   1       0.463   2.278   1.904  0.00  0.00     0.013 C 
ATOM      5  C   UNL d   1       1.205   1.942  -0.427  0.00  0.00     0.029 C 
ATOM      6  C   UNL d   1       0.102   1.589   0.592  0.00  0.00    -0.016 C 
ATOM      7  C   UNL d   1       1.667   0.446   3.200  0.00  0.00     0.015 C 
ATOM      8  C   UNL d   1       2.273   2.840   3.512  0.00  0.00     0.015 C 
ATOM      9  C   UNL d   1      -1.302   1.885   0.085  0.00  0.00     0.010 C 
ENDROOT
BRANCH   1  10
ATOM     10  N   UNL d   1       2.052  -0.220  -0.133  0.00  0.00    -0.371 N 
ATOM     11  C   UNL d   1       2.667  -1.162  -0.701  0.00  0.00     0.115 C 
ATOM     12  N   UNL d   1       1.997  -2.296  -1.092  0.00  0.00    -0.273 NA
ATOM     13  S   UNL d   1       4.326  -1.213  -1.220  0.00  0.00    -0.099 SA
ATOM     14  C   UNL d   1       2.553  -2.940  -2.267  0.00  0.00     0.105 C 
ATOM     15  H   UNL d   1       0.995  -2.114  -1.130  0.00  0.00     0.129 HD
ATOM     16  C   UNL d   1       4.061  -2.692  -2.251  0.00  0.00     0.096 C 
ATOM     17  HN  UNL d   1       1.162  -0.456   0.305  1.00  0.00     0.161 HD
ENDBRANCH   1  10
TORSDOF 1
