REMARK  3 active torsions:
REMARK  status: ('A' for Active; 'I' for Inactive)
REMARK       I    between atoms: N_2  and  C_1 
REMARK    1  A    between atoms: C_6  and  C_1 
REMARK    2  A    between atoms: C_4  and  N_2 
REMARK    3  A    between atoms: N_3  and  C_5 
ROOT
ATOM      1  C   UNL d   1       0.920  -0.860   2.329  0.00  0.00     0.061 A 
ATOM      2  C   UNL d   1       1.986  -0.042   2.784  0.00  0.00     0.057 A 
ATOM      3  C   UNL d   1       0.463  -1.954   3.090  0.00  0.00     0.032 A 
ATOM      4  C   UNL d   1       2.571  -0.427   4.011  0.00  0.00     0.031 A 
ATOM      5  C   UNL d   1       1.042  -2.266   4.314  0.00  0.00     0.002 A 
ATOM      6  C   UNL d   1       2.106  -1.508   4.771  0.00  0.00     0.002 A 
ENDROOT
BRANCH   1   7
ATOM      7  N   UNL d   1       0.208  -0.551   1.146  0.00  0.00    -0.321 N 
ATOM      8  C   UNL d   1      -0.018  -1.503   0.164  0.00  0.00     0.256 C 
ATOM      9  O   UNL d   1       0.341  -2.677   0.211  0.00  0.00    -0.267 OA
ATOM     10  H   UNL d   1       0.243   0.416   0.860  0.00  0.00     0.169 HD
BRANCH   8  11
ATOM     11  C   UNL d   1      -0.674  -1.014  -1.077  0.00  0.00     0.032 A 
ATOM     12  C   UNL d   1      -0.340  -1.611  -2.296  0.00  0.00     0.017 A 
ATOM     13  C   UNL d   1      -0.982  -1.211  -3.474  0.00  0.00     0.007 A 
ATOM     14  C   UNL d   1      -1.972  -0.224  -3.437  0.00  0.00    -0.062 A 
ATOM     15  C   UNL d   1      -2.300   0.372  -2.212  0.00  0.00     0.007 A 
ATOM     16  C   UNL d   1      -2.682   0.169  -4.700  0.00  0.00     0.048 C 
ATOM     17  C   UNL d   1      -1.654  -0.018  -1.036  0.00  0.00     0.017 A 
ENDBRANCH   8  11
ENDBRANCH   1   7
BRANCH   2  18
ATOM     18  N   UNL d   1       2.531   1.035   2.085  0.00  0.00    -0.379 N 
ATOM     19  C   UNL d   1       2.552   1.126   0.624  0.00  0.00     0.123 C 
ATOM     20  C   UNL d   1       3.922   1.581   0.127  0.00  0.00     0.020 C 
ATOM     21  C   UNL d   1       4.404   2.840   0.836  0.00  0.00     0.003 C 
ATOM     22  C   UNL d   1       4.354   2.658   2.350  0.00  0.00     0.020 C 
ATOM     23  C   UNL d   1       2.955   2.242   2.806  0.00  0.00     0.123 C 
ENDBRANCH   2  18
TORSDOF 3
