REMARK  4 active torsions:
REMARK  status: ('A' for Active; 'I' for Inactive)
REMARK    1  A    between atoms: C_6  and  C_1 
REMARK    2  A    between atoms: C_2  and  C_9 
REMARK       I    between atoms: N_14  and  C_6 
REMARK    3  A    between atoms: C_22  and  C_7 
REMARK    4  A    between atoms: C_9  and  N_14 
ROOT
ATOM      1  C   UNL d   1      -0.816  -2.769  -0.498  0.00  0.00     0.256 C 
ATOM      2  N   UNL d   1      -0.121  -3.788   0.175  0.00  0.00    -0.348 N 
ATOM      3  O   UNL d   1      -1.694  -2.975  -1.333  0.00  0.00    -0.267 OA
ATOM      4  C   UNL d   1       1.279  -3.551   0.523  0.00  0.00     0.153 C 
ENDROOT
BRANCH   2   5
ATOM      5  C   UNL d   1      -0.452  -5.183  -0.145  0.00  0.00     0.169 C 
BRANCH   5   6
ATOM      6  C   UNL d   1      -1.859  -5.590   0.149  0.00  0.00     0.021 A 
ATOM      7  C   UNL d   1      -2.468  -6.000   1.388  0.00  0.00     0.075 A 
ATOM      8  N   UNL d   1      -3.726  -6.422   1.173  0.00  0.00    -0.260 N 
ATOM      9  O   UNL d   1      -3.958  -6.303  -0.173  0.00  0.00    -0.242 OA
ATOM     10  HN  UNL d   1      -4.381  -6.765   1.875  1.00  0.00     0.195 HD
ATOM     11  C   UNL d   1      -2.853  -5.827  -0.789  0.00  0.00     0.082 A 
ATOM     12  C   UNL d   1      -2.937  -5.734  -2.260  0.00  0.00     0.079 C 
BRANCH   7  13
ATOM     13  C   UNL d   1      -1.915  -6.077   2.742  0.00  0.00    -0.007 A 
ATOM     14  C   UNL d   1      -2.289  -7.128   3.598  0.00  0.00     0.014 A 
ATOM     15  C   UNL d   1      -1.782  -7.212   4.898  0.00  0.00     0.001 A 
ATOM     16  C   UNL d   1      -0.887  -6.248   5.358  0.00  0.00     0.000 A 
ATOM     17  C   UNL d   1      -0.517  -5.193   4.527  0.00  0.00     0.001 A 
ATOM     18  C   UNL d   1      -1.035  -5.103   3.229  0.00  0.00     0.014 A 
ENDBRANCH   7  13
ENDBRANCH   5   6
ENDBRANCH   2   5
BRANCH   1  19
ATOM     19  C   UNL d   1      -0.443  -1.359  -0.301  0.00  0.00     0.061 A 
ATOM     20  C   UNL d   1      -0.385  -0.733   0.969  0.00  0.00     0.082 A 
ATOM     21  N   UNL d   1      -0.620  -1.278   2.176  0.00  0.00    -0.310 N 
ATOM     22  C   UNL d   1      -0.019   0.735   1.063  0.00  0.00     0.068 A 
ATOM     23  S   UNL d   1      -0.404  -0.078   3.301  0.00  0.00     0.068 SA
ATOM     24  HN  UNL d   1      -0.881  -2.246   2.364  1.00  0.00     0.176 HD
ATOM     25  N   UNL d   1       0.023   1.192   2.324  0.00  0.00    -0.310 N 
ATOM     26  HN  UNL d   1       0.269   2.136   2.623  1.00  0.00     0.176 HD
ATOM     27  C   UNL d   1       0.246   1.502  -0.098  0.00  0.00     0.032 A 
ATOM     28  C   UNL d   1       0.134   0.834  -1.328  0.00  0.00     0.003 A 
ATOM     29  C   UNL d   1      -0.204  -0.535  -1.426  0.00  0.00     0.019 A 
ENDBRANCH   1  19
TORSDOF 4
