REMARK  4 active torsions:
REMARK  status: ('A' for Active; 'I' for Inactive)
REMARK    1  A    between atoms: C_1  and  C_13 
REMARK    2  A    between atoms: C_7  and  S_8 
REMARK    3  A    between atoms: S_8  and  C_9 
REMARK    4  A    between atoms: C_9  and  C_10 
REMARK       I    between atoms: C_10  and  N_11 
ROOT
ATOM      1  C   UNL d   1       0.697   1.186   0.034  0.00  0.00     0.063 A 
ATOM      2  C   UNL d   1       1.435   0.000   0.025  0.00  0.00     0.020 A 
ATOM      3  C   UNL d   1      -0.685   1.075   0.051  0.00  0.00     0.105 A 
ATOM      4  C   UNL d   1       0.772  -1.228   0.026  0.00  0.00     0.038 A 
ATOM      5  N   UNL d   1      -1.352  -0.104   0.068  0.00  0.00    -0.360 N 
ATOM      6  HN  UNL d   1      -2.371  -0.135   0.094  1.00  0.00     0.166 HD
ATOM      7  C   UNL d   1      -0.616  -1.238   0.049  0.00  0.00     0.070 A 
ENDROOT
BRANCH   7   8
ATOM      8  S   UNL d   1      -1.550  -2.749  -0.004  0.00  0.00    -0.103 SA
BRANCH   8   9
ATOM      9  C   UNL d   1      -1.030  -3.518   1.561  0.00  0.00     0.183 C 
BRANCH   9  10
ATOM     10  C   UNL d   1      -1.316  -2.671   2.788  0.00  0.00     0.225 C 
ATOM     11  N   UNL d   1      -2.474  -1.950   2.794  0.00  0.00    -0.369 N 
ATOM     12  H   UNL d   1      -2.608  -1.322   3.576  0.00  0.00     0.159 HD
ATOM     13  H   UNL d   1      -2.886  -1.673   1.907  0.00  0.00     0.159 HD
ATOM     14  O   UNL d   1      -0.593  -2.691   3.780  0.00  0.00    -0.273 OA
ENDBRANCH   9  10
ENDBRANCH   8   9
ENDBRANCH   7   8
BRANCH   1  15
ATOM     15  C   UNL d   1       1.333   2.543   0.022  0.00  0.00     0.418 C 
ATOM     16  F   UNL d   1       2.694   2.504   0.019  0.00  0.00    -0.166 F 
ATOM     17  F   UNL d   1       0.978   3.276  -1.069  0.00  0.00    -0.166 F 
ATOM     18  F   UNL d   1       0.983   3.291   1.103  0.00  0.00    -0.166 F 
ENDBRANCH   1  15
TORSDOF 4
