REMARK  5 active torsions:
REMARK  status: ('A' for Active; 'I' for Inactive)
REMARK    1  A    between atoms: C_3  and  C_1 
REMARK    2  A    between atoms: C_5  and  C_1 
REMARK    3  A    between atoms: C_6  and  C_2 
REMARK    4  A    between atoms: C_4  and  C_3 
REMARK    5  A    between atoms: N_7  and  C_5 
ROOT
ATOM      1  C   UNL d   1       1.092  -0.008  -0.038  0.00  0.00     0.078 C 
ATOM      2  C   UNL d   1       0.421   1.103   0.329  0.00  0.00     0.038 C 
ENDROOT
BRANCH   1   3
ATOM      3  C   UNL d   1       0.314  -1.177  -0.541  0.00  0.00     0.202 C 
ATOM      4  O   UNL d   1      -0.841  -1.029  -0.944  0.00  0.00    -0.286 OA
BRANCH   3   5
ATOM      5  C   UNL d   1       0.974  -2.482  -0.602  0.00  0.00     0.022 A 
ATOM      6  C   UNL d   1       1.954  -2.962   0.252  0.00  0.00     0.065 A 
ATOM      7  S   UNL d   1       2.479  -4.544  -0.147  0.00  0.00    -0.113 SA
ATOM      8  C   UNL d   1       1.359  -4.653  -1.428  0.00  0.00     0.050 A 
ATOM      9  C   UNL d   1       0.612  -3.503  -1.552  0.00  0.00     0.023 A 
ENDBRANCH   3   5
ENDBRANCH   1   3
BRANCH   1  10
ATOM     10  C   UNL d   1       2.612  -0.008  -0.038  0.00  0.00    -0.033 C 
BRANCH  10  11
ATOM     11  N   UNL d   1       3.873  -0.008  -0.038  0.00  0.00    -0.365 N 
ATOM     12  HN2 UNL d   1       2.853  -0.008  -0.038  1.00  0.00     0.165 HD
ATOM     13  HN1 UNL d   1       4.893  -0.008  -0.038  1.00  0.00     0.165 HD
ENDBRANCH  10  11
ENDBRANCH   1  10
BRANCH   2  14
ATOM     14  C   UNL d   1       1.059   2.359   0.765  0.00  0.00    -0.013 A 
ATOM     15  C   UNL d   1       1.400   2.622   2.104  0.00  0.00     0.045 A 
ATOM     16  C   UNL d   1       1.975   3.844   2.466  0.00  0.00     0.048 A 
ATOM     17 CL   UNL d   1       1.127   1.455   3.349  0.00  0.00    -0.083 Cl
ATOM     18  C   UNL d   1       2.224   4.804   1.488  0.00  0.00     0.035 A 
ATOM     19  C   UNL d   1       1.918   4.550   0.153  0.00  0.00     0.024 A 
ATOM     20 CL   UNL d   1       2.907   6.320   1.932  0.00  0.00    -0.084 Cl
ATOM     21  C   UNL d   1       1.337   3.331  -0.208  0.00  0.00     0.015 A 
ENDBRANCH   2  14
TORSDOF 5
