REMARK  5 active torsions:
REMARK  status: ('A' for Active; 'I' for Inactive)
REMARK    1  A    between atoms: C_4  and  C_1 
REMARK    2  A    between atoms: C_2  and  C_7 
REMARK    3  A    between atoms: C_11  and  C_5 
REMARK    4  A    between atoms: C_8  and  C_12 
REMARK       I    between atoms: N_13  and  C_8 
REMARK    5  A    between atoms: C_17  and  N_13 
ROOT
ATOM      1  C   UNL d   1       0.326  -4.972   0.013  0.00  0.00     0.245 C 
ATOM      2  N   UNL d   1       1.227  -5.928  -0.409  0.00  0.00    -0.324 N 
ATOM      3  O   UNL d   1      -0.794  -5.171   0.470  0.00  0.00    -0.268 OA
ATOM      4  H   UNL d   1       2.166  -5.629  -0.630  0.00  0.00     0.169 HD
ENDROOT
BRANCH   1   5
ATOM      5  C   UNL d   1       0.858  -3.587  -0.099  0.00  0.00     0.075 C 
ATOM      6  C   UNL d   1       0.146  -2.591   0.450  0.00  0.00     0.024 C 
BRANCH   6   7
ATOM      7  C   UNL d   1       0.513  -1.220   0.329  0.00  0.00     0.005 A 
ATOM      8  S   UNL d   1      -0.520  -0.030   1.025  0.00  0.00    -0.089 SA
ATOM      9  C   UNL d   1       0.404   1.284   0.421  0.00  0.00     0.022 A 
ATOM     10  C   UNL d   1       1.523   0.813  -0.239  0.00  0.00     0.021 A 
ATOM     11  C   UNL d   1       1.587  -0.611  -0.290  0.00  0.00     0.020 A 
BRANCH   9  12
ATOM     12  C   UNL d   1      -0.014   2.661   0.605  0.00  0.00     0.021 A 
ATOM     13  S   UNL d   1       0.854   3.968  -0.107  0.00  0.00    -0.101 SA
ATOM     14  C   UNL d   1      -0.237   5.132   0.494  0.00  0.00     0.050 A 
ATOM     15  C   UNL d   1      -1.241   4.560   1.239  0.00  0.00     0.008 A 
ATOM     16  C   UNL d   1      -1.109   3.141   1.308  0.00  0.00     0.021 A 
ENDBRANCH   9  12
ENDBRANCH   6   7
ENDBRANCH   1   5
BRANCH   2  17
ATOM     17  C   UNL d   1       1.004  -7.324  -0.400  0.00  0.00     0.035 A 
ATOM     18  C   UNL d   1      -0.260  -7.896  -0.232  0.00  0.00     0.045 A 
ATOM     19  C   UNL d   1      -0.424  -9.287  -0.141  0.00  0.00     0.050 A 
ATOM     20  C   UNL d   1       0.705 -10.110  -0.240  0.00  0.00     0.016 A 
ATOM     21  C   UNL d   1       1.966  -9.552  -0.454  0.00  0.00     0.003 A 
ATOM     22  C   UNL d   1       2.113  -8.165  -0.544  0.00  0.00     0.029 A 
BRANCH  19  23
ATOM     23  C   UNL d   1      -1.788  -9.885   0.097  0.00  0.00     0.417 C 
ATOM     24  F   UNL d   1      -2.807  -8.983   0.045  0.00  0.00    -0.166 F 
ATOM     25  F   UNL d   1      -2.100 -10.847  -0.817  0.00  0.00    -0.166 F 
ATOM     26  F   UNL d   1      -1.883 -10.486   1.316  0.00  0.00    -0.166 F 
ENDBRANCH  19  23
ENDBRANCH   2  17
TORSDOF 5
