REMARK  3 active torsions:
REMARK  status: ('A' for Active; 'I' for Inactive)
REMARK       I    between atoms: N_2  and  C_1 
REMARK    1  A    between atoms: C_4  and  C_1 
REMARK    2  A    between atoms: C_5  and  N_3 
REMARK    3  A    between atoms: O_14  and  C_12 
ROOT
ATOM      1  C   UNL d   1       2.326  -0.125   0.084  0.00  0.00     0.253 C 
ATOM      2  N   UNL d   1       3.033  -1.328   0.190  0.00  0.00    -0.345 N 
ATOM      3  N   UNL d   1       4.575  -3.717   0.633  0.00  0.00    -0.376 N 
ATOM      4  C   UNL d   1       3.115  -2.391  -0.837  0.00  0.00     0.146 C 
ATOM      5  C   UNL d   1       4.180  -1.321   1.105  0.00  0.00     0.146 C 
ATOM      6  C   UNL d   1       3.356  -3.774  -0.192  0.00  0.00     0.143 C 
ATOM      7  C   UNL d   1       4.505  -2.702   1.699  0.00  0.00     0.143 C 
ATOM      8  O   UNL d   1       2.546   0.827   0.836  0.00  0.00    -0.267 OA
ENDROOT
BRANCH   1   9
ATOM      9  C   UNL d   1       1.288   0.083  -0.955  0.00  0.00     0.032 A 
ATOM     10  C   UNL d   1       1.225   1.346  -1.565  0.00  0.00     0.023 A 
ATOM     11  C   UNL d   1       0.246   1.634  -2.524  0.00  0.00    -0.061 A 
ATOM     12  C   UNL d   1       0.146   3.000  -3.135  0.00  0.00     0.048 C 
ATOM     13  C   UNL d   1      -0.655   0.630  -2.893  0.00  0.00     0.007 A 
ATOM     14  C   UNL d   1      -0.624  -0.616  -2.264  0.00  0.00     0.002 A 
ATOM     15  C   UNL d   1       0.321  -0.879  -1.269  0.00  0.00     0.017 A 
ENDBRANCH   1   9
BRANCH   3  16
ATOM     16  C   UNL d   1       5.436  -4.808   0.734  0.00  0.00     0.064 A 
ATOM     17  C   UNL d   1       5.907  -5.532  -0.394  0.00  0.00     0.094 A 
ATOM     18  C   UNL d   1       6.890  -6.529  -0.246  0.00  0.00     0.039 A 
ATOM     19  C   UNL d   1       7.397  -6.854   1.008  0.00  0.00     0.003 A 
ATOM     20  C   UNL d   1       6.918  -6.197   2.129  0.00  0.00     0.002 A 
ATOM     21  C   UNL d   1       5.953  -5.195   1.989  0.00  0.00     0.032 A 
BRANCH  17  22
ATOM     22  O   UNL d   1       5.460  -5.155  -1.642  0.00  0.00    -0.354 OA
ATOM     23  C   UNL d   1       5.444  -6.182  -2.630  0.00  0.00     0.210 C 
ENDBRANCH  17  22
ENDBRANCH   3  16
TORSDOF 3
