REMARK  5 active torsions:
REMARK  status: ('A' for Active; 'I' for Inactive)
REMARK    1  A    between atoms: C_8  and  C_3 
REMARK    2  A    between atoms: C_9  and  N_4 
REMARK    3  A    between atoms: O_12  and  C_6 
REMARK    4  A    between atoms: C_7  and  C_10 
REMARK    5  A    between atoms: O_20  and  C_8 
ROOT
ATOM      1  N   UNL d   1       0.910  -0.638  -0.288  0.00  0.00    -0.286 N 
ATOM      2  HN  UNL d   1       1.731  -1.172  -0.574  1.00  0.00     0.188 HD
ATOM      3  C   UNL d   1      -0.339  -1.102  -0.074  0.00  0.00     0.128 C 
ATOM      4  N   UNL d   1       0.838   0.692  -0.039  0.00  0.00    -0.234 N 
ATOM      5  C   UNL d   1      -1.235  -0.035   0.168  0.00  0.00     0.095 C 
ATOM      6  C   UNL d   1      -0.477   1.109   0.147  0.00  0.00     0.164 C 
ENDROOT
BRANCH   4   7
ATOM      7  C   UNL d   1       2.016   1.488  -0.022  0.00  0.00     0.059 A 
ATOM      8  C   UNL d   1       3.115   1.113  -0.808  0.00  0.00     0.032 A 
ATOM      9  C   UNL d   1       4.238   1.945  -0.872  0.00  0.00     0.018 A 
ATOM     10  C   UNL d   1       4.296   3.130  -0.118  0.00  0.00     0.048 A 
ATOM     11  C   UNL d   1       3.215   3.460   0.711  0.00  0.00     0.018 A 
ATOM     12  C   UNL d   1       2.083   2.646   0.761  0.00  0.00     0.032 A 
BRANCH  10  13
ATOM     13  C   UNL d   1       5.508   4.027  -0.197  0.00  0.00     0.417 C 
ATOM     14  F   UNL d   1       5.417   5.127   0.603  0.00  0.00    -0.166 F 
ATOM     15  F   UNL d   1       6.654   3.392   0.171  0.00  0.00    -0.166 F 
ATOM     16  F   UNL d   1       5.725   4.500  -1.454  0.00  0.00    -0.166 F 
ENDBRANCH  10  13
ENDBRANCH   4   7
BRANCH   6  17
ATOM     17  O   UNL d   1      -0.888   2.376   0.228  0.00  0.00    -0.345 OA
ATOM     18  H   UNL d   1      -0.211   2.962  -0.156  0.00  0.00     0.219 HD
ENDBRANCH   6  17
BRANCH   3  19
ATOM     19  C   UNL d   1      -0.691  -2.532  -0.125  0.00  0.00     0.311 C 
ATOM     20  O   UNL d   1      -1.834  -2.946   0.036  0.00  0.00    -0.258 OA
BRANCH  19  21
ATOM     21  O   UNL d   1       0.393  -3.335  -0.354  0.00  0.00    -0.321 OA
ATOM     22  C   UNL d   1       0.099  -4.729  -0.392  0.00  0.00     0.213 C 
ENDBRANCH  19  21
ENDBRANCH   3  19
TORSDOF 5
