REMARK  0 active torsions:
REMARK  status: ('A' for Active; 'I' for Inactive)
ROOT
ATOM      1  C   UNL d   1       0.201   0.611   0.002  0.00  0.00     0.066 A 
ATOM      2  C   UNL d   1      -0.472  -0.593   0.010  0.00  0.00     0.090 A 
ATOM      3  N   UNL d   1       0.087  -1.833   0.012  0.00  0.00    -0.346 N 
ATOM      4  HN  UNL d   1      -0.465  -2.691   0.022  1.00  0.00     0.167 HD
ATOM      5  C   UNL d   1       1.647   0.575  -0.009  0.00  0.00     0.259 A 
ATOM      6  N   UNL d   1       2.166  -0.700  -0.013  0.00  0.00    -0.319 N 
ATOM      7  C   UNL d   1       1.380  -1.828  -0.000  0.00  0.00     0.184 A 
ATOM      8  S   UNL d   1      -2.164  -0.365   0.013  0.00  0.00    -0.083 SA
ATOM      9  C   UNL d   1      -0.677   1.733   0.006  0.00  0.00     0.027 A 
ATOM     10  C   UNL d   1      -1.998   1.342   0.007  0.00  0.00     0.053 A 
ATOM     11  O   UNL d   1       2.361   1.572  -0.015  0.00  0.00    -0.267 OA
ATOM     12  H   UNL d   1       3.172  -0.769  -0.024  0.00  0.00     0.169 HD
ENDROOT
TORSDOF 0
