REMARK  8 active torsions:
REMARK  status: ('A' for Active; 'I' for Inactive)
REMARK    1  A    between atoms: C_8  and  N_2 
REMARK    2  A    between atoms: C_21  and  C_6 
REMARK    3  A    between atoms: C_19  and  C_7 
REMARK    4  A    between atoms: C_10  and  C_8 
REMARK       I    between atoms: N_17  and  C_10 
REMARK    5  A    between atoms: C_11  and  N_16 
REMARK    6  A    between atoms: N_15  and  C_11 
REMARK    7  A    between atoms: C_22  and  N_15 
REMARK    8  A    between atoms: N_16  and  N_17 
ROOT
ATOM      1  C   UNL d   1      -0.625   1.289  -0.438  0.00  0.00     0.127 C 
ATOM      2  N   UNL d   1      -0.754  -1.078  -0.020  0.00  0.00    -0.247 N 
ATOM      3  N   UNL d   1       0.613  -1.148   0.203  0.00  0.00    -0.294 N 
ATOM      4  HN  UNL d   1       1.060  -2.030   0.453  1.00  0.00     0.187 HD
ATOM      5  C   UNL d   1      -1.251  -0.009  -0.758  0.00  0.00     0.284 C 
ATOM      6  C   UNL d   1       0.677   1.304  -0.106  0.00  0.00     0.029 C 
ATOM      7  C   UNL d   1       1.308  -0.050   0.081  0.00  0.00     0.071 C 
ATOM      8  C   UNL d   1      -1.436   2.451  -0.551  0.00  0.00     0.106 C 
ATOM      9  N   UNL d   1      -2.067   3.423  -0.602  0.00  0.00    -0.191 NA
ATOM     10  O   UNL d   1      -2.137  -0.094  -1.602  0.00  0.00    -0.265 OA
ENDROOT
BRANCH   6  11
ATOM     11  C   UNL d   1       1.387   2.589   0.043  0.00  0.00    -0.022 A 
ATOM     12  C   UNL d   1       1.750   3.100   1.295  0.00  0.00     0.012 A 
ATOM     13  C   UNL d   1       2.398   4.337   1.379  0.00  0.00     0.001 A 
ATOM     14  C   UNL d   1       2.695   5.061   0.223  0.00  0.00     0.000 A 
ATOM     15  C   UNL d   1       2.333   4.561  -1.024  0.00  0.00     0.001 A 
ATOM     16  C   UNL d   1       1.671   3.338  -1.110  0.00  0.00     0.012 A 
ENDBRANCH   6  11
BRANCH   2  17
ATOM     17  C   UNL d   1      -1.427  -2.372  -0.166  0.00  0.00     0.257 C 
BRANCH  17  18
ATOM     18  C   UNL d   1      -2.955  -2.270  -0.025  0.00  0.00     0.256 C 
ATOM     19  N   UNL d   1      -3.629  -3.321  -0.657  0.00  0.00    -0.266 N 
ATOM     20  H   UNL d   1      -3.075  -4.053  -1.091  0.00  0.00     0.190 HD
ATOM     21  O   UNL d   1      -3.516  -1.343   0.556  0.00  0.00    -0.270 OA
BRANCH  19  22
ATOM     22  N   UNL d   1      -4.785  -2.982  -1.392  0.00  0.00    -0.273 N 
ATOM     23  H   UNL d   1      -4.667  -2.886  -2.394  0.00  0.00     0.189 HD
BRANCH  22  24
ATOM     24  C   UNL d   1      -5.993  -2.641  -0.835  0.00  0.00     0.191 C 
ATOM     25  S   UNL d   1      -6.527  -3.099   0.684  0.00  0.00    -0.039 SA
BRANCH  24  26
ATOM     26  N   UNL d   1      -6.872  -1.972  -1.657  0.00  0.00    -0.332 N 
ATOM     27  H   UNL d   1      -7.824  -1.976  -1.302  0.00  0.00     0.168 HD
BRANCH  26  28
ATOM     28  C   UNL d   1      -6.650  -1.237  -2.842  0.00  0.00     0.036 A 
ATOM     29  C   UNL d   1      -5.405  -0.712  -3.212  0.00  0.00     0.055 A 
ATOM     30  C   UNL d   1      -5.246  -0.033  -4.427  0.00  0.00     0.058 A 
ATOM     31 CL   UNL d   1      -3.662   0.525  -4.838  0.00  0.00    -0.082 Cl
ATOM     32  C   UNL d   1      -6.346   0.163  -5.266  0.00  0.00     0.055 A 
ATOM     33  C   UNL d   1      -7.602  -0.307  -4.875  0.00  0.00     0.028 A 
ATOM     34 CL   UNL d   1      -6.224   0.974  -6.786  0.00  0.00    -0.083 Cl
ATOM     35  C   UNL d   1      -7.753  -0.994  -3.666  0.00  0.00     0.031 A 
ENDBRANCH  26  28
ENDBRANCH  24  26
ENDBRANCH  22  24
ENDBRANCH  19  22
ENDBRANCH  17  18
ENDBRANCH   2  17
BRANCH   7  36
ATOM     36  C   UNL d   1       2.800  -0.165   0.133  0.00  0.00    -0.007 A 
ATOM     37  C   UNL d   1       3.623   0.550  -0.747  0.00  0.00     0.014 A 
ATOM     38  C   UNL d   1       5.011   0.413  -0.694  0.00  0.00     0.001 A 
ATOM     39  C   UNL d   1       5.588  -0.479   0.201  0.00  0.00     0.000 A 
ATOM     40  C   UNL d   1       4.778  -1.244   1.039  0.00  0.00     0.001 A 
ATOM     41  C   UNL d   1       3.388  -1.088   1.006  0.00  0.00     0.014 A 
ENDBRANCH   7  36
TORSDOF 8
