REMARK  4 active torsions:
REMARK  status: ('A' for Active; 'I' for Inactive)
REMARK    1  A    between atoms: C_6  and  C_1 
REMARK    2  A    between atoms: C_7  and  C_1 
REMARK    3  A    between atoms: C_11  and  C_6 
REMARK    4  A    between atoms: C_10  and  C_7 
ROOT
ATOM      1  C   UNL d   1      -0.821   1.589   0.033  0.00  0.00     0.078 A 
ATOM      2  C   UNL d   1      -1.784   0.372  -0.043  0.00  0.00     0.238 A 
ATOM      3  N   UNL d   1      -1.021  -0.788   0.086  0.00  0.00    -0.321 N 
ATOM      4  C   UNL d   1       0.344  -0.498   0.099  0.00  0.00     0.044 A 
ATOM      5  C   UNL d   1       0.534   0.886   0.070  0.00  0.00    -0.013 A 
ATOM      6  O   UNL d   1      -2.998   0.409  -0.201  0.00  0.00    -0.272 OA
ATOM      7  C   UNL d   1      -1.561  -2.121   0.038  0.00  0.00     0.159 C 
ATOM      8  C   UNL d   1       1.405  -1.387   0.104  0.00  0.00     0.030 A 
ATOM      9  C   UNL d   1       1.815   1.415   0.056  0.00  0.00     0.011 A 
ATOM     10  C   UNL d   1       2.899   0.531   0.046  0.00  0.00     0.001 A 
ATOM     11  C   UNL d   1       2.696  -0.859   0.069  0.00  0.00     0.002 A 
ENDROOT
BRANCH   1  12
ATOM     12  C   UNL d   1      -1.006   2.518  -1.192  0.00  0.00     0.063 C 
BRANCH  12  13
ATOM     13  C   UNL d   1      -0.752   1.920  -2.561  0.00  0.00    -0.057 A 
ATOM     14  C   UNL d   1      -1.788   1.288  -3.262  0.00  0.00     0.007 A 
ATOM     15  C   UNL d   1      -1.555   0.728  -4.519  0.00  0.00     0.001 A 
ATOM     16  C   UNL d   1      -0.288   0.801  -5.093  0.00  0.00     0.000 A 
ATOM     17  C   UNL d   1       0.745   1.444  -4.415  0.00  0.00     0.001 A 
ATOM     18  C   UNL d   1       0.514   2.003  -3.157  0.00  0.00     0.007 A 
ENDBRANCH  12  13
ENDBRANCH   1  12
BRANCH   1  19
ATOM     19  C   UNL d   1      -1.022   2.368   1.369  0.00  0.00     0.063 C 
BRANCH  19  20
ATOM     20  C   UNL d   1      -2.406   2.935   1.624  0.00  0.00    -0.057 A 
ATOM     21  C   UNL d   1      -3.369   2.163   2.291  0.00  0.00     0.007 A 
ATOM     22  C   UNL d   1      -4.680   2.621   2.434  0.00  0.00     0.001 A 
ATOM     23  C   UNL d   1      -5.038   3.874   1.944  0.00  0.00     0.000 A 
ATOM     24  C   UNL d   1      -4.080   4.677   1.329  0.00  0.00     0.001 A 
ATOM     25  C   UNL d   1      -2.771   4.211   1.170  0.00  0.00     0.007 A 
ENDBRANCH  19  20
ENDBRANCH   1  19
TORSDOF 4
