REMARK  5 active torsions:
REMARK  status: ('A' for Active; 'I' for Inactive)
REMARK    1  A    between atoms: C_7  and  C_1 
REMARK    2  A    between atoms: C_5  and  C_2 
REMARK       I    between atoms: N_9  and  C_7 
REMARK    3  A    between atoms: C_11  and  N_9 
REMARK    4  A    between atoms: C_10  and  C_11 
REMARK    5  A    between atoms: C_17  and  C_10 
ROOT
ATOM      1  C   UNL d   1      -2.595   1.378   0.112  0.00  0.00     0.271 C 
ATOM      2  N   UNL d   1      -3.908   0.976   0.225  0.00  0.00    -0.348 N 
ATOM      3  O   UNL d   1      -1.704   0.589  -0.187  0.00  0.00    -0.266 OA
ATOM      4  H   UNL d   1      -4.632   1.653   0.462  0.00  0.00     0.163 HD
ENDROOT
BRANCH   1   5
ATOM      5  C   UNL d   1      -2.346   2.789   0.362  0.00  0.00     0.141 A 
ATOM      6  C   UNL d   1      -1.128   3.441   0.298  0.00  0.00     0.193 A 
ATOM      7  O   UNL d   1      -1.354   4.762   0.607  0.00  0.00    -0.291 OA
ATOM      8  C   UNL d   1      -2.695   4.842   0.839  0.00  0.00     0.121 A 
ATOM      9  N   UNL d   1      -3.340   3.700   0.707  0.00  0.00    -0.334 N 
ATOM     10  C   UNL d   1      -3.207   6.179   1.201  0.00  0.00     0.098 C 
ATOM     11  HN  UNL d   1      -4.337   3.525   0.830  1.00  0.00     0.168 HD
BRANCH   6  12
ATOM     12  C   UNL d   1       0.268   3.071  -0.008  0.00  0.00     0.442 C 
ATOM     13  F   UNL d   1       0.469   1.768  -0.309  0.00  0.00    -0.164 F 
ATOM     14  F   UNL d   1       0.744   3.783  -1.066  0.00  0.00    -0.164 F 
ATOM     15  F   UNL d   1       1.092   3.350   1.039  0.00  0.00    -0.164 F 
ENDBRANCH   6  12
ENDBRANCH   1   5
BRANCH   2  16
ATOM     16  C   UNL d   1      -4.241  -0.403  -0.050  0.00  0.00     0.206 C 
BRANCH  16  17
ATOM     17  C   UNL d   1      -5.710  -0.772   0.092  0.00  0.00     0.177 C 
ATOM     18  O   UNL d   1      -6.560   0.039   0.459  0.00  0.00    -0.291 OA
BRANCH  17  19
ATOM     19  C   UNL d   1      -6.095  -2.187  -0.233  0.00  0.00     0.011 A 
ATOM     20  C   UNL d   1      -5.154  -3.125  -0.686  0.00  0.00     0.015 A 
ATOM     21  C   UNL d   1      -5.543  -4.431  -0.990  0.00  0.00     0.001 A 
ATOM     22  C   UNL d   1      -6.873  -4.815  -0.842  0.00  0.00     0.000 A 
ATOM     23  C   UNL d   1      -7.816  -3.893  -0.387  0.00  0.00     0.001 A 
ATOM     24  C   UNL d   1      -7.430  -2.583  -0.084  0.00  0.00     0.015 A 
ENDBRANCH  17  19
ENDBRANCH  16  17
ENDBRANCH   2  16
TORSDOF 5
