REMARK  5 active torsions:
REMARK  status: ('A' for Active; 'I' for Inactive)
REMARK    1  A    between atoms: N_2  and  C_1 
REMARK    2  A    between atoms: C_6  and  N_2 
REMARK    3  A    between atoms: C_11  and  N_7 
REMARK    4  A    between atoms: C_8  and  C_10 
REMARK    5  A    between atoms: C_10  and  C_11 
ROOT
ATOM      1  C   UNL d   1       1.216   0.068  -0.064  0.00  0.00     0.172 C 
ATOM      2  S   UNL d   1       0.341  -0.565   1.214  0.00  0.00    -0.041 SA
ATOM      3  N   UNL d   1       2.562   0.096   0.052  0.00  0.00    -0.367 N 
ATOM      4  H   UNL d   1       2.909  -0.418   0.854  0.00  0.00     0.161 HD
ENDROOT
BRANCH   1   5
ATOM      5  N   UNL d   1       0.536   0.597  -1.108  0.00  0.00    -0.333 N 
ATOM      6  H   UNL d   1      -0.433   0.792  -0.887  0.00  0.00     0.168 HD
BRANCH   5   7
ATOM      7  C   UNL d   1       0.891   0.796  -2.458  0.00  0.00     0.034 C 
ATOM      8  C   UNL d   1       1.984   0.173  -3.054  0.00  0.00     0.036 C 
ATOM      9  C   UNL d   1       2.436   0.565  -4.322  0.00  0.00    -0.060 C 
ATOM     10  C   UNL d   1       3.748   0.058  -4.843  0.00  0.00     0.048 C 
ATOM     11  C   UNL d   1       1.669   1.464  -5.064  0.00  0.00     0.007 C 
ATOM     12  C   UNL d   1       0.489   1.987  -4.532  0.00  0.00     0.003 C 
ATOM     13  C   UNL d   1       0.107   1.661  -3.225  0.00  0.00     0.029 C 
ENDBRANCH   5   7
ENDBRANCH   1   5
BRANCH   3  14
ATOM     14  C   UNL d   1       3.533   0.942  -0.634  0.00  0.00     0.128 C 
BRANCH  14  15
ATOM     15  C   UNL d   1       4.531   1.628   0.291  0.00  0.00     0.076 C 
BRANCH  15  16
ATOM     16  C   UNL d   1       5.408   2.514  -0.559  0.00  0.00     0.010 A 
ATOM     17  N   UNL d   1       6.522   1.953  -1.087  0.00  0.00    -0.369 N 
ATOM     18  C   UNL d   1       7.229   2.692  -1.972  0.00  0.00     0.088 A 
ATOM     19  HN  UNL d   1       6.816   1.011  -0.828  1.00  0.00     0.165 HD
ATOM     20  C   UNL d   1       6.873   3.970  -2.367  0.00  0.00     0.017 A 
ATOM     21  C   UNL d   1       5.730   4.533  -1.814  0.00  0.00     0.003 A 
ATOM     22  C   UNL d   1       4.986   3.800  -0.896  0.00  0.00     0.025 A 
ENDBRANCH  15  16
ENDBRANCH  14  15
ENDBRANCH   3  14
TORSDOF 5
