REMARK  7 active torsions:
REMARK  status: ('A' for Active; 'I' for Inactive)
REMARK    1  A    between atoms: O_12  and  C_2 
REMARK    2  A    between atoms: C_8  and  C_3 
REMARK    3  A    between atoms: C_9  and  C_6 
REMARK    4  A    between atoms: C_23  and  O_12 
REMARK    5  A    between atoms: C_15  and  C_23 
REMARK    6  A    between atoms: O_24  and  C_15 
REMARK    7  A    between atoms: C_25  and  O_24 
ROOT
ATOM      1  C   UNL d   1       0.578   0.061   0.104  0.00  0.00     0.108 A 
ATOM      2  C   UNL d   1      -0.220  -1.082   0.153  0.00  0.00     0.165 A 
ATOM      3  C   UNL d   1      -0.076   1.300   0.005  0.00  0.00     0.025 A 
ATOM      4  N   UNL d   1      -1.571  -1.079   0.073  0.00  0.00    -0.333 N 
ATOM      5  HN  UNL d   1      -2.107  -1.947   0.089  1.00  0.00     0.168 HD
ATOM      6  C   UNL d   1      -2.181   0.121  -0.028  0.00  0.00     0.069 A 
ATOM      7  C   UNL d   1      -1.478   1.317  -0.030  0.00  0.00     0.048 A 
ATOM      8  C   UNL d   1       2.003  -0.068   0.173  0.00  0.00     0.105 C 
ATOM      9  N   UNL d   1       3.159  -0.192   0.231  0.00  0.00    -0.191 NA
ENDROOT
BRANCH   2  10
ATOM     10  O   UNL d   1       0.408  -2.310   0.201  0.00  0.00    -0.325 OA
BRANCH  10  11
ATOM     11  C   UNL d   1      -0.405  -3.348   0.741  0.00  0.00     0.288 C 
BRANCH  11  12
ATOM     12  C   UNL d   1      -0.618  -3.241   2.246  0.00  0.00     0.283 C 
ATOM     13  O   UNL d   1      -0.195  -2.343   2.962  0.00  0.00    -0.263 OA
BRANCH  12  14
ATOM     14  O   UNL d   1      -1.257  -4.364   2.690  0.00  0.00    -0.320 OA
BRANCH  14  15
ATOM     15  C   UNL d   1      -1.134  -4.619   4.096  0.00  0.00     0.174 C 
ATOM     16  C   UNL d   1       0.142  -5.412   4.321  0.00  0.00     0.034 C 
ENDBRANCH  14  15
ENDBRANCH  12  14
ENDBRANCH  11  12
ENDBRANCH  10  11
ENDBRANCH   2  10
BRANCH   3  17
ATOM     17  C   UNL d   1       0.616   2.578  -0.137  0.00  0.00     0.086 A 
ATOM     18  O   UNL d   1       1.769   2.557  -0.862  0.00  0.00    -0.322 OA
ATOM     19  C   UNL d   1       2.214   3.835  -0.955  0.00  0.00     0.142 A 
ATOM     20  C   UNL d   1       1.351   4.691  -0.314  0.00  0.00     0.027 A 
ATOM     21  C   UNL d   1       0.318   3.880   0.218  0.00  0.00     0.040 A 
ENDBRANCH   3  17
BRANCH   6  22
ATOM     22  C   UNL d   1      -3.618   0.068  -0.256  0.00  0.00     0.101 A 
ATOM     23  O   UNL d   1      -4.254   1.268  -0.428  0.00  0.00    -0.321 OA
ATOM     24  C   UNL d   1      -5.553   0.999  -0.711  0.00  0.00     0.142 A 
ATOM     25  C   UNL d   1      -5.774  -0.357  -0.714  0.00  0.00     0.027 A 
ATOM     26  C   UNL d   1      -4.529  -0.959  -0.407  0.00  0.00     0.041 A 
ENDBRANCH   6  22
TORSDOF 7
