REMARK  6 active torsions:
REMARK  status: ('A' for Active; 'I' for Inactive)
REMARK    1  A    between atoms: C_11  and  C_3 
REMARK    2  A    between atoms: C_17  and  N_6 
REMARK    3  A    between atoms: C_14  and  C_11 
REMARK    4  A    between atoms: C_16  and  C_12 
REMARK    5  A    between atoms: C_23  and  C_16 
REMARK    6  A    between atoms: O_29  and  C_24 
ROOT
ATOM      1  N   UNL d   1      -0.261   0.560   0.045  0.00  0.00    -0.062 N 
ATOM      2  C   UNL d   1       0.036  -0.799   0.124  0.00  0.00     0.730 A 
ATOM      3  C   UNL d   1      -1.647   0.691  -0.077  0.00  0.00     0.212 A 
ATOM      4  N   UNL d   1       1.205  -1.336   0.234  0.00  0.00    -0.151 N 
ATOM      5  HN  UNL d   1       1.359  -2.344   0.266  1.00  0.00     0.188 HD
ATOM      6  N   UNL d   1      -1.216  -1.395   0.006  0.00  0.00    -0.083 N 
ATOM      7  N   UNL d   1      -2.266  -0.486  -0.140  0.00  0.00    -0.259 N 
ATOM      8  HN  UNL d   1      -3.260  -0.676  -0.263  1.00  0.00     0.190 HD
ATOM      9  N   UNL d   1       0.712   1.537  -0.036  0.00  0.00    -0.276 N 
ATOM     10  HN  UNL d   1       0.499   2.526  -0.172  1.00  0.00     0.188 HD
ATOM     11  C   UNL d   1       1.936   1.078   0.079  0.00  0.00     0.099 C 
ATOM     12  C   UNL d   1       2.217  -0.416   0.303  0.00  0.00     0.284 C 
ATOM     13  O   UNL d   1       3.374  -0.754   0.511  0.00  0.00    -0.265 OA
ENDROOT
BRANCH  11  14
ATOM     14  C   UNL d   1       3.149   1.969  -0.022  0.00  0.00     0.103 C 
BRANCH  14  15
ATOM     15  C   UNL d   1       3.638   2.443   1.323  0.00  0.00    -0.052 A 
ATOM     16  C   UNL d   1       4.574   1.704   2.061  0.00  0.00     0.010 A 
ATOM     17  C   UNL d   1       4.989   2.132   3.326  0.00  0.00     0.037 A 
ATOM     18  C   UNL d   1       4.476   3.309   3.865  0.00  0.00     0.068 A 
ATOM     19  C   UNL d   1       3.572   4.068   3.120  0.00  0.00     0.037 A 
ATOM     20  C   UNL d   1       3.141   3.633   1.866  0.00  0.00     0.010 A 
BRANCH  18  21
ATOM     21  O   UNL d   1       4.824   3.833   5.080  0.00  0.00    -0.356 OA
ATOM     22  C   UNL d   1       5.103   2.872   6.093  0.00  0.00     0.210 C 
ENDBRANCH  18  21
ENDBRANCH  14  15
ENDBRANCH  11  14
BRANCH   3  23
ATOM     23  C   UNL d   1      -2.417   1.992  -0.045  0.00  0.00     0.236 C 
ATOM     24  O   UNL d   1      -1.946   2.905   0.625  0.00  0.00    -0.283 OA
BRANCH  23  25
ATOM     25  C   UNL d   1      -3.700   2.024  -0.732  0.00  0.00     0.059 A 
ATOM     26  S   UNL d   1      -4.912   3.100  -0.152  0.00  0.00    -0.098 SA
ATOM     27  C   UNL d   1      -6.049   2.564  -1.310  0.00  0.00     0.050 A 
ATOM     28  C   UNL d   1      -5.515   1.616  -2.152  0.00  0.00     0.009 A 
ATOM     29  C   UNL d   1      -4.161   1.305  -1.819  0.00  0.00     0.023 A 
ENDBRANCH  23  25
ENDBRANCH   3  23
BRANCH   6  30
ATOM     30  C   UNL d   1      -1.435  -2.791   0.013  0.00  0.00     0.074 A 
ATOM     31  C   UNL d   1      -0.626  -3.629   0.802  0.00  0.00     0.032 A 
ATOM     32  C   UNL d   1      -0.715  -5.016   0.724  0.00  0.00     0.002 A 
ATOM     33  C   UNL d   1      -1.628  -5.596  -0.146  0.00  0.00     0.000 A 
ATOM     34  C   UNL d   1      -2.476  -4.787  -0.903  0.00  0.00     0.002 A 
ATOM     35  C   UNL d   1      -2.395  -3.392  -0.811  0.00  0.00     0.032 A 
ENDBRANCH   6  30
TORSDOF 6
