REMARK  4 active torsions:
REMARK  status: ('A' for Active; 'I' for Inactive)
REMARK    1  A    between atoms: C_5  and  N_1 
REMARK    2  A    between atoms: C_14  and  C_7 
REMARK    3  A    between atoms: C_10  and  C_11 
REMARK    4  A    between atoms: O_23  and  C_22 
ROOT
ATOM      1  N   UNL d   1      -0.162  -1.252   0.113  0.00  0.00    -0.179 N 
ATOM      2  N   UNL d   1       1.098  -0.749   0.199  0.00  0.00    -0.266 N 
ATOM      3  HN  UNL d   1       1.969  -1.252   0.372  1.00  0.00     0.190 HD
ATOM      4  C   UNL d   1      -1.069  -0.251  -0.166  0.00  0.00     0.394 A 
ATOM      5  O   UNL d   1      -0.341   0.916  -0.208  0.00  0.00    -0.240 OA
ATOM      6  C   UNL d   1       0.929   0.516   0.011  0.00  0.00     0.178 A 
ATOM      7  O   UNL d   1      -2.277  -0.281  -0.324  0.00  0.00    -0.236 OA
ENDROOT
BRANCH   1   8
ATOM      8  C   UNL d   1      -0.380  -2.646   0.135  0.00  0.00     0.154 A 
ATOM      9  N   UNL d   1      -1.510  -3.110  -0.464  0.00  0.00    -0.348 N 
ATOM     10  C   UNL d   1      -1.705  -4.448  -0.557  0.00  0.00     0.106 A 
ATOM     11  HN  UNL d   1      -2.202  -2.460  -0.838  1.00  0.00     0.167 HD
ATOM     12  C   UNL d   1      -0.827  -5.391  -0.056  0.00  0.00     0.065 A 
ATOM     13  C   UNL d   1       0.313  -4.918   0.593  0.00  0.00     0.045 A 
ATOM     14  C   UNL d   1       0.547  -3.543   0.698  0.00  0.00     0.081 A 
ATOM     15 CL   UNL d   1       1.949  -3.100   1.615  0.00  0.00    -0.080 Cl
BRANCH  12  16
ATOM     16  C   UNL d   1      -1.111  -6.853  -0.207  0.00  0.00     0.418 C 
ATOM     17  F   UNL d   1      -0.162  -7.646   0.363  0.00  0.00    -0.166 F 
ATOM     18  F   UNL d   1      -2.292  -7.216   0.362  0.00  0.00    -0.166 F 
ATOM     19  F   UNL d   1      -1.184  -7.237  -1.510  0.00  0.00    -0.166 F 
ENDBRANCH  12  16
ENDBRANCH   1   8
BRANCH   6  20
ATOM     20  C   UNL d   1       2.000   1.517  -0.008  0.00  0.00     0.019 A 
ATOM     21  C   UNL d   1       3.324   1.047   0.020  0.00  0.00     0.052 A 
ATOM     22  C   UNL d   1       4.390   1.942   0.007  0.00  0.00     0.069 A 
ATOM     23  C   UNL d   1       4.123   3.312  -0.023  0.00  0.00     0.037 A 
ATOM     24  C   UNL d   1       2.807   3.785  -0.048  0.00  0.00     0.004 A 
ATOM     25  C   UNL d   1       1.739   2.887  -0.044  0.00  0.00     0.016 A 
BRANCH  22  26
ATOM     26  O   UNL d   1       5.716   1.604   0.019  0.00  0.00    -0.356 OA
ATOM     27  C   UNL d   1       6.026   0.214   0.045  0.00  0.00     0.210 C 
ENDBRANCH  22  26
ENDBRANCH   6  20
TORSDOF 4
