REMARK  1 active torsions:
REMARK  status: ('A' for Active; 'I' for Inactive)
REMARK    1  A    between atoms: S_7  and  C_1 
ROOT
ATOM      1  C   UNL d   1      -2.325   0.056  -0.003  0.00  0.00     0.144 A 
ATOM      2  N   UNL d   1      -1.597   1.145  -0.007  0.00  0.00    -0.335 N 
ATOM      3  HN  UNL d   1      -1.921   2.112  -0.009  1.00  0.00     0.168 HD
ATOM      4  N   UNL d   1      -1.566  -1.077  -0.003  0.00  0.00    -0.335 N 
ATOM      5  C   UNL d   1      -0.297   0.695  -0.008  0.00  0.00     0.061 A 
ATOM      6  C   UNL d   1      -0.248  -0.698  -0.005  0.00  0.00     0.061 A 
ATOM      7  C   UNL d   1       0.903   1.421  -0.011  0.00  0.00     0.032 A 
ATOM      8  C   UNL d   1       0.945  -1.424  -0.004  0.00  0.00     0.032 A 
ATOM      9  C   UNL d   1       2.132  -0.680  -0.007  0.00  0.00     0.002 A 
ATOM     10  C   UNL d   1       2.114   0.717  -0.010  0.00  0.00     0.002 A 
ATOM     11  H   UNL d   1      -1.927  -2.018  -0.000  0.00  0.00     0.168 HD
ENDROOT
BRANCH   1  12
ATOM     12  S   UNL d   1      -4.044  -0.065   0.000  0.00  0.00    -0.098 SA
ATOM     13  C   UNL d   1      -4.498   1.685   0.007  0.00  0.00     0.099 C 
ENDBRANCH   1  12
TORSDOF 1
