REMARK  6 active torsions:
REMARK  status: ('A' for Active; 'I' for Inactive)
REMARK    1  A    between atoms: C_6  and  C_1 
REMARK    2  A    between atoms: C_8  and  C_2 
REMARK    3  A    between atoms: C_9  and  N_3 
REMARK    4  A    between atoms: O_16  and  C_8 
REMARK    5  A    between atoms: C_21  and  O_16 
REMARK    6  A    between atoms: N_18  and  C_17 
ROOT
ATOM      1  C   UNL d   1       1.048  -0.856   0.006  0.00  0.00     0.158 C 
ATOM      2  C   UNL d   1      -0.282  -1.257   0.002  0.00  0.00     0.089 C 
ATOM      3  N   UNL d   1       1.044   0.523   0.097  0.00  0.00    -0.251 N 
ATOM      4  N   UNL d   1      -0.210   0.982   0.378  0.00  0.00    -0.303 N 
ATOM      5  HN  UNL d   1      -0.481   1.931   0.633  1.00  0.00     0.186 HD
ATOM      6  C   UNL d   1      -1.001  -0.077   0.246  0.00  0.00     0.127 C 
ENDROOT
BRANCH   3   7
ATOM      7  C   UNL d   1       2.090   1.476  -0.074  0.00  0.00     0.057 A 
ATOM      8  C   UNL d   1       3.216   1.212  -0.857  0.00  0.00     0.033 A 
ATOM      9  C   UNL d   1       4.210   2.186  -1.015  0.00  0.00     0.025 A 
ATOM     10  C   UNL d   1       4.115   3.421  -0.369  0.00  0.00     0.005 A 
ATOM     11  C   UNL d   1       2.952   3.711   0.342  0.00  0.00     0.025 A 
ATOM     12  C   UNL d   1       1.950   2.748   0.499  0.00  0.00     0.033 A 
BRANCH  10  13
ATOM     13  N   UNL d   1       5.051   4.423  -0.640  0.00  0.00    -0.303 NA
ATOM     14  H   UNL d   1       5.091   5.150   0.065  0.00  0.00     0.124 HD
ATOM     15  H   UNL d   1       5.970   4.076  -0.893  0.00  0.00     0.124 HD
ENDBRANCH  10  13
ENDBRANCH   3   7
BRANCH   1  16
ATOM     16  C   UNL d   1       2.268  -1.674   0.033  0.00  0.00     0.435 C 
ATOM     17  F   UNL d   1       2.036  -2.930   0.491  0.00  0.00    -0.165 F 
ATOM     18  F   UNL d   1       2.834  -1.803  -1.191  0.00  0.00    -0.165 F 
ATOM     19  F   UNL d   1       3.210  -1.157   0.861  0.00  0.00    -0.165 F 
ENDBRANCH   1  16
BRANCH   2  20
ATOM     20  C   UNL d   1      -0.802  -2.589  -0.198  0.00  0.00     0.297 C 
ATOM     21  O   UNL d   1      -0.211  -3.449  -0.838  0.00  0.00    -0.259 OA
BRANCH  20  22
ATOM     22  O   UNL d   1      -2.049  -2.722   0.334  0.00  0.00    -0.318 OA
BRANCH  22  23
ATOM     23  C   UNL d   1      -2.798  -3.857  -0.113  0.00  0.00     0.174 C 
ATOM     24  C   UNL d   1      -3.562  -3.438  -1.354  0.00  0.00     0.034 C 
ENDBRANCH  22  23
ENDBRANCH  20  22
ENDBRANCH   2  20
TORSDOF 6
