REMARK  6 active torsions:
REMARK  status: ('A' for Active; 'I' for Inactive)
REMARK    1  A    between atoms: N_2  and  S_1 
REMARK    2  A    between atoms: C_4  and  S_1 
REMARK    3  A    between atoms: C_3  and  N_2 
REMARK       I    between atoms: C_7  and  N_8 
REMARK    4  A    between atoms: N_8  and  C_14 
REMARK    5  A    between atoms: C_22  and  C_9 
REMARK    6  A    between atoms: C_21  and  C_10 
ROOT
ATOM      1  S   UNL d   1       0.586  -0.366   0.237  0.00  0.00     0.245 S 
ATOM      2  O   UNL d   1       1.760  -0.619  -0.578  0.00  0.00    -0.206 OA
ATOM      3  O   UNL d   1      -0.725  -0.324  -0.379  0.00  0.00    -0.206 OA
ENDROOT
BRANCH   1   4
ATOM      4  N   UNL d   1       0.773   1.145   0.980  0.00  0.00    -0.180 NA
ATOM      5  H   UNL d   1       0.006   1.737   0.661  0.00  0.00     0.146 HD
BRANCH   4   6
ATOM      6  C   UNL d   1       1.017   1.255   2.390  0.00  0.00     0.035 A 
ATOM      7  C   UNL d   1       2.331   1.132   2.890  0.00  0.00    -0.036 A 
ATOM      8  C   UNL d   1       2.555   1.310   4.269  0.00  0.00     0.009 A 
ATOM      9  C   UNL d   1       1.509   1.585   5.138  0.00  0.00     0.001 A 
ATOM     10  C   UNL d   1       0.213   1.668   4.648  0.00  0.00     0.009 A 
ATOM     11  C   UNL d   1      -0.063   1.505   3.276  0.00  0.00    -0.036 A 
BRANCH   7  12
ATOM     12  C   UNL d   1       3.554   0.864   2.040  0.00  0.00     0.036 C 
ATOM     13  C   UNL d   1       4.253   2.133   1.582  0.00  0.00     0.010 C 
ENDBRANCH   7  12
BRANCH  11  14
ATOM     14  C   UNL d   1      -1.522   1.553   2.863  0.00  0.00     0.036 C 
ATOM     15  C   UNL d   1      -2.222   2.871   3.182  0.00  0.00     0.010 C 
ENDBRANCH  11  14
ENDBRANCH   4   6
ENDBRANCH   1   4
BRANCH   1  16
ATOM     16  C   UNL d   1       0.529  -1.594   1.515  0.00  0.00     0.075 A 
ATOM     17  C   UNL d   1      -0.689  -1.959   2.089  0.00  0.00     0.027 A 
ATOM     18  C   UNL d   1      -0.714  -2.949   3.079  0.00  0.00     0.031 A 
ATOM     19  C   UNL d   1       0.466  -3.592   3.482  0.00  0.00     0.034 A 
ATOM     20  C   UNL d   1       1.668  -3.248   2.860  0.00  0.00     0.031 A 
ATOM     21  C   UNL d   1       1.700  -2.263   1.871  0.00  0.00     0.027 A 
BRANCH  19  22
ATOM     22  N   UNL d   1       0.366  -4.565   4.499  0.00  0.00    -0.328 N 
ATOM     23  C   UNL d   1       1.400  -5.299   5.055  0.00  0.00     0.218 C 
ATOM     24  O   UNL d   1       2.588  -5.242   4.755  0.00  0.00    -0.274 OA
ATOM     25  C   UNL d   1       0.947  -6.246   6.138  0.00  0.00     0.117 C 
ATOM     26  H   UNL d   1      -0.563  -4.727   4.866  0.00  0.00     0.169 HD
ENDBRANCH  19  22
ENDBRANCH   1  16
TORSDOF 6
