REMARK  4 active torsions:
REMARK  status: ('A' for Active; 'I' for Inactive)
REMARK    1  A    between atoms: C_12  and  C_1 
REMARK    2  A    between atoms: C_9  and  C_3 
REMARK    3  A    between atoms: N_13  and  C_7 
REMARK    4  A    between atoms: O_19  and  C_12 
ROOT
ATOM      1  C   UNL d   1      -0.847   1.740   0.038  0.00  0.00     0.074 A 
ATOM      2  C   UNL d   1       0.308   0.875   0.025  0.00  0.00     0.068 A 
ATOM      3  C   UNL d   1       0.954  -1.467  -0.030  0.00  0.00     0.070 A 
ATOM      4  C   UNL d   1      -0.044  -0.480  -0.006  0.00  0.00     0.047 A 
ATOM      5  N   UNL d   1       1.608   1.282   0.043  0.00  0.00    -0.341 N 
ATOM      6  HN  UNL d   1       1.838   2.274   0.095  1.00  0.00     0.167 HD
ATOM      7  C   UNL d   1       2.578   0.362  -0.007  0.00  0.00     0.104 A 
ATOM      8  S   UNL d   1      -1.752  -0.672  -0.001  0.00  0.00    -0.098 SA
ATOM      9  C   UNL d   1      -2.016   1.001   0.026  0.00  0.00     0.070 A 
ATOM     10  C   UNL d   1       2.275  -0.992  -0.038  0.00  0.00     0.066 A 
ENDROOT
BRANCH   7  11
ATOM     11  N   UNL d   1       3.893   0.761   0.052  0.00  0.00    -0.364 N 
ATOM     12  C   UNL d   1       4.976   0.097  -0.680  0.00  0.00     0.154 C 
ATOM     13  C   UNL d   1       6.184  -0.062   0.269  0.00  0.00     0.289 C 
ATOM     14  N   UNL d   1       6.641   1.221   0.841  0.00  0.00     0.086 N 
ATOM     15  C   UNL d   1       5.504   1.932   1.471  0.00  0.00     0.289 C 
ATOM     16  H   UNL d   1       7.345   1.031   1.554  0.00  0.00     0.316 HD
ATOM     17  C   UNL d   1       4.256   2.087   0.559  0.00  0.00     0.154 C 
ENDBRANCH   7  11
BRANCH   3  18
ATOM     18  C   UNL d   1       0.740  -2.955  -0.030  0.00  0.00     0.418 C 
ATOM     19  F   UNL d   1      -0.556  -3.361  -0.007  0.00  0.00    -0.166 F 
ATOM     20  F   UNL d   1       1.294  -3.547  -1.127  0.00  0.00    -0.166 F 
ATOM     21  F   UNL d   1       1.333  -3.553   1.043  0.00  0.00    -0.166 F 
ENDBRANCH   3  18
BRANCH   1  22
ATOM     22  C   UNL d   1      -0.899   3.199   0.056  0.00  0.00     0.295 C 
ATOM     23  O   UNL d   1      -1.960   3.816   0.064  0.00  0.00    -0.259 OA
BRANCH  22  24
ATOM     24  O   UNL d   1       0.320   3.804   0.053  0.00  0.00    -0.322 OA
ATOM     25  C   UNL d   1       0.263   5.229   0.038  0.00  0.00     0.213 C 
ENDBRANCH  22  24
ENDBRANCH   1  22
TORSDOF 4
