REMARK  6 active torsions:
REMARK  status: ('A' for Active; 'I' for Inactive)
REMARK    1  A    between atoms: N_12  and  C_2 
REMARK    2  A    between atoms: C_16  and  C_3 
REMARK    3  A    between atoms: C_8  and  C_9 
REMARK       I    between atoms: C_10  and  N_14 
REMARK    4  A    between atoms: C_11  and  C_10 
REMARK    5  A    between atoms: C_13  and  N_12 
REMARK    6  A    between atoms: N_14  and  C_26 
ROOT
ATOM      1  S   UNL d   1      -1.146  -0.456  -1.398  0.00  0.00    -0.033 SA
ATOM      2  C   UNL d   1      -0.974   1.049  -0.579  0.00  0.00     0.166 A 
ATOM      3  C   UNL d   1      -0.225  -1.191  -0.141  0.00  0.00     0.102 A 
ATOM      4  N   UNL d   1       0.137  -0.339   0.798  0.00  0.00    -0.291 N 
ATOM      5  HN  UNL d   1       0.680  -0.601   1.621  1.00  0.00     0.187 HD
ATOM      6  N   UNL d   1      -0.300   0.942   0.547  0.00  0.00    -0.279 N 
ATOM      7  HN  UNL d   1      -0.119   1.729   1.170  1.00  0.00     0.189 HD
ENDROOT
BRANCH   3   8
ATOM      8  C   UNL d   1       0.116  -2.624  -0.134  0.00  0.00    -0.001 A 
ATOM      9  C   UNL d   1       1.062  -3.103   0.786  0.00  0.00     0.016 A 
ATOM     10  C   UNL d   1       1.378  -4.467   0.862  0.00  0.00     0.030 A 
ATOM     11  C   UNL d   1       0.750  -5.390   0.021  0.00  0.00     0.035 A 
ATOM     12  C   UNL d   1      -0.168  -4.918  -0.917  0.00  0.00     0.030 A 
ATOM     13  C   UNL d   1      -0.482  -3.555  -0.992  0.00  0.00     0.016 A 
BRANCH  11  14
ATOM     14  N   UNL d   1       1.049  -6.755   0.208  0.00  0.00    -0.323 N 
ATOM     15  C   UNL d   1       0.504  -7.840  -0.463  0.00  0.00     0.263 C 
ATOM     16  O   UNL d   1      -0.235  -7.751  -1.438  0.00  0.00    -0.267 OA
ATOM     17  H   UNL d   1       1.679  -6.982   0.965  0.00  0.00     0.169 HD
BRANCH  15  18
ATOM     18  C   UNL d   1       0.852  -9.148   0.090  0.00  0.00     0.072 A 
ATOM     19  S   UNL d   1       1.924  -9.351   1.413  0.00  0.00    -0.097 SA
ATOM     20  C   UNL d   1       1.717 -11.049   1.411  0.00  0.00     0.050 A 
ATOM     21  C   UNL d   1       0.856 -11.464   0.421  0.00  0.00     0.009 A 
ATOM     22  C   UNL d   1       0.364 -10.369  -0.344  0.00  0.00     0.025 A 
ENDBRANCH  15  18
ENDBRANCH  11  14
ENDBRANCH   3   8
BRANCH   2  23
ATOM     23  N   UNL d   1      -1.528   2.171  -1.098  0.00  0.00    -0.335 N 
ATOM     24  H   UNL d   1      -2.187   2.056  -1.864  0.00  0.00     0.168 HD
BRANCH  23  25
ATOM     25  C   UNL d   1      -1.171   3.504  -0.805  0.00  0.00     0.049 A 
ATOM     26  C   UNL d   1      -2.091   4.562  -0.970  0.00  0.00     0.074 A 
ATOM     27  C   UNL d   1      -1.712   5.879  -0.625  0.00  0.00     0.018 A 
ATOM     28  C   UNL d   1      -0.442   6.153  -0.120  0.00  0.00     0.001 A 
ATOM     29  C   UNL d   1       0.461   5.118   0.058  0.00  0.00     0.002 A 
ATOM     30  C   UNL d   1       0.095   3.811  -0.271  0.00  0.00     0.030 A 
BRANCH  26  31
ATOM     31  C   UNL d   1      -3.501   4.361  -1.466  0.00  0.00     0.419 C 
ATOM     32  F   UNL d   1      -3.756   3.109  -1.949  0.00  0.00    -0.166 F 
ATOM     33  F   UNL d   1      -4.436   4.587  -0.501  0.00  0.00    -0.166 F 
ATOM     34  F   UNL d   1      -3.816   5.207  -2.489  0.00  0.00    -0.166 F 
ENDBRANCH  26  31
ENDBRANCH  23  25
ENDBRANCH   2  23
TORSDOF 6
