REMARK  4 active torsions:
REMARK  status: ('A' for Active; 'I' for Inactive)
REMARK    1  A    between atoms: N_7  and  N_1 
REMARK    2  A    between atoms: C_18  and  C_4 
REMARK    3  A    between atoms: C_13  and  C_9 
REMARK    4  A    between atoms: C_11  and  C_10 
ROOT
ATOM      1  N   UNL d   1       1.570  -0.993  -0.106  0.00  0.00    -0.201 N 
ATOM      2  N   UNL d   1      -0.603  -0.360  -0.094  0.00  0.00    -0.336 N 
ATOM      3  HN  UNL d   1      -1.622  -0.403  -0.105  1.00  0.00     0.168 HD
ATOM      4  C   UNL d   1       0.240  -1.356  -0.102  0.00  0.00     0.141 A 
ATOM      5  C   UNL d   1       1.640   0.382  -0.101  0.00  0.00     0.295 A 
ATOM      6  C   UNL d   1       0.197   0.764  -0.066  0.00  0.00     0.105 A 
ATOM      7  C   UNL d   1      -0.197   2.041   0.000  0.00  0.00     0.048 C 
ATOM      8  O   UNL d   1       2.587   1.147  -0.143  0.00  0.00    -0.264 OA
ENDROOT
BRANCH   1   9
ATOM      9  N   UNL d   1       2.594  -1.894  -0.229  0.00  0.00    -0.298 N 
ATOM     10  C   UNL d   1       3.824  -1.506  -0.151  0.00  0.00     0.145 C 
ATOM     11  HN  UNL d   1       2.383  -2.880  -0.383  1.00  0.00     0.186 HD
BRANCH  10  12
ATOM     12  C   UNL d   1       4.880  -2.479  -0.255  0.00  0.00     0.092 A 
ATOM     13  O   UNL d   1       6.169  -2.030  -0.191  0.00  0.00    -0.314 OA
ATOM     14  C   UNL d   1       6.984  -3.115  -0.312  0.00  0.00     0.050 A 
ATOM     15  C   UNL d   1       8.437  -2.854  -0.286  0.00  0.00     0.076 C 
ATOM     16  C   UNL d   1       6.232  -4.261  -0.443  0.00  0.00     0.035 A 
ATOM     17  C   UNL d   1       4.876  -3.853  -0.406  0.00  0.00     0.041 A 
ENDBRANCH  10  12
ENDBRANCH   1   9
BRANCH   4  18
ATOM     18  C   UNL d   1      -0.205  -2.774  -0.123  0.00  0.00     0.010 A 
ATOM     19  C   UNL d   1      -1.438  -3.084  -0.712  0.00  0.00     0.015 A 
ATOM     20  C   UNL d   1      -1.871  -4.412  -0.782  0.00  0.00     0.001 A 
ATOM     21  C   UNL d   1      -1.079  -5.435  -0.260  0.00  0.00     0.000 A 
ATOM     22  C   UNL d   1       0.128  -5.130   0.362  0.00  0.00     0.001 A 
ATOM     23  C   UNL d   1       0.553  -3.803   0.448  0.00  0.00     0.015 A 
ENDBRANCH   4  18
BRANCH   7  24
ATOM     24  C   UNL d   1      -1.608   2.434   0.073  0.00  0.00    -0.012 A 
ATOM     25  C   UNL d   1      -2.297   2.550   1.290  0.00  0.00     0.044 A 
ATOM     26 CL   UNL d   1      -1.513   2.291   2.811  0.00  0.00    -0.083 Cl
ATOM     27  C   UNL d   1      -3.652   2.897   1.305  0.00  0.00     0.024 A 
ATOM     28  C   UNL d   1      -4.327   3.136   0.108  0.00  0.00     0.002 A 
ATOM     29  C   UNL d   1      -3.648   3.034  -1.105  0.00  0.00     0.001 A 
ATOM     30  C   UNL d   1      -2.296   2.683  -1.124  0.00  0.00     0.013 A 
ENDBRANCH   7  24
TORSDOF 4
