REMARK  1 active torsions:
REMARK  status: ('A' for Active; 'I' for Inactive)
REMARK    1  A    between atoms: C_5  and  N_8 
ROOT
ATOM      1  C   UNL d   1       2.831  -1.173  -0.004  0.00  0.00     0.148 A 
ATOM      2  N   UNL d   1       1.871  -1.396  -0.878  0.00  0.00    -0.335 N 
ATOM      3  HN  UNL d   1       1.924  -2.088  -1.625  1.00  0.00     0.168 HD
ATOM      4  S   UNL d   1       2.450   0.090   1.123  0.00  0.00    -0.052 SA
ATOM      5  N   UNL d   1       4.002  -1.866   0.027  0.00  0.00    -0.358 N 
ATOM      6  C   UNL d   1       0.779  -0.571  -0.655  0.00  0.00     0.053 A 
ATOM      7  N   UNL d   1       5.767  -4.018   0.724  0.00  0.00    -0.377 N 
ATOM      8  C   UNL d   1       0.912   0.313   0.412  0.00  0.00     0.035 A 
ATOM      9  C   UNL d   1      -0.420  -0.561  -1.395  0.00  0.00     0.054 A 
ATOM     10  C   UNL d   1       4.322  -2.877  -0.991  0.00  0.00     0.145 C 
ATOM     11  C   UNL d   1       5.061  -1.648   1.014  0.00  0.00     0.145 C 
ATOM     12  C   UNL d   1       5.430  -2.973   1.706  0.00  0.00     0.143 C 
ATOM     13  C   UNL d   1       4.746  -4.218  -0.333  0.00  0.00     0.143 C 
ATOM     14  C   UNL d   1      -0.102   1.210   0.779  0.00  0.00     0.023 A 
ATOM     15  C   UNL d   1      -1.439   0.326  -1.034  0.00  0.00     0.036 A 
ATOM     16  C   UNL d   1      -1.287   1.199   0.036  0.00  0.00     0.025 A 
ATOM     17 CL   UNL d   1      -2.910   0.334  -1.927  0.00  0.00    -0.084 Cl
ENDROOT
BRANCH   7  18
ATOM     18  C   UNL d   1       6.934  -4.770   0.808  0.00  0.00     0.044 A 
ATOM     19  C   UNL d   1       7.534  -5.200   2.039  0.00  0.00     0.017 A 
ATOM     20  C   UNL d   1       8.800  -5.833   1.970  0.00  0.00     0.044 A 
ATOM     21  C   UNL d   1       6.956  -5.073   3.332  0.00  0.00     0.016 A 
ATOM     22  C   UNL d   1       9.449  -6.207   3.141  0.00  0.00     0.030 A 
ATOM     23  N   UNL d   1       9.428  -6.108   0.822  0.00  0.00    -0.359 N 
ATOM     24  C   UNL d   1       8.893  -5.997   4.401  0.00  0.00     0.002 A 
ATOM     25  C   UNL d   1       7.633  -5.437   4.497  0.00  0.00     0.001 A 
ATOM     26  C   UNL d   1       8.835  -5.758  -0.333  0.00  0.00     0.007 A 
ATOM     27  HN  UNL d   1      10.337  -6.571   0.822  1.00  0.00     0.166 HD
ATOM     28  C   UNL d   1       7.617  -5.091  -0.376  0.00  0.00     0.054 A 
ATOM     29  C   UNL d   1       9.556  -6.101  -1.602  0.00  0.00     0.068 C 
ENDBRANCH   7  18
TORSDOF 1
