REMARK  4 active torsions:
REMARK  status: ('A' for Active; 'I' for Inactive)
REMARK    1  A    between atoms: C_10  and  C_1 
REMARK    2  A    between atoms: C_17  and  C_7 
REMARK       I    between atoms: N_16  and  C_10 
REMARK    3  A    between atoms: C_12  and  C_22 
REMARK    4  A    between atoms: C_22  and  N_16 
ROOT
ATOM      1  C   UNL d   1       2.432   1.712   0.009  0.00  0.00     0.269 C 
ATOM      2  N   UNL d   1       2.200   3.062  -0.011  0.00  0.00    -0.350 N 
ATOM      3  O   UNL d   1       3.565   1.232   0.035  0.00  0.00    -0.266 OA
ATOM      4  H   UNL d   1       1.244   3.410  -0.027  0.00  0.00     0.163 HD
ENDROOT
BRANCH   1   5
ATOM      5  C   UNL d   1       1.223   0.872  -0.003  0.00  0.00     0.108 A 
ATOM      6  N   UNL d   1      -0.081   1.391  -0.016  0.00  0.00    -0.345 N 
ATOM      7  C   UNL d   1      -0.969   0.410   0.005  0.00  0.00     0.085 A 
ATOM      8  HN  UNL d   1      -0.312   2.385  -0.038  1.00  0.00     0.167 HD
ATOM      9  S   UNL d   1      -0.284  -1.178  -0.019  0.00  0.00    -0.081 SA
ATOM     10  C   UNL d   1       1.283  -0.508  -0.006  0.00  0.00     0.087 A 
BRANCH   7  11
ATOM     11  C   UNL d   1      -2.437   0.573  -0.027  0.00  0.00    -0.002 A 
ATOM     12  C   UNL d   1      -3.002   1.686  -0.667  0.00  0.00     0.014 A 
ATOM     13  C   UNL d   1      -4.390   1.826  -0.774  0.00  0.00     0.001 A 
ATOM     14  C   UNL d   1      -5.237   0.862  -0.230  0.00  0.00     0.000 A 
ATOM     15  C   UNL d   1      -4.698  -0.233   0.438  0.00  0.00     0.001 A 
ATOM     16  C   UNL d   1      -3.311  -0.371   0.545  0.00  0.00     0.014 A 
ENDBRANCH   7  11
ENDBRANCH   1   5
BRANCH   2  17
ATOM     17  C   UNL d   1       3.292   4.003   0.005  0.00  0.00     0.180 C 
BRANCH  17  18
ATOM     18  C   UNL d   1       2.790   5.412  -0.051  0.00  0.00     0.034 A 
ATOM     19  N   UNL d   1       1.420   5.668  -0.085  0.00  0.00    -0.351 N 
ATOM     20  C   UNL d   1       1.188   6.966  -0.156  0.00  0.00     0.091 A 
ATOM     21  HN  UNL d   1       0.696   4.950  -0.057  1.00  0.00     0.166 HD
ATOM     22  C   UNL d   1      -0.161   7.482  -0.218  0.00  0.00     0.038 A 
ATOM     23  S   UNL d   1       2.600   7.949  -0.168  0.00  0.00    -0.081 SA
ATOM     24  S   UNL d   1      -0.543   9.150  -0.381  0.00  0.00    -0.099 SA
ATOM     25  C   UNL d   1      -1.318   6.722  -0.164  0.00  0.00     0.022 A 
ATOM     26  C   UNL d   1      -2.224   8.848  -0.364  0.00  0.00     0.050 A 
ATOM     27  C   UNL d   1      -2.505   7.507  -0.242  0.00  0.00     0.008 A 
ATOM     28  C   UNL d   1       3.579   6.549  -0.082  0.00  0.00     0.078 A 
ENDBRANCH  17  18
ENDBRANCH   2  17
TORSDOF 4
