REMARK  2 active torsions:
REMARK  status: ('A' for Active; 'I' for Inactive)
REMARK    1  A    between atoms: S_9  and  C_4 
REMARK    2  A    between atoms: S_10  and  C_5 
ROOT
ATOM      1  C   UNL d   1      -0.318  -1.237  -0.002  0.00  0.00     0.103 A 
ATOM      2  N   UNL d   1      -0.691   1.087   0.005  0.00  0.00    -0.319 N 
ATOM      3  HN  UNL d   1      -1.208   1.967   0.006  1.00  0.00     0.175 HD
ATOM      4  C   UNL d   1       0.995  -0.788   0.005  0.00  0.00     0.081 A 
ATOM      5  C   UNL d   1      -1.229  -0.127  -0.001  0.00  0.00     0.098 A 
ATOM      6  S   UNL d   1       0.949   0.939   0.010  0.00  0.00    -0.005 SA
ATOM      7  C   UNL d   1      -0.729  -2.606  -0.008  0.00  0.00     0.104 C 
ATOM      8  N   UNL d   1      -1.039  -3.724  -0.013  0.00  0.00    -0.191 NA
ENDROOT
BRANCH   4   9
ATOM      9  S   UNL d   1       2.574  -1.558   0.008  0.00  0.00    -0.124 SA
ATOM     10  C   UNL d   1       2.306  -3.333   0.004  0.00  0.00     0.096 C 
ENDBRANCH   4   9
BRANCH   5  11
ATOM     11  S   UNL d   1      -2.990  -0.286  -0.008  0.00  0.00    -0.115 SA
ATOM     12  C   UNL d   1      -3.525   1.444  -0.003  0.00  0.00     0.097 C 
ENDBRANCH   5  11
TORSDOF 2
