REMARK  1 active torsions:
REMARK  status: ('A' for Active; 'I' for Inactive)
REMARK    1  A    between atoms: C_18  and  C_12 
ROOT
ATOM      1  N   UNL d   1      -0.132   0.175  -0.068  0.00  0.00    -0.237 N 
ATOM      2  C   UNL d   1       0.487   1.378  -0.159  0.00  0.00     0.175 A 
ATOM      3  C   UNL d   1      -1.470   0.467  -0.038  0.00  0.00     0.166 A 
ATOM      4  C   UNL d   1       0.683  -0.937  -0.007  0.00  0.00     0.272 A 
ATOM      5  N   UNL d   1      -1.608   1.786  -0.113  0.00  0.00    -0.281 N 
ATOM      6  HN  UNL d   1      -2.495   2.290  -0.112  1.00  0.00     0.188 HD
ATOM      7  C   UNL d   1       2.100  -0.446  -0.048  0.00  0.00     0.077 A 
ATOM      8  N   UNL d   1      -0.358   2.365  -0.191  0.00  0.00    -0.277 N 
ATOM      9  HN  UNL d   1      -0.143   3.360  -0.260  1.00  0.00     0.189 HD
ATOM     10  S   UNL d   1       2.195   1.296  -0.181  0.00  0.00    -0.046 SA
ATOM     11  C   UNL d   1      -2.590  -0.412   0.072  0.00  0.00     0.120 A 
ATOM     12  C   UNL d   1       3.149  -1.279   0.035  0.00  0.00     0.036 C 
ATOM     13  O   UNL d   1      -2.536  -1.778   0.006  0.00  0.00    -0.319 OA
ATOM     14  O   UNL d   1       0.273  -2.077   0.083  0.00  0.00    -0.266 OA
ATOM     15  C   UNL d   1      -3.915  -0.037   0.251  0.00  0.00     0.043 A 
ATOM     16  C   UNL d   1      -3.803  -2.252   0.139  0.00  0.00     0.142 A 
ATOM     17  C   UNL d   1      -4.691  -1.217   0.296  0.00  0.00     0.027 A 
ENDROOT
BRANCH  12  18
ATOM     18  C   UNL d   1       4.549  -0.833   0.056  0.00  0.00    -0.035 A 
ATOM     19  C   UNL d   1       5.151  -0.482   1.273  0.00  0.00     0.014 A 
ATOM     20  C   UNL d   1       6.459   0.008   1.296  0.00  0.00     0.043 A 
ATOM     21  C   UNL d   1       7.160   0.144   0.104  0.00  0.00     0.116 A 
ATOM     22  C   UNL d   1       6.581  -0.205  -1.110  0.00  0.00     0.043 A 
ATOM     23  F   UNL d   1       8.411   0.623   0.126  0.00  0.00    -0.206 F 
ATOM     24  C   UNL d   1       5.272  -0.695  -1.136  0.00  0.00     0.014 A 
ENDBRANCH  12  18
TORSDOF 1
