REMARK  5 active torsions:
REMARK  status: ('A' for Active; 'I' for Inactive)
REMARK    1  A    between atoms: C_2  and  N_1 
REMARK    2  A    between atoms: C_4  and  C_10 
REMARK    3  A    between atoms: N_11  and  C_4 
REMARK    4  A    between atoms: O_13  and  N_6 
REMARK    5  A    between atoms: C_10  and  C_12 
ROOT
ATOM      1  C   UNL d   1       0.070   5.842  -8.736  0.00  0.00     0.102 A 
ATOM      2  C   UNL d   1       0.592   4.912  -7.830  0.00  0.00     0.036 A 
ATOM      3  C   UNL d   1      -1.016   6.649  -8.382  0.00  0.00     0.036 A 
ATOM      4  C   UNL d   1      -1.079   5.586  -6.194  0.00  0.00    -0.051 A 
ATOM      5  C   UNL d   1      -1.587   6.519  -7.114  0.00  0.00     0.010 A 
ATOM      6  C   UNL d   1       0.008   4.782  -6.564  0.00  0.00     0.010 A 
ENDROOT
BRANCH   4   7
ATOM      7  C   UNL d   1      -1.691   5.462  -4.815  0.00  0.00     0.110 C 
BRANCH   7   8
ATOM      8  C   UNL d   1      -2.817   4.440  -4.717  0.00  0.00     0.079 C 
ATOM      9  N   UNL d   1      -2.727   3.526  -3.794  0.00  0.00    -0.262 N 
ATOM     10  HN  UNL d   1      -1.947   3.434  -3.143  1.00  0.00     0.195 HD
BRANCH   9  11
ATOM     11  O   UNL d   1      -3.851   2.683  -3.819  0.00  0.00    -0.289 OA
ATOM     12  H   UNL d   1      -3.722   2.146  -3.014  0.00  0.00     0.244 HD
ENDBRANCH   9  11
BRANCH   8  13
ATOM     13  N   UNL d   1      -3.898   4.545  -5.560  0.00  0.00    -0.290 NA
ATOM     14  H   UNL d   1      -3.687   4.804  -6.516  0.00  0.00     0.125 HD
ATOM     15  H   UNL d   1      -4.468   3.704  -5.498  0.00  0.00     0.125 HD
ENDBRANCH   8  13
ENDBRANCH   7   8
ENDBRANCH   4   7
BRANCH   1  16
ATOM     16  N   UNL d   1       0.672   5.982 -10.069  0.00  0.00    -0.116 N 
ATOM     17  O   UNL d   1       1.651   5.271 -10.336  0.00  0.00    -0.532 OA
ATOM     18  O   UNL d   1       0.164   6.801 -10.850  0.00  0.00    -0.532 OA
ENDBRANCH   1  16
TORSDOF 5
