REMARK  5 active torsions:
REMARK  status: ('A' for Active; 'I' for Inactive)
REMARK    1  A    between atoms: C_6  and  C_1 
REMARK       I    between atoms: N_14  and  C_6 
REMARK    2  A    between atoms: O_20  and  C_7 
REMARK    3  A    between atoms: N_8  and  N_14 
REMARK    4  A    between atoms: C_10  and  C_18 
REMARK    5  A    between atoms: O_23  and  C_16 
ROOT
ATOM      1  C   UNL d   1       1.101  -2.877   0.342  0.00  0.00     0.271 C 
ATOM      2  N   UNL d   1      -0.052  -3.534  -0.067  0.00  0.00    -0.266 N 
ATOM      3  O   UNL d   1       2.132  -3.438   0.707  0.00  0.00    -0.266 OA
ATOM      4  H   UNL d   1      -0.831  -3.021  -0.467  0.00  0.00     0.190 HD
ENDROOT
BRANCH   1   5
ATOM      5  C   UNL d   1       1.090  -1.391   0.228  0.00  0.00     0.048 A 
ATOM      6  C   UNL d   1      -0.019  -0.572   0.549  0.00  0.00     0.008 A 
ATOM      7  C   UNL d   1       0.105   0.793   0.213  0.00  0.00     0.043 A 
ATOM      8  C   UNL d   1      -1.202  -0.998   1.209  0.00  0.00     0.033 A 
ATOM      9  C   UNL d   1      -0.973   1.643   0.421  0.00  0.00     0.031 A 
ATOM     10  N   UNL d   1       1.229   1.330  -0.280  0.00  0.00    -0.359 N 
ATOM     11  C   UNL d   1      -2.154   1.206   1.023  0.00  0.00     0.021 A 
ATOM     12  C   UNL d   1      -2.251  -0.111   1.441  0.00  0.00     0.011 A 
ATOM     13 BR   UNL d   1      -3.800  -0.701   2.346  0.00  0.00    -0.051 Br
ATOM     14  C   UNL d   1       2.316   0.546  -0.452  0.00  0.00     0.006 A 
ATOM     15  HN  UNL d   1       1.265   2.320  -0.523  1.00  0.00     0.166 HD
ATOM     16  C   UNL d   1       2.275  -0.819  -0.246  0.00  0.00     0.042 A 
ATOM     17  C   UNL d   1       3.594   1.219  -0.854  0.00  0.00     0.068 C 
ENDBRANCH   1   5
BRANCH   2  18
ATOM     18  N   UNL d   1      -0.022  -4.888  -0.204  0.00  0.00    -0.308 N 
ATOM     19  C   UNL d   1      -1.133  -5.455  -0.557  0.00  0.00     0.121 C 
ATOM     20  HN  UNL d   1       0.829  -5.427  -0.039  1.00  0.00     0.186 HD
BRANCH  19  21
ATOM     21  C   UNL d   1      -1.182  -6.902  -0.864  0.00  0.00     0.017 A 
ATOM     22  C   UNL d   1      -0.026  -7.710  -0.879  0.00  0.00     0.110 A 
ATOM     23  C   UNL d   1      -0.126  -9.053  -1.272  0.00  0.00     0.102 A 
ATOM     24  C   UNL d   1      -1.383  -9.569  -1.620  0.00  0.00     0.040 A 
ATOM     25  C   UNL d   1      -2.529  -8.772  -1.583  0.00  0.00     0.004 A 
ATOM     26  C   UNL d   1      -2.429  -7.438  -1.208  0.00  0.00     0.016 A 
BRANCH  22  27
ATOM     27  O   UNL d   1       1.192  -7.192  -0.521  0.00  0.00    -0.357 OA
ATOM     28  H   UNL d   1       1.084  -6.249  -0.263  0.00  0.00     0.217 HD
ENDBRANCH  22  27
BRANCH  23  29
ATOM     29  O   UNL d   1       0.867  -9.990  -1.381  0.00  0.00    -0.353 OA
ATOM     30  C   UNL d   1       2.208  -9.589  -1.135  0.00  0.00     0.210 C 
ENDBRANCH  23  29
ENDBRANCH  19  21
ENDBRANCH   2  18
TORSDOF 5
