REMARK  4 active torsions:
REMARK  status: ('A' for Active; 'I' for Inactive)
REMARK    1  A    between atoms: C_13  and  N_1 
REMARK    2  A    between atoms: N_12  and  C_7 
REMARK    3  A    between atoms: C_15  and  N_12 
REMARK    4  A    between atoms: C_17  and  C_13 
ROOT
ATOM      1  N   UNL d   1       1.491   1.076  -0.037  0.00  0.00    -0.254 N 
ATOM      2  C   UNL d   1       0.276  -0.714  -0.084  0.00  0.00     0.136 A 
ATOM      3  C   UNL d   1       0.188   0.668  -0.081  0.00  0.00     0.154 A 
ATOM      4  N   UNL d   1       2.338   0.020  -0.062  0.00  0.00    -0.018 NA
ATOM      5  N   UNL d   1       1.597  -1.087  -0.077  0.00  0.00    -0.277 N 
ATOM      6  HN  UNL d   1       1.949  -2.044  -0.082  1.00  0.00     0.184 HD
ATOM      7  C   UNL d   1      -0.934  -1.427  -0.063  0.00  0.00     0.139 A 
ATOM      8  N   UNL d   1      -0.921   1.427  -0.095  0.00  0.00    -0.336 N 
ATOM      9  HN  UNL d   1      -0.926   2.446  -0.103  1.00  0.00     0.168 HD
ATOM     10  N   UNL d   1      -2.083  -0.688  -0.077  0.00  0.00    -0.337 N 
ATOM     11  HN  UNL d   1      -2.990  -1.156  -0.071  1.00  0.00     0.168 HD
ATOM     12  C   UNL d   1      -2.022   0.656  -0.098  0.00  0.00     0.183 A 
ENDROOT
BRANCH   7  13
ATOM     13  N   UNL d   1      -1.013  -2.829  -0.037  0.00  0.00    -0.340 N 
ATOM     14  H   UNL d   1      -0.134  -3.309  -0.190  0.00  0.00     0.167 HD
BRANCH  13  15
ATOM     15  C   UNL d   1      -2.041  -3.603   0.533  0.00  0.00     0.033 A 
ATOM     16  C   UNL d   1      -2.316  -4.882   0.035  0.00  0.00     0.031 A 
ATOM     17  C   UNL d   1      -3.397  -5.624   0.530  0.00  0.00     0.026 A 
ATOM     18  C   UNL d   1      -4.205  -5.094   1.534  0.00  0.00     0.034 A 
ATOM     19  C   UNL d   1      -3.940  -3.833   2.052  0.00  0.00     0.026 A 
ATOM     20 CL   UNL d   1      -5.546  -5.992   2.129  0.00  0.00    -0.084 Cl
ATOM     21  C   UNL d   1      -2.869  -3.095   1.546  0.00  0.00     0.031 A 
ENDBRANCH  13  15
ENDBRANCH   7  13
BRANCH   1  22
ATOM     22  C   UNL d   1       1.980   2.440   0.007  0.00  0.00     0.187 C 
BRANCH  22  23
ATOM     23  C   UNL d   1       2.137   2.914   1.431  0.00  0.00    -0.039 A 
ATOM     24  C   UNL d   1       3.342   2.705   2.117  0.00  0.00     0.009 A 
ATOM     25  C   UNL d   1       3.463   3.063   3.460  0.00  0.00     0.001 A 
ATOM     26  C   UNL d   1       2.384   3.636   4.130  0.00  0.00     0.000 A 
ATOM     27  C   UNL d   1       1.188   3.868   3.454  0.00  0.00     0.001 A 
ATOM     28  C   UNL d   1       1.064   3.510   2.110  0.00  0.00     0.009 A 
ENDBRANCH  22  23
ENDBRANCH   1  22
TORSDOF 4
