REMARK  2 active torsions:
REMARK  status: ('A' for Active; 'I' for Inactive)
REMARK    1  A    between atoms: CA_1  and  C_2 
REMARK    2  A    between atoms: OXT_8  and  C_2 
ROOT
ATOM      1  CA  UNL d   1       0.028   1.292  -0.544  0.00  0.00     0.335 C 
ATOM      2  C   UNL d   1       0.870   0.126   0.009  0.00  0.00     0.043 C 
ATOM      3  N   UNL d   1      -1.288   1.267   0.169  0.00  0.00     0.108 N 
ATOM      4  S   UNL d   1      -0.367  -1.227   0.054  0.00  0.00    -0.127 SA
ATOM      5  C   UNL d   1      -1.783  -0.106   0.004  0.00  0.00     0.345 C 
ATOM      6  C   UNL d   1       1.373   0.325   1.446  0.00  0.00     0.029 C 
ATOM      7  C   UNL d   1       2.020  -0.259  -0.920  0.00  0.00     0.029 C 
ATOM      8  H   UNL d   1      -1.939   1.889  -0.316  0.00  0.00     0.318 HD
ENDROOT
BRANCH   1   9
ATOM      9  C   UNL d   1       0.693   2.652  -0.336  0.00  0.00     0.175 C 
ATOM     10  O   UNL d   1       1.530   3.137  -1.086  0.00  0.00    -0.648 OA
BRANCH   9  11
ATOM     11  OXT UNL d   1       0.261   3.273   0.790  0.00  0.00    -0.775 OA
ATOM     12  HXT UNL d   1      -0.418   2.696   1.211  0.00  0.00     0.167 HD
ENDBRANCH   9  11
ENDBRANCH   1   9
TORSDOF 2
