REMARK  1 active torsions:
REMARK  status: ('A' for Active; 'I' for Inactive)
REMARK    1  A    between atoms: C_9  and  C_2 
ROOT
ATOM      1  C   UNL d   1      -0.251   0.584   0.525  0.00  0.00     0.150 A 
ATOM      2  C   UNL d   1       1.031   0.584   0.017  0.00  0.00     0.124 A 
ATOM      3  N   UNL d   1      -0.876  -0.617   0.271  0.00  0.00    -0.336 N 
ATOM      4  HN  UNL d   1      -1.820  -0.908   0.525  1.00  0.00     0.168 HD
ATOM      5  C   UNL d   1      -0.912   1.636   1.224  0.00  0.00     0.120 C 
ATOM      6  C   UNL d   1       0.040  -1.297  -0.380  0.00  0.00     0.235 A 
ATOM      7  N   UNL d   1      -1.406   2.517   1.800  0.00  0.00    -0.190 NA
ATOM      8  O   UNL d   1       1.214  -0.640  -0.584  0.00  0.00    -0.302 OA
ENDROOT
BRANCH   2   9
ATOM      9  C   UNL d   1       2.172   1.489  -0.000  0.00  0.00     0.001 A 
ATOM     10  C   UNL d   1       2.372   2.419   1.033  0.00  0.00     0.016 A 
ATOM     11  C   UNL d   1       3.496   3.251   1.040  0.00  0.00     0.024 A 
ATOM     12  C   UNL d   1       4.429   3.166   0.011  0.00  0.00     0.034 A 
ATOM     13  C   UNL d   1       4.239   2.267  -1.034  0.00  0.00     0.024 A 
ATOM     14 CL   UNL d   1       5.828   4.165   0.041  0.00  0.00    -0.084 Cl
ATOM     15  C   UNL d   1       3.116   1.433  -1.038  0.00  0.00     0.016 A 
ENDBRANCH   2   9
TORSDOF 1
