REMARK  7 active torsions:
REMARK  status: ('A' for Active; 'I' for Inactive)
REMARK    1  A    between atoms: C_13  and  N_3 
REMARK    2  A    between atoms: C_7  and  C_4 
REMARK    3  A    between atoms: C_9  and  C_5 
REMARK    4  A    between atoms: C_8  and  C_10 
REMARK    5  A    between atoms: O_15  and  C_12 
REMARK    6  A    between atoms: C_21  and  O_15 
REMARK    7  A    between atoms: C_24  and  C_21 
ROOT
ATOM      1  N   UNL d   1       1.104  -0.178   0.183  0.00  0.00    -0.301 N 
ATOM      2  HN  UNL d   1       2.100  -0.377   0.279  1.00  0.00     0.187 HD
ATOM      3  N   UNL d   1       0.090  -1.091   0.236  0.00  0.00    -0.283 N 
ATOM      4  C   UNL d   1       0.568   0.991  -0.011  0.00  0.00     0.041 A 
ATOM      5  C   UNL d   1      -1.232  -0.490   0.039  0.00  0.00     0.147 A 
ATOM      6  C   UNL d   1      -0.934   1.004  -0.087  0.00  0.00     0.091 A 
ENDROOT
BRANCH   4   7
ATOM      7  C   UNL d   1       1.382   2.231  -0.082  0.00  0.00     0.024 A 
ATOM      8  C   UNL d   1       1.066   3.338  -0.894  0.00  0.00     0.081 A 
ATOM      9  C   UNL d   1       1.909   4.463  -0.867  0.00  0.00     0.040 A 
ATOM     10  C   UNL d   1       3.074   4.466  -0.100  0.00  0.00     0.045 A 
ATOM     11  C   UNL d   1       3.388   3.356   0.669  0.00  0.00     0.117 A 
ATOM     12  C   UNL d   1       2.554   2.247   0.692  0.00  0.00     0.058 A 
ATOM     13  F   UNL d   1       4.510   3.360   1.398  0.00  0.00    -0.206 F 
BRANCH   8  14
ATOM     14  O   UNL d   1      -0.039   3.261  -1.704  0.00  0.00    -0.346 OA
BRANCH  14  15
ATOM     15  C   UNL d   1      -0.075   4.171  -2.809  0.00  0.00     0.214 C 
BRANCH  15  16
ATOM     16  C   UNL d   1      -1.062   3.713  -3.855  0.00  0.00    -0.034 A 
ATOM     17  C   UNL d   1      -1.983   4.618  -4.405  0.00  0.00     0.009 A 
ATOM     18  C   UNL d   1      -2.818   4.229  -5.454  0.00  0.00     0.001 A 
ATOM     19  C   UNL d   1      -2.739   2.935  -5.966  0.00  0.00     0.000 A 
ATOM     20  C   UNL d   1      -1.832   2.027  -5.424  0.00  0.00     0.001 A 
ATOM     21  C   UNL d   1      -0.997   2.411  -4.376  0.00  0.00     0.009 A 
ENDBRANCH  15  16
ENDBRANCH  14  15
ENDBRANCH   8  14
ENDBRANCH   4   7
BRANCH   3  22
ATOM     22  C   UNL d   1       0.355  -2.464   0.213  0.00  0.00     0.051 A 
ATOM     23  C   UNL d   1       1.655  -2.954   0.429  0.00  0.00     0.031 A 
ATOM     24  C   UNL d   1       1.931  -4.327   0.457  0.00  0.00     0.002 A 
ATOM     25  C   UNL d   1       0.909  -5.250   0.266  0.00  0.00     0.000 A 
ATOM     26  C   UNL d   1      -0.384  -4.799   0.040  0.00  0.00     0.002 A 
ATOM     27  C   UNL d   1      -0.651  -3.425   0.012  0.00  0.00     0.031 A 
ENDBRANCH   3  22
BRANCH   5  28
ATOM     28  C   UNL d   1      -2.207  -0.795   1.168  0.00  0.00    -0.032 A 
ATOM     29  C   UNL d   1      -3.572  -0.955   0.875  0.00  0.00     0.025 A 
ATOM     30  C   UNL d   1      -4.490  -1.327   1.871  0.00  0.00     0.048 A 
ATOM     31  C   UNL d   1      -4.029  -1.521   3.182  0.00  0.00     0.016 A 
ATOM     32  C   UNL d   1      -2.682  -1.339   3.491  0.00  0.00     0.001 A 
ATOM     33  C   UNL d   1      -1.780  -0.972   2.494  0.00  0.00     0.009 A 
BRANCH  30  34
ATOM     34  C   UNL d   1      -5.948  -1.541   1.546  0.00  0.00     0.417 C 
ATOM     35  F   UNL d   1      -6.245  -1.344   0.230  0.00  0.00    -0.166 F 
ATOM     36  F   UNL d   1      -6.369  -2.804   1.835  0.00  0.00    -0.166 F 
ATOM     37  F   UNL d   1      -6.767  -0.704   2.240  0.00  0.00    -0.166 F 
ENDBRANCH  30  34
ENDBRANCH   5  28
TORSDOF 7
