REMARK  8 active torsions:
REMARK  status: ('A' for Active; 'I' for Inactive)
REMARK    1  A    between atoms: N_2  and  S_1 
REMARK    2  A    between atoms: C_5  and  S_1 
REMARK       I    between atoms: C_3  and  N_2 
REMARK       I    between atoms: N_12  and  C_3 
REMARK       I    between atoms: C_4  and  N_13 
REMARK    3  A    between atoms: O_8  and  C_4 
REMARK    4  A    between atoms: C_11  and  O_8 
REMARK    5  A    between atoms: C_21  and  N_12 
REMARK    6  A    between atoms: N_13  and  C_20 
REMARK    7  A    between atoms: C_19  and  C_21 
REMARK    8  A    between atoms: C_20  and  C_19 
ROOT
ATOM      1  N   UNL d   1       0.853  -1.784  -2.117  0.00  0.00    -0.232 N 
ATOM      2  C   UNL d   1       1.174  -1.240  -3.336  0.00  0.00     0.329 C 
ATOM      3  O   UNL d   1       2.118  -1.613  -4.011  0.00  0.00    -0.246 OA
ATOM      4  N   UNL d   1       0.352  -0.234  -3.741  0.00  0.00    -0.342 N 
ATOM      5  H   UNL d   1       0.066  -1.469  -1.554  0.00  0.00     0.183 HD
ATOM      6  H   UNL d   1      -0.427   0.035  -3.152  0.00  0.00     0.164 HD
ENDROOT
BRANCH   1   7
ATOM      7  S   UNL d   1       1.752  -2.977  -1.360  0.00  0.00     0.266 S 
ATOM      8  O   UNL d   1       2.093  -4.015  -2.305  0.00  0.00    -0.200 OA
ATOM      9  O   UNL d   1       1.032  -3.287  -0.145  0.00  0.00    -0.200 OA
BRANCH   7  10
ATOM     10  C   UNL d   1       3.224  -2.092  -0.900  0.00  0.00     0.080 A 
ATOM     11  C   UNL d   1       3.325  -1.540   0.380  0.00  0.00     0.026 A 
ATOM     12  C   UNL d   1       4.441  -0.769   0.709  0.00  0.00     0.008 A 
ATOM     13  C   UNL d   1       5.459  -0.553  -0.230  0.00  0.00    -0.062 A 
ATOM     14  C   UNL d   1       5.367  -1.153  -1.492  0.00  0.00     0.008 A 
ATOM     15  C   UNL d   1       6.624   0.326   0.120  0.00  0.00     0.048 C 
ATOM     16  C   UNL d   1       4.259  -1.934  -1.824  0.00  0.00     0.026 A 
ENDBRANCH   7  10
ENDBRANCH   1   7
BRANCH   4  17
ATOM     17  C   UNL d   1       0.557   0.437  -5.013  0.00  0.00     0.126 C 
BRANCH  17  18
ATOM     18  C   UNL d   1      -0.177  -0.243  -6.176  0.00  0.00     0.039 C 
BRANCH  18  19
ATOM     19  C   UNL d   1      -1.690  -0.161  -5.975  0.00  0.00     0.126 C 
BRANCH  19  20
ATOM     20  N   UNL d   1      -2.468  -0.855  -6.978  0.00  0.00    -0.337 N 
ATOM     21  C   UNL d   1      -3.213  -0.383  -8.020  0.00  0.00     0.361 C 
ATOM     22  O   UNL d   1      -4.034  -1.125  -8.541  0.00  0.00    -0.238 OA
ATOM     23  H   UNL d   1      -2.724  -1.812  -6.769  0.00  0.00     0.164 HD
BRANCH  21  24
ATOM     24  O   UNL d   1      -2.986   0.902  -8.393  0.00  0.00    -0.294 OA
BRANCH  24  25
ATOM     25  C   UNL d   1      -3.775   1.484  -9.489  0.00  0.00     0.061 C 
ATOM     26  C   UNL d   1      -5.277   1.528  -9.135  0.00  0.00     0.046 C 
ATOM     27  C   UNL d   1      -3.192   2.899  -9.701  0.00  0.00     0.046 C 
ATOM     28  C   UNL d   1      -3.610   0.739 -10.825  0.00  0.00     0.046 C 
ENDBRANCH  24  25
ENDBRANCH  21  24
ENDBRANCH  19  20
ENDBRANCH  18  19
ENDBRANCH  17  18
ENDBRANCH   4  17
TORSDOF 8
