REMARK  2 active torsions:
REMARK  status: ('A' for Active; 'I' for Inactive)
REMARK       I    between atoms: N_2  and  C_1 
REMARK    1  A    between atoms: C_3  and  C_1 
REMARK    2  A    between atoms: C_9  and  N_2 
ROOT
ATOM      1  C   UNL d   1       1.079   0.032   0.043  0.00  0.00     0.256 C 
ATOM      2  N   UNL d   1       0.485   0.721   1.087  0.00  0.00    -0.323 N 
ATOM      3  O   UNL d   1       2.253   0.103  -0.304  0.00  0.00    -0.267 OA
ATOM      4  H   UNL d   1      -0.432   0.420   1.391  0.00  0.00     0.169 HD
ENDROOT
BRANCH   1   5
ATOM      5  C   UNL d   1       0.215  -0.936  -0.679  0.00  0.00     0.034 A 
ATOM      6  C   UNL d   1      -1.155  -0.728  -0.857  0.00  0.00     0.049 A 
ATOM      7  C   UNL d   1      -1.925  -1.639  -1.570  0.00  0.00     0.060 A 
ATOM      8  N   UNL d   1      -3.241  -1.405  -1.718  0.00  0.00    -0.363 N 
ATOM      9  C   UNL d   1      -1.311  -2.790  -2.130  0.00  0.00     0.059 A 
ATOM     10  C   UNL d   1      -3.936  -2.320  -2.430  0.00  0.00     0.105 A 
ATOM     11  HN  UNL d   1      -3.691  -0.583  -1.314  1.00  0.00     0.165 HD
ATOM     12  C   UNL d   1      -3.339  -3.438  -2.975  0.00  0.00     0.105 A 
ATOM     13  N   UNL d   1      -2.022  -3.693  -2.832  0.00  0.00    -0.363 N 
ATOM     14  HN  UNL d   1      -1.589  -4.525  -3.233  1.00  0.00     0.165 HD
ATOM     15  C   UNL d   1       0.050  -2.982  -1.956  0.00  0.00     0.033 A 
ATOM     16  C   UNL d   1       0.818  -2.065  -1.240  0.00  0.00     0.019 A 
ENDBRANCH   1   5
BRANCH   2  17
ATOM     17  C   UNL d   1       1.118   1.690   1.899  0.00  0.00     0.037 A 
ATOM     18  C   UNL d   1       2.339   2.282   1.568  0.00  0.00     0.069 A 
ATOM     19  C   UNL d   1       2.942   3.193   2.434  0.00  0.00     0.104 A 
ATOM     20  O   UNL d   1       4.150   3.705   2.034  0.00  0.00    -0.346 OA
ATOM     21  C   UNL d   1       2.316   3.546   3.630  0.00  0.00     0.102 A 
ATOM     22  C   UNL d   1       4.845   4.311   3.125  0.00  0.00     0.202 C 
ATOM     23  C   UNL d   1       3.909   5.200   3.927  0.00  0.00     0.202 C 
ATOM     24  O   UNL d   1       2.854   4.435   4.524  0.00  0.00    -0.346 OA
ATOM     25  C   UNL d   1       1.089   2.978   3.962  0.00  0.00     0.042 A 
ATOM     26  C   UNL d   1       0.485   2.062   3.092  0.00  0.00     0.032 A 
ENDBRANCH   2  17
TORSDOF 2
