REMARK  1 active torsions:
REMARK  status: ('A' for Active; 'I' for Inactive)
REMARK    1  A    between atoms: C_7  and  C_5 
ROOT
ATOM      1  N   UNL d   1       0.787   0.896  -1.019  0.00  0.00    -0.307 N 
ATOM      2  C   UNL d   1      -1.477   0.725  -0.480  0.00  0.00     0.076 A 
ATOM      3  C   UNL d   1       0.546  -0.346  -1.522  0.00  0.00     0.146 A 
ATOM      4  C   UNL d   1      -0.251   1.565  -0.432  0.00  0.00     0.264 A 
ATOM      5  C   UNL d   1      -2.639   1.127   0.049  0.00  0.00     0.041 C 
ATOM      6  S   UNL d   1      -1.135  -0.766  -1.284  0.00  0.00    -0.055 SA
ATOM      7  S   UNL d   1       1.704  -1.285  -2.241  0.00  0.00    -0.052 SA
ATOM      8  O   UNL d   1      -0.173   2.680   0.057  0.00  0.00    -0.267 OA
ATOM      9  H   UNL d   1       1.700   1.319  -1.064  0.00  0.00     0.170 HD
ENDROOT
BRANCH   5  10
ATOM     10  C   UNL d   1      -3.880   0.338   0.032  0.00  0.00     0.026 A 
ATOM     11  C   UNL d   1      -4.813   0.422  -1.012  0.00  0.00     0.047 A 
ATOM     12 CL   UNL d   1      -4.598   1.512  -2.338  0.00  0.00    -0.083 Cl
ATOM     13  C   UNL d   1      -5.961  -0.382  -1.009  0.00  0.00     0.025 A 
ATOM     14  C   UNL d   1      -6.190  -1.278   0.036  0.00  0.00     0.005 A 
ATOM     15  C   UNL d   1      -5.279  -1.360   1.085  0.00  0.00     0.043 A 
ATOM     16  C   UNL d   1      -4.141  -0.555   1.079  0.00  0.00     0.128 A 
ATOM     17  F   UNL d   1      -3.285  -0.652   2.108  0.00  0.00    -0.205 F 
ENDBRANCH   5  10
TORSDOF 1
