REMARK  6 active torsions:
REMARK  status: ('A' for Active; 'I' for Inactive)
REMARK    1  A    between atoms: C_11  and  C_1 
REMARK    2  A    between atoms: C_2  and  C_11 
REMARK    3  A    between atoms: N_21  and  C_3 
REMARK    4  A    between atoms: N_20  and  C_4 
REMARK    5  A    between atoms: C_14  and  C_11 
REMARK    6  A    between atoms: O_24  and  C_22 
ROOT
ATOM      1  C   UNL d   1      -1.468   2.451  -0.107  0.00  0.00     0.102 C 
ENDROOT
BRANCH   1   2
ATOM      2  C   UNL d   1      -1.027   3.232  -1.350  0.00  0.00     0.061 A 
ATOM      3  C   UNL d   1      -1.143   2.836  -2.640  0.00  0.00     0.092 A 
ATOM      4  N   UNL d   1      -0.788   3.703  -3.635  0.00  0.00    -0.323 N 
ATOM      5  C   UNL d   1      -0.306   4.958  -3.442  0.00  0.00     0.179 A 
ATOM      6  H   UNL d   1      -0.876   3.393  -4.595  0.00  0.00     0.169 HD
ATOM      7  N   UNL d   1      -0.144   5.355  -2.153  0.00  0.00    -0.300 N 
ATOM      8  S   UNL d   1       0.045   5.962  -4.719  0.00  0.00    -0.040 SA
ATOM      9  C   UNL d   1      -0.501   4.607  -1.069  0.00  0.00     0.258 A 
ATOM     10  H   UNL d   1       0.199   6.284  -1.966  0.00  0.00     0.171 HD
ATOM     11  O   UNL d   1      -0.443   5.079   0.061  0.00  0.00    -0.267 OA
BRANCH   3  12
ATOM     12  N   UNL d   1      -1.664   1.632  -3.044  0.00  0.00    -0.288 NA
ATOM     13  H   UNL d   1      -2.187   1.113  -2.339  0.00  0.00     0.125 HD
ATOM     14  H   UNL d   1      -2.185   1.686  -3.915  0.00  0.00     0.125 HD
ENDBRANCH   3  12
ENDBRANCH   1   2
BRANCH   1  15
ATOM     15  C   UNL d   1      -0.844   1.045  -0.062  0.00  0.00     0.061 A 
ATOM     16  C   UNL d   1      -1.404  -0.188  -0.108  0.00  0.00     0.092 A 
ATOM     17  N   UNL d   1      -0.602  -1.297  -0.041  0.00  0.00    -0.323 N 
ATOM     18  C   UNL d   1       0.754  -1.289   0.005  0.00  0.00     0.179 A 
ATOM     19  H   UNL d   1      -1.040  -2.207  -0.113  0.00  0.00     0.169 HD
ATOM     20  N   UNL d   1       1.347  -0.073   0.031  0.00  0.00    -0.300 N 
ATOM     21  S   UNL d   1       1.637  -2.696   0.025  0.00  0.00    -0.040 SA
ATOM     22  C   UNL d   1       0.664   1.105   0.049  0.00  0.00     0.258 A 
ATOM     23  H   UNL d   1       2.352  -0.016   0.070  0.00  0.00     0.171 HD
ATOM     24  O   UNL d   1       1.275   2.167   0.133  0.00  0.00    -0.267 OA
BRANCH  16  25
ATOM     25  N   UNL d   1      -2.739  -0.475  -0.250  0.00  0.00    -0.288 NA
ATOM     26  H   UNL d   1      -3.379   0.301  -0.118  0.00  0.00     0.125 HD
ATOM     27  H   UNL d   1      -3.023  -1.258   0.335  0.00  0.00     0.125 HD
ENDBRANCH  16  25
ENDBRANCH   1  15
BRANCH   1  28
ATOM     28  C   UNL d   1      -2.987   2.613   0.156  0.00  0.00    -0.042 A 
ATOM     29  C   UNL d   1      -3.840   3.275  -0.758  0.00  0.00     0.044 A 
ATOM     30  C   UNL d   1      -5.189   3.500  -0.488  0.00  0.00     0.068 A 
ATOM     31  C   UNL d   1      -5.728   3.022   0.701  0.00  0.00     0.037 A 
ATOM     32  C   UNL d   1      -4.912   2.365   1.627  0.00  0.00     0.003 A 
ATOM     33  C   UNL d   1      -3.551   2.185   1.370  0.00  0.00     0.008 A 
BRANCH  30  34
ATOM     34  O   UNL d   1      -6.058   4.175  -1.304  0.00  0.00    -0.356 OA
ATOM     35  C   UNL d   1      -5.497   4.826  -2.445  0.00  0.00     0.210 C 
ENDBRANCH  30  34
ENDBRANCH   1  28
TORSDOF 6
