REMARK  4 active torsions:
REMARK  status: ('A' for Active; 'I' for Inactive)
REMARK       I    between atoms: C_9  and  N_2 
REMARK    1  A    between atoms: S_10  and  C_6 
REMARK    2  A    between atoms: C_11  and  C_9 
REMARK    3  A    between atoms: C_14  and  S_10 
REMARK    4  A    between atoms: C_12  and  C_14 
ROOT
ATOM      1  C   UNL d   1       0.291   0.630   0.137  0.00  0.00     0.706 A 
ATOM      2  N   UNL d   1      -0.695   1.597  -0.028  0.00  0.00    -0.145 N 
ATOM      3  N   UNL d   1      -0.034  -0.707   0.138  0.00  0.00    -0.159 N 
ATOM      4  N   UNL d   1       1.586   0.741   0.309  0.00  0.00    -0.129 N 
ATOM      5  HN  UNL d   1       2.102   1.616   0.401  1.00  0.00     0.205 HD
ATOM      6  C   UNL d   1       1.145  -1.381   0.239  0.00  0.00     0.177 A 
ATOM      7  N   UNL d   1       2.129  -0.520   0.347  0.00  0.00    -0.265 N 
ATOM      8  HN  UNL d   1       3.119  -0.746   0.441  1.00  0.00     0.189 HD
ATOM      9  C   UNL d   1      -0.423   2.969  -0.153  0.00  0.00     0.272 C 
ATOM     10  O   UNL d   1      -1.322   3.806  -0.016  0.00  0.00    -0.267 OA
ATOM     11  C   UNL d   1      -2.092   1.198   0.171  0.00  0.00     0.153 C 
ATOM     12  C   UNL d   1      -1.384  -1.213   0.053  0.00  0.00     0.151 C 
ATOM     13  C   UNL d   1      -2.367  -0.163  -0.460  0.00  0.00     0.042 C 
ENDROOT
BRANCH   9  14
ATOM     14  C   UNL d   1       0.926   3.516  -0.489  0.00  0.00     0.033 A 
ATOM     15  C   UNL d   1       1.804   2.911  -1.399  0.00  0.00     0.020 A 
ATOM     16  C   UNL d   1       3.074   3.453  -1.617  0.00  0.00     0.043 A 
ATOM     17  C   UNL d   1       3.433   4.642  -0.992  0.00  0.00     0.116 A 
ATOM     18  C   UNL d   1       2.539   5.310  -0.166  0.00  0.00     0.043 A 
ATOM     19  F   UNL d   1       4.652   5.156  -1.198  0.00  0.00    -0.206 F 
ATOM     20  C   UNL d   1       1.286   4.748   0.086  0.00  0.00     0.020 A 
ENDBRANCH   9  14
BRANCH   6  21
ATOM     21  S   UNL d   1       1.296  -3.104   0.227  0.00  0.00    -0.087 SA
BRANCH  21  22
ATOM     22  C   UNL d   1       3.118  -3.246   0.291  0.00  0.00     0.122 C 
BRANCH  22  23
ATOM     23  C   UNL d   1       3.669  -4.655   0.408  0.00  0.00    -0.027 A 
ATOM     24  C   UNL d   1       4.887  -5.018  -0.199  0.00  0.00     0.041 A 
ATOM     25 CL   UNL d   1       5.796  -3.920  -1.181  0.00  0.00    -0.084 Cl
ATOM     26  C   UNL d   1       5.439  -6.291  -0.008  0.00  0.00     0.024 A 
ATOM     27  C   UNL d   1       4.796  -7.223   0.802  0.00  0.00     0.002 A 
ATOM     28  C   UNL d   1       3.603  -6.880   1.429  0.00  0.00     0.001 A 
ATOM     29  C   UNL d   1       3.051  -5.607   1.244  0.00  0.00     0.009 A 
ENDBRANCH  22  23
ENDBRANCH  21  22
ENDBRANCH   6  21
TORSDOF 4
