REMARK  2 active torsions:
REMARK  status: ('A' for Active; 'I' for Inactive)
REMARK    1  A    between atoms: S_9  and  C_5 
REMARK    2  A    between atoms: C_10  and  N_8 
ROOT
ATOM      1  S   UNL d   1       1.332  -1.574   1.043  0.00  0.00    -0.027 SA
ATOM      2  C   UNL d   1       2.859  -0.777   1.194  0.00  0.00     0.166 A 
ATOM      3  N   UNL d   1       3.284  -0.722   2.442  0.00  0.00    -0.278 N 
ATOM      4  HN  UNL d   1       4.175  -0.308   2.713  1.00  0.00     0.189 HD
ATOM      5  C   UNL d   1       1.329  -1.741   2.744  0.00  0.00     0.127 A 
ATOM      6  N   UNL d   1       2.400  -1.281   3.342  0.00  0.00    -0.286 N 
ATOM      7  HN  UNL d   1       2.561  -1.330   4.348  1.00  0.00     0.188 HD
ATOM      8  N   UNL d   1       3.496  -0.312   0.090  0.00  0.00    -0.336 N 
ATOM      9  H   UNL d   1       3.118  -0.546  -0.818  0.00  0.00     0.168 HD
ENDROOT
BRANCH   8  10
ATOM     10  C   UNL d   1       4.468   0.707   0.056  0.00  0.00     0.034 A 
ATOM     11  C   UNL d   1       5.345   0.773  -1.036  0.00  0.00     0.030 A 
ATOM     12  C   UNL d   1       6.356   1.739  -1.093  0.00  0.00     0.009 A 
ATOM     13  C   UNL d   1       6.513   2.666  -0.058  0.00  0.00    -0.062 A 
ATOM     14  C   UNL d   1       5.653   2.598   1.040  0.00  0.00     0.009 A 
ATOM     15  C   UNL d   1       7.596   3.699  -0.124  0.00  0.00     0.048 C 
ATOM     16  C   UNL d   1       4.655   1.622   1.099  0.00  0.00     0.030 A 
ENDBRANCH   8  10
BRANCH   5  17
ATOM     17  S   UNL d   1       0.013  -2.452   3.641  0.00  0.00    -0.117 SA
ATOM     18  H   UNL d   1      -0.862  -2.516   2.630  0.00  0.00     0.109 HD
ENDBRANCH   5  17
TORSDOF 2
