REMARK  7 active torsions:
REMARK  status: ('A' for Active; 'I' for Inactive)
REMARK    1  A    between atoms: C_6  and  N_1 
REMARK    2  A    between atoms: C_7  and  C_6 
REMARK    3  A    between atoms: C_14  and  C_7 
REMARK    4  A    between atoms: N_11  and  N_8 
REMARK       I    between atoms: C_10  and  N_11 
REMARK    5  A    between atoms: O_18  and  C_10 
REMARK    6  A    between atoms: C_25  and  O_18 
REMARK    7  A    between atoms: O_24  and  C_19 
ROOT
ATOM      1  C   UNL d   1       3.827   1.594  -0.396  0.00  0.00     0.054 C 
ATOM      2  N   UNL d   1       3.175   2.705  -0.592  0.00  0.00    -0.298 N 
ATOM      3  HN  UNL d   1       3.697   3.571  -0.728  1.00  0.00     0.187 HD
ENDROOT
BRANCH   1   4
ATOM      4  C   UNL d   1       3.184   0.248  -0.060  0.00  0.00     0.195 C 
BRANCH   4   5
ATOM      5  N   UNL d   1       3.042  -0.728  -1.127  0.00  0.00    -0.274 N 
ATOM      6  C   UNL d   1       2.607  -2.000  -0.854  0.00  0.00     0.262 A 
ATOM      7  C   UNL d   1       2.275  -2.622  -2.132  0.00  0.00     0.048 A 
ATOM      8  O   UNL d   1       2.467  -2.540   0.227  0.00  0.00    -0.267 OA
ATOM      9  C   UNL d   1       1.708  -3.850  -2.410  0.00  0.00     0.018 A 
ATOM     10  C   UNL d   1       2.554  -1.702  -3.123  0.00  0.00     0.048 A 
ATOM     11  C   UNL d   1       1.448  -4.143  -3.753  0.00  0.00     0.001 A 
ATOM     12  C   UNL d   1       1.775  -3.222  -4.770  0.00  0.00     0.001 A 
ATOM     13  C   UNL d   1       2.336  -1.978  -4.459  0.00  0.00     0.018 A 
ATOM     14  C   UNL d   1       2.991  -0.470  -2.469  0.00  0.00     0.262 A 
ATOM     15  O   UNL d   1       3.215   0.560  -3.072  0.00  0.00    -0.267 OA
ENDBRANCH   4   5
ENDBRANCH   1   4
BRANCH   1  16
ATOM     16  C   UNL d   1       5.323   1.669  -0.455  0.00  0.00    -0.010 A 
ATOM     17  C   UNL d   1       6.113   0.559  -0.769  0.00  0.00     0.016 A 
ATOM     18  C   UNL d   1       7.500   0.696  -0.902  0.00  0.00     0.037 A 
ATOM     19  C   UNL d   1       8.111   1.936  -0.713  0.00  0.00     0.068 A 
ATOM     20  C   UNL d   1       7.327   3.035  -0.362  0.00  0.00     0.037 A 
ATOM     21  C   UNL d   1       5.942   2.908  -0.241  0.00  0.00     0.016 A 
BRANCH  19  22
ATOM     22  O   UNL d   1       9.446   2.200  -0.839  0.00  0.00    -0.356 OA
ATOM     23  C   UNL d   1      10.249   1.166  -1.392  0.00  0.00     0.210 C 
ENDBRANCH  19  22
ENDBRANCH   1  16
BRANCH   2  24
ATOM     24  N   UNL d   1       1.818   2.738  -0.619  0.00  0.00    -0.245 N 
ATOM     25  C   UNL d   1       1.163   3.928  -0.866  0.00  0.00     0.379 C 
ATOM     26  O   UNL d   1       1.670   5.035  -0.963  0.00  0.00    -0.237 OA
ATOM     27  H   UNL d   1       1.266   1.897  -0.694  0.00  0.00     0.192 HD
BRANCH  25  28
ATOM     28  O   UNL d   1      -0.170   3.678  -0.996  0.00  0.00    -0.303 OA
BRANCH  28  29
ATOM     29  C   UNL d   1      -0.981   4.812  -1.331  0.00  0.00     0.176 C 
ATOM     30  C   UNL d   1      -1.338   5.614  -0.092  0.00  0.00     0.034 C 
ENDBRANCH  28  29
ENDBRANCH  25  28
ENDBRANCH   2  24
TORSDOF 7
