REMARK  4 active torsions:
REMARK  status: ('A' for Active; 'I' for Inactive)
REMARK       I    between atoms: N_2  and  C_1 
REMARK    1  A    between atoms: C_4  and  C_1 
REMARK    2  A    between atoms: C_3  and  C_9 
REMARK    3  A    between atoms: O_18  and  C_3 
REMARK    4  A    between atoms: C_5  and  C_6 
ROOT
ATOM      1  C   UNL d   1       1.014  -0.161   0.079  0.00  0.00     0.253 C 
ATOM      2  N   UNL d   1       2.407  -0.242   0.008  0.00  0.00    -0.348 N 
ATOM      3  C   UNL d   1       3.145  -0.827   1.120  0.00  0.00     0.127 C 
ATOM      4  C   UNL d   1       3.262   0.252  -1.071  0.00  0.00     0.127 C 
ATOM      5  C   UNL d   1       4.810  -1.714  -0.598  0.00  0.00     0.087 C 
ATOM      6  O   UNL d   1       0.378  -0.474   1.083  0.00  0.00    -0.267 OA
ATOM      7  C   UNL d   1       4.038  -0.922  -1.669  0.00  0.00     0.035 C 
ATOM      8  C   UNL d   1       3.942  -2.035   0.629  0.00  0.00     0.035 C 
ENDROOT
BRANCH   1   9
ATOM      9  C   UNL d   1       0.240   0.323  -1.093  0.00  0.00     0.032 A 
ATOM     10  C   UNL d   1       0.464  -0.167  -2.379  0.00  0.00     0.017 A 
ATOM     11  C   UNL d   1      -0.225   0.374  -3.466  0.00  0.00     0.009 A 
ATOM     12  C   UNL d   1      -1.207   1.368  -3.293  0.00  0.00    -0.051 A 
ATOM     13  C   UNL d   1      -1.488   1.775  -1.977  0.00  0.00     0.009 A 
ATOM     14  C   UNL d   1      -0.772   1.261  -0.888  0.00  0.00     0.017 A 
BRANCH  12  15
ATOM     15  C   UNL d   1      -1.908   1.975  -4.521  0.00  0.00    -0.024 C 
ATOM     16  C   UNL d   1      -3.039   2.964  -4.165  0.00  0.00     0.019 C 
ATOM     17  C   UNL d   1      -0.869   2.745  -5.365  0.00  0.00     0.019 C 
ATOM     18  C   UNL d   1      -2.534   0.858  -5.386  0.00  0.00     0.019 C 
ENDBRANCH  12  15
ENDBRANCH   1   9
BRANCH   5  19
ATOM     19  C   UNL d   1       6.077  -0.985  -0.187  0.00  0.00     0.143 C 
ATOM     20  O   UNL d   1       6.261   0.216  -0.295  0.00  0.00    -0.650 OA
BRANCH  19  21
ATOM     21  O   UNL d   1       7.018  -1.810   0.326  0.00  0.00    -0.776 OA
ATOM     22  H   UNL d   1       6.764  -2.752   0.344  0.00  0.00     0.167 HD
ENDBRANCH  19  21
ENDBRANCH   5  19
TORSDOF 4
