REMARK  5 active torsions:
REMARK  status: ('A' for Active; 'I' for Inactive)
REMARK    1  A    between atoms: N_6  and  C_1 
REMARK       I    between atoms: C_5  and  N_6 
REMARK    2  A    between atoms: C_9  and  C_5 
REMARK    3  A    between atoms: C_14  and  C_7 
REMARK    4  A    between atoms: C_11  and  C_10 
REMARK    5  A    between atoms: O_15  and  C_11 
ROOT
ATOM      1  C   UNL d   1       3.474  -0.822  -0.135  0.00  0.00     0.258 C 
ATOM      2  N   UNL d   1       2.172  -1.354  -0.391  0.00  0.00    -0.308 N 
ATOM      3  O   UNL d   1       3.616   0.371   0.094  0.00  0.00    -0.267 OA
ATOM      4  H   UNL d   1       2.065  -2.351  -0.597  0.00  0.00     0.170 HD
ENDROOT
BRANCH   2   5
ATOM      5  C   UNL d   1       1.004  -0.603  -0.307  0.00  0.00     0.124 A 
ATOM      6  C   UNL d   1       0.844   0.735  -0.045  0.00  0.00     0.081 A 
ATOM      7  C   UNL d   1      -0.558   0.966   0.019  0.00  0.00     0.062 A 
ATOM      8  N   UNL d   1      -1.228  -0.162  -0.268  0.00  0.00    -0.298 N 
ATOM      9  N   UNL d   1      -0.271  -1.087  -0.452  0.00  0.00    -0.285 N 
ATOM     10  HN  UNL d   1      -2.238  -0.288  -0.332  1.00  0.00     0.187 HD
ATOM     11  H   UNL d   1      -0.559  -2.037  -0.652  0.00  0.00     0.188 HD
BRANCH   7  12
ATOM     12  C   UNL d   1      -1.229   2.224   0.363  0.00  0.00    -0.008 A 
ATOM     13  C   UNL d   1      -2.553   2.465  -0.026  0.00  0.00     0.014 A 
ATOM     14  C   UNL d   1      -3.187   3.665   0.313  0.00  0.00     0.001 A 
ATOM     15  C   UNL d   1      -2.505   4.634   1.049  0.00  0.00     0.000 A 
ATOM     16  C   UNL d   1      -1.191   4.407   1.445  0.00  0.00     0.001 A 
ATOM     17  C   UNL d   1      -0.556   3.210   1.105  0.00  0.00     0.014 A 
ENDBRANCH   7  12
ENDBRANCH   2   5
BRANCH   1  18
ATOM     18  C   UNL d   1       4.687  -1.693  -0.155  0.00  0.00     0.049 A 
ATOM     19  C   UNL d   1       4.750  -3.060   0.161  0.00  0.00     0.053 A 
ATOM     20  C   UNL d   1       5.993  -3.723   0.186  0.00  0.00     0.019 A 
ATOM     21  C   UNL d   1       7.174  -3.027  -0.073  0.00  0.00     0.001 A 
ATOM     22  C   UNL d   1       7.126  -1.674  -0.381  0.00  0.00     0.001 A 
ATOM     23  C   UNL d   1       5.897  -1.016  -0.424  0.00  0.00     0.018 A 
BRANCH  19  24
ATOM     24  C   UNL d   1       3.546  -3.863   0.435  0.00  0.00     0.177 C 
ATOM     25  O   UNL d   1       2.540  -3.757  -0.246  0.00  0.00    -0.646 OA
BRANCH  24  26
ATOM     26  O   UNL d   1       3.639  -4.664   1.509  0.00  0.00    -0.773 OA
ATOM     27  H   UNL d   1       4.466  -4.628   2.030  0.00  0.00     0.167 HD
ENDBRANCH  24  26
ENDBRANCH  19  24
ENDBRANCH   1  18
TORSDOF 5
