REMARK  9 active torsions:
REMARK  status: ('A' for Active; 'I' for Inactive)
REMARK       I    between atoms: N_3  and  C_1 
REMARK    1  A    between atoms: O_6  and  C_1 
REMARK    2  A    between atoms: C_9  and  N_2 
REMARK    3  A    between atoms: C_10  and  N_3 
REMARK    4  A    between atoms: C_13  and  O_6 
REMARK    5  A    between atoms: C_7  and  C_13 
REMARK    6  A    between atoms: C_17  and  C_9 
REMARK    7  A    between atoms: O_11  and  C_12 
REMARK    8  A    between atoms: C_14  and  O_11 
REMARK    9  A    between atoms: C_22  and  C_14 
ROOT
ATOM      1  C   UNL d   1       0.955   0.034  -0.176  0.00  0.00     0.365 C 
ATOM      2  N   UNL d   1       0.183   0.660   0.766  0.00  0.00    -0.303 N 
ATOM      3  O   UNL d   1       0.451  -0.397  -1.208  0.00  0.00    -0.238 OA
ATOM      4  H   UNL d   1      -0.797   0.642   0.515  0.00  0.00     0.171 HD
ENDROOT
BRANCH   1   5
ATOM      5  O   UNL d   1       2.276  -0.039   0.107  0.00  0.00    -0.301 OA
BRANCH   5   6
ATOM      6  C   UNL d   1       3.181   0.118  -0.994  0.00  0.00     0.214 C 
BRANCH   6   7
ATOM      7  C   UNL d   1       3.243  -1.034  -1.993  0.00  0.00     0.174 C 
ATOM      8  O   UNL d   1       4.239  -0.703  -2.982  0.00  0.00    -0.380 OA
ATOM      9  C   UNL d   1       4.290  -1.712  -3.999  0.00  0.00     0.198 C 
ATOM     10  C   UNL d   1       4.575  -3.100  -3.402  0.00  0.00     0.299 C 
ATOM     11  N   UNL d   1       3.651  -3.506  -2.318  0.00  0.00     0.097 N 
ATOM     12  C   UNL d   1       3.583  -2.390  -1.335  0.00  0.00     0.306 C 
BRANCH  11  13
ATOM     13  C   UNL d   1       2.293  -3.829  -2.797  0.00  0.00     0.311 C 
BRANCH  13  14
ATOM     14  C   UNL d   1       2.220  -4.960  -3.800  0.00  0.00    -0.030 A 
ATOM     15  C   UNL d   1       2.676  -6.243  -3.475  0.00  0.00     0.009 A 
ATOM     16  C   UNL d   1       2.569  -7.286  -4.395  0.00  0.00     0.001 A 
ATOM     17  C   UNL d   1       2.006  -7.055  -5.649  0.00  0.00     0.000 A 
ATOM     18  C   UNL d   1       1.550  -5.783  -5.984  0.00  0.00     0.001 A 
ATOM     19  C   UNL d   1       1.660  -4.741  -5.064  0.00  0.00     0.009 A 
ENDBRANCH  13  14
ENDBRANCH  11  13
ENDBRANCH   6   7
ENDBRANCH   5   6
ENDBRANCH   1   5
BRANCH   2  20
ATOM     20  C   UNL d   1       0.531   1.381   1.924  0.00  0.00     0.037 A 
ATOM     21  C   UNL d   1       1.837   1.570   2.375  0.00  0.00     0.032 A 
ATOM     22  C   UNL d   1       2.094   2.256   3.564  0.00  0.00     0.039 A 
ATOM     23  C   UNL d   1       1.044   2.757   4.328  0.00  0.00     0.069 A 
ATOM     24  C   UNL d   1      -0.258   2.651   3.847  0.00  0.00     0.039 A 
ATOM     25  C   UNL d   1      -0.514   1.960   2.656  0.00  0.00     0.032 A 
BRANCH  23  26
ATOM     26  O   UNL d   1       1.206   3.381   5.535  0.00  0.00    -0.347 OA
BRANCH  26  27
ATOM     27  C   UNL d   1       2.256   2.818   6.335  0.00  0.00     0.214 C 
BRANCH  27  28
ATOM     28  C   UNL d   1       2.281   3.425   7.717  0.00  0.00    -0.034 A 
ATOM     29  C   UNL d   1       2.773   2.672   8.796  0.00  0.00     0.009 A 
ATOM     30  C   UNL d   1       2.885   3.241  10.065  0.00  0.00     0.001 A 
ATOM     31  C   UNL d   1       2.516   4.569  10.268  0.00  0.00     0.000 A 
ATOM     32  C   UNL d   1       2.034   5.329   9.204  0.00  0.00     0.001 A 
ATOM     33  C   UNL d   1       1.923   4.763   7.935  0.00  0.00     0.009 A 
ENDBRANCH  27  28
ENDBRANCH  26  27
ENDBRANCH  23  26
ENDBRANCH   2  20
TORSDOF 9
