REMARK  5 active torsions:
REMARK  status: ('A' for Active; 'I' for Inactive)
REMARK    1  A    between atoms: N_2  and  C_1 
REMARK    2  A    between atoms: N_4  and  C_1 
REMARK    3  A    between atoms: C_6  and  N_2 
REMARK    4  A    between atoms: C_3  and  C_7 
REMARK    5  A    between atoms: C_7  and  N_4 
ROOT
ATOM      1  C   UNL d   1       0.925   0.034  -0.012  0.00  0.00     0.172 C 
ATOM      2  S   UNL d   1       0.583   1.480   0.744  0.00  0.00    -0.041 SA
ENDROOT
BRANCH   1   3
ATOM      3  N   UNL d   1       2.163  -0.534   0.165  0.00  0.00    -0.333 N 
ATOM      4  H   UNL d   1       2.880   0.096   0.510  0.00  0.00     0.168 HD
BRANCH   3   5
ATOM      5  C   UNL d   1       2.488  -1.907   0.144  0.00  0.00     0.037 A 
ATOM      6  C   UNL d   1       1.533  -2.903   0.376  0.00  0.00     0.071 A 
ATOM      7  C   UNL d   1       1.908  -4.239   0.369  0.00  0.00     0.118 A 
ATOM      8  F   UNL d   1       0.994  -5.185   0.611  0.00  0.00    -0.206 F 
ATOM      9  C   UNL d   1       3.228  -4.608   0.128  0.00  0.00     0.042 A 
ATOM     10  C   UNL d   1       4.188  -3.620  -0.086  0.00  0.00     0.005 A 
ATOM     11  C   UNL d   1       3.822  -2.269  -0.056  0.00  0.00     0.029 A 
ENDBRANCH   3   5
ENDBRANCH   1   3
BRANCH   1  12
ATOM     12  N   UNL d   1       0.109  -0.627  -0.888  0.00  0.00    -0.363 N 
ATOM     13  H   UNL d   1       0.544  -1.371  -1.416  0.00  0.00     0.162 HD
BRANCH  12  14
ATOM     14  C   UNL d   1      -1.334  -0.544  -0.996  0.00  0.00     0.162 C 
BRANCH  14  15
ATOM     15  C   UNL d   1      -1.784  -0.695  -2.426  0.00  0.00    -0.019 A 
ATOM     16  C   UNL d   1      -1.925  -1.940  -3.060  0.00  0.00     0.042 A 
ATOM     17 CL   UNL d   1      -1.555  -3.421  -2.251  0.00  0.00    -0.084 Cl
ATOM     18  C   UNL d   1      -2.359  -2.018  -4.388  0.00  0.00     0.024 A 
ATOM     19  C   UNL d   1      -2.644  -0.855  -5.103  0.00  0.00     0.002 A 
ATOM     20  C   UNL d   1      -2.484   0.387  -4.495  0.00  0.00     0.001 A 
ATOM     21  C   UNL d   1      -2.052   0.467  -3.170  0.00  0.00     0.010 A 
ENDBRANCH  14  15
ENDBRANCH  12  14
ENDBRANCH   1  12
TORSDOF 5
