REMARK  4 active torsions:
REMARK  status: ('A' for Active; 'I' for Inactive)
REMARK    1  A    between atoms: C_6  and  C_1 
REMARK    2  A    between atoms: C_9  and  N_2 
REMARK    3  A    between atoms: C_8  and  C_4 
REMARK       I    between atoms: N_7  and  C_6 
REMARK    4  A    between atoms: C_14  and  N_7 
ROOT
ATOM      1  C   UNL d   1      -0.179   1.098   0.018  0.00  0.00     0.057 A 
ATOM      2  N   UNL d   1       0.926  -0.883   0.258  0.00  0.00    -0.314 N 
ATOM      3  C   UNL d   1       1.074   0.511   0.250  0.00  0.00     0.029 A 
ATOM      4  C   UNL d   1      -0.441  -1.178   0.153  0.00  0.00     0.051 A 
ATOM      5  C   UNL d   1      -1.108   0.025  -0.010  0.00  0.00     0.050 A 
ATOM      6  C   UNL d   1       2.394   1.221   0.311  0.00  0.00     0.070 C 
ENDROOT
BRANCH   1   7
ATOM      7  C   UNL d   1      -0.430   2.545  -0.175  0.00  0.00     0.258 C 
ATOM      8  N   UNL d   1      -1.769   2.896  -0.247  0.00  0.00    -0.323 N 
ATOM      9  H   UNL d   1      -2.441   2.146  -0.235  0.00  0.00     0.169 HD
ATOM     10  O   UNL d   1       0.498   3.342  -0.275  0.00  0.00    -0.267 OA
BRANCH   8  11
ATOM     11  C   UNL d   1      -2.312   4.198  -0.328  0.00  0.00     0.035 A 
ATOM     12  C   UNL d   1      -1.555   5.370  -0.260  0.00  0.00     0.029 A 
ATOM     13  C   UNL d   1      -2.176   6.624  -0.306  0.00  0.00     0.002 A 
ATOM     14  C   UNL d   1      -3.559   6.718  -0.427  0.00  0.00     0.000 A 
ATOM     15  C   UNL d   1      -4.324   5.558  -0.506  0.00  0.00     0.002 A 
ATOM     16  C   UNL d   1      -3.704   4.306  -0.456  0.00  0.00     0.029 A 
ENDBRANCH   8  11
ENDBRANCH   1   7
BRANCH   2  17
ATOM     17  C   UNL d   1       1.980  -1.854   0.289  0.00  0.00     0.039 A 
ATOM     18  C   UNL d   1       3.019  -1.761   1.221  0.00  0.00     0.030 A 
ATOM     19  C   UNL d   1       4.018  -2.739   1.262  0.00  0.00     0.002 A 
ATOM     20  C   UNL d   1       3.967  -3.831   0.399  0.00  0.00     0.000 A 
ATOM     21  C   UNL d   1       2.924  -3.943  -0.517  0.00  0.00     0.002 A 
ATOM     22  C   UNL d   1       1.940  -2.953  -0.582  0.00  0.00     0.030 A 
ENDBRANCH   2  17
BRANCH   4  23
ATOM     23  C   UNL d   1      -1.064  -2.514   0.237  0.00  0.00    -0.009 A 
ATOM     24  C   UNL d   1      -2.086  -2.864  -0.660  0.00  0.00     0.015 A 
ATOM     25  C   UNL d   1      -2.675  -4.131  -0.617  0.00  0.00     0.024 A 
ATOM     26  C   UNL d   1      -2.242  -5.063   0.322  0.00  0.00     0.034 A 
ATOM     27  C   UNL d   1      -1.246  -4.729   1.234  0.00  0.00     0.024 A 
ATOM     28 CL   UNL d   1      -2.940  -6.635   0.351  0.00  0.00    -0.084 Cl
ATOM     29  C   UNL d   1      -0.675  -3.452   1.205  0.00  0.00     0.015 A 
ENDBRANCH   4  23
TORSDOF 4
