REMARK  3 active torsions:
REMARK  status: ('A' for Active; 'I' for Inactive)
REMARK    1  A    between atoms: N_2  and  C_7 
REMARK    2  A    between atoms: N_12  and  N_3 
REMARK    3  A    between atoms: C_16  and  N_12 
ROOT
ATOM      1  C   UNL d   1      -1.013   0.868  -0.029  0.00  0.00     0.109 A 
ATOM      2  N   UNL d   1      -1.293   2.141  -0.017  0.00  0.00    -0.296 N 
ATOM      3  HN  UNL d   1      -0.542   2.830  -0.038  1.00  0.00     0.187 HD
ATOM      4  C   UNL d   1       0.414   0.456  -0.047  0.00  0.00     0.006 A 
ATOM      5  C   UNL d   1      -2.064  -0.237   0.017  0.00  0.00     0.200 A 
ATOM      6  C   UNL d   1      -1.598  -1.638   0.024  0.00  0.00     0.058 A 
ATOM      7  C   UNL d   1      -0.295  -1.937   0.016  0.00  0.00     0.016 A 
ATOM      8  C   UNL d   1       0.742  -0.905  -0.007  0.00  0.00    -0.023 A 
ATOM      9  O   UNL d   1      -3.262   0.019   0.063  0.00  0.00    -0.286 OA
ATOM     10  C   UNL d   1       1.425   1.429  -0.076  0.00  0.00     0.015 A 
ATOM     11  C   UNL d   1       2.093  -1.276   0.014  0.00  0.00     0.012 A 
ATOM     12  C   UNL d   1       2.765   1.047  -0.057  0.00  0.00     0.001 A 
ATOM     13  C   UNL d   1       3.098  -0.304  -0.009  0.00  0.00     0.001 A 
ENDROOT
BRANCH   2  14
ATOM     14  N   UNL d   1      -2.587   2.546   0.024  0.00  0.00    -0.300 N 
ATOM     15  H   UNL d   1      -3.331   1.839   0.094  0.00  0.00     0.187 HD
BRANCH  14  16
ATOM     16  C   UNL d   1      -2.857   3.746   0.715  0.00  0.00     0.050 A 
ATOM     17  C   UNL d   1      -1.827   4.593   1.147  0.00  0.00     0.067 A 
ATOM     18  C   UNL d   1      -2.123   5.796   1.798  0.00  0.00     0.105 A 
ATOM     19  C   UNL d   1      -3.450   6.190   1.995  0.00  0.00     0.036 A 
ATOM     20  C   UNL d   1      -4.480   5.373   1.531  0.00  0.00     0.005 A 
ATOM     21  C   UNL d   1      -4.184   4.165   0.890  0.00  0.00     0.031 A 
BRANCH  18  22
ATOM     22  N   UNL d   1      -1.026   6.643   2.278  0.00  0.00    -0.116 N 
ATOM     23  O   UNL d   1       0.137   6.249   2.108  0.00  0.00    -0.532 OA
ATOM     24  O   UNL d   1      -1.327   7.710   2.835  0.00  0.00    -0.532 OA
ENDBRANCH  18  22
ENDBRANCH  14  16
ENDBRANCH   2  14
TORSDOF 3
