REMARK  0 active torsions:
REMARK  status: ('A' for Active; 'I' for Inactive)
ROOT
ATOM      1  N   UNL d   1      -0.205   1.653  -0.171  0.00  0.00    -0.358 N 
ATOM      2  C   UNL d   1       0.460  -0.466  -0.375  0.00  0.00    -0.023 A 
ATOM      3  C   UNL d   1       0.884   0.854  -0.393  0.00  0.00     0.017 A 
ATOM      4  C   UNL d   1      -0.955  -0.444  -0.175  0.00  0.00    -0.001 A 
ATOM      5  C   UNL d   1      -1.341   0.888  -0.033  0.00  0.00     0.043 A 
ATOM      6  C   UNL d   1      -1.945  -1.446  -0.090  0.00  0.00     0.021 A 
ATOM      7  C   UNL d   1      -2.667   1.266   0.205  0.00  0.00     0.031 A 
ATOM      8  C   UNL d   1      -3.286  -1.094   0.135  0.00  0.00    -0.061 A 
ATOM      9  C   UNL d   1      -3.630   0.252   0.286  0.00  0.00     0.009 A 
ATOM     10  C   UNL d   1       1.318  -1.684  -0.509  0.00  0.00     0.041 C 
ATOM     11  C   UNL d   1       2.259   1.381  -0.594  0.00  0.00     0.057 C 
ATOM     12  C   UNL d   1      -4.325  -2.174   0.208  0.00  0.00     0.048 C 
ATOM     13  C   UNL d   1       2.784  -1.543  -0.066  0.00  0.00     0.005 C 
ATOM     14  C   UNL d   1       3.229   0.927   0.500  0.00  0.00     0.006 C 
ATOM     15  C   UNL d   1       3.050  -0.506   1.029  0.00  0.00     0.001 C 
ATOM     16  H   UNL d   1      -0.189   2.663  -0.112  0.00  0.00     0.166 HD
ENDROOT
TORSDOF 0
