REMARK  4 active torsions:
REMARK  status: ('A' for Active; 'I' for Inactive)
REMARK    1  A    between atoms: C_7  and  N_2 
REMARK    2  A    between atoms: N_13  and  C_10 
REMARK    3  A    between atoms: C_20  and  N_13 
REMARK    4  A    between atoms: C_21  and  N_13 
ROOT
ATOM      1  C   UNL d   1      -0.716   2.983   0.751  0.00  0.00     0.044 C 
ATOM      2  N   UNL d   1       0.442   2.897   0.158  0.00  0.00    -0.355 N 
ATOM      3  HN  UNL d   1       0.683   1.987  -0.235  1.00  0.00     0.166 HD
ATOM      4  C   UNL d   1      -1.437   4.172   1.302  0.00  0.00     0.005 C 
ATOM      5  C   UNL d   1      -2.362   3.989   2.336  0.00  0.00     0.026 C 
ATOM      6  C   UNL d   1      -1.370   1.669   0.989  0.00  0.00     0.034 C 
ATOM      7  C   UNL d   1      -2.830   2.634   2.696  0.00  0.00     0.183 C 
ATOM      8  C   UNL d   1      -2.328   1.504   1.904  0.00  0.00     0.058 C 
ATOM      9  O   UNL d   1      -3.643   2.449   3.591  0.00  0.00    -0.288 OA
ATOM     10  C   UNL d   1      -1.184   5.478   0.862  0.00  0.00     0.014 C 
ATOM     11  C   UNL d   1      -2.888   5.090   3.023  0.00  0.00     0.016 C 
ATOM     12  C   UNL d   1      -2.514   6.381   2.669  0.00  0.00     0.001 C 
ATOM     13  C   UNL d   1      -1.684   6.576   1.569  0.00  0.00     0.001 C 
ENDROOT
BRANCH   2  14
ATOM     14  C   UNL d   1       1.395   3.915   0.000  0.00  0.00     0.038 A 
ATOM     15  C   UNL d   1       2.147   4.002  -1.176  0.00  0.00    -0.033 A 
ATOM     16  C   UNL d   1       3.186   4.954  -1.270  0.00  0.00     0.038 A 
ATOM     17  C   UNL d   1       1.978   3.041  -2.323  0.00  0.00     0.050 C 
ATOM     18  C   UNL d   1       3.503   5.839  -0.228  0.00  0.00     0.030 A 
ATOM     19  C   UNL d   1       2.708   5.762   0.915  0.00  0.00     0.031 A 
ATOM     20  C   UNL d   1       1.728   4.774   1.051  0.00  0.00     0.032 A 
BRANCH  18  21
ATOM     21  N   UNL d   1       4.606   6.678  -0.288  0.00  0.00    -0.382 N 
BRANCH  21  22
ATOM     22  C   UNL d   1       4.575   8.023   0.289  0.00  0.00     0.118 C 
ATOM     23  C   UNL d   1       5.195   8.079   1.677  0.00  0.00     0.026 C 
ENDBRANCH  21  22
BRANCH  21  24
ATOM     24  C   UNL d   1       5.840   6.225  -0.940  0.00  0.00     0.118 C 
ATOM     25  C   UNL d   1       6.388   4.951  -0.301  0.00  0.00     0.026 C 
ENDBRANCH  21  24
ENDBRANCH  18  21
ENDBRANCH   2  14
TORSDOF 4
