REMARK  3 active torsions:
REMARK  status: ('A' for Active; 'I' for Inactive)
REMARK    1  A    between atoms: C_2  and  S_1 
REMARK    2  A    between atoms: N_8  and  S_1 
REMARK    3  A    between atoms: C_15  and  N_8 
ROOT
ATOM      1  N   UNL d   1       0.385   1.561  -0.305  0.00  0.00    -0.281 N 
ATOM      2  H   UNL d   1      -0.427   1.651  -0.911  0.00  0.00     0.179 HD
ENDROOT
BRANCH   1   3
ATOM      3  S   UNL d   1       0.876   0.001   0.059  0.00  0.00     0.264 S 
ATOM      4  O   UNL d   1       0.145  -0.875  -0.831  0.00  0.00    -0.200 OA
ATOM      5  O   UNL d   1       2.317  -0.026   0.145  0.00  0.00    -0.200 OA
BRANCH   3   6
ATOM      6  C   UNL d   1       0.320  -0.455   1.640  0.00  0.00     0.098 A 
ATOM      7  C   UNL d   1       1.180  -0.857   2.638  0.00  0.00     0.076 A 
ATOM      8  S   UNL d   1       0.360  -1.260   4.072  0.00  0.00    -0.100 SA
ATOM      9  C   UNL d   1      -1.178  -0.908   3.379  0.00  0.00     0.016 A 
ATOM     10  C   UNL d   1      -1.064  -0.480   2.049  0.00  0.00     0.005 A 
ATOM     11  C   UNL d   1      -2.428  -1.025   4.021  0.00  0.00     0.019 A 
ATOM     12  C   UNL d   1      -2.266  -0.164   1.363  0.00  0.00     0.014 A 
ATOM     13  C   UNL d   1      -3.507  -0.267   2.001  0.00  0.00     0.001 A 
ATOM     14  C   UNL d   1      -3.586  -0.696   3.317  0.00  0.00     0.001 A 
ENDBRANCH   3   6
ENDBRANCH   1   3
BRANCH   1  15
ATOM     15  C   UNL d   1       0.820   2.656   0.481  0.00  0.00     0.044 A 
ATOM     16  C   UNL d   1       0.021   3.074   1.556  0.00  0.00     0.062 A 
ATOM     17  C   UNL d   1       0.497   4.197   2.274  0.00  0.00     0.069 A 
ATOM     18  N   UNL d   1      -0.099   4.759   3.336  0.00  0.00    -0.310 N 
ATOM     19  C   UNL d   1       1.775   4.890   1.875  0.00  0.00     0.067 A 
ATOM     20  S   UNL d   1       0.863   6.034   3.794  0.00  0.00     0.068 SA
ATOM     21  HN  UNL d   1      -0.971   4.463   3.775  1.00  0.00     0.176 HD
ATOM     22  N   UNL d   1       2.071   5.939   2.657  0.00  0.00    -0.310 N 
ATOM     23  HN  UNL d   1       2.879   6.556   2.571  1.00  0.00     0.176 HD
ATOM     24  C   UNL d   1       2.533   4.432   0.773  0.00  0.00     0.035 A 
ATOM     25  C   UNL d   1       2.022   3.304   0.103  0.00  0.00     0.032 A 
ENDBRANCH   1  15
TORSDOF 3
