REMARK  3 active torsions:
REMARK  status: ('A' for Active; 'I' for Inactive)
REMARK       I    between atoms: C_2  and  N_1 
REMARK       I    between atoms: C_5  and  N_1 
REMARK       I    between atoms: N_7  and  C_2 
REMARK    1  A    between atoms: C_3  and  N_7 
REMARK    2  A    between atoms: C_4  and  C_5 
REMARK    3  A    between atoms: S_18  and  C_11 
ROOT
ATOM      1  N   UNL d   1       1.111  -0.040   0.063  0.00  0.00    -0.274 N 
ATOM      2  C   UNL d   1       0.305  -0.704  -0.834  0.00  0.00     0.328 C 
ATOM      3  C   UNL d   1       2.261   0.698  -0.152  0.00  0.00     0.266 C 
ATOM      4  N   UNL d   1       0.752  -0.721  -2.127  0.00  0.00    -0.293 N 
ATOM      5  O   UNL d   1      -0.728  -1.202  -0.399  0.00  0.00    -0.247 OA
ATOM      6  O   UNL d   1       2.773   0.786  -1.271  0.00  0.00    -0.267 OA
ATOM      7  H   UNL d   1       0.723  -0.040   0.996  0.00  0.00     0.173 HD
ATOM      8  H   UNL d   1       1.654  -0.299  -2.319  0.00  0.00     0.172 HD
ENDROOT
BRANCH   3   9
ATOM      9  C   UNL d   1       2.822   1.344   1.029  0.00  0.00     0.074 A 
ATOM     10  S   UNL d   1       2.176   1.083   2.595  0.00  0.00    -0.078 SA
ATOM     11  C   UNL d   1       3.340   2.089   3.338  0.00  0.00     0.041 A 
ATOM     12  C   UNL d   1       4.192   2.643   2.408  0.00  0.00     0.027 A 
ATOM     13  C   UNL d   1       3.899   2.209   1.079  0.00  0.00     0.026 A 
BRANCH  11  14
ATOM     14  S   UNL d   1       3.321   2.337   5.076  0.00  0.00    -0.127 SA
ATOM     15  C   UNL d   1       5.079   2.469   5.462  0.00  0.00     0.096 C 
ENDBRANCH  11  14
ENDBRANCH   3   9
BRANCH   4  16
ATOM     16  C   UNL d   1       0.031  -1.198  -3.202  0.00  0.00     0.132 A 
ATOM     17  N   UNL d   1      -1.208  -1.695  -3.155  0.00  0.00    -0.245 N 
ATOM     18  O   UNL d   1      -1.571  -1.963  -4.459  0.00  0.00    -0.241 OA
ATOM     19  HN  UNL d   1      -1.774  -1.847  -2.320  1.00  0.00     0.196 HD
ATOM     20  C   UNL d   1      -0.546  -1.639  -5.287  0.00  0.00     0.076 A 
ATOM     21  C   UNL d   1       0.508  -1.180  -4.536  0.00  0.00     0.084 A 
ATOM     22  C   UNL d   1      -0.793  -1.814  -6.728  0.00  0.00     0.079 C 
ENDBRANCH   4  16
TORSDOF 3
