REMARK  6 active torsions:
REMARK  status: ('A' for Active; 'I' for Inactive)
REMARK    1  A    between atoms: C_8  and  N_1 
REMARK    2  A    between atoms: S_10  and  C_2 
REMARK    3  A    between atoms: C_14  and  C_7 
REMARK    4  A    between atoms: C_11  and  C_15 
REMARK    5  A    between atoms: S_12  and  C_14 
REMARK    6  A    between atoms: C_15  and  S_12 
ROOT
ATOM      1  N   UNL d   1      -2.979   1.650   1.574  0.00  0.00    -0.279 N 
ATOM      2  C   UNL d   1      -3.674   1.882   2.756  0.00  0.00     0.164 A 
ATOM      3  N   UNL d   1      -4.510   0.902   2.998  0.00  0.00    -0.278 N 
ATOM      4  HN  UNL d   1      -5.120   0.819   3.811  1.00  0.00     0.189 HD
ATOM      5  N   UNL d   1      -4.421   0.015   1.968  0.00  0.00    -0.286 N 
ATOM      6  HN  UNL d   1      -4.965  -0.843   1.877  1.00  0.00     0.188 HD
ATOM      7  C   UNL d   1      -3.515   0.443   1.107  0.00  0.00     0.114 A 
ENDROOT
BRANCH   7   8
ATOM      8  C   UNL d   1      -3.085  -0.291  -0.124  0.00  0.00     0.152 C 
BRANCH   8   9
ATOM      9  S   UNL d   1      -3.498  -2.076  -0.131  0.00  0.00    -0.157 SA
BRANCH   9  10
ATOM     10  C   UNL d   1      -5.288  -1.962  -0.440  0.00  0.00     0.113 C 
BRANCH  10  11
ATOM     11  C   UNL d   1      -6.010  -3.293  -0.349  0.00  0.00    -0.038 A 
ATOM     12  C   UNL d   1      -6.403  -4.050  -1.492  0.00  0.00    -0.019 A 
ATOM     13  C   UNL d   1      -7.243  -5.181  -1.305  0.00  0.00    -0.025 A 
ATOM     14  C   UNL d   1      -6.019  -3.744  -2.819  0.00  0.00     0.013 A 
ATOM     15  C   UNL d   1      -7.712  -5.905  -2.414  0.00  0.00     0.012 A 
ATOM     16  C   UNL d   1      -7.613  -5.574  -0.012  0.00  0.00     0.012 A 
ATOM     17  C   UNL d   1      -7.342  -5.555  -3.710  0.00  0.00     0.001 A 
ATOM     18  C   UNL d   1      -6.481  -4.485  -3.910  0.00  0.00     0.001 A 
ATOM     19  C   UNL d   1      -7.167  -4.872   1.102  0.00  0.00     0.001 A 
ATOM     20  C   UNL d   1      -6.378  -3.739   0.936  0.00  0.00     0.009 A 
ENDBRANCH  10  11
ENDBRANCH   9  10
ENDBRANCH   8   9
ENDBRANCH   7   8
BRANCH   1  21
ATOM     21  C   UNL d   1      -1.971   2.462   0.977  0.00  0.00     0.043 A 
ATOM     22  C   UNL d   1      -1.024   3.118   1.779  0.00  0.00     0.030 A 
ATOM     23  C   UNL d   1      -0.082   3.977   1.210  0.00  0.00     0.002 A 
ATOM     24  C   UNL d   1      -0.061   4.174  -0.168  0.00  0.00     0.000 A 
ATOM     25  C   UNL d   1      -0.975   3.506  -0.977  0.00  0.00     0.002 A 
ATOM     26  C   UNL d   1      -1.930   2.651  -0.412  0.00  0.00     0.030 A 
ENDBRANCH   1  21
BRANCH   2  27
ATOM     27  S   UNL d   1      -3.667   3.338   3.703  0.00  0.00    -0.105 SA
ATOM     28  H   UNL d   1      -3.236   4.201   2.772  0.00  0.00     0.110 HD
ENDBRANCH   2  27
TORSDOF 6
