REMARK  4 active torsions:
REMARK  status: ('A' for Active; 'I' for Inactive)
REMARK    1  A    between atoms: C_7  and  C_1 
REMARK    2  A    between atoms: O_14  and  C_2 
REMARK    3  A    between atoms: O_15  and  C_7 
REMARK    4  A    between atoms: C_18  and  O_15 
ROOT
ATOM      1  C   UNL d   1       2.500  -0.753  -0.056  0.00  0.00     0.088 A 
ATOM      2  C   UNL d   1       1.301  -1.478  -0.053  0.00  0.00     0.096 A 
ATOM      3  C   UNL d   1       0.025  -0.830  -0.043  0.00  0.00     0.031 A 
ATOM      4  N   UNL d   1       1.234   1.282  -0.072  0.00  0.00    -0.364 N 
ATOM      5  HN  UNL d   1       1.223   2.302  -0.090  1.00  0.00     0.165 HD
ATOM      6  C   UNL d   1       0.074   0.595  -0.048  0.00  0.00     0.051 A 
ATOM      7  C   UNL d   1       2.408   0.618  -0.072  0.00  0.00     0.108 A 
ATOM      8  C   UNL d   1      -1.264  -1.467  -0.018  0.00  0.00    -0.047 A 
ATOM      9  C   UNL d   1      -1.113   1.335  -0.022  0.00  0.00    -0.034 A 
ATOM     10  C   UNL d   1      -2.429  -0.683  -0.002  0.00  0.00     0.008 A 
ATOM     11  C   UNL d   1      -2.357   0.698  -0.002  0.00  0.00     0.009 A 
ATOM     12  C   UNL d   1      -1.523  -2.954  -0.005  0.00  0.00     0.049 C 
ATOM     13  C   UNL d   1      -1.117   2.845  -0.010  0.00  0.00     0.050 C 
ENDROOT
BRANCH   1  14
ATOM     14  C   UNL d   1       3.805  -1.439   0.031  0.00  0.00     0.297 C 
ATOM     15  O   UNL d   1       3.892  -2.660   0.051  0.00  0.00    -0.259 OA
BRANCH  14  16
ATOM     16  O   UNL d   1       4.821  -0.562   0.198  0.00  0.00    -0.318 OA
BRANCH  16  17
ATOM     17  C   UNL d   1       6.040  -1.133   0.701  0.00  0.00     0.174 C 
ATOM     18  C   UNL d   1       5.991  -1.073   2.217  0.00  0.00     0.034 C 
ENDBRANCH  16  17
ENDBRANCH  14  16
ENDBRANCH   1  14
BRANCH   2  19
ATOM     19  O   UNL d   1       1.344  -2.853  -0.043  0.00  0.00    -0.359 OA
ATOM     20  H   UNL d   1       2.274  -3.170  -0.025  0.00  0.00     0.217 HD
ENDBRANCH   2  19
TORSDOF 4
