REMARK  2 active torsions:
REMARK  status: ('A' for Active; 'I' for Inactive)
REMARK    1  A    between atoms: C_3  and  C_1 
REMARK       I    between atoms: N_5  and  C_3 
REMARK    2  A    between atoms: C_9  and  N_7 
ROOT
ATOM      1  C   UNL d   1       4.669  -0.833  -0.194  0.00  0.00     0.270 C 
ATOM      2  N   UNL d   1       5.544   0.248  -0.159  0.00  0.00    -0.344 N 
ATOM      3  N   UNL d   1       6.980   2.687  -0.505  0.00  0.00    -0.378 N 
ATOM      4  C   UNL d   1       5.624   1.243   0.923  0.00  0.00     0.146 C 
ATOM      5  C   UNL d   1       6.590   0.360  -1.192  0.00  0.00     0.146 C 
ATOM      6  O   UNL d   1       4.529  -1.506  -1.215  0.00  0.00    -0.266 OA
ATOM      7  C   UNL d   1       6.824   1.810  -1.676  0.00  0.00     0.143 C 
ATOM      8  C   UNL d   1       5.819   2.668   0.393  0.00  0.00     0.143 C 
ENDROOT
BRANCH   1   9
ATOM      9  C   UNL d   1       3.884  -1.136   0.988  0.00  0.00     0.102 C 
ATOM     10  N   UNL d   1       2.632  -1.708   0.902  0.00  0.00    -0.351 N 
ATOM     11  C   UNL d   1       2.056  -1.821   2.147  0.00  0.00     0.043 A 
ATOM     12  H   UNL d   1       2.193  -1.964   0.027  0.00  0.00     0.166 HD
ATOM     13  C   UNL d   1       0.790  -2.282   2.525  0.00  0.00     0.032 A 
ATOM     14  C   UNL d   1       3.000  -1.381   3.072  0.00  0.00    -0.005 A 
ATOM     15  C   UNL d   1       0.483  -2.274   3.890  0.00  0.00     0.026 A 
ATOM     16  C   UNL d   1       1.407  -1.819   4.828  0.00  0.00     0.035 A 
ATOM     17  C   UNL d   1       2.672  -1.371   4.439  0.00  0.00     0.037 A 
ATOM     18 CL   UNL d   1       0.989  -1.806   6.499  0.00  0.00    -0.084 Cl
ATOM     19  C   UNL d   1       4.163  -1.030   2.341  0.00  0.00     0.049 C 
ENDBRANCH   1   9
BRANCH   3  20
ATOM     20  C   UNL d   1       7.850   3.756  -0.458  0.00  0.00     0.030 A 
ATOM     21  C   UNL d   1       8.322   4.405  -1.607  0.00  0.00     0.032 A 
ATOM     22  C   UNL d   1       9.225   5.471  -1.519  0.00  0.00     0.044 A 
ATOM     23  C   UNL d   1       9.674   5.891  -0.273  0.00  0.00     0.116 A 
ATOM     24  C   UNL d   1       9.241   5.269   0.882  0.00  0.00     0.044 A 
ATOM     25  F   UNL d   1      10.543   6.908  -0.194  0.00  0.00    -0.206 F 
ATOM     26  C   UNL d   1       8.336   4.211   0.784  0.00  0.00     0.032 A 
ENDBRANCH   3  20
TORSDOF 2
