REMARK  2 active torsions:
REMARK  status: ('A' for Active; 'I' for Inactive)
REMARK    1  A    between atoms: C_2  and  N_1 
REMARK    2  A    between atoms: C_3  and  C_6 
ROOT
ATOM      1  C   UNL d   1       1.366   2.087  -1.218  0.00  0.00     0.139 A 
ATOM      2  N   UNL d   1       1.387   3.342  -0.706  0.00  0.00    -0.350 N 
ATOM      3  HN  UNL d   1       0.888   3.554   0.158  1.00  0.00     0.166 HD
ATOM      4  C   UNL d   1       2.740   4.117  -2.552  0.00  0.00     0.065 A 
ATOM      5  C   UNL d   1       1.980   1.824  -2.458  0.00  0.00     0.079 A 
ATOM      6  C   UNL d   1       2.678   2.842  -3.112  0.00  0.00     0.045 A 
ATOM      7  C   UNL d   1       2.080   4.313  -1.354  0.00  0.00     0.106 A 
ATOM      8 CL   UNL d   1       1.762   0.356  -3.359  0.00  0.00    -0.080 Cl
ENDROOT
BRANCH   1   9
ATOM      9  N   UNL d   1       0.599   1.067  -0.570  0.00  0.00    -0.234 N 
ATOM     10  C   UNL d   1       1.226  -0.169  -0.414  0.00  0.00     0.241 C 
ATOM     11  O   UNL d   1       2.445  -0.320  -0.335  0.00  0.00    -0.272 OA
ATOM     12  C   UNL d   1       0.298  -1.367  -0.434  0.00  0.00     0.178 C 
ATOM     13  S   UNL d   1      -0.992  -1.235   0.815  0.00  0.00    -0.150 SA
ATOM     14  C   UNL d   1      -1.535   0.435   0.399  0.00  0.00     0.178 C 
ATOM     15  C   UNL d   1      -0.368   1.406   0.373  0.00  0.00     0.241 C 
ATOM     16  O   UNL d   1      -0.386   2.396   1.105  0.00  0.00    -0.272 OA
ENDBRANCH   1   9
BRANCH   4  17
ATOM     17  C   UNL d   1       3.448   5.251  -3.227  0.00  0.00     0.418 C 
ATOM     18  F   UNL d   1       4.005   4.897  -4.420  0.00  0.00    -0.166 F 
ATOM     19  F   UNL d   1       2.615   6.291  -3.502  0.00  0.00    -0.166 F 
ATOM     20  F   UNL d   1       4.460   5.760  -2.478  0.00  0.00    -0.166 F 
ENDBRANCH   4  17
TORSDOF 2
