REMARK  8 active torsions:
REMARK  status: ('A' for Active; 'I' for Inactive)
REMARK    1  A    between atoms: O_5  and  C_1 
REMARK    2  A    between atoms: C_6  and  C_1 
REMARK    3  A    between atoms: N_2  and  O_5 
REMARK    4  A    between atoms: C_7  and  C_4 
REMARK    5  A    between atoms: N_11  and  C_4 
REMARK    6  A    between atoms: C_14  and  C_7 
REMARK    7  A    between atoms: S_12  and  C_14 
REMARK    8  A    between atoms: C_13  and  S_12 
ROOT
ATOM      1  N   UNL d   1      -1.008   1.073   0.026  0.00  0.00    -0.251 N 
ATOM      2  HN  UNL d   1       0.003   1.083  -0.111  1.00  0.00     0.196 HD
ATOM      3  C   UNL d   1      -1.720   2.131   0.260  0.00  0.00     0.076 C 
ENDROOT
BRANCH   3   4
ATOM      4  C   UNL d   1      -0.987   3.462   0.355  0.00  0.00     0.082 C 
BRANCH   4   5
ATOM      5  C   UNL d   1      -0.270   3.853  -0.935  0.00  0.00     0.086 C 
BRANCH   5   6
ATOM      6  S   UNL d   1      -1.462   4.165  -2.292  0.00  0.00    -0.130 SA
BRANCH   6   7
ATOM      7  C   UNL d   1      -0.387   4.509  -3.680  0.00  0.00     0.000 A 
ATOM      8  C   UNL d   1      -0.806   4.088  -4.950  0.00  0.00     0.020 A 
ATOM      9  C   UNL d   1      -0.055   4.391  -6.090  0.00  0.00     0.025 A 
ATOM     10  C   UNL d   1       1.121   5.123  -5.967  0.00  0.00     0.034 A 
ATOM     11  C   UNL d   1       1.554   5.547  -4.713  0.00  0.00     0.025 A 
ATOM     12 CL   UNL d   1       2.035   5.522  -7.369  0.00  0.00    -0.084 Cl
ATOM     13  C   UNL d   1       0.799   5.244  -3.573  0.00  0.00     0.020 A 
ENDBRANCH   6   7
ENDBRANCH   5   6
ENDBRANCH   4   5
ENDBRANCH   3   4
BRANCH   3  14
ATOM     14  N   UNL d   1      -3.081   2.147   0.438  0.00  0.00    -0.291 NA
ATOM     15  H   UNL d   1      -3.546   1.328   0.064  0.00  0.00     0.125 HD
ATOM     16  H   UNL d   1      -3.552   3.014   0.204  0.00  0.00     0.125 HD
ENDBRANCH   3  14
BRANCH   1  17
ATOM     17  O   UNL d   1      -1.800  -0.094  -0.016  0.00  0.00    -0.194 OA
BRANCH  17  18
ATOM     18  C   UNL d   1      -1.011  -1.175  -0.299  0.00  0.00     0.315 C 
ATOM     19  O   UNL d   1       0.190  -1.177  -0.543  0.00  0.00    -0.257 OA
BRANCH  18  20
ATOM     20  C   UNL d   1      -1.812  -2.434  -0.282  0.00  0.00     0.041 A 
ATOM     21  C   UNL d   1      -1.152  -3.634  -0.597  0.00  0.00     0.019 A 
ATOM     22  C   UNL d   1      -1.840  -4.851  -0.592  0.00  0.00     0.025 A 
ATOM     23  C   UNL d   1      -3.195  -4.875  -0.272  0.00  0.00     0.034 A 
ATOM     24  C   UNL d   1      -3.865  -3.693   0.043  0.00  0.00     0.025 A 
ATOM     25 CL   UNL d   1      -4.045  -6.370  -0.263  0.00  0.00    -0.084 Cl
ATOM     26  C   UNL d   1      -3.177  -2.473   0.040  0.00  0.00     0.019 A 
ENDBRANCH  18  20
ENDBRANCH  17  18
ENDBRANCH   1  17
TORSDOF 8
