REMARK  3 active torsions:
REMARK  status: ('A' for Active; 'I' for Inactive)
REMARK    1  A    between atoms: C_10  and  C_4 
REMARK    2  A    between atoms: N_16  and  C_6 
REMARK    3  A    between atoms: O_20  and  C_17 
ROOT
ATOM      1  C   UNL d   1      -0.312   0.929  -0.151  0.00  0.00     0.066 A 
ATOM      2  C   UNL d   1       0.137  -0.328  -0.035  0.00  0.00     0.103 A 
ATOM      3  C   UNL d   1      -2.638  -0.048  -0.175  0.00  0.00     0.081 A 
ATOM      4  C   UNL d   1      -1.790   1.219  -0.243  0.00  0.00     0.108 A 
ATOM      5  C   UNL d   1       0.638   2.055  -0.283  0.00  0.00     0.298 C 
ATOM      6  C   UNL d   1      -2.077  -1.266  -0.018  0.00  0.00     0.138 A 
ATOM      7  O   UNL d   1      -0.700  -1.425   0.038  0.00  0.00    -0.296 OA
ATOM      8  C   UNL d   1       1.567  -0.619   0.004  0.00  0.00     0.033 A 
ATOM      9  O   UNL d   1       1.983   1.776  -0.073  0.00  0.00    -0.274 OA
ATOM     10  C   UNL d   1       2.453   0.455   0.015  0.00  0.00     0.092 A 
ATOM     11  C   UNL d   1      -4.056   0.085  -0.258  0.00  0.00     0.100 C 
ATOM     12  N   UNL d   1      -5.211   0.165  -0.338  0.00  0.00    -0.191 NA
ATOM     13  O   UNL d   1       0.267   3.185  -0.578  0.00  0.00    -0.259 OA
ATOM     14  C   UNL d   1       2.094  -1.915   0.033  0.00  0.00     0.017 A 
ATOM     15  C   UNL d   1       3.833   0.270   0.079  0.00  0.00     0.038 A 
ATOM     16  C   UNL d   1       3.476  -2.117   0.084  0.00  0.00     0.001 A 
ATOM     17  C   UNL d   1       4.345  -1.025   0.115  0.00  0.00     0.003 A 
ENDROOT
BRANCH   4  18
ATOM     18  C   UNL d   1      -2.276   2.241   0.787  0.00  0.00    -0.041 A 
ATOM     19  C   UNL d   1      -2.754   3.491   0.343  0.00  0.00     0.044 A 
ATOM     20  C   UNL d   1      -3.316   4.403   1.234  0.00  0.00     0.068 A 
ATOM     21  C   UNL d   1      -3.389   4.070   2.589  0.00  0.00     0.037 A 
ATOM     22  C   UNL d   1      -2.891   2.851   3.051  0.00  0.00     0.003 A 
ATOM     23  C   UNL d   1      -2.330   1.941   2.157  0.00  0.00     0.008 A 
BRANCH  20  24
ATOM     24  O   UNL d   1      -3.838   5.625   0.911  0.00  0.00    -0.356 OA
ATOM     25  C   UNL d   1      -3.785   6.002  -0.459  0.00  0.00     0.210 C 
ENDBRANCH  20  24
ENDBRANCH   4  18
BRANCH   6  26
ATOM     26  N   UNL d   1      -2.755  -2.455   0.102  0.00  0.00    -0.282 NA
ATOM     27  H   UNL d   1      -3.718  -2.466  -0.228  0.00  0.00     0.126 HD
ATOM     28  H   UNL d   1      -2.210  -3.257  -0.200  0.00  0.00     0.126 HD
ENDBRANCH   6  26
TORSDOF 3
