REMARK  2 active torsions:
REMARK  status: ('A' for Active; 'I' for Inactive)
REMARK    1  A    between atoms: C_7  and  C_2 
REMARK    2  A    between atoms: N_19  and  C_17 
ROOT
ATOM      1  N   UNL d   2       3.450  -0.538   0.207  0.00  0.00    -0.368 N 
ATOM      2  C   UNL d   2       4.362  -0.776  -0.895  0.00  0.00     0.151 C 
ATOM      3  C   UNL d   2       3.894   0.333   1.276  0.00  0.00     0.151 C 
ENDROOT
BRANCH   1   4
ATOM      4  C   UNL d   2       2.138  -0.960   0.129  0.00  0.00     0.350 C 
ATOM      5  O   UNL d   2       1.641  -1.612  -0.782  0.00  0.00    -0.284 OA
ENDBRANCH   1   4
TORSDOF 2
