REMARK  2 active torsions:
REMARK  status: ('A' for Active; 'I' for Inactive)
REMARK    1  A    between atoms: C_11  and  C_4 
REMARK    2  A    between atoms: O_12  and  C_6 
ROOT
ATOM      1  N   UNL d   1      -0.717  -0.412  -0.023  0.00  0.00    -0.280 N 
ATOM      2  C   UNL d   1      -1.188   0.896  -0.013  0.00  0.00     0.035 A 
ATOM      3  C   UNL d   1      -1.545  -1.531  -0.039  0.00  0.00     0.266 A 
ATOM      4  C   UNL d   1      -3.031  -1.229  -0.032  0.00  0.00     0.076 A 
ATOM      5  C   UNL d   1      -2.499   1.153  -0.014  0.00  0.00     0.064 A 
ATOM      6  C   UNL d   1      -3.436   0.060  -0.014  0.00  0.00     0.084 A 
ATOM      7  C   UNL d   1       0.693  -0.419  -0.016  0.00  0.00     0.050 A 
ATOM      8  C   UNL d   1      -0.009   1.872   0.003  0.00  0.00     0.025 A 
ATOM      9  C   UNL d   1       1.164   0.905  -0.006  0.00  0.00    -0.017 A 
ATOM     10  O   UNL d   1      -1.163  -2.699  -0.054  0.00  0.00    -0.267 OA
ATOM     11  C   UNL d   1       0.002   2.762  -1.245  0.00  0.00     0.027 C 
ATOM     12  C   UNL d   1      -0.004   2.719   1.282  0.00  0.00     0.027 C 
ATOM     13  C   UNL d   1       1.572  -1.488  -0.015  0.00  0.00     0.031 A 
ATOM     14  C   UNL d   1       2.524   1.181  -0.002  0.00  0.00     0.011 A 
ATOM     15  C   UNL d   1       2.944  -1.216  -0.007  0.00  0.00     0.002 A 
ATOM     16  C   UNL d   1       3.416   0.107  -0.003  0.00  0.00     0.001 A 
ENDROOT
BRANCH   4  17
ATOM     17  C   UNL d   1      -4.011  -2.328  -0.026  0.00  0.00    -0.018 A 
ATOM     18  C   UNL d   1      -4.536  -2.822  -1.227  0.00  0.00     0.012 A 
ATOM     19  C   UNL d   1      -5.554  -3.779  -1.209  0.00  0.00     0.001 A 
ATOM     20  C   UNL d   1      -6.042  -4.258   0.006  0.00  0.00     0.000 A 
ATOM     21  C   UNL d   1      -5.502  -3.794   1.205  0.00  0.00     0.001 A 
ATOM     22  C   UNL d   1      -4.494  -2.829   1.191  0.00  0.00     0.012 A 
ENDBRANCH   4  17
BRANCH   6  23
ATOM     23  O   UNL d   1      -4.747   0.483   0.018  0.00  0.00    -0.360 OA
ATOM     24  H   UNL d   1      -5.329  -0.297   0.056  0.00  0.00     0.217 HD
ENDBRANCH   6  23
TORSDOF 2
