REMARK  2 active torsions:
REMARK  status: ('A' for Active; 'I' for Inactive)
REMARK    1  A    between atoms: C_12  and  N_1 
REMARK    2  A    between atoms: C_3  and  C_13 
ROOT
ATOM      1  C   UNL d   1       2.142  -1.455  -0.014  0.00  0.00     0.039 A 
ATOM      2  C   UNL d   1       4.485  -3.028  -0.162  0.00  0.00    -0.008 A 
ATOM      3  C   UNL d   1       2.269  -2.453  -0.986  0.00  0.00     0.031 A 
ATOM      4  C   UNL d   1       3.189  -1.259   0.896  0.00  0.00     0.031 A 
ATOM      5  C   UNL d   1       3.441  -3.218  -1.074  0.00  0.00     0.016 A 
ATOM      6  C   UNL d   1       4.340  -2.054   0.833  0.00  0.00     0.016 A 
ENDROOT
BRANCH   1   7
ATOM      7  N   UNL d   1       0.965  -0.640   0.048  0.00  0.00    -0.320 N 
ATOM      8  C   UNL d   1       0.325  -0.184   1.210  0.00  0.00     0.013 A 
ATOM      9  C   UNL d   1      -0.739   0.616   0.843  0.00  0.00     0.027 A 
ATOM     10  C   UNL d   1       0.663  -0.562   2.615  0.00  0.00     0.068 C 
ATOM     11  C   UNL d   1      -0.796   0.626  -0.557  0.00  0.00     0.027 A 
ATOM     12  C   UNL d   1       0.251  -0.131  -1.042  0.00  0.00     0.013 A 
ATOM     13  C   UNL d   1       0.597  -0.272  -2.488  0.00  0.00     0.068 C 
ENDBRANCH   1   7
BRANCH   2  14
ATOM     14  C   UNL d   1       5.700  -3.827  -0.213  0.00  0.00     0.063 A 
ATOM     15  N   UNL d   1       6.368  -4.196   0.950  0.00  0.00    -0.292 N 
ATOM     16  N   UNL d   1       7.446  -4.918   0.693  0.00  0.00    -0.061 NA
ATOM     17  HN  UNL d   1       6.063  -3.940   1.889  1.00  0.00     0.183 HD
ATOM     18  S   UNL d   1       7.697  -5.151  -0.943  0.00  0.00    -0.010 SA
ATOM     19  C   UNL d   1       6.300  -4.258  -1.385  0.00  0.00     0.096 A 
ENDBRANCH   2  14
TORSDOF 2
