REMARK  6 active torsions:
REMARK  status: ('A' for Active; 'I' for Inactive)
REMARK    1  A    between atoms: N_7  and  C_4 
REMARK       I    between atoms: C_8  and  N_7 
REMARK    2  A    between atoms: C_17  and  C_8 
REMARK    3  A    between atoms: C_11  and  C_18 
REMARK    4  A    between atoms: O_15  and  C_11 
REMARK    5  A    between atoms: C_19  and  C_17 
REMARK    6  A    between atoms: C_18  and  C_19 
ROOT
ATOM      1  C   UNL d   1       0.002  -0.747   0.026  0.00  0.00     0.021 A 
ATOM      2  N   UNL d   1       1.192   1.341  -0.082  0.00  0.00    -0.300 N 
ATOM      3  HN  UNL d   1       1.171   2.361  -0.113  1.00  0.00     0.187 HD
ATOM      4  C   UNL d   1      -1.268  -1.400   0.087  0.00  0.00     0.047 A 
ATOM      5  N   UNL d   1       2.397   0.694  -0.082  0.00  0.00    -0.305 N 
ATOM      6  HN  UNL d   1       3.266   1.226  -0.134  1.00  0.00     0.186 HD
ATOM      7  C   UNL d   1       0.036   0.659  -0.042  0.00  0.00     0.060 A 
ATOM      8  C   UNL d   1       1.259  -1.384   0.076  0.00  0.00     0.042 A 
ATOM      9  C   UNL d   1       2.428  -0.647  -0.012  0.00  0.00     0.023 A 
ATOM     10  C   UNL d   1      -2.448  -0.647   0.106  0.00  0.00     0.030 A 
ATOM     11  C   UNL d   1      -2.394   0.737   0.011  0.00  0.00     0.005 A 
ATOM     12  C   UNL d   1      -1.156   1.372  -0.053  0.00  0.00     0.032 A 
ATOM     13  C   UNL d   1       3.760  -1.324  -0.086  0.00  0.00     0.070 C 
ENDROOT
BRANCH   4  14
ATOM     14  N   UNL d   1      -1.436  -2.802   0.191  0.00  0.00    -0.326 N 
ATOM     15  C   UNL d   1      -0.776  -3.727  -0.595  0.00  0.00     0.222 C 
ATOM     16  O   UNL d   1      -0.085  -3.465  -1.573  0.00  0.00    -0.273 OA
ATOM     17  H   UNL d   1      -2.301  -3.124   0.610  0.00  0.00     0.169 HD
BRANCH  15  18
ATOM     18  C   UNL d   1      -1.044  -5.159  -0.166  0.00  0.00     0.103 C 
BRANCH  18  19
ATOM     19  C   UNL d   1       0.080  -6.109  -0.596  0.00  0.00     0.019 C 
BRANCH  19  20
ATOM     20  C   UNL d   1       1.449  -5.767  -0.005  0.00  0.00     0.110 C 
BRANCH  20  21
ATOM     21  C   UNL d   1       1.452  -5.871   1.496  0.00  0.00     0.139 C 
ATOM     22  O   UNL d   1       1.127  -4.951   2.236  0.00  0.00    -0.650 OA
BRANCH  21  23
ATOM     23  O   UNL d   1       1.792  -7.091   1.956  0.00  0.00    -0.776 OA
ATOM     24  H   UNL d   1       2.022  -7.732   1.258  0.00  0.00     0.167 HD
ENDBRANCH  21  23
ENDBRANCH  20  21
ENDBRANCH  19  20
ENDBRANCH  18  19
ENDBRANCH  15  18
ENDBRANCH   4  14
TORSDOF 6
