REMARK  7 active torsions:
REMARK  status: ('A' for Active; 'I' for Inactive)
REMARK    1  A    between atoms: C_4  and  S_1 
REMARK    2  A    between atoms: N_14  and  S_1 
REMARK    3  A    between atoms: N_2  and  C_18 
REMARK    4  A    between atoms: C_15  and  C_3 
REMARK    5  A    between atoms: C_20  and  N_14 
REMARK    6  A    between atoms: O_24  and  C_15 
REMARK    7  A    between atoms: C_30  and  O_24 
ROOT
ATOM      1  C   UNL d   1       1.742  -4.510   3.237  0.00  0.00     0.056 A 
ATOM      2  C   UNL d   1       0.970  -1.996   2.193  0.00  0.00     0.023 A 
ATOM      3  C   UNL d   1       0.398  -4.118   3.242  0.00  0.00     0.033 A 
ATOM      4  C   UNL d   1       2.693  -3.579   2.765  0.00  0.00     0.033 A 
ATOM      5  C   UNL d   1       0.016  -2.864   2.726  0.00  0.00     0.027 A 
ATOM      6  C   UNL d   1       2.314  -2.336   2.250  0.00  0.00     0.027 A 
ENDROOT
BRANCH   1   7
ATOM      7  N   UNL d   1       2.216  -5.801   3.665  0.00  0.00    -0.260 N 
ATOM      8  N   UNL d   1       3.562  -5.968   3.740  0.00  0.00    -0.297 N 
ATOM      9  C   UNL d   1       3.767  -7.216   4.145  0.00  0.00     0.041 A 
ATOM     10  HN  UNL d   1       4.275  -5.271   3.526  1.00  0.00     0.187 HD
ATOM     11  C   UNL d   1       5.167  -7.680   4.337  0.00  0.00     0.071 C 
ATOM     12  C   UNL d   1       2.553  -7.922   4.327  0.00  0.00     0.087 A 
ATOM     13  C   UNL d   1       1.560  -6.989   4.004  0.00  0.00     0.049 A 
ATOM     14  C   UNL d   1       0.084  -7.186   3.960  0.00  0.00     0.071 C 
BRANCH  12  15
ATOM     15  C   UNL d   1       2.381  -9.316   4.741  0.00  0.00     0.297 C 
ATOM     16  O   UNL d   1       1.293  -9.843   4.943  0.00  0.00    -0.259 OA
BRANCH  15  17
ATOM     17  O   UNL d   1       3.571  -9.971   4.871  0.00  0.00    -0.318 OA
BRANCH  17  18
ATOM     18  C   UNL d   1       3.517 -11.348   5.276  0.00  0.00     0.174 C 
ATOM     19  C   UNL d   1       3.354 -12.246   4.065  0.00  0.00     0.034 C 
ENDBRANCH  17  18
ENDBRANCH  15  17
ENDBRANCH  12  15
ENDBRANCH   1   7
BRANCH   2  20
ATOM     20  N   UNL d   1       0.597  -0.787   1.532  0.00  0.00    -0.181 NA
ATOM     21  H   UNL d   1      -0.202  -0.903   0.906  0.00  0.00     0.146 HD
BRANCH  20  22
ATOM     22  S   UNL d   1       0.338   0.600   2.460  0.00  0.00     0.250 S 
ATOM     23  O   UNL d   1      -0.022   1.646   1.528  0.00  0.00    -0.205 OA
ATOM     24  O   UNL d   1      -0.536   0.266   3.562  0.00  0.00    -0.205 OA
BRANCH  22  25
ATOM     25  C   UNL d   1       1.805   1.121   3.156  0.00  0.00     0.130 A 
ATOM     26  C   UNL d   1       2.297   0.849   4.411  0.00  0.00     0.097 A 
ATOM     27  O   UNL d   1       3.503   1.462   4.550  0.00  0.00    -0.241 OA
ATOM     28  C   UNL d   1       1.847   0.083   5.588  0.00  0.00     0.081 C 
ATOM     29  N   UNL d   1       3.821   2.138   3.390  0.00  0.00    -0.264 N 
ATOM     30  C   UNL d   1       2.797   1.933   2.552  0.00  0.00     0.054 A 
ATOM     31  HN  UNL d   1       4.664   2.683   3.208  1.00  0.00     0.194 HD
ATOM     32  C   UNL d   1       2.835   2.546   1.201  0.00  0.00     0.072 C 
ENDBRANCH  22  25
ENDBRANCH  20  22
ENDBRANCH   2  20
TORSDOF 7
