REMARK  1 active torsions:
REMARK  status: ('A' for Active; 'I' for Inactive)
REMARK       I    between atoms: C_3  and  N_1 
REMARK    1  A    between atoms: C_11  and  C_3 
ROOT
ATOM      1  N   UNL d   1      -1.362  -1.719   0.080  0.00  0.00    -0.261 N 
ATOM      2  C   UNL d   1      -0.144  -1.047   0.105  0.00  0.00     0.144 A 
ATOM      3  C   UNL d   1      -1.494  -3.125  -0.066  0.00  0.00     0.269 C 
ATOM      4  C   UNL d   1      -0.391   0.315   0.069  0.00  0.00     0.090 A 
ATOM      5  C   UNL d   1      -2.388  -0.759   0.171  0.00  0.00     0.057 A 
ATOM      6  C   UNL d   1      -1.791   0.508   0.077  0.00  0.00     0.025 A 
ATOM      7  N   UNL d   1       1.091  -1.594   0.089  0.00  0.00    -0.338 N 
ATOM      8  HN  UNL d   1       1.254  -2.601   0.101  1.00  0.00     0.167 HD
ATOM      9  N   UNL d   1       0.612   1.229   0.030  0.00  0.00    -0.351 N 
ATOM     10  HN  UNL d   1       0.441   2.234   0.003  1.00  0.00     0.166 HD
ATOM     11  C   UNL d   1       2.083  -0.698   0.057  0.00  0.00     0.060 A 
ATOM     12  C   UNL d   1       1.848   0.701   0.030  0.00  0.00     0.059 A 
ATOM     13  C   UNL d   1      -3.786  -0.880   0.323  0.00  0.00     0.034 A 
ATOM     14  C   UNL d   1      -2.600   1.662   0.034  0.00  0.00     0.058 A 
ATOM     15  O   UNL d   1      -0.525  -3.825   0.226  0.00  0.00    -0.267 OA
ATOM     16  C   UNL d   1      -3.980   1.523   0.112  0.00  0.00     0.117 A 
ATOM     17  C   UNL d   1      -4.569   0.279   0.271  0.00  0.00     0.044 A 
ATOM     18  F   UNL d   1      -4.755   2.614   0.050  0.00  0.00    -0.206 F 
ATOM     19  C   UNL d   1       3.389  -1.162   0.047  0.00  0.00     0.032 A 
ATOM     20  C   UNL d   1       2.939   1.561  -0.004  0.00  0.00     0.032 A 
ATOM     21  C   UNL d   1       4.476  -0.290   0.012  0.00  0.00     0.002 A 
ATOM     22  C   UNL d   1       4.250   1.079  -0.012  0.00  0.00     0.002 A 
ENDROOT
BRANCH   3  23
ATOM     23  C   UNL d   1      -2.671  -3.827  -0.620  0.00  0.00     0.093 A 
ATOM     24  C   UNL d   1      -3.140  -5.043  -0.106  0.00  0.00     0.052 A 
ATOM     25 CL   UNL d   1      -2.500  -5.785   1.317  0.00  0.00    -0.083 Cl
ATOM     26  C   UNL d   1      -4.209  -5.702  -0.731  0.00  0.00     0.025 A 
ATOM     27  C   UNL d   1      -4.825  -5.149  -1.855  0.00  0.00     0.005 A 
ATOM     28  C   UNL d   1      -4.356  -3.947  -2.374  0.00  0.00     0.043 A 
ATOM     29  C   UNL d   1      -3.270  -3.313  -1.774  0.00  0.00     0.133 A 
ATOM     30  F   UNL d   1      -2.808  -2.192  -2.344  0.00  0.00    -0.205 F 
ENDBRANCH   3  23
TORSDOF 1
