REMARK  6 active torsions:
REMARK  status: ('A' for Active; 'I' for Inactive)
REMARK    1  A    between atoms: N_2  and  S_1 
REMARK    2  A    between atoms: C_5  and  S_1 
REMARK    3  A    between atoms: N_3  and  N_2 
REMARK    4  A    between atoms: C_4  and  N_3 
REMARK    5  A    between atoms: N_8  and  C_4 
REMARK    6  A    between atoms: C_10  and  N_8 
ROOT
ATOM      1  N   UNL d   1       0.496   0.809  -0.900  0.00  0.00    -0.221 N 
ATOM      2  H   UNL d   1      -0.013   0.307  -1.638  0.00  0.00     0.200 HD
ENDROOT
BRANCH   1   3
ATOM      3  S   UNL d   1      -0.246   0.551   0.605  0.00  0.00     0.276 S 
ATOM      4  O   UNL d   1      -0.444  -0.874   0.744  0.00  0.00    -0.199 OA
ATOM      5  O   UNL d   1      -1.353   1.480   0.715  0.00  0.00    -0.199 OA
BRANCH   3   6
ATOM      6  C   UNL d   1       1.002   1.050   1.758  0.00  0.00     0.081 A 
ATOM      7  C   UNL d   1       0.941   2.335   2.306  0.00  0.00     0.026 A 
ATOM      8  C   UNL d   1       1.888   2.726   3.250  0.00  0.00     0.008 A 
ATOM      9  C   UNL d   1       2.888   1.835   3.660  0.00  0.00    -0.062 A 
ATOM     10  C   UNL d   1       2.924   0.542   3.119  0.00  0.00     0.008 A 
ATOM     11  C   UNL d   1       3.887   2.272   4.689  0.00  0.00     0.048 C 
ATOM     12  C   UNL d   1       1.980   0.144   2.169  0.00  0.00     0.026 A 
ENDBRANCH   3   6
ENDBRANCH   1   3
BRANCH   1  13
ATOM     13  N   UNL d   1       0.995   2.136  -1.269  0.00  0.00    -0.267 N 
ATOM     14  H   UNL d   1       1.378   2.717  -0.530  0.00  0.00     0.190 HD
BRANCH  13  15
ATOM     15  C   UNL d   1       0.522   2.751  -2.396  0.00  0.00     0.187 C 
ATOM     16  S   UNL d   1      -0.834   2.272  -3.251  0.00  0.00    -0.040 SA
BRANCH  15  17
ATOM     17  N   UNL d   1       1.230   3.810  -2.882  0.00  0.00    -0.358 N 
ATOM     18  H   UNL d   1       0.750   4.209  -3.684  0.00  0.00     0.162 HD
BRANCH  17  19
ATOM     19  C   UNL d   1       2.699   4.005  -2.897  0.00  0.00     0.021 C 
ATOM     20  C   UNL d   1       3.442   2.682  -3.154  0.00  0.00     0.037 C 
ATOM     21  C   UNL d   1       3.020   4.961  -4.066  0.00  0.00     0.037 C 
ATOM     22  C   UNL d   1       3.202   4.653  -1.601  0.00  0.00     0.037 C 
ENDBRANCH  17  19
ENDBRANCH  15  17
ENDBRANCH  13  15
ENDBRANCH   1  13
TORSDOF 6
