REMARK  1 active torsions:
REMARK  status: ('A' for Active; 'I' for Inactive)
REMARK    1  A    between atoms: C_6  and  N_1 
ROOT
ATOM      1  N   UNL d   1      -2.403  -0.713   0.015  0.00  0.00    -0.241 N 
ATOM      2  C   UNL d   1      -1.928   0.572  -0.183  0.00  0.00     0.284 A 
ATOM      3  C   UNL d   1      -1.353  -1.598   0.182  0.00  0.00     0.284 A 
ATOM      4  C   UNL d   1      -0.471   0.491  -0.120  0.00  0.00     0.134 A 
ATOM      5  C   UNL d   1      -0.127  -0.813   0.093  0.00  0.00     0.134 A 
ATOM      6  N   UNL d   1       0.416   1.501  -0.223  0.00  0.00    -0.358 N 
ATOM      7  HN  UNL d   1       0.148   2.474  -0.373  1.00  0.00     0.165 HD
ATOM      8  N   UNL d   1       1.143  -1.253   0.205  0.00  0.00    -0.358 N 
ATOM      9  HN  UNL d   1       1.389  -2.231   0.356  1.00  0.00     0.165 HD
ATOM     10  O   UNL d   1      -2.529   1.620  -0.338  0.00  0.00    -0.265 OA
ATOM     11  O   UNL d   1      -1.361  -2.808   0.333  0.00  0.00    -0.265 OA
ATOM     12  C   UNL d   1       1.705   1.085  -0.106  0.00  0.00     0.105 A 
ATOM     13  C   UNL d   1       2.059  -0.255   0.096  0.00  0.00     0.105 A 
ENDROOT
BRANCH   1  14
ATOM     14  C   UNL d   1      -3.784  -1.071   0.059  0.00  0.00     0.049 A 
ATOM     15  C   UNL d   1      -4.766  -0.258  -0.530  0.00  0.00     0.054 A 
ATOM     16  C   UNL d   1      -6.118  -0.611  -0.474  0.00  0.00     0.037 A 
ATOM     17 CL   UNL d   1      -7.293   0.391  -1.237  0.00  0.00    -0.084 Cl
ATOM     18  C   UNL d   1      -6.527  -1.764   0.183  0.00  0.00     0.048 A 
ATOM     19  C   UNL d   1      -5.566  -2.574   0.773  0.00  0.00     0.037 A 
ATOM     20  C   UNL d   1      -4.209  -2.243   0.704  0.00  0.00     0.054 A 
ATOM     21 CL   UNL d   1      -6.055  -3.992   1.618  0.00  0.00    -0.084 Cl
ENDBRANCH   1  14
TORSDOF 1
