REMARK  5 active torsions:
REMARK  status: ('A' for Active; 'I' for Inactive)
REMARK    1  A    between atoms: C_3  and  C_1 
REMARK    2  A    between atoms: C_2  and  C_6 
REMARK    3  A    between atoms: C_4  and  C_3 
REMARK    4  A    between atoms: N_9  and  C_5 
REMARK    5  A    between atoms: C_13  and  N_9 
ROOT
ATOM      1  C   UNL d   1       1.053  -0.067   1.452  0.00  0.00     0.105 C 
ATOM      2  C   UNL d   1       0.277   0.761   0.731  0.00  0.00     0.089 C 
ATOM      3  C   UNL d   1       0.498  -0.947   2.413  0.00  0.00     0.104 C 
ATOM      4  N   UNL d   1       0.024  -1.640   3.217  0.00  0.00    -0.191 NA
ENDROOT
BRANCH   1   5
ATOM      5  C   UNL d   1       2.521  -0.014   1.199  0.00  0.00     0.204 C 
ATOM      6  O   UNL d   1       2.966   0.299   0.098  0.00  0.00    -0.286 OA
BRANCH   5   7
ATOM      7  C   UNL d   1       3.406  -0.387   2.303  0.00  0.00     0.022 A 
ATOM      8  C   UNL d   1       3.207  -0.105   3.644  0.00  0.00     0.065 A 
ATOM      9  S   UNL d   1       4.457  -0.706   4.649  0.00  0.00    -0.113 SA
ATOM     10  C   UNL d   1       5.322  -1.305   3.305  0.00  0.00     0.050 A 
ATOM     11  C   UNL d   1       4.670  -1.049   2.120  0.00  0.00     0.023 A 
ENDBRANCH   5   7
ENDBRANCH   1   5
BRANCH   2  12
ATOM     12  N   UNL d   1      -1.099   0.913   0.738  0.00  0.00    -0.267 NA
ATOM     13  H   UNL d   1      -1.618   0.033   0.821  0.00  0.00     0.133 HD
BRANCH  12  14
ATOM     14  C   UNL d   1      -1.759   1.875   1.562  0.00  0.00     0.034 A 
ATOM     15  C   UNL d   1      -3.164   1.858   1.681  0.00  0.00     0.056 A 
ATOM     16  C   UNL d   1      -3.843   2.837   2.414  0.00  0.00     0.041 A 
ATOM     17 CL   UNL d   1      -4.097   0.611   0.927  0.00  0.00    -0.082 Cl
ATOM     18  C   UNL d   1      -3.134   3.869   3.043  0.00  0.00     0.049 A 
ATOM     19  C   UNL d   1      -1.736   3.889   2.936  0.00  0.00     0.018 A 
ATOM     20  C   UNL d   1      -1.061   2.918   2.189  0.00  0.00     0.026 A 
BRANCH  18  21
ATOM     21  C   UNL d   1      -3.845   4.964   3.801  0.00  0.00     0.417 C 
ATOM     22  F   UNL d   1      -5.201   4.856   3.770  0.00  0.00    -0.166 F 
ATOM     23  F   UNL d   1      -3.499   4.995   5.116  0.00  0.00    -0.166 F 
ATOM     24  F   UNL d   1      -3.557   6.200   3.307  0.00  0.00    -0.166 F 
ENDBRANCH  18  21
ENDBRANCH  12  14
ENDBRANCH   2  12
TORSDOF 5
