REMARK  3 active torsions:
REMARK  status: ('A' for Active; 'I' for Inactive)
REMARK    1  A    between atoms: C_8  and  C_2 
REMARK    2  A    between atoms: N_20  and  C_3 
REMARK    3  A    between atoms: C_9  and  C_6 
ROOT
ATOM      1  C   UNL d   1      -0.470  -0.299   0.050  0.00  0.00     0.095 A 
ATOM      2  C   UNL d   1       0.221  -1.522   0.057  0.00  0.00     0.024 A 
ATOM      3  C   UNL d   1       0.265   0.888  -0.009  0.00  0.00     0.100 A 
ATOM      4  N   UNL d   1       1.608   0.912  -0.089  0.00  0.00    -0.344 N 
ATOM      5  HN  UNL d   1       2.113   1.796  -0.151  1.00  0.00     0.167 HD
ATOM      6  C   UNL d   1       2.271  -0.269  -0.085  0.00  0.00     0.068 A 
ATOM      7  C   UNL d   1       1.621  -1.491   0.014  0.00  0.00     0.048 A 
ATOM      8  C   UNL d   1      -1.897  -0.233   0.117  0.00  0.00     0.103 C 
ATOM      9  N   UNL d   1      -3.057  -0.178   0.181  0.00  0.00    -0.191 NA
ENDROOT
BRANCH   2  10
ATOM     10  C   UNL d   1      -0.457  -2.818   0.050  0.00  0.00     0.086 A 
ATOM     11  O   UNL d   1       0.175  -3.825   0.727  0.00  0.00    -0.322 OA
ATOM     12  C   UNL d   1      -0.592  -4.939   0.605  0.00  0.00     0.142 A 
ATOM     13  C   UNL d   1      -1.710  -4.673  -0.147  0.00  0.00     0.027 A 
ATOM     14  C   UNL d   1      -1.620  -3.308  -0.514  0.00  0.00     0.040 A 
ENDBRANCH   2  10
BRANCH   3  15
ATOM     15  N   UNL d   1      -0.340   2.142  -0.085  0.00  0.00    -0.287 NA
ATOM     16  H   UNL d   1      -1.050   2.306   0.621  0.00  0.00     0.125 HD
ATOM     17  H   UNL d   1       0.391   2.849  -0.069  0.00  0.00     0.125 HD
ENDBRANCH   3  15
BRANCH   6  18
ATOM     18  C   UNL d   1       3.709  -0.159  -0.294  0.00  0.00     0.101 A 
ATOM     19  O   UNL d   1       4.431  -1.321  -0.271  0.00  0.00    -0.321 OA
ATOM     20  C   UNL d   1       5.719  -1.002  -0.562  0.00  0.00     0.142 A 
ATOM     21  C   UNL d   1       5.845   0.351  -0.766  0.00  0.00     0.027 A 
ATOM     22  C   UNL d   1       4.553   0.898  -0.577  0.00  0.00     0.041 A 
ENDBRANCH   6  18
TORSDOF 3
