REMARK  2 active torsions:
REMARK  status: ('A' for Active; 'I' for Inactive)
REMARK    1  A    between atoms: O_8  and  C_4 
REMARK    2  A    between atoms: O_9  and  C_5 
ROOT
ATOM      1  C   UNL d   1      -0.029  -0.043   1.412  0.00  0.00    -0.035 C 
ATOM      2  C   UNL d   1       0.011  -1.124   0.301  0.00  0.00     0.025 C 
ATOM      3  C   UNL d   1      -0.042   1.100   0.354  0.00  0.00     0.025 C 
ATOM      4  C   UNL d   1      -1.250  -0.795  -0.546  0.00  0.00     0.152 C 
ATOM      5  C   UNL d   1      -1.231   0.759  -0.587  0.00  0.00     0.152 C 
ATOM      6  C   UNL d   1       1.270  -0.734  -0.511  0.00  0.00     0.008 C 
ATOM      7  C   UNL d   1       1.231   0.805  -0.479  0.00  0.00     0.008 C 
ATOM      8  C   UNL d   1       1.202  -0.018   2.345  0.00  0.00     0.016 C 
ATOM      9  C   UNL d   1      -1.251  -0.121   2.342  0.00  0.00     0.016 C 
ENDROOT
BRANCH   4  10
ATOM     10  O   UNL d   1      -1.202  -1.403  -1.831  0.00  0.00    -0.393 OA
ATOM     11  H   UNL d   1      -0.705  -0.827  -2.436  0.00  0.00     0.210 HD
ENDBRANCH   4  10
BRANCH   5  12
ATOM     12  O   UNL d   1      -2.458   1.336  -0.164  0.00  0.00    -0.393 OA
ATOM     13  H   UNL d   1      -2.440   1.478   0.796  0.00  0.00     0.210 HD
ENDBRANCH   5  12
TORSDOF 2
