REMARK  2 active torsions:
REMARK  status: ('A' for Active; 'I' for Inactive)
REMARK    1  A    between atoms: N_6  and  C_2 
REMARK       I    between atoms: C_3  and  N_5 
REMARK       I    between atoms: N_12  and  C_3 
REMARK    2  A    between atoms: C_18  and  N_12 
ROOT
ATOM      1  C   UNL d   1      -0.524  -6.816  -1.011  0.00  0.00     0.323 C 
ATOM      2  N   UNL d   1      -0.943  -5.635  -0.405  0.00  0.00    -0.332 N 
ATOM      3  N   UNL d   1      -1.324  -2.776  -0.003  0.00  0.00    -0.265 NA
ATOM      4  N   UNL d   1       0.566  -7.432  -0.438  0.00  0.00    -0.309 N 
ATOM      5  O   UNL d   1      -1.116  -7.258  -1.994  0.00  0.00    -0.247 OA
ATOM      6  C   UNL d   1      -0.381  -4.958   0.775  0.00  0.00     0.142 C 
ATOM      7  C   UNL d   1      -2.136  -4.951  -0.934  0.00  0.00     0.142 C 
ATOM      8  C   UNL d   1      -0.097  -3.478   0.470  0.00  0.00     0.117 C 
ATOM      9  C   UNL d   1      -1.882  -3.449  -1.209  0.00  0.00     0.117 C 
ATOM     10  H   UNL d   1       0.960  -7.001   0.376  0.00  0.00     0.170 HD
ENDROOT
BRANCH   4  11
ATOM     11  C   UNL d   1       1.165  -8.664  -0.796  0.00  0.00     0.038 A 
ATOM     12  C   UNL d   1       0.759  -9.464  -1.868  0.00  0.00     0.055 A 
ATOM     13  C   UNL d   1       1.369 -10.706  -2.105  0.00  0.00     0.058 A 
ATOM     14 CL   UNL d   1       0.791 -11.647  -3.436  0.00  0.00    -0.082 Cl
ATOM     15  C   UNL d   1       2.401 -11.152  -1.273  0.00  0.00     0.055 A 
ATOM     16  C   UNL d   1       2.834 -10.347  -0.222  0.00  0.00     0.028 A 
ATOM     17 CL   UNL d   1       3.168 -12.687  -1.480  0.00  0.00    -0.083 Cl
ATOM     18  C   UNL d   1       2.223  -9.110   0.011  0.00  0.00     0.031 A 
ENDBRANCH   4  11
BRANCH   3  19
ATOM     19  C   UNL d   1      -0.998  -1.430  -0.329  0.00  0.00     0.097 A 
ATOM     20  C   UNL d   1      -1.873  -0.321  -0.153  0.00  0.00     0.043 A 
ATOM     21  C   UNL d   1      -1.335   0.917  -0.497  0.00  0.00     0.088 A 
ATOM     22  C   UNL d   1      -3.236  -0.145   0.339  0.00  0.00    -0.039 A 
ATOM     23  S   UNL d   1      -2.400   2.221  -0.257  0.00  0.00    -0.083 SA
ATOM     24  N   UNL d   1      -0.105   1.170  -0.971  0.00  0.00    -0.346 N 
ATOM     25  C   UNL d   1      -3.615   1.187   0.325  0.00  0.00     0.059 A 
ATOM     26  C   UNL d   1       0.624   0.070  -1.098  0.00  0.00     0.182 A 
ATOM     27  HN  UNL d   1       0.231   2.104  -1.207  1.00  0.00     0.167 HD
ATOM     28  N   UNL d   1       0.251  -1.180  -0.810  0.00  0.00    -0.342 N 
ATOM     29  HN  UNL d   1       0.905  -1.951  -0.951  1.00  0.00     0.167 HD
ATOM     30  C   UNL d   1      -4.160  -1.209   0.834  0.00  0.00     0.050 C 
ENDBRANCH   3  19
TORSDOF 2
