REMARK  4 active torsions:
REMARK  status: ('A' for Active; 'I' for Inactive)
REMARK    1  A    between atoms: C_4  and  C_1 
REMARK    2  A    between atoms: C_5  and  C_3 
REMARK       I    between atoms: N_9  and  C_4 
REMARK    3  A    between atoms: C_14  and  N_9 
REMARK    4  A    between atoms: C_15  and  N_9 
ROOT
ATOM      1  C   UNL d   1       0.074   1.207   0.033  0.00  0.00     0.073 C 
ATOM      2  S   UNL d   1      -0.746  -0.007  -0.853  0.00  0.00    -0.084 SA
ATOM      3  C   UNL d   1       0.244  -1.271  -0.239  0.00  0.00     0.022 C 
ATOM      4  C   UNL d   1       1.208   0.671   0.622  0.00  0.00     0.026 C 
ATOM      5  C   UNL d   1       1.296  -0.742   0.485  0.00  0.00     0.022 C 
ENDROOT
BRANCH   1   6
ATOM      6  C   UNL d   1      -0.257   2.636   0.031  0.00  0.00     0.260 C 
ATOM      7  N   UNL d   1      -1.589   3.113   0.022  0.00  0.00    -0.348 N 
ATOM      8  O   UNL d   1       0.666   3.456   0.089  0.00  0.00    -0.267 OA
BRANCH   7   9
ATOM      9  C   UNL d   1      -1.760   4.564  -0.127  0.00  0.00     0.121 C 
ATOM     10  C   UNL d   1      -1.807   5.292   1.209  0.00  0.00     0.026 C 
ENDBRANCH   7   9
BRANCH   7  11
ATOM     11  C   UNL d   1      -2.788   2.265   0.048  0.00  0.00     0.121 C 
ATOM     12  C   UNL d   1      -4.039   2.852   0.689  0.00  0.00     0.026 C 
ENDBRANCH   7  11
ENDBRANCH   1   6
BRANCH   3  13
ATOM     13  C   UNL d   1      -0.033  -2.670  -0.498  0.00  0.00     0.021 A 
ATOM     14  S   UNL d   1       0.574  -3.904   0.540  0.00  0.00    -0.101 SA
ATOM     15  C   UNL d   1      -0.165  -5.145  -0.370  0.00  0.00     0.050 A 
ATOM     16  C   UNL d   1      -0.861  -4.648  -1.446  0.00  0.00     0.008 A 
ATOM     17  C   UNL d   1      -0.787  -3.225  -1.518  0.00  0.00     0.021 A 
ENDBRANCH   3  13
TORSDOF 4
