REMARK  1 active torsions:
REMARK  status: ('A' for Active; 'I' for Inactive)
REMARK    1  A    between atoms: C_6  and  N_1 
ROOT
ATOM      1  N   UNL d   1      -0.089   3.712   3.258  0.00  0.00    -0.269 NA
ATOM      2  C   UNL d   1      -1.365   3.797   4.015  0.00  0.00     0.072 C 
ATOM      3  N   UNL d   1      -2.012   2.462   4.054  0.00  0.00    -0.269 NA
ATOM      4  C   UNL d   1      -0.217   2.469   2.590  0.00  0.00     0.033 A 
ATOM      5  C   UNL d   1       0.338   0.671   1.139  0.00  0.00     0.104 A 
ATOM      6  C   UNL d   1      -1.313   1.752   3.055  0.00  0.00     0.031 A 
ATOM      7  C   UNL d   1       0.642   1.945   1.646  0.00  0.00     0.061 A 
ATOM      8  C   UNL d   1      -0.767  -0.066   1.620  0.00  0.00     0.038 A 
ATOM      9  C   UNL d   1      -1.594   0.477   2.606  0.00  0.00     0.028 A 
ATOM     10  C   UNL d   1      -2.295   4.785   3.273  0.00  0.00     0.042 C 
ATOM     11  C   UNL d   1      -1.103   4.306   5.445  0.00  0.00     0.042 C 
ATOM     12  C   UNL d   1      -3.597   5.038   4.030  0.00  0.00     0.003 C 
ATOM     13  C   UNL d   1      -2.398   4.583   6.214  0.00  0.00     0.003 C 
ATOM     14  C   UNL d   1      -3.333   5.519   5.453  0.00  0.00     0.000 C 
ATOM     15  H   UNL d   1       0.713   3.659   3.882  0.00  0.00     0.129 HD
ATOM     16  H   UNL d   1      -1.863   1.995   4.945  0.00  0.00     0.129 HD
ENDROOT
BRANCH   5  17
ATOM     17  N   UNL d   1       1.178   0.098   0.081  0.00  0.00    -0.116 N 
ATOM     18  O   UNL d   1       2.158   0.754  -0.299  0.00  0.00    -0.532 OA
ATOM     19  O   UNL d   1       0.858  -1.012  -0.371  0.00  0.00    -0.532 OA
ENDBRANCH   5  17
TORSDOF 1
