REMARK  1 active torsions:
REMARK  status: ('A' for Active; 'I' for Inactive)
REMARK       I    between atoms: C_10  and  N_1 
REMARK    1  A    between atoms: C_16  and  C_10 
ROOT
ATOM      1  N   UNL d   1      -1.246  -1.672  -0.263  0.00  0.00    -0.265 N 
ATOM      2  C   UNL d   1      -0.067  -0.927  -0.271  0.00  0.00     0.143 A 
ATOM      3  C   UNL d   1      -0.392   0.412  -0.110  0.00  0.00     0.090 A 
ATOM      4  C   UNL d   1      -2.322  -0.758  -0.190  0.00  0.00     0.057 A 
ATOM      5  C   UNL d   1      -1.794   0.534  -0.081  0.00  0.00     0.025 A 
ATOM      6  N   UNL d   1       1.201  -1.373  -0.431  0.00  0.00    -0.338 N 
ATOM      7  HN  UNL d   1       1.428  -2.354  -0.597  1.00  0.00     0.167 HD
ATOM      8  N   UNL d   1       0.551   1.383  -0.015  0.00  0.00    -0.351 N 
ATOM      9  HN  UNL d   1       0.315   2.366   0.123  1.00  0.00     0.166 HD
ATOM     10  C   UNL d   1      -1.398  -3.084  -0.312  0.00  0.00     0.234 C 
ATOM     11  C   UNL d   1       2.135  -0.407  -0.350  0.00  0.00     0.060 A 
ATOM     12  C   UNL d   1       1.813   0.952  -0.118  0.00  0.00     0.059 A 
ATOM     13  C   UNL d   1      -3.720  -0.961  -0.160  0.00  0.00     0.034 A 
ATOM     14  C   UNL d   1      -2.660   1.641   0.032  0.00  0.00     0.058 A 
ATOM     15  O   UNL d   1      -2.491  -3.549  -0.625  0.00  0.00    -0.272 OA
ATOM     16  C   UNL d   1      -4.033   1.426   0.052  0.00  0.00     0.117 A 
ATOM     17  C   UNL d   1      -4.561   0.148  -0.037  0.00  0.00     0.044 A 
ATOM     18  F   UNL d   1      -4.861   2.474   0.166  0.00  0.00    -0.206 F 
ATOM     19  C   UNL d   1       3.475  -0.756  -0.487  0.00  0.00     0.032 A 
ATOM     20  C   UNL d   1       2.837   1.881   0.023  0.00  0.00     0.032 A 
ATOM     21  C   UNL d   1       4.497   0.187  -0.348  0.00  0.00     0.002 A 
ATOM     22  C   UNL d   1       4.177   1.509  -0.078  0.00  0.00     0.002 A 
ENDROOT
BRANCH  10  23
ATOM     23  C   UNL d   1      -0.228  -3.948   0.147  0.00  0.00     0.079 C 
ATOM     24  C   UNL d   1      -0.283  -5.361  -0.468  0.00  0.00     0.014 C 
ATOM     25  C   UNL d   1      -1.249  -6.323   0.219  0.00  0.00     0.001 C 
ATOM     26  C   UNL d   1      -1.040  -6.358   1.726  0.00  0.00     0.000 C 
ATOM     27  C   UNL d   1      -1.143  -4.962   2.325  0.00  0.00     0.001 C 
ATOM     28  C   UNL d   1      -0.154  -3.988   1.682  0.00  0.00     0.014 C 
ENDBRANCH  10  23
TORSDOF 1
