REMARK  8 active torsions:
REMARK  status: ('A' for Active; 'I' for Inactive)
REMARK    1  A    between atoms: C_2  and  C_1 
REMARK    2  A    between atoms: C_8  and  N_3 
REMARK    3  A    between atoms: O_6  and  C_5 
REMARK    4  A    between atoms: C_11  and  C_8 
REMARK    5  A    between atoms: C_15  and  C_11 
REMARK    6  A    between atoms: C_12  and  C_13 
REMARK    7  A    between atoms: C_13  and  C_14 
REMARK    8  A    between atoms: C_14  and  C_15 
ROOT
ATOM      1  C   UNL d   1       0.945   2.394   0.114  0.00  0.00     0.014 C 
ATOM      2  N   UNL d   1       0.377   3.553   0.182  0.00  0.00    -0.393 N 
ATOM      3  HN  UNL d   1       0.945   4.393   0.287  1.00  0.00     0.159 HD
ATOM      4  C   UNL d   1       0.176   1.095  -0.002  0.00  0.00     0.068 C 
ENDROOT
BRANCH   1   5
ATOM      5  C   UNL d   1       2.443   2.349   0.120  0.00  0.00     0.019 A 
ATOM      6  C   UNL d   1       3.200   1.316   0.687  0.00  0.00     0.077 A 
ATOM      7  C   UNL d   1       4.592   1.310   0.570  0.00  0.00     0.037 A 
ATOM      8  C   UNL d   1       5.247   2.364  -0.066  0.00  0.00     0.003 A 
ATOM      9  C   UNL d   1       4.511   3.422  -0.592  0.00  0.00     0.001 A 
ATOM     10  C   UNL d   1       3.117   3.411  -0.505  0.00  0.00     0.016 A 
BRANCH   6  11
ATOM     11  O   UNL d   1       2.671   0.296   1.425  0.00  0.00    -0.360 OA
ATOM     12  H   UNL d   1       1.923   0.655   1.932  0.00  0.00     0.217 HD
ENDBRANCH   6  11
ENDBRANCH   1   5
BRANCH   2  13
ATOM     13  C   UNL d   1      -1.077   3.658   0.109  0.00  0.00     0.119 C 
BRANCH  13  14
ATOM     14  C   UNL d   1      -1.466   5.138   0.094  0.00  0.00     0.020 C 
BRANCH  14  15
ATOM     15  C   UNL d   1      -0.937   5.865  -1.147  0.00  0.00     0.002 C 
BRANCH  15  16
ATOM     16  C   UNL d   1      -1.361   7.335  -1.167  0.00  0.00     0.000 C 
BRANCH  16  17
ATOM     17  C   UNL d   1      -0.790   8.050  -2.393  0.00  0.00    -0.000 C 
BRANCH  17  18
ATOM     18  C   UNL d   1      -1.195   9.523  -2.428  0.00  0.00    -0.005 C 
ATOM     19  C   UNL d   1      -0.618  10.224  -3.649  0.00  0.00     0.005 C 
ENDBRANCH  17  18
ENDBRANCH  16  17
ENDBRANCH  15  16
ENDBRANCH  14  15
ENDBRANCH  13  14
ENDBRANCH   2  13
TORSDOF 8
