REMARK  4 active torsions:
REMARK  status: ('A' for Active; 'I' for Inactive)
REMARK    1  A    between atoms: N_4  and  N_1 
REMARK       I    between atoms: C_3  and  N_4 
REMARK    2  A    between atoms: O_10  and  C_3 
REMARK    3  A    between atoms: C_6  and  C_5 
REMARK    4  A    between atoms: C_16  and  O_10 
ROOT
ATOM      1  N   UNL d   1       0.901  -0.048  -0.113  0.00  0.00    -0.300 N 
ATOM      2  HN  UNL d   1       0.451   0.856   0.033  1.00  0.00     0.186 HD
ATOM      3  C   UNL d   1       2.200  -0.126  -0.112  0.00  0.00     0.032 C 
ATOM      4  C   UNL d   1       2.999  -1.402  -0.285  0.00  0.00     0.070 C 
ENDROOT
BRANCH   1   5
ATOM      5  N   UNL d   1       0.137  -1.151  -0.305  0.00  0.00    -0.245 N 
ATOM      6  C   UNL d   1      -1.209  -1.131  -0.043  0.00  0.00     0.379 C 
ATOM      7  O   UNL d   1      -1.878  -0.167   0.306  0.00  0.00    -0.237 OA
ATOM      8  H   UNL d   1       0.533  -2.051  -0.523  0.00  0.00     0.192 HD
BRANCH   6   9
ATOM      9  O   UNL d   1      -1.686  -2.400  -0.168  0.00  0.00    -0.303 OA
BRANCH   9  10
ATOM     10  C   UNL d   1      -3.012  -2.612   0.334  0.00  0.00     0.176 C 
ATOM     11  C   UNL d   1      -2.929  -2.955   1.811  0.00  0.00     0.034 C 
ENDBRANCH   9  10
ENDBRANCH   6   9
ENDBRANCH   1   5
BRANCH   3  12
ATOM     12  C   UNL d   1       2.972   1.152   0.093  0.00  0.00    -0.013 A 
ATOM     13  C   UNL d   1       2.270   2.343   0.342  0.00  0.00     0.015 A 
ATOM     14  C   UNL d   1       2.953   3.549   0.528  0.00  0.00     0.020 A 
ATOM     15  C   UNL d   1       4.343   3.570   0.468  0.00  0.00     0.011 A 
ATOM     16  C   UNL d   1       5.055   2.397   0.227  0.00  0.00     0.020 A 
ATOM     17 BR   UNL d   1       5.272   5.197   0.709  0.00  0.00    -0.051 Br
ATOM     18  C   UNL d   1       4.372   1.190   0.039  0.00  0.00     0.015 A 
ENDBRANCH   3  12
TORSDOF 4
