REMARK  3 active torsions:
REMARK  status: ('A' for Active; 'I' for Inactive)
REMARK    1  A    between atoms: C_10  and  N_3 
REMARK    2  A    between atoms: C_9  and  N_6 
REMARK    3  A    between atoms: C_11  and  C_10 
ROOT
ATOM      1  C   UNL d   1      -1.138   0.804  -0.116  0.00  0.00     0.114 C 
ATOM      2  C   UNL d   1      -1.787  -0.574  -0.391  0.00  0.00     0.276 C 
ATOM      3  N   UNL d   1      -0.773  -1.489  -0.193  0.00  0.00    -0.308 N 
ATOM      4  C   UNL d   1       0.304   0.541  -0.075  0.00  0.00     0.023 A 
ATOM      5  C   UNL d   1       0.466  -0.844  -0.066  0.00  0.00     0.050 A 
ATOM      6  N   UNL d   1      -1.671   1.953   0.160  0.00  0.00    -0.351 N 
ATOM      7  HN  UNL d   1      -1.060   2.756   0.309  1.00  0.00     0.166 HD
ATOM      8  O   UNL d   1      -2.932  -0.779  -0.722  0.00  0.00    -0.265 OA
ATOM      9  C   UNL d   1       1.371   1.417   0.008  0.00  0.00     0.016 A 
ATOM     10  C   UNL d   1       1.725  -1.405   0.042  0.00  0.00     0.031 A 
ATOM     11  C   UNL d   1       2.648   0.859   0.093  0.00  0.00     0.001 A 
ATOM     12  C   UNL d   1       2.823  -0.539   0.116  0.00  0.00     0.002 A 
ENDROOT
BRANCH   6  13
ATOM     13  C   UNL d   1      -3.060   2.129   0.263  0.00  0.00     0.032 A 
ATOM     14  C   UNL d   1      -3.902   1.261   0.970  0.00  0.00     0.031 A 
ATOM     15  C   UNL d   1      -5.283   1.468   1.015  0.00  0.00     0.026 A 
ATOM     16  C   UNL d   1      -5.826   2.604   0.426  0.00  0.00     0.034 A 
ATOM     17  C   UNL d   1      -4.997   3.531  -0.199  0.00  0.00     0.026 A 
ATOM     18 CL   UNL d   1      -7.524   2.868   0.487  0.00  0.00    -0.084 Cl
ATOM     19  C   UNL d   1      -3.621   3.288  -0.283  0.00  0.00     0.031 A 
ENDBRANCH   6  13
BRANCH   3  20
ATOM     20  C   UNL d   1      -0.989  -2.912  -0.175  0.00  0.00     0.159 C 
BRANCH  20  21
ATOM     21  C   UNL d   1      -0.756  -3.481  -1.537  0.00  0.00    -0.017 C 
ATOM     22  C   UNL d   1       0.149  -4.429  -1.816  0.00  0.00     0.008 C 
ENDBRANCH  20  21
ENDBRANCH   3  20
TORSDOF 3
