REMARK  3 active torsions:
REMARK  status: ('A' for Active; 'I' for Inactive)
REMARK       I    between atoms: N_3  and  C_1 
REMARK       I    between atoms: N_5  and  C_1 
REMARK    1  A    between atoms: C_2  and  N_3 
REMARK    2  A    between atoms: N_4  and  C_6 
REMARK    3  A    between atoms: C_12  and  N_5 
ROOT
ATOM      1  C   UNL d   1       1.026   0.079   2.268  0.00  0.00     0.325 C 
ATOM      2  N   UNL d   1       2.288   0.383   1.770  0.00  0.00    -0.307 N 
ATOM      3  N   UNL d   1       0.155  -0.207   1.233  0.00  0.00    -0.309 N 
ATOM      4  O   UNL d   1       0.734   0.099   3.459  0.00  0.00    -0.247 OA
ATOM      5  H   UNL d   1       2.215   0.946   0.929  0.00  0.00     0.170 HD
ATOM      6  H   UNL d   1       0.581  -0.572   0.393  0.00  0.00     0.170 HD
ENDROOT
BRANCH   3   7
ATOM      7  C   UNL d   1      -1.248  -0.292   1.335  0.00  0.00     0.036 A 
ATOM      8  C   UNL d   1      -1.962   0.240   2.404  0.00  0.00     0.032 A 
ATOM      9  C   UNL d   1      -3.359   0.148   2.448  0.00  0.00     0.031 A 
ATOM     10  C   UNL d   1      -4.097  -0.478   1.436  0.00  0.00     0.030 A 
ATOM     11  C   UNL d   1      -3.358  -0.995   0.360  0.00  0.00     0.031 A 
ATOM     12  C   UNL d   1      -1.958  -0.898   0.300  0.00  0.00     0.032 A 
BRANCH  10  13
ATOM     13  N   UNL d   1      -5.470  -0.620   1.507  0.00  0.00    -0.381 N 
ATOM     14  C   UNL d   1      -6.188  -0.601   2.783  0.00  0.00     0.123 C 
ATOM     15  C   UNL d   1      -7.165  -1.779   2.811  0.00  0.00     0.020 C 
ATOM     16  C   UNL d   1      -8.085  -1.781   1.592  0.00  0.00     0.003 C 
ATOM     17  C   UNL d   1      -7.288  -1.686   0.290  0.00  0.00     0.020 C 
ATOM     18  C   UNL d   1      -6.317  -0.506   0.318  0.00  0.00     0.123 C 
ENDBRANCH  10  13
ENDBRANCH   3   7
BRANCH   2  19
ATOM     19  C   UNL d   1       3.335   0.800   2.640  0.00  0.00     0.064 A 
ATOM     20  C   UNL d   1       3.958   2.037   2.378  0.00  0.00     0.061 A 
ATOM     21 CL   UNL d   1       3.494   2.998   1.013  0.00  0.00    -0.082 Cl
ATOM     22  C   UNL d   1       4.936   2.545   3.234  0.00  0.00     0.026 A 
ATOM     23  C   UNL d   1       5.322   1.813   4.352  0.00  0.00     0.002 A 
ATOM     24  C   UNL d   1       4.750   0.564   4.594  0.00  0.00     0.009 A 
ATOM     25  C   UNL d   1       3.770   0.030   3.735  0.00  0.00    -0.034 A 
ATOM     26  C   UNL d   1       3.268  -1.355   4.044  0.00  0.00     0.050 C 
ENDBRANCH   2  19
TORSDOF 3
