REMARK  6 active torsions:
REMARK  status: ('A' for Active; 'I' for Inactive)
REMARK    1  A    between atoms: N_2  and  S_1 
REMARK    2  A    between atoms: C_7  and  S_1 
REMARK    3  A    between atoms: C_3  and  N_2 
REMARK    4  A    between atoms: C_4  and  N_2 
REMARK    5  A    between atoms: C_12  and  C_3 
REMARK    6  A    between atoms: C_13  and  C_4 
ROOT
ATOM      1  N   UNL d   1       0.508  -0.547  -1.435  0.00  0.00    -0.195 NA
ENDROOT
BRANCH   1   2
ATOM      2  S   UNL d   1       1.079   0.148   0.003  0.00  0.00     0.244 S 
ATOM      3  O   UNL d   1       0.061   1.041   0.519  0.00  0.00    -0.206 OA
ATOM      4  O   UNL d   1       2.429   0.621  -0.221  0.00  0.00    -0.206 OA
BRANCH   2   5
ATOM      5  C   UNL d   1       1.222  -1.223   1.131  0.00  0.00     0.074 A 
ATOM      6  C   UNL d   1       2.422  -1.942   1.164  0.00  0.00     0.025 A 
ATOM      7  C   UNL d   1       2.631  -2.896   2.160  0.00  0.00     0.002 A 
ATOM      8  C   UNL d   1       1.645  -3.128   3.119  0.00  0.00     0.000 A 
ATOM      9  C   UNL d   1       0.446  -2.413   3.081  0.00  0.00     0.002 A 
ATOM     10  C   UNL d   1       0.234  -1.450   2.092  0.00  0.00     0.025 A 
ENDBRANCH   2   5
ENDBRANCH   1   2
BRANCH   1  11
ATOM     11  C   UNL d   1      -0.961  -0.838  -1.447  0.00  0.00     0.164 C 
BRANCH  11  12
ATOM     12  C   UNL d   1      -1.495  -1.517  -2.701  0.00  0.00     0.023 A 
ATOM     13  N   UNL d   1      -1.048  -2.768  -2.987  0.00  0.00    -0.368 N 
ATOM     14  C   UNL d   1      -1.471  -3.328  -4.143  0.00  0.00     0.088 A 
ATOM     15  HN  UNL d   1      -0.420  -3.264  -2.355  1.00  0.00     0.165 HD
ATOM     16  C   UNL d   1      -2.319  -2.706  -5.044  0.00  0.00     0.017 A 
ATOM     17  C   UNL d   1      -2.781  -1.435  -4.734  0.00  0.00     0.003 A 
ATOM     18  C   UNL d   1      -2.376  -0.836  -3.545  0.00  0.00     0.026 A 
ENDBRANCH  11  12
ENDBRANCH   1  11
BRANCH   1  19
ATOM     19  C   UNL d   1       1.010   0.114  -2.675  0.00  0.00     0.164 C 
BRANCH  19  20
ATOM     20  C   UNL d   1       0.590   1.559  -2.890  0.00  0.00     0.023 A 
ATOM     21  N   UNL d   1      -0.627   1.783  -3.449  0.00  0.00    -0.368 N 
ATOM     22  C   UNL d   1      -1.008   3.067  -3.626  0.00  0.00     0.088 A 
ATOM     23  HN  UNL d   1      -1.232   1.010  -3.724  1.00  0.00     0.165 HD
ATOM     24  C   UNL d   1      -0.237   4.156  -3.262  0.00  0.00     0.017 A 
ATOM     25  C   UNL d   1       1.004   3.915  -2.688  0.00  0.00     0.003 A 
ATOM     26  C   UNL d   1       1.429   2.604  -2.506  0.00  0.00     0.026 A 
ENDBRANCH  19  20
ENDBRANCH   1  19
TORSDOF 6
