REMARK  4 active torsions:
REMARK  status: ('A' for Active; 'I' for Inactive)
REMARK       I    between atoms: C_2  and  N_1 
REMARK    1  A    between atoms: O_17  and  C_2 
REMARK       I    between atoms: C_3  and  N_5 
REMARK    2  A    between atoms: C_4  and  C_3 
REMARK    3  A    between atoms: N_5  and  C_14 
REMARK    4  A    between atoms: C_18  and  O_17 
ROOT
ATOM      1  N   UNL d   1       1.441  -0.145   0.299  0.00  0.00    -0.328 N 
ATOM      2  C   UNL d   1       2.611  -0.142   1.035  0.00  0.00     0.362 C 
ATOM      3  C   UNL d   1       0.905   1.119  -0.170  0.00  0.00     0.130 C 
ATOM      4  C   UNL d   1       0.772  -1.342  -0.198  0.00  0.00     0.130 C 
ATOM      5  O   UNL d   1       3.202   0.880   1.364  0.00  0.00    -0.238 OA
ATOM      6  C   UNL d   1      -1.381   0.045  -0.257  0.00  0.00     0.087 C 
ATOM      7  C   UNL d   1      -0.554   1.240   0.240  0.00  0.00     0.045 C 
ATOM      8  C   UNL d   1      -0.725  -1.296   0.106  0.00  0.00     0.045 C 
ENDROOT
BRANCH   6   9
ATOM      9  N   UNL d   1      -1.627   0.173  -1.690  0.00  0.00    -0.352 N 
ATOM     10  C   UNL d   1      -2.862  -0.043  -2.270  0.00  0.00     0.258 C 
ATOM     11  O   UNL d   1      -3.806  -0.506  -1.632  0.00  0.00    -0.267 OA
ATOM     12  H   UNL d   1      -0.896   0.515  -2.296  0.00  0.00     0.163 HD
BRANCH  10  13
ATOM     13  C   UNL d   1      -2.969   0.341  -3.674  0.00  0.00     0.072 A 
ATOM     14  S   UNL d   1      -1.663   1.057  -4.529  0.00  0.00    -0.097 SA
ATOM     15  C   UNL d   1      -2.584   1.208  -5.959  0.00  0.00     0.050 A 
ATOM     16  C   UNL d   1      -3.864   0.725  -5.802  0.00  0.00     0.009 A 
ATOM     17  C   UNL d   1      -4.087   0.230  -4.484  0.00  0.00     0.025 A 
ENDBRANCH  10  13
ENDBRANCH   6   9
BRANCH   2  18
ATOM     18  O   UNL d   1       3.061  -1.395   1.311  0.00  0.00    -0.304 OA
BRANCH  18  19
ATOM     19  C   UNL d   1       4.426  -1.457   1.749  0.00  0.00     0.176 C 
ATOM     20  C   UNL d   1       5.308  -1.524   0.514  0.00  0.00     0.034 C 
ENDBRANCH  18  19
ENDBRANCH   2  18
TORSDOF 4
