REMARK  0 active torsions:
REMARK  status: ('A' for Active; 'I' for Inactive)
ROOT
ATOM      1  C   UNL d   1       0.065   0.671   0.010  0.00  0.00     0.028 A 
ATOM      2  C   UNL d   1      -1.215   1.429  -0.012  0.00  0.00     0.161 C 
ATOM      3  C   UNL d   1       0.102  -0.729  -0.062  0.00  0.00     0.014 A 
ATOM      4  S   UNL d   1      -1.344  -1.771  -0.142  0.00  0.00    -0.129 SA
ATOM      5  C   UNL d   1       1.260   1.407   0.081  0.00  0.00     0.040 A 
ATOM      6  O   UNL d   1      -1.212   2.642   0.186  0.00  0.00    -0.292 OA
ATOM      7  C   UNL d   1       1.348  -1.375  -0.083  0.00  0.00     0.021 A 
ATOM      8  C   UNL d   1       2.485   0.747   0.063  0.00  0.00     0.035 A 
ATOM      9  C   UNL d   1      -2.488   0.700  -0.355  0.00  0.00     0.094 C 
ATOM     10  C   UNL d   1      -2.604  -0.594   0.419  0.00  0.00     0.087 C 
ATOM     11  C   UNL d   1       2.535  -0.640  -0.021  0.00  0.00     0.025 A 
ATOM     12 CL   UNL d   1       3.946   1.651   0.134  0.00  0.00    -0.084 Cl
ENDROOT
TORSDOF 0
