REMARK  2 active torsions:
REMARK  status: ('A' for Active; 'I' for Inactive)
REMARK    1  A    between atoms: C_2  and  C_1 
REMARK    2  A    between atoms: O_8  and  C_1 
ROOT
ATOM      1  C   UNL d   1       0.520   0.338   1.218  0.00  0.00     0.019 C 
ATOM      2  C   UNL d   1      -1.750   2.315   0.703  0.00  0.00    -0.048 C 
ATOM      3  C   UNL d   1       0.664   1.852   1.479  0.00  0.00     0.008 C 
ATOM      4  C   UNL d   1      -0.963  -0.032   1.427  0.00  0.00     0.008 C 
ATOM      5  C   UNL d   1      -0.261   2.718   0.624  0.00  0.00     0.009 C 
ATOM      6  C   UNL d   1      -1.939   0.785   0.582  0.00  0.00     0.009 C 
ATOM      7  C   UNL d   1      -2.361   2.811   2.029  0.00  0.00     0.015 C 
ATOM      8  C   UNL d   1      -2.507   2.998  -0.454  0.00  0.00     0.015 C 
ENDROOT
BRANCH   1   9
ATOM      9  C   UNL d   1       1.160  -0.168  -0.123  0.00  0.00     0.054 C 
ATOM     10  C   UNL d   1       0.993  -1.686  -0.302  0.00  0.00     0.045 C 
ATOM     11  C   UNL d   1       2.662   0.150  -0.178  0.00  0.00     0.045 C 
BRANCH   9  12
ATOM     12  O   UNL d   1       0.588   0.475  -1.262  0.00  0.00    -0.390 OA
ATOM     13  H   UNL d   1      -0.206  -0.014  -1.531  0.00  0.00     0.210 HD
ENDBRANCH   9  12
ENDBRANCH   1   9
TORSDOF 2
