REMARK  6 active torsions:
REMARK  status: ('A' for Active; 'I' for Inactive)
REMARK    1  A    between atoms: C_3  and  C_1 
REMARK    2  A    between atoms: C_12  and  N_2 
REMARK    3  A    between atoms: S_16  and  C_6 
REMARK    4  A    between atoms: C_20  and  S_16 
REMARK    5  A    between atoms: C_19  and  C_20 
REMARK    6  A    between atoms: C_22  and  C_19 
ROOT
ATOM      1  C   UNL d   1      -0.122  -1.348   0.114  0.00  0.00     0.145 A 
ATOM      2  N   UNL d   1       1.183  -0.884   0.160  0.00  0.00    -0.305 N 
ATOM      3  N   UNL d   1      -0.938  -0.311   0.050  0.00  0.00    -0.282 N 
ATOM      4  HN  UNL d   1      -1.954  -0.355  -0.025  1.00  0.00     0.188 HD
ATOM      5  C   UNL d   1       1.082   0.486   0.167  0.00  0.00     0.163 A 
ATOM      6  N   UNL d   1      -0.184   0.836   0.103  0.00  0.00    -0.278 N 
ATOM      7  HN  UNL d   1      -0.543   1.791   0.095  1.00  0.00     0.189 HD
ENDROOT
BRANCH   5   8
ATOM      8  S   UNL d   1       2.389   1.611   0.067  0.00  0.00    -0.085 SA
BRANCH   8   9
ATOM      9  C   UNL d   1       1.994   2.717   1.448  0.00  0.00     0.166 C 
BRANCH   9  10
ATOM     10  C   UNL d   1       2.134   2.044   2.808  0.00  0.00     0.169 C 
ATOM     11  O   UNL d   1       2.286   0.831   2.956  0.00  0.00    -0.291 OA
BRANCH  10  12
ATOM     12  C   UNL d   1       2.068   2.905   4.030  0.00  0.00     0.010 A 
ATOM     13  C   UNL d   1       1.929   4.299   3.968  0.00  0.00     0.015 A 
ATOM     14  C   UNL d   1       1.884   5.054   5.146  0.00  0.00     0.001 A 
ATOM     15  C   UNL d   1       1.972   4.427   6.387  0.00  0.00     0.000 A 
ATOM     16  C   UNL d   1       2.108   3.043   6.458  0.00  0.00     0.001 A 
ATOM     17  C   UNL d   1       2.157   2.286   5.285  0.00  0.00     0.015 A 
ENDBRANCH  10  12
ENDBRANCH   9  10
ENDBRANCH   8   9
ENDBRANCH   5   8
BRANCH   2  18
ATOM     18  C   UNL d   1       2.357  -1.741   0.124  0.00  0.00     0.094 A 
ATOM     19  C   UNL d   1       3.095  -2.089   1.401  0.00  0.00     0.028 A 
ATOM     20  C   UNL d   1       3.809  -1.366   0.303  0.00  0.00     0.028 A 
ENDBRANCH   2  18
BRANCH   1  21
ATOM     21  C   UNL d   1      -0.585  -2.700   0.194  0.00  0.00     0.092 A 
ATOM     22  C   UNL d   1      -1.654  -3.320  -0.446  0.00  0.00     0.044 A 
ATOM     23  N   UNL d   1      -1.833  -4.663  -0.113  0.00  0.00    -0.298 N 
ATOM     24  C   UNL d   1      -2.613  -2.747  -1.424  0.00  0.00     0.071 C 
ATOM     25  N   UNL d   1      -0.965  -5.071   0.794  0.00  0.00    -0.269 N 
ATOM     26  HN  UNL d   1      -2.551  -5.260  -0.524  1.00  0.00     0.187 HD
ATOM     27  S   UNL d   1       0.061  -3.859   1.290  0.00  0.00     0.007 SA
ATOM     28  HN  UNL d   1      -0.928  -6.025   1.151  1.00  0.00     0.195 HD
ENDBRANCH   1  21
TORSDOF 6
