REMARK  6 active torsions:
REMARK  status: ('A' for Active; 'I' for Inactive)
REMARK    1  A    between atoms: C_2  and  C_1 
REMARK       I    between atoms: N_3  and  C_2 
REMARK       I    between atoms: C_9  and  N_3 
REMARK    2  A    between atoms: S_21  and  C_6 
REMARK    3  A    between atoms: S_28  and  C_7 
REMARK       I    between atoms: N_16  and  C_9 
REMARK    4  A    between atoms: C_10  and  C_12 
REMARK    5  A    between atoms: C_11  and  C_13 
REMARK    6  A    between atoms: C_15  and  N_16 
ROOT
ATOM      1  C   UNL d   1      -3.370  -1.437   0.062  0.00  0.00     0.264 C 
ATOM      2  N   UNL d   1      -4.436  -0.813  -0.556  0.00  0.00    -0.275 N 
ATOM      3  C   UNL d   1      -4.481   0.355  -1.284  0.00  0.00     0.327 C 
ATOM      4  N   UNL d   1      -3.312   1.074  -1.374  0.00  0.00    -0.309 N 
ATOM      5  O   UNL d   1      -2.252  -0.920   0.054  0.00  0.00    -0.267 OA
ATOM      6  O   UNL d   1      -5.558   0.661  -1.793  0.00  0.00    -0.247 OA
ATOM      7  H   UNL d   1      -5.342  -1.262  -0.518  0.00  0.00     0.173 HD
ATOM      8  H   UNL d   1      -2.529   0.687  -0.849  0.00  0.00     0.170 HD
ENDROOT
BRANCH   4   9
ATOM      9  C   UNL d   1      -3.072   2.260  -2.110  0.00  0.00     0.037 A 
ATOM     10  C   UNL d   1      -4.025   2.880  -2.925  0.00  0.00     0.045 A 
ATOM     11  C   UNL d   1      -3.711   4.030  -3.676  0.00  0.00     0.050 A 
ATOM     12  C   UNL d   1      -2.425   4.578  -3.576  0.00  0.00     0.032 A 
ATOM     13  C   UNL d   1      -1.455   3.988  -2.754  0.00  0.00     0.050 A 
ATOM     14  C   UNL d   1      -1.791   2.826  -2.031  0.00  0.00     0.045 A 
BRANCH  11  15
ATOM     15  C   UNL d   1      -4.749   4.681  -4.561  0.00  0.00     0.417 C 
ATOM     16  F   UNL d   1      -4.197   5.373  -5.599  0.00  0.00    -0.166 F 
ATOM     17  F   UNL d   1      -5.608   3.791  -5.129  0.00  0.00    -0.166 F 
ATOM     18  F   UNL d   1      -5.519   5.577  -3.887  0.00  0.00    -0.166 F 
ENDBRANCH  11  15
BRANCH  13  19
ATOM     19  C   UNL d   1      -0.063   4.569  -2.675  0.00  0.00     0.417 C 
ATOM     20  F   UNL d   1       0.040   5.807  -3.235  0.00  0.00    -0.166 F 
ATOM     21  F   UNL d   1       0.380   4.702  -1.395  0.00  0.00    -0.166 F 
ATOM     22  F   UNL d   1       0.857   3.795  -3.314  0.00  0.00    -0.166 F 
ENDBRANCH  13  19
ENDBRANCH   4   9
BRANCH   1  23
ATOM     23  C   UNL d   1      -3.642  -2.713   0.751  0.00  0.00     0.091 C 
ATOM     24  C   UNL d   1      -2.656  -3.678   1.011  0.00  0.00     0.076 C 
ATOM     25  S   UNL d   1      -3.315  -4.869   2.053  0.00  0.00    -0.006 SA
ATOM     26  N   UNL d   1      -4.857  -4.332   1.996  0.00  0.00    -0.319 N 
ATOM     27  C   UNL d   1      -4.901  -3.221   1.268  0.00  0.00     0.093 C 
ATOM     28  HN  UNL d   1      -5.657  -4.776   2.447  1.00  0.00     0.175 HD
BRANCH  24  29
ATOM     29  S   UNL d   1      -1.004  -3.745   0.391  0.00  0.00    -0.125 SA
ATOM     30  C   UNL d   1      -0.401  -5.388   0.853  0.00  0.00     0.096 C 
ENDBRANCH  24  29
BRANCH  27  31
ATOM     31  S   UNL d   1      -6.490  -2.488   1.019  0.00  0.00    -0.115 SA
ATOM     32  C   UNL d   1      -7.593  -3.833   1.546  0.00  0.00     0.097 C 
ENDBRANCH  27  31
ENDBRANCH   1  23
TORSDOF 6
