REMARK  2 active torsions:
REMARK  status: ('A' for Active; 'I' for Inactive)
REMARK    1  A    between atoms: C_9  and  C_2 
REMARK    2  A    between atoms: N_8  and  C_6 
ROOT
ATOM      1  N   UNL d   1      -2.430   0.565  -0.171  0.00  0.00    -0.331 N 
ATOM      2  C   UNL d   1      -2.377  -0.795   0.284  0.00  0.00     0.227 C 
ATOM      3  N   UNL d   1      -1.224  -1.444  -0.352  0.00  0.00    -0.358 N 
ATOM      4  C   UNL d   1      -0.021   0.663  -0.078  0.00  0.00     0.060 A 
ATOM      5  C   UNL d   1      -1.321   1.360  -0.123  0.00  0.00     0.255 C 
ATOM      6  C   UNL d   1      -0.012  -0.741  -0.199  0.00  0.00     0.047 A 
ATOM      7  C   UNL d   1       1.248  -1.363  -0.203  0.00  0.00     0.032 A 
ATOM      8  C   UNL d   1       1.155   1.414   0.052  0.00  0.00     0.043 A 
ATOM      9  O   UNL d   1      -1.410   2.580  -0.126  0.00  0.00    -0.268 OA
ATOM     10  C   UNL d   1       2.378   0.759   0.063  0.00  0.00     0.035 A 
ATOM     11  C   UNL d   1      -1.166  -2.905  -0.330  0.00  0.00     0.152 C 
ATOM     12  C   UNL d   1       2.430  -0.625  -0.063  0.00  0.00     0.026 A 
ATOM     13 CL   UNL d   1       3.835   1.658   0.225  0.00  0.00    -0.084 Cl
ATOM     14  H   UNL d   1      -3.295   1.074  -0.075  0.00  0.00     0.165 HD
ENDROOT
BRANCH   2  15
ATOM     15  C   UNL d   1      -3.726  -1.404  -0.030  0.00  0.00     0.027 A 
ATOM     16  S   UNL d   1      -4.755  -1.936   1.240  0.00  0.00    -0.067 SA
ATOM     17  C   UNL d   1      -5.894  -2.556   0.144  0.00  0.00     0.144 A 
ATOM     18  C   UNL d   1      -5.543  -2.339  -1.171  0.00  0.00     0.045 A 
ATOM     19  C   UNL d   1      -4.293  -1.657  -1.270  0.00  0.00     0.021 A 
BRANCH  17  20
ATOM     20  N   UNL d   1      -7.069  -3.242   0.617  0.00  0.00    -0.108 N 
ATOM     21  O   UNL d   1      -7.803  -3.734  -0.251  0.00  0.00    -0.531 OA
ATOM     22  O   UNL d   1      -7.263  -3.302   1.838  0.00  0.00    -0.531 OA
ENDBRANCH  17  20
ENDBRANCH   2  15
TORSDOF 2
