REMARK  4 active torsions:
REMARK  status: ('A' for Active; 'I' for Inactive)
REMARK    1  A    between atoms: N_7  and  N_1 
REMARK    2  A    between atoms: C_10  and  N_2 
REMARK       I    between atoms: C_8  and  N_7 
REMARK    3  A    between atoms: C_14  and  C_8 
REMARK    4  A    between atoms: N_9  and  C_14 
ROOT
ATOM      1  N   UNL d   1       0.688   1.043   0.242  0.00  0.00    -0.248 N 
ATOM      2  N   UNL d   1      -0.374  -1.421   0.138  0.00  0.00    -0.308 N 
ATOM      3  C   UNL d   1      -0.278  -0.851   1.417  0.00  0.00     0.244 C 
ATOM      4  C   UNL d   1       0.230   0.695  -1.023  0.00  0.00     0.257 C 
ATOM      5  C   UNL d   1      -0.082   0.660   1.413  0.00  0.00     0.255 C 
ATOM      6  C   UNL d   1      -0.674  -0.547  -1.002  0.00  0.00     0.236 C 
ATOM      7  O   UNL d   1       0.412   1.371  -2.032  0.00  0.00    -0.270 OA
ATOM      8  O   UNL d   1      -0.483  -1.455   2.471  0.00  0.00    -0.271 OA
ENDROOT
BRANCH   1   9
ATOM      9  N   UNL d   1       1.412   2.238   0.394  0.00  0.00    -0.263 N 
ATOM     10  C   UNL d   1       2.595   2.232   1.117  0.00  0.00     0.264 C 
ATOM     11  O   UNL d   1       3.103   1.221   1.596  0.00  0.00    -0.270 OA
ATOM     12  H   UNL d   1       1.013   3.109   0.056  0.00  0.00     0.190 HD
BRANCH  10  13
ATOM     13  C   UNL d   1       3.211   3.620   1.293  0.00  0.00     0.376 C 
BRANCH  13  14
ATOM     14  N   UNL d   1       2.198   4.600   1.747  0.00  0.00     0.100 N 
ATOM     15  C   UNL d   1       1.695   4.266   3.101  0.00  0.00     0.303 C 
ATOM     16  C   UNL d   1       0.674   5.314   3.604  0.00  0.00     0.302 C 
ATOM     17  N   UNL d   1       1.168   6.703   3.614  0.00  0.00     0.087 N 
ATOM     18  C   UNL d   1       1.780   7.014   2.307  0.00  0.00     0.302 C 
ATOM     19  C   UNL d   1       2.097   6.935   4.718  0.00  0.00     0.310 C 
ATOM     20  C   UNL d   1       2.786   5.958   1.785  0.00  0.00     0.303 C 
ENDBRANCH  13  14
ENDBRANCH  10  13
ENDBRANCH   1   9
BRANCH   2  21
ATOM     21  C   UNL d   1      -0.512  -2.832  -0.002  0.00  0.00     0.037 A 
ATOM     22  C   UNL d   1      -1.477  -3.387  -0.855  0.00  0.00     0.033 A 
ATOM     23  C   UNL d   1      -1.579  -4.775  -0.994  0.00  0.00     0.044 A 
ATOM     24  C   UNL d   1      -0.696  -5.603  -0.312  0.00  0.00     0.116 A 
ATOM     25  C   UNL d   1       0.273  -5.072   0.529  0.00  0.00     0.044 A 
ATOM     26  F   UNL d   1      -0.781  -6.930  -0.470  0.00  0.00    -0.206 F 
ATOM     27  C   UNL d   1       0.352  -3.688   0.698  0.00  0.00     0.033 A 
ENDBRANCH   2  21
TORSDOF 4
