REMARK  9 active torsions:
REMARK  status: ('A' for Active; 'I' for Inactive)
REMARK    1  A    between atoms: C_9  and  C_1 
REMARK    2  A    between atoms: N_19  and  C_3 
REMARK    3  A    between atoms: C_12  and  C_6 
REMARK       I    between atoms: N_14  and  C_9 
REMARK    4  A    between atoms: C_23  and  C_10 
REMARK    5  A    between atoms: C_13  and  N_15 
REMARK    6  A    between atoms: N_18  and  C_13 
REMARK    7  A    between atoms: N_15  and  N_14 
REMARK    8  A    between atoms: C_25  and  N_18 
REMARK    9  A    between atoms: C_26  and  C_25 
ROOT
ATOM      1  C   UNL d   1       2.411   0.050   0.011  0.00  0.00     0.174 A 
ATOM      2  C   UNL d   1       0.287   0.848   0.034  0.00  0.00     0.058 A 
ATOM      3  C   UNL d   1       1.661   1.206   0.080  0.00  0.00     0.081 A 
ATOM      4  C   UNL d   1       0.284  -0.548  -0.022  0.00  0.00     0.162 A 
ATOM      5  O   UNL d   1       1.569  -1.030  -0.038  0.00  0.00    -0.285 OA
ATOM      6  C   UNL d   1      -0.970   1.487   0.056  0.00  0.00     0.017 A 
ATOM      7  N   UNL d   1      -0.790  -1.361  -0.060  0.00  0.00    -0.335 N 
ATOM      8  HN  UNL d   1      -0.711  -2.378  -0.093  1.00  0.00     0.168 HD
ATOM      9  C   UNL d   1      -1.985  -0.719  -0.051  0.00  0.00     0.045 A 
ATOM     10  C   UNL d   1      -2.105   0.670   0.022  0.00  0.00     0.045 A 
ENDROOT
BRANCH   1  11
ATOM     11  C   UNL d   1       3.849  -0.105  -0.012  0.00  0.00     0.296 C 
ATOM     12  N   UNL d   1       4.334  -1.404   0.001  0.00  0.00    -0.262 N 
ATOM     13  H   UNL d   1       3.724  -2.210   0.118  0.00  0.00     0.190 HD
ATOM     14  O   UNL d   1       4.634   0.847  -0.035  0.00  0.00    -0.264 OA
BRANCH  12  15
ATOM     15  N   UNL d   1       5.710  -1.563   0.218  0.00  0.00    -0.273 N 
ATOM     16  H   UNL d   1       6.288  -0.763  -0.040  0.00  0.00     0.189 HD
BRANCH  15  17
ATOM     17  C   UNL d   1       6.287  -2.759   0.604  0.00  0.00     0.186 C 
ATOM     18  S   UNL d   1       5.448  -4.202   0.711  0.00  0.00    -0.040 SA
BRANCH  17  19
ATOM     19  N   UNL d   1       7.630  -2.592   0.870  0.00  0.00    -0.362 N 
ATOM     20  H   UNL d   1       7.904  -1.663   1.164  0.00  0.00     0.162 HD
BRANCH  19  21
ATOM     21  C   UNL d   1       8.573  -3.645   1.211  0.00  0.00     0.160 C 
BRANCH  21  22
ATOM     22  C   UNL d   1       9.991  -3.147   1.090  0.00  0.00    -0.041 A 
ATOM     23  C   UNL d   1      10.738  -2.801   2.225  0.00  0.00     0.009 A 
ATOM     24  C   UNL d   1      12.047  -2.333   2.094  0.00  0.00     0.001 A 
ATOM     25  C   UNL d   1      12.621  -2.199   0.831  0.00  0.00     0.000 A 
ATOM     26  C   UNL d   1      11.885  -2.531  -0.306  0.00  0.00     0.001 A 
ATOM     27  C   UNL d   1      10.576  -2.999  -0.177  0.00  0.00     0.009 A 
ENDBRANCH  21  22
ENDBRANCH  19  21
ENDBRANCH  17  19
ENDBRANCH  15  17
ENDBRANCH  12  15
ENDBRANCH   1  11
BRANCH   3  28
ATOM     28  N   UNL d   1       2.176   2.448   0.176  0.00  0.00    -0.396 N 
ATOM     29  H   UNL d   1       1.594   3.259  -0.033  0.00  0.00     0.156 HD
ATOM     30  H   UNL d   1       3.173   2.611   0.026  0.00  0.00     0.156 HD
ENDBRANCH   3  28
BRANCH   6  31
ATOM     31  C   UNL d   1      -1.105   2.935   0.135  0.00  0.00     0.086 A 
ATOM     32  O   UNL d   1      -0.140   3.692  -0.467  0.00  0.00    -0.322 OA
ATOM     33  C   UNL d   1      -0.457   4.997  -0.267  0.00  0.00     0.142 A 
ATOM     34  C   UNL d   1      -1.637   5.101   0.427  0.00  0.00     0.027 A 
ATOM     35  C   UNL d   1      -2.066   3.773   0.670  0.00  0.00     0.040 A 
ENDBRANCH   6  31
BRANCH   9  36
ATOM     36  C   UNL d   1      -3.191  -1.578  -0.137  0.00  0.00    -0.009 A 
ATOM     37  C   UNL d   1      -3.257  -2.816   0.526  0.00  0.00     0.013 A 
ATOM     38  C   UNL d   1      -4.398  -3.624   0.449  0.00  0.00     0.001 A 
ATOM     39  C   UNL d   1      -5.499  -3.214  -0.300  0.00  0.00     0.000 A 
ATOM     40  C   UNL d   1      -5.462  -1.995  -0.967  0.00  0.00     0.001 A 
ATOM     41  C   UNL d   1      -4.322  -1.189  -0.886  0.00  0.00     0.013 A 
ENDBRANCH   9  36
TORSDOF 9
