REMARK  6 active torsions:
REMARK  status: ('A' for Active; 'I' for Inactive)
REMARK    1  A    between atoms: C_9  and  N_1 
REMARK    2  A    between atoms: S_14  and  C_2 
REMARK    3  A    between atoms: C_3  and  C_13 
REMARK    4  A    between atoms: O_22  and  C_4 
REMARK    5  A    between atoms: C_13  and  C_20 
REMARK    6  A    between atoms: C_20  and  S_14 
ROOT
ATOM      1  N   UNL d   1      -0.296  -1.251  -0.008  0.00  0.00    -0.286 N 
ATOM      2  C   UNL d   1       0.902  -0.587  -0.111  0.00  0.00     0.165 A 
ATOM      3  C   UNL d   1      -1.234  -0.247  -0.001  0.00  0.00     0.240 A 
ATOM      4  N   UNL d   1       0.692   0.713  -0.161  0.00  0.00    -0.277 N 
ATOM      5  HN  UNL d   1       1.407   1.436  -0.240  1.00  0.00     0.189 HD
ATOM      6  N   UNL d   1      -0.666   0.917  -0.090  0.00  0.00    -0.263 N 
ATOM      7  HN  UNL d   1      -1.141   1.820  -0.104  1.00  0.00     0.190 HD
ENDROOT
BRANCH   2   8
ATOM      8  S   UNL d   1       2.492  -1.286  -0.102  0.00  0.00    -0.085 SA
BRANCH   8   9
ATOM      9  C   UNL d   1       3.471   0.267  -0.026  0.00  0.00     0.166 C 
BRANCH   9  10
ATOM     10  C   UNL d   1       4.959   0.058   0.164  0.00  0.00     0.170 C 
ATOM     11  O   UNL d   1       5.737   0.465  -0.705  0.00  0.00    -0.291 OA
BRANCH  10  12
ATOM     12  C   UNL d   1       5.464  -0.694   1.325  0.00  0.00     0.029 C 
ATOM     13  C   UNL d   1       4.725  -1.131   2.408  0.00  0.00     0.066 C 
ATOM     14  S   UNL d   1       5.319  -2.672   2.907  0.00  0.00    -0.100 SA
ATOM     15  C   UNL d   1       6.575  -2.599   1.724  0.00  0.00     0.016 C 
ATOM     16  C   UNL d   1       6.785  -1.262   1.391  0.00  0.00    -0.005 C 
ATOM     17  C   UNL d   1       7.316  -3.616   1.111  0.00  0.00     0.019 C 
ATOM     18  C   UNL d   1       7.976  -0.906   0.723  0.00  0.00     0.014 C 
ATOM     19  C   UNL d   1       8.695  -1.908   0.076  0.00  0.00     0.001 C 
ATOM     20  C   UNL d   1       8.308  -3.239   0.199  0.00  0.00     0.001 C 
ENDBRANCH  10  12
ENDBRANCH   9  10
ENDBRANCH   8   9
ENDBRANCH   2   8
BRANCH   1  21
ATOM     21  C   UNL d   1      -0.552  -2.675   0.078  0.00  0.00     0.104 C 
ATOM     22  C   UNL d   1      -1.442  -3.216  -1.076  0.00  0.00     0.065 C 
ATOM     23  C   UNL d   1      -2.339  -4.192  -0.384  0.00  0.00    -0.050 A 
ATOM     24  C   UNL d   1      -3.244  -5.062  -0.972  0.00  0.00     0.007 A 
ATOM     25  C   UNL d   1      -2.200  -4.133   1.003  0.00  0.00    -0.050 A 
ATOM     26  C   UNL d   1      -4.007  -5.893  -0.149  0.00  0.00     0.001 A 
ATOM     27  C   UNL d   1      -3.864  -5.838   1.244  0.00  0.00     0.001 A 
ATOM     28  C   UNL d   1      -2.957  -4.948   1.829  0.00  0.00     0.007 A 
ATOM     29  C   UNL d   1      -1.209  -3.097   1.423  0.00  0.00     0.065 C 
ENDBRANCH   1  21
BRANCH   3  30
ATOM     30  O   UNL d   1      -2.553  -0.369   0.095  0.00  0.00    -0.331 OA
ATOM     31  H   UNL d   1      -2.825  -1.293   0.186  0.00  0.00     0.221 HD
ENDBRANCH   3  30
TORSDOF 6
