REMARK  5 active torsions:
REMARK  status: ('A' for Active; 'I' for Inactive)
REMARK    1  A    between atoms: C_7  and  C_1 
REMARK    2  A    between atoms: C_14  and  C_5 
REMARK       I    between atoms: N_10  and  C_7 
REMARK    3  A    between atoms: C_8  and  C_12 
REMARK       I    between atoms: C_9  and  N_11 
REMARK    4  A    between atoms: C_13  and  C_9 
REMARK    5  A    between atoms: N_11  and  N_10 
ROOT
ATOM      1  C   UNL d   1      -0.276  -2.609   0.067  0.00  0.00     0.279 C 
ATOM      2  N   UNL d   1       0.874  -3.376   0.161  0.00  0.00    -0.262 N 
ATOM      3  O   UNL d   1      -1.374  -3.168  -0.003  0.00  0.00    -0.265 OA
ATOM      4  H   UNL d   1       1.808  -2.986   0.271  0.00  0.00     0.190 HD
ENDROOT
BRANCH   2   5
ATOM      5  N   UNL d   1       0.744  -4.773   0.237  0.00  0.00    -0.263 N 
ATOM      6  C   UNL d   1       1.887  -5.541   0.315  0.00  0.00     0.270 C 
ATOM      7  O   UNL d   1       3.015  -5.053   0.330  0.00  0.00    -0.266 OA
ATOM      8  H   UNL d   1      -0.186  -5.147   0.059  0.00  0.00     0.190 HD
BRANCH   6   9
ATOM      9  C   UNL d   1       1.696  -7.017   0.363  0.00  0.00     0.033 A 
ATOM     10  C   UNL d   1       2.718  -7.837  -0.137  0.00  0.00     0.018 A 
ATOM     11  C   UNL d   1       2.606  -9.230  -0.073  0.00  0.00     0.017 A 
ATOM     12  C   UNL d   1       1.476  -9.829   0.503  0.00  0.00     0.048 A 
ATOM     13  C   UNL d   1       0.456  -9.003   1.002  0.00  0.00     0.017 A 
ATOM     14  C   UNL d   1       0.562  -7.608   0.935  0.00  0.00     0.018 A 
BRANCH  12  15
ATOM     15  C   UNL d   1       1.357 -11.332   0.613  0.00  0.00     0.417 C 
ATOM     16  F   UNL d   1       2.406 -12.005   0.064  0.00  0.00    -0.166 F 
ATOM     17  F   UNL d   1       1.280 -11.751   1.907  0.00  0.00    -0.166 F 
ATOM     18  F   UNL d   1       0.241 -11.812  -0.002  0.00  0.00    -0.166 F 
ENDBRANCH  12  15
ENDBRANCH   6   9
ENDBRANCH   2   5
BRANCH   1  19
ATOM     19  C   UNL d   1      -0.116  -1.165   0.064  0.00  0.00     0.098 A 
ATOM     20  S   UNL d   1       1.412  -0.382   0.088  0.00  0.00    -0.064 SA
ATOM     21  C   UNL d   1       0.643   1.161   0.028  0.00  0.00     0.085 A 
ATOM     22  N   UNL d   1      -0.674   1.106   0.040  0.00  0.00    -0.352 N 
ATOM     23  C   UNL d   1      -1.117  -0.206   0.034  0.00  0.00     0.029 A 
ATOM     24  HN  UNL d   1      -1.285   1.923   0.052  1.00  0.00     0.166 HD
ATOM     25  C   UNL d   1      -2.587  -0.439  -0.010  0.00  0.00     0.070 C 
BRANCH  21  26
ATOM     26  C   UNL d   1       1.403   2.425  -0.008  0.00  0.00    -0.002 A 
ATOM     27  C   UNL d   1       2.683   2.534  -0.572  0.00  0.00     0.014 A 
ATOM     28  C   UNL d   1       3.341   3.768  -0.628  0.00  0.00     0.001 A 
ATOM     29  C   UNL d   1       2.731   4.913  -0.120  0.00  0.00     0.000 A 
ATOM     30  C   UNL d   1       1.461   4.827   0.444  0.00  0.00     0.001 A 
ATOM     31  C   UNL d   1       0.803   3.595   0.494  0.00  0.00     0.014 A 
ENDBRANCH  21  26
ENDBRANCH   1  19
TORSDOF 5
