REMARK  2 active torsions:
REMARK  status: ('A' for Active; 'I' for Inactive)
REMARK    1  A    between atoms: C_2  and  C_1 
REMARK       I    between atoms: N_5  and  C_2 
REMARK    2  A    between atoms: C_11  and  N_5 
ROOT
ATOM      1  C   UNL d   1       0.114   3.096  -0.220  0.00  0.00     0.259 C 
ATOM      2  N   UNL d   1      -1.163   3.469   0.168  0.00  0.00    -0.323 N 
ATOM      3  O   UNL d   1       1.005   3.880  -0.539  0.00  0.00    -0.267 OA
ATOM      4  H   UNL d   1      -1.767   2.724   0.507  0.00  0.00     0.169 HD
ENDROOT
BRANCH   1   5
ATOM      5  C   UNL d   1       0.468   1.640  -0.180  0.00  0.00     0.069 A 
ATOM      6  C   UNL d   1      -0.427   0.583   0.068  0.00  0.00     0.096 A 
ATOM      7  C   UNL d   1       0.051  -0.738   0.176  0.00  0.00     0.003 A 
ATOM      8  O   UNL d   1      -1.767   0.850   0.215  0.00  0.00    -0.325 OA
ATOM      9  C   UNL d   1      -0.882  -1.860   0.527  0.00  0.00     0.212 C 
ATOM     10  C   UNL d   1       1.405  -1.012  -0.052  0.00  0.00     0.054 A 
ATOM     11  O   UNL d   1      -2.135  -1.363   0.977  0.00  0.00    -0.362 OA
ATOM     12  C   UNL d   1      -2.576  -0.327   0.115  0.00  0.00     0.345 C 
ATOM     13  C   UNL d   1       2.275   0.025  -0.342  0.00  0.00     0.118 A 
ATOM     14  C   UNL d   1       1.826   1.337  -0.394  0.00  0.00     0.062 A 
ATOM     15  F   UNL d   1       3.568  -0.241  -0.561  0.00  0.00    -0.206 F 
ENDBRANCH   1   5
BRANCH   2  16
ATOM     16  C   UNL d   1      -1.626   4.795   0.332  0.00  0.00     0.037 A 
ATOM     17  C   UNL d   1      -0.952   5.914  -0.174  0.00  0.00     0.069 A 
ATOM     18  C   UNL d   1      -1.371   7.204   0.152  0.00  0.00     0.104 A 
ATOM     19  O   UNL d   1      -0.613   8.239  -0.332  0.00  0.00    -0.346 OA
ATOM     20  C   UNL d   1      -2.499   7.399   0.950  0.00  0.00     0.102 A 
ATOM     21  C   UNL d   1      -0.765   9.395   0.495  0.00  0.00     0.202 C 
ATOM     22  C   UNL d   1      -2.238   9.706   0.713  0.00  0.00     0.202 C 
ATOM     23  O   UNL d   1      -2.932   8.632   1.359  0.00  0.00    -0.346 OA
ATOM     24  C   UNL d   1      -3.221   6.294   1.395  0.00  0.00     0.042 A 
ATOM     25  C   UNL d   1      -2.792   4.997   1.078  0.00  0.00     0.032 A 
ENDBRANCH   2  16
TORSDOF 2
