REMARK  4 active torsions:
REMARK  status: ('A' for Active; 'I' for Inactive)
REMARK       I    between atoms: C_7  and  N_1 
REMARK    1  A    between atoms: S_12  and  C_2 
REMARK    2  A    between atoms: C_11  and  C_5 
REMARK    3  A    between atoms: N_16  and  C_6 
REMARK    4  A    between atoms: C_8  and  C_7 
ROOT
ATOM      1  N   UNL d   1      -0.015  -1.241  -0.003  0.00  0.00    -0.214 N 
ATOM      2  C   UNL d   1       1.281  -0.736   0.012  0.00  0.00     0.112 A 
ATOM      3  N   UNL d   1      -0.933  -0.229   0.042  0.00  0.00    -0.275 N 
ATOM      4  HN  UNL d   1      -1.948  -0.315   0.086  1.00  0.00     0.189 HD
ATOM      5  C   UNL d   1       1.176   0.649  -0.019  0.00  0.00     0.071 A 
ATOM      6  C   UNL d   1      -0.220   0.885   0.014  0.00  0.00     0.129 A 
ATOM      7  C   UNL d   1      -0.505  -2.571  -0.058  0.00  0.00     0.247 C 
ATOM      8  O   UNL d   1       0.274  -3.517  -0.089  0.00  0.00    -0.271 OA
ENDROOT
BRANCH   5   9
ATOM      9  C   UNL d   1       2.285   1.591  -0.126  0.00  0.00     0.049 A 
ATOM     10  N   UNL d   1       3.408   1.301   0.571  0.00  0.00    -0.365 N 
ATOM     11  C   UNL d   1       4.464   2.133   0.441  0.00  0.00     0.088 A 
ATOM     12  HN  UNL d   1       3.456   0.480   1.175  1.00  0.00     0.165 HD
ATOM     13  C   UNL d   1       4.445   3.284  -0.324  0.00  0.00     0.017 A 
ATOM     14  C   UNL d   1       3.276   3.594  -1.006  0.00  0.00     0.004 A 
ATOM     15  C   UNL d   1       2.183   2.733  -0.917  0.00  0.00     0.030 A 
ENDBRANCH   5   9
BRANCH   2  16
ATOM     16  S   UNL d   1       2.696  -1.765  -0.004  0.00  0.00    -0.114 SA
ATOM     17  C   UNL d   1       3.135  -1.747   1.753  0.00  0.00     0.097 C 
ENDBRANCH   2  16
BRANCH   6  18
ATOM     18  N   UNL d   1      -0.816   2.090   0.036  0.00  0.00    -0.384 N 
ATOM     19  H   UNL d   1      -1.808   2.083   0.254  0.00  0.00     0.157 HD
ATOM     20  H   UNL d   1      -0.331   2.877   0.454  0.00  0.00     0.157 HD
ENDBRANCH   6  18
BRANCH   7  21
ATOM     21  C   UNL d   1      -1.986  -2.822  -0.045  0.00  0.00     0.080 A 
ATOM     22  C   UNL d   1      -2.557  -3.780   0.977  0.00  0.00     0.015 A 
ATOM     23  C   UNL d   1      -2.551  -4.159  -0.475  0.00  0.00     0.015 A 
ENDBRANCH   7  21
TORSDOF 4
