REMARK  8 active torsions:
REMARK  status: ('A' for Active; 'I' for Inactive)
REMARK    1  A    between atoms: C_7  and  C_1 
REMARK    2  A    between atoms: C_10  and  C_2 
REMARK    3  A    between atoms: C_6  and  N_12 
REMARK    4  A    between atoms: N_13  and  C_6 
REMARK    5  A    between atoms: N_12  and  N_8 
REMARK    6  A    between atoms: C_20  and  N_13 
REMARK    7  A    between atoms: C_24  and  C_20 
REMARK    8  A    between atoms: C_23  and  C_24 
ROOT
ATOM      1  C   UNL d   1      -2.170  -0.275  -0.739  0.00  0.00     0.055 A 
ATOM      2  C   UNL d   1      -1.482  -1.326  -0.120  0.00  0.00     0.021 A 
ATOM      3  N   UNL d   1      -1.431   0.865  -0.489  0.00  0.00    -0.354 N 
ATOM      4  C   UNL d   1      -0.318  -0.778   0.513  0.00  0.00     0.004 A 
ATOM      5  C   UNL d   1      -0.317   0.591   0.268  0.00  0.00     0.043 A 
ATOM      6  C   UNL d   1       0.725  -1.314   1.298  0.00  0.00     0.014 A 
ATOM      7  C   UNL d   1       0.677   1.452   0.751  0.00  0.00     0.030 A 
ATOM      8  C   UNL d   1       1.727  -0.472   1.794  0.00  0.00     0.001 A 
ATOM      9  C   UNL d   1       1.701   0.892   1.520  0.00  0.00     0.002 A 
ATOM     10  H   UNL d   1      -1.671   1.788  -0.817  0.00  0.00     0.166 HD
ENDROOT
BRANCH   2  11
ATOM     11  C   UNL d   1      -1.927  -2.710  -0.111  0.00  0.00     0.121 C 
ATOM     12  N   UNL d   1      -1.133  -3.680   0.199  0.00  0.00    -0.309 N 
ATOM     13  HN  UNL d   1      -0.158  -3.515   0.453  1.00  0.00     0.186 HD
BRANCH  12  14
ATOM     14  N   UNL d   1      -1.671  -4.952   0.170  0.00  0.00    -0.277 N 
ATOM     15  H   UNL d   1      -0.971  -5.668   0.022  0.00  0.00     0.189 HD
BRANCH  14  16
ATOM     16  C   UNL d   1      -2.868  -5.364   0.772  0.00  0.00     0.186 C 
ATOM     17  S   UNL d   1      -3.882  -4.427   1.730  0.00  0.00    -0.040 SA
BRANCH  16  18
ATOM     18  N   UNL d   1      -3.160  -6.681   0.417  0.00  0.00    -0.366 N 
ATOM     19  H   UNL d   1      -2.436  -7.215  -0.041  0.00  0.00     0.161 HD
BRANCH  18  20
ATOM     20  C   UNL d   1      -4.520  -7.210   0.325  0.00  0.00     0.126 C 
BRANCH  20  21
ATOM     21  C   UNL d   1      -4.593  -8.734   0.217  0.00  0.00     0.058 C 
BRANCH  21  22
ATOM     22  C   UNL d   1      -4.122  -9.470   1.446  0.00  0.00    -0.057 A 
ATOM     23  C   UNL d   1      -4.659  -9.190   2.711  0.00  0.00     0.007 A 
ATOM     24  C   UNL d   1      -4.237  -9.899   3.836  0.00  0.00     0.001 A 
ATOM     25  C   UNL d   1      -3.283 -10.905   3.709  0.00  0.00     0.000 A 
ATOM     26  C   UNL d   1      -2.750 -11.203   2.457  0.00  0.00     0.001 A 
ATOM     27  C   UNL d   1      -3.167 -10.491   1.331  0.00  0.00     0.007 A 
ENDBRANCH  21  22
ENDBRANCH  20  21
ENDBRANCH  18  20
ENDBRANCH  16  18
ENDBRANCH  14  16
ENDBRANCH  12  14
ENDBRANCH   2  11
BRANCH   1  28
ATOM     28  C   UNL d   1      -3.425  -0.231  -1.517  0.00  0.00    -0.008 A 
ATOM     29  C   UNL d   1      -4.268   0.893  -1.472  0.00  0.00     0.015 A 
ATOM     30  C   UNL d   1      -5.484   0.911  -2.168  0.00  0.00     0.024 A 
ATOM     31  C   UNL d   1      -5.885  -0.202  -2.898  0.00  0.00     0.034 A 
ATOM     32  C   UNL d   1      -5.062  -1.320  -2.971  0.00  0.00     0.024 A 
ATOM     33 CL   UNL d   1      -7.396  -0.199  -3.718  0.00  0.00    -0.084 Cl
ATOM     34  C   UNL d   1      -3.829  -1.317  -2.309  0.00  0.00     0.015 A 
ENDBRANCH   1  28
TORSDOF 8
