REMARK  2 active torsions:
REMARK  status: ('A' for Active; 'I' for Inactive)
REMARK    1  A    between atoms: S_12  and  C_5 
REMARK    2  A    between atoms: C_10  and  N_8 
ROOT
ATOM      1  C   UNL d   1       3.649  -1.570  -0.676  0.00  0.00     0.166 A 
ATOM      2  S   UNL d   1       2.219  -2.522  -0.872  0.00  0.00    -0.027 SA
ATOM      3  N   UNL d   1       4.716  -2.143  -1.195  0.00  0.00    -0.278 N 
ATOM      4  HN  UNL d   1       5.650  -1.734  -1.150  1.00  0.00     0.189 HD
ATOM      5  C   UNL d   1       3.172  -3.653  -1.731  0.00  0.00     0.127 A 
ATOM      6  N   UNL d   1       4.446  -3.350  -1.804  0.00  0.00    -0.286 N 
ATOM      7  HN  UNL d   1       5.149  -3.935  -2.255  1.00  0.00     0.188 HD
ATOM      8  N   UNL d   1       3.589  -0.381  -0.029  0.00  0.00    -0.334 N 
ATOM      9  H   UNL d   1       2.764  -0.171   0.526  0.00  0.00     0.168 HD
ENDROOT
BRANCH   8  10
ATOM     10  C   UNL d   1       4.566   0.641  -0.005  0.00  0.00     0.057 A 
ATOM     11  C   UNL d   1       4.564   1.604   1.032  0.00  0.00     0.082 A 
ATOM     12  C   UNL d   1       5.555   2.597   1.087  0.00  0.00     0.058 A 
ATOM     13 CL   UNL d   1       3.309   1.529   2.236  0.00  0.00    -0.080 Cl
ATOM     14 CL   UNL d   1       5.606   3.792   2.337  0.00  0.00    -0.082 Cl
ATOM     15  C   UNL d   1       6.555   2.647   0.112  0.00  0.00     0.026 A 
ATOM     16  C   UNL d   1       6.570   1.708  -0.913  0.00  0.00     0.004 A 
ATOM     17  C   UNL d   1       5.592   0.714  -0.964  0.00  0.00     0.031 A 
ENDBRANCH   8  10
BRANCH   5  18
ATOM     18  S   UNL d   1       2.526  -5.090  -2.475  0.00  0.00    -0.117 SA
ATOM     19  H   UNL d   1       1.236  -4.738  -2.429  0.00  0.00     0.109 HD
ENDBRANCH   5  18
TORSDOF 2
