REMARK  7 active torsions:
REMARK  status: ('A' for Active; 'I' for Inactive)
REMARK    1  A    between atoms: N_8  and  C_1 
REMARK       I    between atoms: C_10  and  N_8 
REMARK    2  A    between atoms: C_14  and  C_10 
REMARK    3  A    between atoms: O_21  and  C_11 
REMARK    4  A    between atoms: C_12  and  C_14 
REMARK    5  A    between atoms: C_17  and  C_12 
REMARK    6  A    between atoms: C_13  and  C_17 
REMARK    7  A    between atoms: O_20  and  C_13 
ROOT
ATOM      1  N   UNL d   1       4.554   1.981   1.132  0.00  0.00    -0.307 N 
ATOM      2  C   UNL d   1       3.212   2.262   1.242  0.00  0.00     0.224 C 
ATOM      3  O   UNL d   1       2.484   1.983   2.193  0.00  0.00    -0.273 OA
ATOM      4  H   UNL d   1       5.096   2.431   0.404  0.00  0.00     0.171 HD
ENDROOT
BRANCH   1   5
ATOM      5  C   UNL d   1       5.342   1.427   2.113  0.00  0.00     0.153 C 
ATOM      6  S   UNL d   1       4.704   0.556   3.433  0.00  0.00    -0.034 SA
ATOM      7  C   UNL d   1       6.257   0.502   4.125  0.00  0.00     0.106 A 
ATOM      8  N   UNL d   1       6.496  -0.010   5.350  0.00  0.00    -0.329 N 
ATOM      9  C   UNL d   1       7.177   1.089   3.261  0.00  0.00     0.068 A 
ATOM     10  C   UNL d   1       7.781   0.131   5.740  0.00  0.00     0.142 A 
ATOM     11  HN  UNL d   1       5.780  -0.457   5.922  1.00  0.00     0.168 HD
ATOM     12  C   UNL d   1       8.796   0.700   4.981  0.00  0.00     0.058 A 
ATOM     13  C   UNL d   1       8.507   1.173   3.700  0.00  0.00     0.037 A 
ATOM     14  N   UNL d   1       6.647   1.556   2.071  0.00  0.00    -0.334 N 
ATOM     15  HN  UNL d   1       7.183   1.936   1.290  1.00  0.00     0.168 HD
BRANCH  10  16
ATOM     16  O   UNL d   1       8.157  -0.270   7.011  0.00  0.00    -0.341 OA
ATOM     17  C   UNL d   1       7.152  -1.017   7.689  0.00  0.00     0.211 C 
ENDBRANCH  10  16
ENDBRANCH   1   5
BRANCH   2  18
ATOM     18  C   UNL d   1       2.712   3.132   0.092  0.00  0.00     0.113 C 
BRANCH  18  19
ATOM     19  C   UNL d   1       1.164   3.264  -0.057  0.00  0.00    -0.023 C 
ATOM     20  C   UNL d   1       0.534   1.902  -0.461  0.00  0.00     0.010 C 
ATOM     21  C   UNL d   1       0.938   1.426  -1.856  0.00  0.00     0.001 C 
ATOM     22  C   UNL d   1       0.617   2.471  -2.917  0.00  0.00     0.000 C 
ATOM     23  C   UNL d   1       1.221   3.830  -2.585  0.00  0.00     0.001 C 
ATOM     24  C   UNL d   1       0.850   4.298  -1.178  0.00  0.00     0.010 C 
BRANCH  19  25
ATOM     25  C   UNL d   1       0.460   3.739   1.250  0.00  0.00     0.119 C 
BRANCH  25  26
ATOM     26  C   UNL d   1       1.174   4.852   1.982  0.00  0.00     0.140 C 
ATOM     27  O   UNL d   1       1.140   6.024   1.638  0.00  0.00    -0.650 OA
BRANCH  26  28
ATOM     28  O   UNL d   1       1.908   4.425   3.032  0.00  0.00    -0.776 OA
ATOM     29  H   UNL d   1       1.919   3.442   3.127  0.00  0.00     0.167 HD
ENDBRANCH  26  28
ENDBRANCH  25  26
ENDBRANCH  19  25
ENDBRANCH  18  19
ENDBRANCH   2  18
TORSDOF 7
