REMARK  4 active torsions:
REMARK  status: ('A' for Active; 'I' for Inactive)
REMARK       I    between atoms: C_4  and  N_1 
REMARK    1  A    between atoms: C_3  and  N_7 
REMARK    2  A    between atoms: N_9  and  C_3 
REMARK    3  A    between atoms: N_7  and  C_13 
REMARK    4  A    between atoms: C_16  and  N_9 
ROOT
ATOM      1  N   UNL d   1      -3.413  -1.239   1.034  0.00  0.00    -0.333 N 
ATOM      2  H   UNL d   1      -2.775  -1.249   0.254  0.00  0.00     0.168 HD
ENDROOT
BRANCH   1   3
ATOM      3  C   UNL d   1      -4.569  -0.530   0.834  0.00  0.00     0.172 C 
ATOM      4  S   UNL d   1      -6.104  -0.888   1.399  0.00  0.00    -0.041 SA
BRANCH   3   5
ATOM      5  N   UNL d   1      -4.462   0.595   0.057  0.00  0.00    -0.362 N 
ATOM      6  H   UNL d   1      -5.354   1.056  -0.088  0.00  0.00     0.162 HD
BRANCH   5   7
ATOM      7  C   UNL d   1      -3.352   1.036  -0.794  0.00  0.00     0.083 C 
ATOM      8  C   UNL d   1      -3.257   2.567  -0.783  0.00  0.00     0.025 C 
ATOM      9  C   UNL d   1      -2.223   3.120  -1.763  0.00  0.00     0.002 C 
ATOM     10  C   UNL d   1      -2.792   3.402  -3.153  0.00  0.00     0.000 C 
ATOM     11  C   UNL d   1      -3.247   2.183  -3.950  0.00  0.00     0.000 C 
ATOM     12  C   UNL d   1      -4.214   1.247  -3.227  0.00  0.00     0.002 C 
ATOM     13  C   UNL d   1      -3.506   0.387  -2.178  0.00  0.00     0.025 C 
ENDBRANCH   5   7
ENDBRANCH   3   5
ENDBRANCH   1   3
BRANCH   1  14
ATOM     14  C   UNL d   1      -3.003  -2.000   2.154  0.00  0.00     0.034 A 
ATOM     15  C   UNL d   1      -3.592  -1.874   3.423  0.00  0.00     0.032 A 
ATOM     16  C   UNL d   1      -3.059  -2.523   4.544  0.00  0.00     0.032 A 
ATOM     17  C   UNL d   1      -1.917  -3.279   4.394  0.00  0.00     0.043 A 
ATOM     18  N   UNL d   1      -1.129  -3.931   5.356  0.00  0.00    -0.318 N 
ATOM     19  C   UNL d   1      -1.373  -3.483   3.124  0.00  0.00    -0.027 A 
ATOM     20  C   UNL d   1      -1.089  -3.820   6.725  0.00  0.00     0.220 C 
ATOM     21  C   UNL d   1      -0.192  -4.817   4.659  0.00  0.00     0.137 C 
ATOM     22  O   UNL d   1      -0.423  -4.598   7.416  0.00  0.00    -0.273 OA
ATOM     23  C   UNL d   1      -1.819  -2.688   7.404  0.00  0.00     0.117 C 
ATOM     24  C   UNL d   1      -0.185  -4.391   3.186  0.00  0.00     0.061 C 
ATOM     25  C   UNL d   1      -1.883  -2.831   2.005  0.00  0.00     0.039 A 
ENDBRANCH   1  14
TORSDOF 4
