REMARK  2 active torsions:
REMARK  status: ('A' for Active; 'I' for Inactive)
REMARK    1  A    between atoms: C_4  and  C_1 
REMARK    2  A    between atoms: O_10  and  N_5 
ROOT
ATOM      1  C   UNL d   1      -4.825   0.700  -0.227  0.00  0.00    -0.012 A 
ATOM      2  C   UNL d   1      -6.035   1.406  -0.300  0.00  0.00     0.021 A 
ATOM      3  C   UNL d   1      -7.223   0.693  -0.341  0.00  0.00    -0.051 A 
ATOM      4  C   UNL d   1      -7.224  -0.705  -0.332  0.00  0.00    -0.052 A 
ATOM      5  C   UNL d   1      -4.833  -0.709  -0.236  0.00  0.00     0.014 A 
ATOM      6  C   UNL d   1      -6.040  -1.419  -0.291  0.00  0.00     0.008 A 
ATOM      7  C   UNL d   1      -8.616   1.228  -0.451  0.00  0.00     0.039 C 
ATOM      8  C   UNL d   1      -9.437   0.003  -0.023  0.00  0.00     0.009 C 
ATOM      9  C   UNL d   1      -8.622  -1.234  -0.428  0.00  0.00     0.039 C 
ENDROOT
BRANCH   1  10
ATOM     10  C   UNL d   1      -3.550   1.480  -0.167  0.00  0.00     0.038 C 
ATOM     11  N   UNL d   1      -3.512   2.659  -0.720  0.00  0.00    -0.273 N 
ATOM     12  HN  UNL d   1      -4.301   3.091  -1.202  1.00  0.00     0.193 HD
ATOM     13  C   UNL d   1      -2.357   0.884   0.558  0.00  0.00     0.071 C 
BRANCH  11  14
ATOM     14  O   UNL d   1      -2.257   3.260  -0.572  0.00  0.00    -0.290 OA
ATOM     15  H   UNL d   1      -2.377   4.108  -1.037  0.00  0.00     0.244 HD
ENDBRANCH  11  14
ENDBRANCH   1  10
TORSDOF 2
