REMARK  4 active torsions:
REMARK  status: ('A' for Active; 'I' for Inactive)
REMARK    1  A    between atoms: C_2  and  C_1 
REMARK       I    between atoms: N_3  and  C_1 
REMARK       I    between atoms: C_4  and  N_3 
REMARK       I    between atoms: N_7  and  C_4 
REMARK    2  A    between atoms: C_5  and  C_6 
REMARK    3  A    between atoms: C_8  and  N_7 
REMARK    4  A    between atoms: O_19  and  C_9 
ROOT
ATOM      1  C   UNL d   1       1.008   0.083  -0.673  0.00  0.00     0.264 C 
ATOM      2  N   UNL d   1       0.022  -0.891  -0.590  0.00  0.00    -0.275 N 
ATOM      3  C   UNL d   1      -1.353  -0.777  -0.616  0.00  0.00     0.327 C 
ATOM      4  N   UNL d   1      -1.842   0.448  -0.995  0.00  0.00    -0.308 N 
ATOM      5  O   UNL d   1       0.805   1.246  -0.997  0.00  0.00    -0.267 OA
ATOM      6  O   UNL d   1      -2.022  -1.760  -0.309  0.00  0.00    -0.247 OA
ATOM      7  H   UNL d   1       0.275  -1.839  -0.338  0.00  0.00     0.173 HD
ATOM      8  H   UNL d   1      -1.196   0.952  -1.595  0.00  0.00     0.170 HD
ENDROOT
BRANCH   1   9
ATOM      9  C   UNL d   1       2.389  -0.413  -0.405  0.00  0.00     0.098 C 
ATOM     10  C   UNL d   1       2.706  -1.166   0.739  0.00  0.00     0.069 C 
ATOM     11  C   UNL d   1       3.968  -1.777   0.817  0.00  0.00     0.034 C 
ATOM     12  C   UNL d   1       4.880  -1.555  -0.194  0.00  0.00     0.091 C 
ATOM     13  N   UNL d   1       4.633  -0.749  -1.242  0.00  0.00    -0.346 N 
ATOM     14  C   UNL d   1       3.405  -0.177  -1.329  0.00  0.00     0.158 C 
ATOM     15  HN  UNL d   1       5.346  -0.573  -1.950  1.00  0.00     0.167 HD
BRANCH  10  16
ATOM     16  C   UNL d   1       1.744  -1.329   1.880  0.00  0.00     0.418 C 
ATOM     17  F   UNL d   1       1.068  -0.190   2.179  0.00  0.00    -0.166 F 
ATOM     18  F   UNL d   1       0.808  -2.276   1.607  0.00  0.00    -0.166 F 
ATOM     19  F   UNL d   1       2.346  -1.720   3.037  0.00  0.00    -0.166 F 
ENDBRANCH  10  16
BRANCH  14  20
ATOM     20  O   UNL d   1       3.158   0.617  -2.427  0.00  0.00    -0.340 OA
ATOM     21  C   UNL d   1       4.351   1.196  -2.956  0.00  0.00     0.211 C 
ENDBRANCH  14  20
ENDBRANCH   1   9
BRANCH   4  22
ATOM     22  C   UNL d   1      -3.221   0.654  -1.231  0.00  0.00     0.048 A 
ATOM     23  C   UNL d   1      -4.154   0.636  -0.174  0.00  0.00    -0.035 A 
ATOM     24  C   UNL d   1      -5.497   0.956  -0.446  0.00  0.00     0.009 A 
ATOM     25  C   UNL d   1      -3.808   0.312   1.254  0.00  0.00     0.050 C 
ATOM     26  C   UNL d   1      -5.909   1.291  -1.732  0.00  0.00     0.001 A 
ATOM     27  C   UNL d   1      -4.990   1.282  -2.776  0.00  0.00     0.009 A 
ATOM     28  C   UNL d   1      -3.645   0.950  -2.544  0.00  0.00    -0.035 A 
ATOM     29  C   UNL d   1      -2.717   0.887  -3.728  0.00  0.00     0.050 C 
ENDBRANCH   4  22
TORSDOF 4
