REMARK  6 active torsions:
REMARK  status: ('A' for Active; 'I' for Inactive)
REMARK    1  A    between atoms: C_6  and  C_1 
REMARK    2  A    between atoms: C_5  and  C_2 
REMARK    3  A    between atoms: N_18  and  C_6 
REMARK    4  A    between atoms: O_12  and  N_9 
REMARK    5  A    between atoms: C_11  and  O_12 
REMARK    6  A    between atoms: C_13  and  C_11 
ROOT
ATOM      1  C   UNL d   1      -2.796   1.419  -0.130  0.00  0.00     0.128 C 
ATOM      2  N   UNL d   1      -3.980   0.916  -0.058  0.00  0.00    -0.244 N 
ATOM      3  HN  UNL d   1      -4.825   1.465   0.103  1.00  0.00     0.196 HD
ENDROOT
BRANCH   1   4
ATOM      4  C   UNL d   1      -2.662   2.864  -0.057  0.00  0.00     0.113 A 
ATOM      5  C   UNL d   1      -3.592   3.825  -0.398  0.00  0.00     0.191 A 
ATOM      6  O   UNL d   1      -3.027   5.052  -0.134  0.00  0.00    -0.291 OA
ATOM      7  C   UNL d   1      -1.779   4.765   0.335  0.00  0.00     0.120 A 
ATOM      8  N   UNL d   1      -1.494   3.480   0.379  0.00  0.00    -0.336 N 
ATOM      9  C   UNL d   1      -0.945   5.924   0.711  0.00  0.00     0.098 C 
ATOM     10  HN  UNL d   1      -0.619   3.040   0.665  1.00  0.00     0.168 HD
BRANCH   5  11
ATOM     11  C   UNL d   1      -4.947   3.827  -0.982  0.00  0.00     0.441 C 
ATOM     12  F   UNL d   1      -5.388   2.616  -1.401  0.00  0.00    -0.164 F 
ATOM     13  F   UNL d   1      -5.874   4.307  -0.112  0.00  0.00    -0.164 F 
ATOM     14  F   UNL d   1      -5.001   4.634  -2.079  0.00  0.00    -0.164 F 
ENDBRANCH   5  11
ENDBRANCH   1   4
BRANCH   1  15
ATOM     15  N   UNL d   1      -1.589   0.784  -0.228  0.00  0.00    -0.285 NA
ATOM     16  H   UNL d   1      -0.813   1.344   0.121  0.00  0.00     0.125 HD
ATOM     17  H   UNL d   1      -1.600  -0.156   0.152  0.00  0.00     0.125 HD
ENDBRANCH   1  15
BRANCH   2  18
ATOM     18  O   UNL d   1      -3.970  -0.481  -0.226  0.00  0.00    -0.193 OA
BRANCH  18  19
ATOM     19  C   UNL d   1      -4.921  -1.011   0.598  0.00  0.00     0.315 C 
ATOM     20  O   UNL d   1      -5.054  -0.758   1.787  0.00  0.00    -0.257 OA
BRANCH  19  21
ATOM     21  C   UNL d   1      -5.811  -1.946  -0.143  0.00  0.00     0.041 A 
ATOM     22  C   UNL d   1      -6.830  -2.588   0.577  0.00  0.00     0.019 A 
ATOM     23  C   UNL d   1      -7.750  -3.410  -0.078  0.00  0.00     0.025 A 
ATOM     24  C   UNL d   1      -7.656  -3.593  -1.456  0.00  0.00     0.034 A 
ATOM     25  C   UNL d   1      -6.641  -2.970  -2.183  0.00  0.00     0.025 A 
ATOM     26 CL   UNL d   1      -8.808  -4.579  -2.268  0.00  0.00    -0.084 Cl
ATOM     27  C   UNL d   1      -5.718  -2.146  -1.529  0.00  0.00     0.019 A 
ENDBRANCH  19  21
ENDBRANCH  18  19
ENDBRANCH   2  18
TORSDOF 6
