REMARK  3 active torsions:
REMARK  status: ('A' for Active; 'I' for Inactive)
REMARK    1  A    between atoms: C_3  and  C_1 
REMARK    2  A    between atoms: C_8  and  C_2 
REMARK       I    between atoms: N_7  and  C_3 
REMARK    3  A    between atoms: C_11  and  N_7 
ROOT
ATOM      1  C   UNL d   1      -2.759  -0.804  -0.075  0.00  0.00     0.260 C 
ATOM      2  N   UNL d   1      -2.937  -2.064   0.475  0.00  0.00    -0.323 N 
ATOM      3  O   UNL d   1      -3.667  -0.101  -0.504  0.00  0.00    -0.267 OA
ATOM      4  H   UNL d   1      -2.181  -2.441   1.031  0.00  0.00     0.169 HD
ENDROOT
BRANCH   1   5
ATOM      5  C   UNL d   1      -1.383  -0.345  -0.095  0.00  0.00     0.082 A 
ATOM      6  C   UNL d   1      -0.913   0.963  -0.074  0.00  0.00     0.101 A 
ATOM      7  O   UNL d   1       0.453   0.930  -0.149  0.00  0.00    -0.241 OA
ATOM      8  N   UNL d   1       0.897  -0.371  -0.242  0.00  0.00    -0.271 N 
ATOM      9  C   UNL d   1      -0.205  -1.117  -0.230  0.00  0.00     0.134 A 
ATOM     10  HN  UNL d   1       1.862  -0.693  -0.306  1.00  0.00     0.194 HD
BRANCH   6  11
ATOM     11  C   UNL d   1      -1.532   2.346   0.013  0.00  0.00     0.001 C 
ATOM     12  C   UNL d   1      -2.455   2.451   1.240  0.00  0.00     0.021 C 
ATOM     13  C   UNL d   1      -0.443   3.434   0.164  0.00  0.00     0.021 C 
ATOM     14  C   UNL d   1      -2.318   2.670  -1.270  0.00  0.00     0.021 C 
ENDBRANCH   6  11
ENDBRANCH   1   5
BRANCH   2  15
ATOM     15  C   UNL d   1      -4.120  -2.837   0.412  0.00  0.00     0.035 A 
ATOM     16  C   UNL d   1      -5.178  -2.543  -0.453  0.00  0.00     0.031 A 
ATOM     17  C   UNL d   1      -6.299  -3.377  -0.524  0.00  0.00     0.026 A 
ATOM     18  C   UNL d   1      -6.369  -4.511   0.278  0.00  0.00     0.034 A 
ATOM     19  C   UNL d   1      -5.330  -4.811   1.154  0.00  0.00     0.026 A 
ATOM     20 CL   UNL d   1      -7.735  -5.549   0.170  0.00  0.00    -0.084 Cl
ATOM     21  C   UNL d   1      -4.204  -3.980   1.217  0.00  0.00     0.031 A 
ENDBRANCH   2  15
TORSDOF 3
