REMARK  7 active torsions:
REMARK  status: ('A' for Active; 'I' for Inactive)
REMARK    1  A    between atoms: C_8  and  N_1 
REMARK    2  A    between atoms: C_7  and  C_2 
REMARK    3  A    between atoms: O_18  and  C_7 
REMARK    4  A    between atoms: N_9  and  C_15 
REMARK    5  A    between atoms: C_17  and  C_11 
REMARK    6  A    between atoms: C_28  and  O_18 
REMARK    7  A    between atoms: O_27  and  C_19 
ROOT
ATOM      1  C   UNL d   1      -3.582  -8.724  -3.450  0.00  0.00     0.056 A 
ATOM      2  C   UNL d   1      -3.469  -9.412  -2.226  0.00  0.00     0.034 A 
ATOM      3  C   UNL d   1      -2.921  -7.501  -3.567  0.00  0.00     0.034 A 
ATOM      4  C   UNL d   1      -2.142  -7.623  -1.254  0.00  0.00     0.032 A 
ATOM      5  C   UNL d   1      -2.171  -6.987  -2.497  0.00  0.00     0.032 A 
ATOM      6  C   UNL d   1      -2.767  -8.862  -1.146  0.00  0.00     0.032 A 
ENDROOT
BRANCH   1   7
ATOM      7  N   UNL d   1      -4.373  -9.313  -4.497  0.00  0.00    -0.260 N 
ATOM      8  N   UNL d   1      -4.913 -10.537  -4.258  0.00  0.00    -0.297 N 
ATOM      9  C   UNL d   1      -5.673 -10.823  -5.312  0.00  0.00     0.041 A 
ATOM     10  HN  UNL d   1      -4.766 -11.120  -3.434  1.00  0.00     0.187 HD
ATOM     11  C   UNL d   1      -6.432 -12.101  -5.322  0.00  0.00     0.071 C 
ATOM     12  C   UNL d   1      -5.637  -9.795  -6.283  0.00  0.00     0.087 A 
ATOM     13  C   UNL d   1      -4.745  -8.852  -5.762  0.00  0.00     0.049 A 
ATOM     14  C   UNL d   1      -4.282  -7.583  -6.385  0.00  0.00     0.071 C 
BRANCH  12  15
ATOM     15  C   UNL d   1      -6.383  -9.708  -7.531  0.00  0.00     0.297 C 
ATOM     16  O   UNL d   1      -6.429  -8.704  -8.234  0.00  0.00    -0.259 OA
BRANCH  15  17
ATOM     17  O   UNL d   1      -7.094 -10.844  -7.793  0.00  0.00    -0.318 OA
BRANCH  17  18
ATOM     18  C   UNL d   1      -8.092 -10.740  -8.816  0.00  0.00     0.174 C 
ATOM     19  C   UNL d   1      -9.369 -10.200  -8.197  0.00  0.00     0.034 C 
ENDBRANCH  17  18
ENDBRANCH  15  17
ENDBRANCH  12  15
ENDBRANCH   1   7
BRANCH   4  20
ATOM     20  N   UNL d   1      -1.481  -7.122  -0.122  0.00  0.00    -0.365 N 
ATOM     21  C   UNL d   1      -1.527  -5.882   0.268  0.00  0.00     0.099 C 
ATOM     22  HN  UNL d   1      -0.926  -7.774   0.433  1.00  0.00     0.165 HD
BRANCH  21  23
ATOM     23  C   UNL d   1      -2.246  -4.737  -0.324  0.00  0.00    -0.021 A 
ATOM     24  C   UNL d   1      -3.571  -4.832  -0.753  0.00  0.00     0.015 A 
ATOM     25  C   UNL d   1      -4.137  -3.788  -1.491  0.00  0.00     0.037 A 
ATOM     26  C   UNL d   1      -3.389  -2.642  -1.770  0.00  0.00     0.068 A 
ATOM     27  C   UNL d   1      -2.100  -2.514  -1.244  0.00  0.00     0.037 A 
ATOM     28  C   UNL d   1      -1.523  -3.559  -0.521  0.00  0.00     0.015 A 
BRANCH  26  29
ATOM     29  O   UNL d   1      -3.807  -1.588  -2.535  0.00  0.00    -0.356 OA
ATOM     30  C   UNL d   1      -4.884  -1.853  -3.428  0.00  0.00     0.210 C 
ENDBRANCH  26  29
ENDBRANCH  21  23
ENDBRANCH   4  20
TORSDOF 7
