REMARK  8 active torsions:
REMARK  status: ('A' for Active; 'I' for Inactive)
REMARK    1  A    between atoms: C_3  and  C_1 
REMARK    2  A    between atoms: C_2  and  C_5 
REMARK    3  A    between atoms: S_8  and  C_2 
REMARK    4  A    between atoms: N_17  and  C_4 
REMARK       I    between atoms: C_5  and  N_16 
REMARK    5  A    between atoms: C_20  and  S_8 
REMARK    6  A    between atoms: N_16  and  C_22 
REMARK    7  A    between atoms: C_23  and  N_17 
REMARK    8  A    between atoms: C_22  and  C_23 
ROOT
ATOM      1  C   UNL d   1      -6.133  -0.919   0.144  0.00  0.00     0.137 C 
ENDROOT
BRANCH   1   2
ATOM      2  N   UNL d   1      -6.987  -2.093   0.117  0.00  0.00    -0.354 N 
ATOM      3  C   UNL d   1      -7.790  -2.476   1.183  0.00  0.00     0.301 C 
ATOM      4  O   UNL d   1      -7.927  -1.740   2.166  0.00  0.00    -0.266 OA
ATOM      5  H   UNL d   1      -6.787  -2.789  -0.599  0.00  0.00     0.162 HD
BRANCH   3   6
ATOM      6  C   UNL d   1      -8.567  -3.821   1.032  0.00  0.00     0.375 C 
ATOM      7  F   UNL d   1      -8.875  -4.358   2.249  0.00  0.00    -0.182 F 
ATOM      8  F   UNL d   1      -9.757  -3.620   0.391  0.00  0.00    -0.182 F 
BRANCH   6   9
ATOM      9  S   UNL d   1      -7.579  -5.039   0.079  0.00  0.00    -0.043 SA
BRANCH   9  10
ATOM     10  C   UNL d   1      -8.726  -6.400   0.098  0.00  0.00     0.006 A 
ATOM     11  C   UNL d   1      -9.644  -6.568  -0.944  0.00  0.00     0.018 A 
ATOM     12  C   UNL d   1     -10.546  -7.634  -0.920  0.00  0.00     0.001 A 
ATOM     13  C   UNL d   1     -10.527  -8.542   0.137  0.00  0.00     0.000 A 
ATOM     14  C   UNL d   1      -9.604  -8.389   1.170  0.00  0.00     0.001 A 
ATOM     15  C   UNL d   1      -8.702  -7.323   1.149  0.00  0.00     0.018 A 
ENDBRANCH   9  10
ENDBRANCH   6   9
ENDBRANCH   3   6
ENDBRANCH   1   2
BRANCH   1  16
ATOM     16  C   UNL d   1      -4.637  -1.283   0.151  0.00  0.00     0.113 C 
BRANCH  16  17
ATOM     17  N   UNL d   1      -4.295  -2.171  -0.978  0.00  0.00    -0.277 NA
ATOM     18  H   UNL d   1      -4.720  -1.873  -1.854  0.00  0.00     0.129 HD
BRANCH  17  19
ATOM     19  C   UNL d   1      -2.922  -2.420  -1.135  0.00  0.00     0.095 A 
ATOM     20  C   UNL d   1      -2.431  -3.187  -2.194  0.00  0.00     0.087 A 
ATOM     21  C   UNL d   1      -1.047  -3.478  -2.241  0.00  0.00     0.044 A 
ATOM     22  C   UNL d   1      -0.200  -3.006  -1.251  0.00  0.00     0.050 A 
ATOM     23  C   UNL d   1      -0.761  -2.251  -0.249  0.00  0.00     0.113 A 
ATOM     24 CL   UNL d   1       1.475  -3.357  -1.285  0.00  0.00    -0.083 Cl
ATOM     25  N   UNL d   1      -2.085  -1.960  -0.174  0.00  0.00    -0.355 N 
ATOM     26  HN  UNL d   1      -2.446  -1.401   0.598  1.00  0.00     0.166 HD
BRANCH  20  27
ATOM     27  C   UNL d   1      -3.280  -3.732  -3.302  0.00  0.00     0.420 C 
ATOM     28  F   UNL d   1      -4.593  -3.374  -3.270  0.00  0.00    -0.166 F 
ATOM     29  F   UNL d   1      -2.830  -3.320  -4.524  0.00  0.00    -0.166 F 
ATOM     30  F   UNL d   1      -3.258  -5.094  -3.352  0.00  0.00    -0.166 F 
ENDBRANCH  20  27
ENDBRANCH  17  19
ENDBRANCH  16  17
ENDBRANCH   1  16
TORSDOF 8
