REMARK  4 active torsions:
REMARK  status: ('A' for Active; 'I' for Inactive)
REMARK    1  A    between atoms: C_2  and  S_1 
REMARK    2  A    between atoms: C_10  and  S_1 
REMARK    3  A    between atoms: C_7  and  C_4 
REMARK    4  A    between atoms: N_16  and  C_5 
ROOT
ATOM      1  C   UNL d   1       0.396   1.648   0.044  0.00  0.00     0.140 C 
ATOM      2  C   UNL d   1      -0.357   1.941  -1.032  0.00  0.00     0.049 C 
ATOM      3  C   UNL d   1       0.931   0.363   0.302  0.00  0.00     0.111 C 
ATOM      4  N   UNL d   1       1.321  -0.710   0.501  0.00  0.00    -0.191 NA
ENDROOT
BRANCH   1   5
ATOM      5  S   UNL d   1       0.802   2.920   1.170  0.00  0.00     0.193 S 
ATOM      6  O   UNL d   1       0.582   4.205   0.521  0.00  0.00    -0.221 OA
ATOM      7  O   UNL d   1       2.114   2.643   1.727  0.00  0.00    -0.221 OA
BRANCH   5   8
ATOM      8  C   UNL d   1      -0.416   2.781   2.526  0.00  0.00     0.058 C 
ATOM      9  C   UNL d   1      -0.360   1.400   3.192  0.00  0.00     0.031 C 
ATOM     10  C   UNL d   1      -0.065   3.846   3.584  0.00  0.00     0.031 C 
ATOM     11  C   UNL d   1      -1.836   3.050   2.007  0.00  0.00     0.031 C 
ENDBRANCH   5   8
ENDBRANCH   1   5
BRANCH   2  12
ATOM     12  C   UNL d   1      -0.766   0.951  -2.037  0.00  0.00     0.006 A 
ATOM     13  C   UNL d   1      -1.965   0.251  -1.897  0.00  0.00     0.149 A 
ATOM     14  C   UNL d   1      -2.387  -0.696  -2.846  0.00  0.00     0.110 A 
ATOM     15  F   UNL d   1      -2.735   0.509  -0.825  0.00  0.00    -0.203 F 
ATOM     16  C   UNL d   1      -3.682  -1.270  -2.627  0.00  0.00     0.105 C 
ATOM     17  C   UNL d   1      -1.590  -0.994  -3.978  0.00  0.00     0.053 A 
ATOM     18  N   UNL d   1      -4.726  -1.741  -2.430  0.00  0.00    -0.191 NA
ATOM     19  C   UNL d   1      -0.376  -0.277  -4.083  0.00  0.00     0.032 A 
ATOM     20  C   UNL d   1       0.031   0.682  -3.142  0.00  0.00     0.017 A 
BRANCH  17  21
ATOM     21  N   UNL d   1      -1.943  -1.903  -4.969  0.00  0.00    -0.388 N 
ATOM     22  C   UNL d   1      -1.457  -1.778  -6.343  0.00  0.00     0.149 C 
ATOM     23  C   UNL d   1      -2.608  -3.173  -4.671  0.00  0.00     0.149 C 
ENDBRANCH  17  21
ENDBRANCH   2  12
TORSDOF 4
