REMARK  3 active torsions:
REMARK  status: ('A' for Active; 'I' for Inactive)
REMARK    1  A    between atoms: N_8  and  N_1 
REMARK    2  A    between atoms: C_9  and  N_2 
REMARK       I    between atoms: C_7  and  N_8 
REMARK       I    between atoms: N_10  and  C_7 
REMARK    3  A    between atoms: C_20  and  N_10 
ROOT
ATOM      1  N   UNL d   1       0.780   1.065   0.197  0.00  0.00    -0.150 NA
ATOM      2  N   UNL d   1      -0.440  -1.238  -0.543  0.00  0.00    -0.309 N 
ATOM      3  C   UNL d   1       0.192  -1.234   0.714  0.00  0.00     0.240 C 
ATOM      4  C   UNL d   1      -0.186   1.219  -0.807  0.00  0.00     0.236 C 
ATOM      5  C   UNL d   1       0.428   0.163   1.290  0.00  0.00     0.226 C 
ATOM      6  C   UNL d   1      -1.089  -0.004  -0.993  0.00  0.00     0.230 C 
ATOM      7  O   UNL d   1      -0.391   2.285  -1.387  0.00  0.00    -0.276 OA
ATOM      8  O   UNL d   1       0.439  -2.235   1.383  0.00  0.00    -0.272 OA
ENDROOT
BRANCH   1   9
ATOM      9  N   UNL d   1       1.374   2.283   0.629  0.00  0.00    -0.264 N 
ATOM     10  C   UNL d   1       2.694   2.436   0.993  0.00  0.00     0.331 C 
ATOM     11  N   UNL d   1       3.393   1.275   1.119  0.00  0.00    -0.337 N 
ATOM     12  O   UNL d   1       3.136   3.548   1.242  0.00  0.00    -0.246 OA
ATOM     13  H   UNL d   1       3.048   0.516   0.551  0.00  0.00     0.164 HD
ATOM     14  H   UNL d   1       0.893   3.141   0.361  0.00  0.00     0.186 HD
BRANCH  11  15
ATOM     15  C   UNL d   1       4.704   1.106   1.744  0.00  0.00     0.086 C 
ATOM     16  C   UNL d   1       4.690   1.428   3.248  0.00  0.00     0.025 C 
ATOM     17  C   UNL d   1       5.175   2.826   3.620  0.00  0.00     0.002 C 
ATOM     18  C   UNL d   1       6.507   3.138   2.959  0.00  0.00     0.000 C 
ATOM     19  C   UNL d   1       6.379   3.074   1.444  0.00  0.00     0.002 C 
ATOM     20  C   UNL d   1       5.876   1.716   0.958  0.00  0.00     0.025 C 
ENDBRANCH  11  15
ENDBRANCH   1   9
BRANCH   2  21
ATOM     21  C   UNL d   1      -0.711  -2.464  -1.224  0.00  0.00     0.037 A 
ATOM     22  C   UNL d   1      -1.907  -2.668  -1.928  0.00  0.00     0.031 A 
ATOM     23  C   UNL d   1      -2.141  -3.871  -2.607  0.00  0.00     0.026 A 
ATOM     24  C   UNL d   1      -1.169  -4.867  -2.611  0.00  0.00     0.034 A 
ATOM     25  C   UNL d   1       0.028  -4.678  -1.929  0.00  0.00     0.026 A 
ATOM     26 CL   UNL d   1      -1.446  -6.335  -3.465  0.00  0.00    -0.084 Cl
ATOM     27  C   UNL d   1       0.248  -3.487  -1.229  0.00  0.00     0.031 A 
ENDBRANCH   2  21
TORSDOF 3
