REMARK  8 active torsions:
REMARK  status: ('A' for Active; 'I' for Inactive)
REMARK    1  A    between atoms: C_2  and  C_1 
REMARK    2  A    between atoms: C_3  and  C_1 
REMARK    3  A    between atoms: C_6  and  C_2 
REMARK    4  A    between atoms: S_4  and  C_3 
REMARK    5  A    between atoms: C_9  and  C_3 
REMARK    6  A    between atoms: C_12  and  S_4 
REMARK    7  A    between atoms: C_5  and  C_12 
REMARK    8  A    between atoms: O_14  and  C_5 
ROOT
ATOM      1  C   UNL d   1       2.573  -0.061   0.150  0.00  0.00     0.088 C 
ENDROOT
BRANCH   1   2
ATOM      2  C   UNL d   1       1.057   0.104  -0.059  0.00  0.00     0.104 C 
BRANCH   2   3
ATOM      3  C   UNL d   1       0.439   1.242   0.733  0.00  0.00     0.161 C 
ATOM      4  O   UNL d   1       0.119   1.084   1.912  0.00  0.00    -0.292 OA
BRANCH   3   5
ATOM      5  C   UNL d   1       0.155   2.562   0.096  0.00  0.00     0.010 A 
ATOM      6  C   UNL d   1       0.649   2.936  -1.157  0.00  0.00     0.017 A 
ATOM      7  C   UNL d   1       0.314   4.186  -1.697  0.00  0.00     0.025 A 
ATOM      8  C   UNL d   1      -0.506   5.062  -0.986  0.00  0.00     0.034 A 
ATOM      9  C   UNL d   1      -0.992   4.707   0.269  0.00  0.00     0.025 A 
ATOM     10 CL   UNL d   1      -0.923   6.587  -1.662  0.00  0.00    -0.084 Cl
ATOM     11  C   UNL d   1      -0.660   3.461   0.806  0.00  0.00     0.017 A 
ENDBRANCH   3   5
ENDBRANCH   2   3
ENDBRANCH   1   2
BRANCH   1  12
ATOM     12  S   UNL d   1       3.014  -0.367   1.930  0.00  0.00    -0.149 SA
BRANCH  12  13
ATOM     13  C   UNL d   1       4.836  -0.490   1.819  0.00  0.00     0.184 C 
BRANCH  13  14
ATOM     14  C   UNL d   1       5.465   0.808   1.364  0.00  0.00     0.149 C 
ATOM     15  O   UNL d   1       6.487   0.875   0.698  0.00  0.00    -0.649 OA
BRANCH  14  16
ATOM     16  O   UNL d   1       4.818   1.917   1.803  0.00  0.00    -0.776 OA
ATOM     17  H   UNL d   1       4.023   1.677   2.328  0.00  0.00     0.167 HD
ENDBRANCH  14  16
ENDBRANCH  13  14
ENDBRANCH  12  13
ENDBRANCH   1  12
BRANCH   1  18
ATOM     18  C   UNL d   1       3.100  -1.187  -0.728  0.00  0.00    -0.044 A 
ATOM     19  C   UNL d   1       4.079  -0.930  -1.700  0.00  0.00     0.008 A 
ATOM     20  C   UNL d   1       4.581  -1.965  -2.492  0.00  0.00     0.001 A 
ATOM     21  C   UNL d   1       4.112  -3.268  -2.326  0.00  0.00     0.000 A 
ATOM     22  C   UNL d   1       3.143  -3.539  -1.365  0.00  0.00     0.001 A 
ATOM     23  C   UNL d   1       2.640  -2.508  -0.573  0.00  0.00     0.008 A 
ENDBRANCH   1  18
TORSDOF 8
