REMARK  3 active torsions:
REMARK  status: ('A' for Active; 'I' for Inactive)
REMARK    1  A    between atoms: C_9  and  C_3 
REMARK    2  A    between atoms: S_8  and  C_9 
REMARK    3  A    between atoms: C_10  and  S_8 
ROOT
ATOM      1  S   UNL d   1       2.491   2.744   0.033  0.00  0.00    -0.122 SA
ENDROOT
BRANCH   1   2
ATOM      2  C   UNL d   1       1.044   2.522  -1.065  0.00  0.00     0.157 C 
BRANCH   2   3
ATOM      3  C   UNL d   1       0.694   1.079  -1.190  0.00  0.00     0.113 A 
ATOM      4  N   UNL d   1       1.193   0.273  -2.186  0.00  0.00    -0.333 N 
ATOM      5  C   UNL d   1       0.630  -0.877  -1.906  0.00  0.00     0.260 A 
ATOM      6  HN  UNL d   1       1.834   0.509  -2.944  1.00  0.00     0.168 HD
ATOM      7  O   UNL d   1      -0.195  -0.841  -0.830  0.00  0.00    -0.232 OA
ATOM      8  N   UNL d   1      -0.165   0.472  -0.355  0.00  0.00    -0.247 N 
ATOM      9  HN  UNL d   1      -0.671   0.872   0.434  1.00  0.00     0.196 HD
ENDBRANCH   2   3
ENDBRANCH   1   2
BRANCH   1  10
ATOM     10  C   UNL d   1       2.784   4.505  -0.040  0.00  0.00     0.001 A 
ATOM     11  C   UNL d   1       1.769   5.463  -0.143  0.00  0.00     0.020 A 
ATOM     12  C   UNL d   1       2.078   6.829  -0.130  0.00  0.00     0.025 A 
ATOM     13  C   UNL d   1       3.402   7.244  -0.005  0.00  0.00     0.034 A 
ATOM     14  C   UNL d   1       4.421   6.304   0.105  0.00  0.00     0.025 A 
ATOM     15 CL   UNL d   1       3.776   8.922   0.030  0.00  0.00    -0.084 Cl
ATOM     16  C   UNL d   1       4.111   4.940   0.090  0.00  0.00     0.020 A 
ENDBRANCH   1  10
TORSDOF 3
