REMARK  3 active torsions:
REMARK  status: ('A' for Active; 'I' for Inactive)
REMARK    1  A    between atoms: N_8  and  C_1 
REMARK       I    between atoms: C_4  and  N_7 
REMARK       I    between atoms: N_9  and  C_4 
REMARK    2  A    between atoms: C_15  and  N_9 
REMARK    3  A    between atoms: O_22  and  C_17 
ROOT
ATOM      1  C   UNL d   1      -3.379   1.946   3.785  0.00  0.00     0.323 C 
ATOM      2  N   UNL d   1      -2.237   2.324   3.059  0.00  0.00    -0.331 N 
ATOM      3  N   UNL d   1       0.088   2.493   1.190  0.00  0.00     0.105 N 
ATOM      4  N   UNL d   1      -4.426   2.835   3.729  0.00  0.00    -0.309 N 
ATOM      5  O   UNL d   1      -3.401   0.894   4.425  0.00  0.00    -0.247 OA
ATOM      6  C   UNL d   1      -1.191   1.303   3.015  0.00  0.00     0.158 C 
ATOM      7  C   UNL d   1      -2.253   3.291   1.950  0.00  0.00     0.158 C 
ATOM      8  C   UNL d   1      -0.890   3.583   1.261  0.00  0.00     0.293 C 
ATOM      9  C   UNL d   1       0.148   1.824   2.499  0.00  0.00     0.293 C 
ATOM     10  H   UNL d   1      -4.267   3.684   3.218  0.00  0.00     0.170 HD
ENDROOT
BRANCH   3  11
ATOM     11  C   UNL d   1       0.045   1.637  -0.016  0.00  0.00     0.290 C 
ATOM     12  C   UNL d   1      -1.255   0.893  -0.319  0.00  0.00    -0.009 C 
ATOM     13  C   UNL d   1      -1.065  -0.500  -0.194  0.00  0.00    -0.017 C 
ATOM     14  C   UNL d   1      -2.479   1.400  -0.733  0.00  0.00     0.010 C 
ATOM     15  C   UNL d   1      -2.130  -1.375  -0.327  0.00  0.00     0.013 C 
ATOM     16  C   UNL d   1       0.340  -0.763   0.044  0.00  0.00    -0.017 A 
ATOM     17  C   UNL d   1      -3.390  -0.852  -0.630  0.00  0.00     0.001 C 
ATOM     18  C   UNL d   1      -3.557   0.521  -0.857  0.00  0.00     0.001 C 
ATOM     19  C   UNL d   1       1.032   0.466   0.081  0.00  0.00    -0.009 A 
ATOM     20  C   UNL d   1       1.016  -1.959   0.213  0.00  0.00     0.013 A 
ATOM     21  C   UNL d   1       2.410   0.514   0.272  0.00  0.00     0.010 A 
ATOM     22  C   UNL d   1       3.087  -0.693   0.455  0.00  0.00     0.001 A 
ATOM     23  C   UNL d   1       2.399  -1.916   0.431  0.00  0.00     0.001 A 
ENDBRANCH   3  11
BRANCH   4  24
ATOM     24  C   UNL d   1      -5.694   2.732   4.347  0.00  0.00     0.039 A 
ATOM     25  C   UNL d   1      -6.119   1.644   5.127  0.00  0.00     0.066 A 
ATOM     26  C   UNL d   1      -7.404   1.627   5.682  0.00  0.00     0.070 A 
ATOM     27  C   UNL d   1      -8.267   2.699   5.445  0.00  0.00     0.037 A 
ATOM     28  C   UNL d   1      -7.854   3.789   4.684  0.00  0.00     0.005 A 
ATOM     29  C   UNL d   1      -6.570   3.807   4.144  0.00  0.00     0.030 A 
BRANCH  26  30
ATOM     30  O   UNL d   1      -7.940   0.659   6.484  0.00  0.00    -0.356 OA
ATOM     31  C   UNL d   1      -7.193  -0.531   6.695  0.00  0.00     0.210 C 
ENDBRANCH  26  30
ENDBRANCH   4  24
TORSDOF 3
