REMARK  4 active torsions:
REMARK  status: ('A' for Active; 'I' for Inactive)
REMARK    1  A    between atoms: C_7  and  C_1 
REMARK    2  A    between atoms: C_9  and  C_6 
REMARK       I    between atoms: N_8  and  C_7 
REMARK    3  A    between atoms: C_17  and  N_8 
REMARK    4  A    between atoms: C_16  and  C_17 
ROOT
ATOM      1  C   UNL d   1      -0.295  -2.616  -0.013  0.00  0.00     0.270 C 
ATOM      2  N   UNL d   1       0.698  -3.574  -0.064  0.00  0.00    -0.351 N 
ATOM      3  O   UNL d   1      -1.477  -2.936   0.034  0.00  0.00    -0.266 OA
ATOM      4  H   UNL d   1       1.666  -3.301  -0.101  0.00  0.00     0.163 HD
ENDROOT
BRANCH   1   5
ATOM      5  C   UNL d   1       0.165  -1.238  -0.018  0.00  0.00     0.119 A 
ATOM      6  N   UNL d   1      -0.637  -0.117   0.018  0.00  0.00    -0.291 N 
ATOM      7  N   UNL d   1       0.052   1.046  -0.006  0.00  0.00    -0.302 N 
ATOM      8  C   UNL d   1      -2.078  -0.009   0.058  0.00  0.00     0.178 C 
ATOM      9  C   UNL d   1       1.335   0.687  -0.056  0.00  0.00     0.036 A 
ATOM     10  HN  UNL d   1      -0.328   1.993   0.010  1.00  0.00     0.186 HD
ATOM     11  C   UNL d   1       1.453  -0.725  -0.058  0.00  0.00     0.064 A 
BRANCH   9  12
ATOM     12  C   UNL d   1       2.458   1.713  -0.122  0.00  0.00    -0.007 C 
ATOM     13  C   UNL d   1       3.244   1.531  -1.437  0.00  0.00     0.021 C 
ATOM     14  C   UNL d   1       1.938   3.166  -0.075  0.00  0.00     0.021 C 
ATOM     15  C   UNL d   1       3.424   1.521   1.064  0.00  0.00     0.021 C 
ENDBRANCH   9  12
ENDBRANCH   1   5
BRANCH   2  16
ATOM     16  C   UNL d   1       0.408  -4.990   0.016  0.00  0.00     0.161 C 
BRANCH  16  17
ATOM     17  C   UNL d   1       0.917  -5.745  -1.188  0.00  0.00    -0.040 A 
ATOM     18  C   UNL d   1       0.409  -5.452  -2.466  0.00  0.00     0.018 A 
ATOM     19  C   UNL d   1       0.841  -6.209  -3.544  0.00  0.00    -0.022 A 
ATOM     20  C   UNL d   1       0.504  -6.088  -4.979  0.00  0.00     0.068 C 
ATOM     21  C   UNL d   1       1.764  -7.227  -3.376  0.00  0.00     0.075 A 
ATOM     22  C   UNL d   1       1.082  -7.416  -5.474  0.00  0.00     0.180 C 
ATOM     23  O   UNL d   1       2.089  -7.873  -4.541  0.00  0.00    -0.350 OA
ATOM     24  C   UNL d   1       2.296  -7.532  -2.142  0.00  0.00     0.038 A 
ATOM     25  C   UNL d   1       1.861  -6.787  -1.039  0.00  0.00     0.011 A 
ENDBRANCH  16  17
ENDBRANCH   2  16
TORSDOF 4
