REMARK  4 active torsions:
REMARK  status: ('A' for Active; 'I' for Inactive)
REMARK    1  A    between atoms: C_2  and  C_1 
REMARK    2  A    between atoms: C_16  and  C_5 
REMARK    3  A    between atoms: O_18  and  C_13 
REMARK    4  A    between atoms: O_19  and  C_15 
ROOT
ATOM      1  C   UNL d   1       0.419  -2.688   0.075  0.00  0.00     0.054 C 
ATOM      2  C   UNL d   1       1.247  -3.343   1.141  0.00  0.00     0.000 A 
ATOM      3  N   UNL d   1      -0.029  -3.329  -0.953  0.00  0.00    -0.388 N 
ATOM      4  HN  UNL d   1      -0.664  -2.874  -1.609  1.00  0.00     0.159 HD
ATOM      5  C   UNL d   1       1.958  -2.656   2.129  0.00  0.00     0.054 A 
ATOM      6  C   UNL d   1       1.292  -4.748   1.134  0.00  0.00    -0.041 A 
ATOM      7  C   UNL d   1       2.648  -3.348   3.135  0.00  0.00     0.102 A 
ATOM      8  C   UNL d   1       2.045  -5.435   2.096  0.00  0.00     0.047 A 
ATOM      9  C   UNL d   1       2.709  -4.746   3.111  0.00  0.00     0.102 A 
ATOM     10  C   UNL d   1       0.386  -4.716  -1.164  0.00  0.00     0.124 C 
ATOM     11  C   UNL d   1       0.467  -5.502   0.132  0.00  0.00     0.059 C 
ENDROOT
BRANCH   1  12
ATOM     12  C   UNL d   1       0.077  -1.270   0.102  0.00  0.00     0.052 A 
ATOM     13  C   UNL d   1      -0.039  -0.351  -1.011  0.00  0.00     0.080 A 
ATOM     14  N   UNL d   1      -0.374   0.872  -0.569  0.00  0.00    -0.259 N 
ATOM     15  O   UNL d   1      -0.557   0.766   0.783  0.00  0.00    -0.241 OA
ATOM     16  HN  UNL d   1      -0.472   1.717  -1.132  1.00  0.00     0.195 HD
ATOM     17  C   UNL d   1      -0.338  -0.510   1.183  0.00  0.00     0.087 A 
ATOM     18  C   UNL d   1      -0.640  -0.756   2.609  0.00  0.00     0.080 C 
BRANCH  13  19
ATOM     19  C   UNL d   1       0.115  -0.568  -2.458  0.00  0.00    -0.007 A 
ATOM     20  C   UNL d   1       1.110  -1.396  -2.990  0.00  0.00     0.014 A 
ATOM     21  C   UNL d   1       1.190  -1.620  -4.370  0.00  0.00     0.001 A 
ATOM     22  C   UNL d   1       0.293  -0.998  -5.236  0.00  0.00     0.000 A 
ATOM     23  C   UNL d   1      -0.683  -0.146  -4.727  0.00  0.00     0.001 A 
ATOM     24  C   UNL d   1      -0.770   0.069  -3.347  0.00  0.00     0.014 A 
ENDBRANCH  13  19
ENDBRANCH   1  12
BRANCH   7  25
ATOM     25  O   UNL d   1       3.096  -2.587   4.180  0.00  0.00    -0.353 OA
ATOM     26  C   UNL d   1       4.513  -2.511   4.280  0.00  0.00     0.210 C 
ENDBRANCH   7  25
BRANCH   9  27
ATOM     27  O   UNL d   1       3.433  -5.538   3.953  0.00  0.00    -0.353 OA
ATOM     28  C   UNL d   1       3.211  -5.327   5.345  0.00  0.00     0.210 C 
ENDBRANCH   9  27
TORSDOF 4
