REMARK  1 active torsions:
REMARK  status: ('A' for Active; 'I' for Inactive)
REMARK    1  A    between atoms: C_6  and  C_4 
ROOT
ATOM      1  N   UNL d   1       1.380  -0.589  -0.096  0.00  0.00    -0.347 N 
ATOM      2  HN  UNL d   1       2.265  -1.082  -0.218  1.00  0.00     0.167 HD
ATOM      3  C   UNL d   1       0.199  -1.166   0.000  0.00  0.00     0.111 A 
ATOM      4  C   UNL d   1       1.241   0.788  -0.008  0.00  0.00     0.057 A 
ATOM      5  C   UNL d   1       0.033  -2.591  -0.004  0.00  0.00     0.134 A 
ATOM      6  S   UNL d   1      -1.135  -0.097   0.157  0.00  0.00    -0.079 SA
ATOM      7  C   UNL d   1      -0.058   1.234   0.131  0.00  0.00     0.082 A 
ATOM      8  N   UNL d   1      -1.018  -4.590   0.074  0.00  0.00    -0.272 N 
ATOM      9  HN  UNL d   1      -1.746  -5.302   0.126  1.00  0.00     0.194 HD
ATOM     10  O   UNL d   1      -1.185  -3.215   0.080  0.00  0.00    -0.236 OA
ATOM     11  C   UNL d   1       1.003  -3.572  -0.072  0.00  0.00     0.061 A 
ATOM     12  C   UNL d   1       0.297  -4.784  -0.015  0.00  0.00     0.117 A 
ENDROOT
BRANCH   4  13
ATOM     13  C   UNL d   1       2.440   1.690  -0.052  0.00  0.00     0.033 A 
ATOM     14  S   UNL d   1       2.400   3.389   0.141  0.00  0.00    -0.076 SA
ATOM     15  C   UNL d   1       4.080   3.497  -0.009  0.00  0.00     0.075 A 
ATOM     16 CL   UNL d   1       4.851   5.026   0.109  0.00  0.00    -0.076 Cl
ATOM     17  C   UNL d   1       4.689   2.287  -0.222  0.00  0.00     0.033 A 
ATOM     18  C   UNL d   1       3.729   1.229  -0.245  0.00  0.00     0.023 A 
ENDBRANCH   4  13
TORSDOF 1
