REMARK  7 active torsions:
REMARK  status: ('A' for Active; 'I' for Inactive)
REMARK    1  A    between atoms: C_6  and  N_1 
REMARK    2  A    between atoms: C_7  and  C_10 
REMARK    3  A    between atoms: C_8  and  C_11 
REMARK    4  A    between atoms: C_9  and  N_12 
REMARK    5  A    between atoms: N_16  and  C_9 
REMARK    6  A    between atoms: N_12  and  C_13 
REMARK    7  A    between atoms: C_15  and  N_16 
ROOT
ATOM      1  N   UNL d   1       3.122   1.705   2.428  0.00  0.00    -0.331 N 
ATOM      2  H   UNL d   1       2.205   1.961   2.091  0.00  0.00     0.168 HD
ENDROOT
BRANCH   1   3
ATOM      3  C   UNL d   1       3.233   1.712   3.787  0.00  0.00     0.176 C 
ATOM      4  S   UNL d   1       4.271   0.776   4.721  0.00  0.00    -0.041 SA
BRANCH   3   5
ATOM      5  N   UNL d   1       2.345   2.440   4.529  0.00  0.00    -0.333 N 
ATOM      6  H   UNL d   1       2.470   2.176   5.504  0.00  0.00     0.168 HD
BRANCH   5   7
ATOM      7  C   UNL d   1       1.335   3.404   4.333  0.00  0.00     0.035 A 
ATOM      8  C   UNL d   1       0.520   3.634   5.463  0.00  0.00     0.045 A 
ATOM      9  C   UNL d   1      -0.557   4.534   5.446  0.00  0.00     0.050 A 
ATOM     10  C   UNL d   1      -0.780   5.272   4.285  0.00  0.00     0.032 A 
ATOM     11  C   UNL d   1       0.015   5.075   3.141  0.00  0.00     0.050 A 
ATOM     12  C   UNL d   1       1.084   4.140   3.174  0.00  0.00     0.045 A 
BRANCH   9  13
ATOM     13  C   UNL d   1      -1.470   4.669   6.643  0.00  0.00     0.417 C 
ATOM     14  F   UNL d   1      -2.672   5.234   6.335  0.00  0.00    -0.166 F 
ATOM     15  F   UNL d   1      -1.765   3.466   7.209  0.00  0.00    -0.166 F 
ATOM     16  F   UNL d   1      -0.937   5.432   7.633  0.00  0.00    -0.166 F 
ENDBRANCH   9  13
BRANCH  11  17
ATOM     17  C   UNL d   1      -0.319   5.855   1.887  0.00  0.00     0.417 C 
ATOM     18  F   UNL d   1      -1.512   6.506   1.962  0.00  0.00    -0.166 F 
ATOM     19  F   UNL d   1       0.607   6.806   1.589  0.00  0.00    -0.166 F 
ATOM     20  F   UNL d   1      -0.411   5.051   0.789  0.00  0.00    -0.166 F 
ENDBRANCH  11  17
ENDBRANCH   5   7
ENDBRANCH   3   5
ENDBRANCH   1   3
BRANCH   1  21
ATOM     21  C   UNL d   1       3.953   1.067   1.450  0.00  0.00     0.062 A 
ATOM     22  C   UNL d   1       3.359   0.588   0.264  0.00  0.00     0.072 A 
ATOM     23  C   UNL d   1       4.130   0.100  -0.802  0.00  0.00     0.032 A 
ATOM     24  C   UNL d   1       5.513   0.034  -0.684  0.00  0.00     0.002 A 
ATOM     25  C   UNL d   1       6.113   0.428   0.510  0.00  0.00     0.002 A 
ATOM     26  C   UNL d   1       5.343   0.950   1.563  0.00  0.00     0.032 A 
BRANCH  22  27
ATOM     27  N   UNL d   1       1.970   0.436   0.179  0.00  0.00    -0.241 N 
ATOM     28  C   UNL d   1       1.124   1.402  -0.288  0.00  0.00     0.266 A 
ATOM     29  C   UNL d   1      -0.220   0.842  -0.168  0.00  0.00     0.048 A 
ATOM     30  O   UNL d   1       1.361   2.531  -0.673  0.00  0.00    -0.267 OA
ATOM     31  C   UNL d   1      -1.436   1.392  -0.508  0.00  0.00     0.018 A 
ATOM     32  C   UNL d   1      -0.112  -0.420   0.396  0.00  0.00     0.048 A 
ATOM     33  C   UNL d   1      -2.573   0.619  -0.266  0.00  0.00     0.001 A 
ATOM     34  C   UNL d   1      -2.467  -0.665   0.309  0.00  0.00     0.001 A 
ATOM     35  C   UNL d   1      -1.221  -1.200   0.653  0.00  0.00     0.018 A 
ATOM     36  C   UNL d   1       1.310  -0.679   0.636  0.00  0.00     0.266 A 
ATOM     37  O   UNL d   1       1.722  -1.708   1.137  0.00  0.00    -0.267 OA
ENDBRANCH  22  27
ENDBRANCH   1  21
TORSDOF 7
