REMARK  4 active torsions:
REMARK  status: ('A' for Active; 'I' for Inactive)
REMARK    1  A    between atoms: C_2  and  C_1 
REMARK       I    between atoms: N_3  and  C_2 
REMARK       I    between atoms: C_9  and  N_3 
REMARK    2  A    between atoms: S_19  and  C_6 
REMARK    3  A    between atoms: C_7  and  N_11 
REMARK    4  A    between atoms: S_20  and  C_8 
REMARK       I    between atoms: N_11  and  C_9 
ROOT
ATOM      1  C   UNL d   1      -2.523  -1.302  -0.288  0.00  0.00     0.264 C 
ATOM      2  N   UNL d   1      -3.630  -0.570  -0.722  0.00  0.00    -0.275 N 
ATOM      3  C   UNL d   1      -3.913   0.548  -1.488  0.00  0.00     0.327 C 
ATOM      4  N   UNL d   1      -2.999   1.556  -1.456  0.00  0.00    -0.303 N 
ATOM      5  O   UNL d   1      -2.730  -2.444   0.121  0.00  0.00    -0.267 OA
ATOM      6  O   UNL d   1      -4.944   0.510  -2.155  0.00  0.00    -0.247 OA
ATOM      7  H   UNL d   1      -4.425  -1.197  -0.763  0.00  0.00     0.173 HD
ATOM      8  H   UNL d   1      -2.213   1.450  -0.830  0.00  0.00     0.171 HD
ENDROOT
BRANCH   1   9
ATOM      9  C   UNL d   1      -1.173  -0.765  -0.315  0.00  0.00     0.091 A 
ATOM     10  C   UNL d   1      -0.404  -0.625   0.845  0.00  0.00     0.076 A 
ATOM     11  S   UNL d   1       1.175  -0.148   0.391  0.00  0.00    -0.006 SA
ATOM     12  N   UNL d   1       0.894  -0.089  -1.229  0.00  0.00    -0.319 N 
ATOM     13  C   UNL d   1      -0.360  -0.456  -1.462  0.00  0.00     0.093 A 
ATOM     14  HN  UNL d   1       1.573   0.185  -1.939  1.00  0.00     0.175 HD
BRANCH  10  15
ATOM     15  S   UNL d   1      -0.950  -0.850   2.507  0.00  0.00    -0.125 SA
ATOM     16  C   UNL d   1       0.564  -0.856   3.494  0.00  0.00     0.096 C 
ENDBRANCH  10  15
BRANCH  13  17
ATOM     17  S   UNL d   1      -0.929  -0.535  -3.131  0.00  0.00    -0.115 SA
ATOM     18  C   UNL d   1       0.407   0.296  -4.027  0.00  0.00     0.097 C 
ENDBRANCH  13  17
ENDBRANCH   1   9
BRANCH   4  19
ATOM     19  C   UNL d   1      -2.902   2.664  -2.338  0.00  0.00     0.114 A 
ATOM     20  C   UNL d   1      -3.878   3.120  -3.231  0.00  0.00     0.149 A 
ATOM     21  C   UNL d   1      -3.603   4.152  -4.132  0.00  0.00     0.087 A 
ATOM     22  F   UNL d   1      -5.125   2.639  -3.241  0.00  0.00    -0.203 F 
ATOM     23  C   UNL d   1      -2.347   4.740  -4.138  0.00  0.00     0.122 A 
ATOM     24  C   UNL d   1      -1.372   4.345  -3.239  0.00  0.00     0.087 A 
ATOM     25  F   UNL d   1      -2.075   5.705  -5.025  0.00  0.00    -0.206 F 
ATOM     26  C   UNL d   1      -1.666   3.325  -2.341  0.00  0.00     0.149 A 
ATOM     27  F   UNL d   1      -0.712   2.930  -1.482  0.00  0.00    -0.203 F 
ENDBRANCH   4  19
TORSDOF 4
