REMARK  5 active torsions:
REMARK  status: ('A' for Active; 'I' for Inactive)
REMARK    1  A    between atoms: N_4  and  N_1 
REMARK       I    between atoms: C_3  and  N_4 
REMARK    2  A    between atoms: O_8  and  C_3 
REMARK    3  A    between atoms: C_7  and  C_5 
REMARK    4  A    between atoms: C_9  and  C_5 
REMARK    5  A    between atoms: C_12  and  O_8 
ROOT
ATOM      1  N   UNL d   1       1.075   0.268  -0.115  0.00  0.00    -0.300 N 
ATOM      2  HN  UNL d   1       0.602   0.464   0.768  1.00  0.00     0.186 HD
ATOM      3  C   UNL d   1       2.372   0.162  -0.144  0.00  0.00     0.035 C 
ENDROOT
BRANCH   1   4
ATOM      4  N   UNL d   1       0.347   0.120  -1.249  0.00  0.00    -0.245 N 
ATOM      5  C   UNL d   1      -1.006   0.358  -1.246  0.00  0.00     0.379 C 
ATOM      6  O   UNL d   1      -1.663   0.836  -0.333  0.00  0.00    -0.237 OA
ATOM      7  H   UNL d   1       0.726  -0.359  -2.053  0.00  0.00     0.192 HD
BRANCH   5   8
ATOM      8  O   UNL d   1      -1.524  -0.059  -2.436  0.00  0.00    -0.303 OA
BRANCH   8   9
ATOM      9  C   UNL d   1      -2.955  -0.007  -2.526  0.00  0.00     0.176 C 
ATOM     10  C   UNL d   1      -3.543  -1.284  -1.953  0.00  0.00     0.034 C 
ENDBRANCH   8   9
ENDBRANCH   5   8
ENDBRANCH   1   4
BRANCH   3  11
ATOM     11  C   UNL d   1       3.102   0.244   1.173  0.00  0.00    -0.012 A 
ATOM     12  C   UNL d   1       2.350   0.396   2.349  0.00  0.00     0.013 A 
ATOM     13  C   UNL d   1       2.975   0.467   3.595  0.00  0.00     0.001 A 
ATOM     14  C   UNL d   1       4.361   0.391   3.683  0.00  0.00     0.000 A 
ATOM     15  C   UNL d   1       5.120   0.239   2.526  0.00  0.00     0.001 A 
ATOM     16  C   UNL d   1       4.497   0.163   1.276  0.00  0.00     0.013 A 
ENDBRANCH   3  11
BRANCH   3  17
ATOM     17  C   UNL d   1       3.174  -0.037  -1.427  0.00  0.00     0.055 C 
ATOM     18  C   UNL d   1       3.472  -1.505  -1.674  0.00  0.00     0.011 C 
ENDBRANCH   3  17
TORSDOF 5
