REMARK  3 active torsions:
REMARK  status: ('A' for Active; 'I' for Inactive)
REMARK    1  A    between atoms: C_2  and  C_1 
REMARK    2  A    between atoms: C_12  and  C_7 
REMARK    3  A    between atoms: O_17  and  C_8 
ROOT
ATOM      1  C   UNL d   1       1.099  -0.592   0.020  0.00  0.00     0.063 A 
ATOM      2  N   UNL d   1      -1.085   0.041   0.175  0.00  0.00    -0.299 N 
ATOM      3  HN  UNL d   1      -2.095  -0.010   0.305  1.00  0.00     0.187 HD
ATOM      4  C   UNL d   1       1.033   0.781  -0.126  0.00  0.00     0.063 A 
ATOM      5  N   UNL d   1      -0.212  -0.975   0.151  0.00  0.00    -0.299 N 
ATOM      6  C   UNL d   1      -0.338   1.138  -0.010  0.00  0.00     0.060 A 
ATOM      7  H   UNL d   1      -0.579  -1.915   0.253  0.00  0.00     0.187 HD
ENDROOT
BRANCH   1   8
ATOM      8  C   UNL d   1       2.232  -1.525   0.035  0.00  0.00     0.029 A 
ATOM      9  C   UNL d   1       3.479  -1.197   0.605  0.00  0.00     0.100 A 
ATOM     10  C   UNL d   1       4.546  -2.108   0.565  0.00  0.00     0.069 A 
ATOM     11 CL   UNL d   1       6.085  -1.722   1.249  0.00  0.00    -0.081 Cl
ATOM     12  C   UNL d   1       4.381  -3.365  -0.011  0.00  0.00     0.050 A 
ATOM     13  C   UNL d   1       3.150  -3.702  -0.561  0.00  0.00     0.036 A 
ATOM     14  C   UNL d   1       2.087  -2.795  -0.549  0.00  0.00     0.040 A 
ATOM     15 CL   UNL d   1       2.929  -5.257  -1.266  0.00  0.00    -0.084 Cl
BRANCH   9  16
ATOM     16  O   UNL d   1       3.687   0.003   1.240  0.00  0.00    -0.358 OA
ATOM     17  H   UNL d   1       2.833   0.343   1.554  0.00  0.00     0.217 HD
ENDBRANCH   9  16
ENDBRANCH   1   8
BRANCH   6  18
ATOM     18  C   UNL d   1      -0.930   2.477  -0.056  0.00  0.00    -0.008 A 
ATOM     19  C   UNL d   1      -0.268   3.535  -0.699  0.00  0.00     0.015 A 
ATOM     20  C   UNL d   1      -0.837   4.811  -0.738  0.00  0.00     0.024 A 
ATOM     21  C   UNL d   1      -2.070   5.040  -0.135  0.00  0.00     0.034 A 
ATOM     22  C   UNL d   1      -2.741   4.003   0.510  0.00  0.00     0.024 A 
ATOM     23 CL   UNL d   1      -2.771   6.610  -0.192  0.00  0.00    -0.084 Cl
ATOM     24  C   UNL d   1      -2.173   2.727   0.545  0.00  0.00     0.015 A 
ENDBRANCH   6  18
TORSDOF 3
