REMARK  6 active torsions:
REMARK  status: ('A' for Active; 'I' for Inactive)
REMARK    1  A    between atoms: N_2  and  C_1 
REMARK       I    between atoms: C_3  and  N_2 
REMARK    2  A    between atoms: C_11  and  C_3 
REMARK    3  A    between atoms: C_6  and  C_11 
REMARK    4  A    between atoms: C_13  and  C_6 
REMARK    5  A    between atoms: C_7  and  C_13 
REMARK    6  A    between atoms: O_16  and  C_7 
ROOT
ATOM      1  N   UNL d   1       6.154  -0.262   2.396  0.00  0.00    -0.313 N 
ATOM      2  C   UNL d   1       6.000  -1.286   1.481  0.00  0.00     0.224 C 
ATOM      3  O   UNL d   1       6.519  -2.400   1.523  0.00  0.00    -0.273 OA
ATOM      4  H   UNL d   1       5.695   0.627   2.216  0.00  0.00     0.170 HD
ENDROOT
BRANCH   2   5
ATOM      5  C   UNL d   1       5.114  -0.948   0.292  0.00  0.00     0.113 C 
BRANCH   5   6
ATOM      6  C   UNL d   1       3.667  -1.524   0.350  0.00  0.00    -0.023 C 
ATOM      7  C   UNL d   1       3.641  -3.055   0.634  0.00  0.00     0.010 C 
ATOM      8  C   UNL d   1       4.185  -3.916  -0.502  0.00  0.00     0.001 C 
ATOM      9  C   UNL d   1       3.442  -3.633  -1.800  0.00  0.00     0.000 C 
ATOM     10  C   UNL d   1       3.511  -2.154  -2.160  0.00  0.00     0.001 C 
ATOM     11  C   UNL d   1       2.982  -1.268  -1.025  0.00  0.00     0.010 C 
BRANCH   6  12
ATOM     12  C   UNL d   1       2.839  -0.863   1.486  0.00  0.00     0.119 C 
BRANCH  12  13
ATOM     13  C   UNL d   1       2.756   0.641   1.416  0.00  0.00     0.140 C 
ATOM     14  O   UNL d   1       3.683   1.379   1.733  0.00  0.00    -0.650 OA
BRANCH  13  15
ATOM     15  O   UNL d   1       1.578   1.107   0.955  0.00  0.00    -0.776 OA
ATOM     16  H   UNL d   1       0.918   0.416   0.746  0.00  0.00     0.167 HD
ENDBRANCH  13  15
ENDBRANCH  12  13
ENDBRANCH   6  12
ENDBRANCH   5   6
ENDBRANCH   2   5
BRANCH   1  17
ATOM     17  C   UNL d   1       6.998  -0.356   3.519  0.00  0.00     0.108 A 
ATOM     18  N   UNL d   1       7.527  -1.548   3.843  0.00  0.00    -0.351 N 
ATOM     19  C   UNL d   1       8.379  -1.619   4.886  0.00  0.00     0.102 A 
ATOM     20  HN  UNL d   1       7.288  -2.384   3.310  1.00  0.00     0.166 HD
ATOM     21  C   UNL d   1       8.755  -0.532   5.661  0.00  0.00    -0.010 A 
ATOM     22  C   UNL d   1       8.188   0.715   5.337  0.00  0.00    -0.021 A 
ATOM     23  C   UNL d   1       9.669  -0.653   6.722  0.00  0.00     0.013 A 
ATOM     24  C   UNL d   1       7.284   0.791   4.254  0.00  0.00     0.060 A 
ATOM     25  C   UNL d   1       8.566   1.834   6.103  0.00  0.00     0.012 A 
ATOM     26  C   UNL d   1       9.482   1.708   7.155  0.00  0.00     0.001 A 
ATOM     27  C   UNL d   1      10.033   0.467   7.464  0.00  0.00     0.001 A 
ENDBRANCH   1  17
TORSDOF 6
