REMARK  4 active torsions:
REMARK  status: ('A' for Active; 'I' for Inactive)
REMARK    1  A    between atoms: N_2  and  C_1 
REMARK    2  A    between atoms: S_9  and  C_3 
REMARK    3  A    between atoms: N_7  and  C_5 
REMARK    4  A    between atoms: C_10  and  S_9 
ROOT
ATOM      1  C   UNL d   1       1.762  -1.219  -0.041  0.00  0.00     0.121 A 
ATOM      2  C   UNL d   1       2.451  -0.006  -0.124  0.00  0.00     0.041 A 
ATOM      3  C   UNL d   1       0.361  -1.279   0.023  0.00  0.00     0.063 A 
ATOM      4  C   UNL d   1       0.260   1.139  -0.053  0.00  0.00     0.061 A 
ATOM      5  C   UNL d   1       1.674   1.165  -0.105  0.00  0.00     0.053 A 
ATOM      6  C   UNL d   1      -0.395  -0.101   0.006  0.00  0.00     0.063 A 
ATOM      7 CL   UNL d   1      -2.107  -0.323  -0.072  0.00  0.00    -0.082 Cl
ENDROOT
BRANCH   2   8
ATOM      8  S   UNL d   1       4.225   0.196  -0.035  0.00  0.00    -0.086 SA
BRANCH   8   9
ATOM      9  C   UNL d   1       4.800   0.001  -1.725  0.00  0.00     0.027 A 
ATOM     10  C   UNL d   1       4.530   0.880  -2.791  0.00  0.00     0.054 A 
ATOM     11  C   UNL d   1       5.111   0.680  -4.048  0.00  0.00     0.067 A 
ATOM     12 CL   UNL d   1       3.541   2.288  -2.633  0.00  0.00    -0.083 Cl
ATOM     13  C   UNL d   1       5.987  -0.378  -4.242  0.00  0.00     0.118 A 
ATOM     14  C   UNL d   1       6.291  -1.246  -3.206  0.00  0.00     0.044 A 
ATOM     15  F   UNL d   1       6.560  -0.548  -5.440  0.00  0.00    -0.206 F 
ATOM     16  C   UNL d   1       5.700  -1.058  -1.953  0.00  0.00     0.024 A 
ENDBRANCH   8   9
ENDBRANCH   2   8
BRANCH   1  17
ATOM     17  N   UNL d   1       2.468  -2.482   0.025  0.00  0.00    -0.114 N 
ATOM     18  O   UNL d   1       3.124  -2.817  -0.969  0.00  0.00    -0.532 OA
ATOM     19  O   UNL d   1       2.309  -3.158   1.047  0.00  0.00    -0.532 OA
ENDBRANCH   1  17
BRANCH   4  20
ATOM     20  N   UNL d   1      -0.422   2.393  -0.054  0.00  0.00    -0.331 N 
ATOM     21  C   UNL d   1      -1.596   2.718   0.595  0.00  0.00     0.096 A 
ATOM     22  C   UNL d   1      -1.921   4.030   0.325  0.00  0.00     0.019 A 
ATOM     23  C   UNL d   1      -0.898   4.554  -0.489  0.00  0.00     0.019 A 
ATOM     24  C   UNL d   1       0.021   3.546  -0.682  0.00  0.00     0.096 A 
ENDBRANCH   4  20
TORSDOF 4
