REMARK  4 active torsions:
REMARK  status: ('A' for Active; 'I' for Inactive)
REMARK    1  A    between atoms: C_9  and  N_1 
REMARK    2  A    between atoms: C_7  and  C_2 
REMARK    3  A    between atoms: N_10  and  C_8 
REMARK    4  A    between atoms: C_16  and  C_11 
ROOT
ATOM      1  N   UNL d   1      -0.092  -1.330  -0.015  0.00  0.00    -0.225 N 
ATOM      2  C   UNL d   1       1.127  -0.701   0.233  0.00  0.00     0.139 C 
ATOM      3  N   UNL d   1      -0.387   0.781  -0.164  0.00  0.00    -0.007 NA
ATOM      4  N   UNL d   1      -0.987  -0.376  -0.374  0.00  0.00     0.001 NA
ATOM      5  N   UNL d   1       0.914   0.603   0.218  0.00  0.00    -0.270 N 
ATOM      6  HN  UNL d   1       1.588   1.333   0.447  1.00  0.00     0.185 HD
ENDROOT
BRANCH   1   7
ATOM      7  C   UNL d   1      -0.464  -2.694   0.047  0.00  0.00     0.056 A 
ATOM      8  C   UNL d   1       0.188  -3.584   0.905  0.00  0.00     0.032 A 
ATOM      9  C   UNL d   1      -0.120  -4.947   0.863  0.00  0.00     0.014 A 
ATOM     10  C   UNL d   1      -1.084  -5.459  -0.024  0.00  0.00    -0.026 A 
ATOM     11  C   UNL d   1      -1.788  -4.529  -0.812  0.00  0.00     0.014 A 
ATOM     12  C   UNL d   1      -1.495  -3.161  -0.772  0.00  0.00     0.032 A 
BRANCH  10  13
ATOM     13  C   UNL d   1      -1.318  -6.917  -0.153  0.00  0.00    -0.026 A 
ATOM     14  C   UNL d   1      -1.653  -7.492  -1.394  0.00  0.00     0.012 A 
ATOM     15  C   UNL d   1      -1.838  -8.870  -1.538  0.00  0.00     0.001 A 
ATOM     16  C   UNL d   1      -1.677  -9.711  -0.444  0.00  0.00     0.000 A 
ATOM     17  C   UNL d   1      -1.344  -9.174   0.795  0.00  0.00     0.001 A 
ATOM     18  C   UNL d   1      -1.175  -7.793   0.939  0.00  0.00     0.012 A 
ENDBRANCH  10  13
ENDBRANCH   1   7
BRANCH   2  19
ATOM     19  C   UNL d   1       2.348  -1.420   0.319  0.00  0.00     0.068 C 
ATOM     20  C   UNL d   1       3.404  -0.901   0.956  0.00  0.00     0.089 C 
BRANCH  20  21
ATOM     21  N   UNL d   1       4.690  -1.417   1.127  0.00  0.00    -0.390 N 
ATOM     22  C   UNL d   1       5.652  -0.702   1.979  0.00  0.00     0.122 C 
ATOM     23  C   UNL d   1       6.519   0.227   1.133  0.00  0.00     0.020 C 
ATOM     24  C   UNL d   1       7.671  -0.484   0.428  0.00  0.00     0.002 C 
ATOM     25  C   UNL d   1       7.253  -1.636  -0.484  0.00  0.00     0.002 C 
ATOM     26  C   UNL d   1       6.635  -2.810   0.275  0.00  0.00     0.020 C 
ATOM     27  C   UNL d   1       5.128  -2.680   0.515  0.00  0.00     0.122 C 
ENDBRANCH  20  21
ENDBRANCH   2  19
TORSDOF 4
