REMARK  2 active torsions:
REMARK  status: ('A' for Active; 'I' for Inactive)
REMARK    1  A    between atoms: C_7  and  C_3 
REMARK    2  A    between atoms: C_12  and  C_4 
ROOT
ATOM      1  N   UNL d   1       1.285  -0.596   0.490  0.00  0.00    -0.349 N 
ATOM      2  HN  UNL d   1       2.073  -1.079   0.921  1.00  0.00     0.166 HD
ATOM      3  C   UNL d   1       0.227  -1.193  -0.025  0.00  0.00     0.085 A 
ATOM      4  C   UNL d   1       1.178   0.782   0.361  0.00  0.00     0.050 A 
ATOM      5  S   UNL d   1      -0.967  -0.119  -0.659  0.00  0.00    -0.081 SA
ATOM      6  C   UNL d   1       0.021   1.215  -0.255  0.00  0.00     0.082 A 
ENDROOT
BRANCH   3   7
ATOM      7  C   UNL d   1       0.014  -2.651  -0.049  0.00  0.00     0.001 A 
ATOM      8  C   UNL d   1       0.528  -3.442   0.992  0.00  0.00     0.054 A 
ATOM      9  C   UNL d   1       0.343  -4.826   0.991  0.00  0.00     0.103 A 
ATOM     10  O   UNL d   1       0.879  -5.523   2.044  0.00  0.00    -0.346 OA
ATOM     11  C   UNL d   1      -0.370  -5.439  -0.043  0.00  0.00     0.102 A 
ATOM     12  C   UNL d   1       0.937  -6.927   1.766  0.00  0.00     0.202 C 
ATOM     13  C   UNL d   1      -0.372  -7.414   1.165  0.00  0.00     0.202 C 
ATOM     14  O   UNL d   1      -0.614  -6.786  -0.098  0.00  0.00    -0.346 OA
ATOM     15  C   UNL d   1      -0.864  -4.674  -1.094  0.00  0.00     0.040 A 
ATOM     16  C   UNL d   1      -0.673  -3.289  -1.097  0.00  0.00     0.017 A 
ENDBRANCH   3   7
BRANCH   4  17
ATOM     17  C   UNL d   1       2.241   1.681   0.799  0.00  0.00    -0.009 A 
ATOM     18  C   UNL d   1       3.572   1.242   0.780  0.00  0.00     0.014 A 
ATOM     19  C   UNL d   1       4.610   2.104   1.146  0.00  0.00     0.001 A 
ATOM     20  C   UNL d   1       4.327   3.409   1.547  0.00  0.00     0.000 A 
ATOM     21  C   UNL d   1       3.006   3.850   1.593  0.00  0.00     0.001 A 
ATOM     22  C   UNL d   1       1.969   2.990   1.224  0.00  0.00     0.014 A 
ENDBRANCH   4  17
TORSDOF 2
