REMARK  3 active torsions:
REMARK  status: ('A' for Active; 'I' for Inactive)
REMARK    1  A    between atoms: C_4  and  C_1 
REMARK    2  A    between atoms: O_11  and  C_3 
REMARK    3  A    between atoms: O_12  and  C_6 
ROOT
ATOM      1  C   UNL d   1       0.301   1.264  -0.044  0.00  0.00     0.021 A 
ATOM      2  C   UNL d   1      -0.430   0.051   0.006  0.00  0.00     0.081 A 
ATOM      3  C   UNL d   1       0.249  -1.191   0.029  0.00  0.00     0.124 A 
ATOM      4  C   UNL d   1       1.705   1.214  -0.002  0.00  0.00     0.017 A 
ATOM      5  C   UNL d   1       1.671  -1.195   0.034  0.00  0.00     0.103 A 
ATOM      6  C   UNL d   1       2.384   0.002   0.030  0.00  0.00     0.040 A 
ATOM      7 CL   UNL d   1      -2.164   0.179   0.064  0.00  0.00    -0.081 Cl
ENDROOT
BRANCH   1   8
ATOM      8  C   UNL d   1      -0.368   2.628  -0.089  0.00  0.00     0.295 C 
ATOM      9  O   UNL d   1      -0.542   3.061   1.259  0.00  0.00    -0.357 OA
ATOM     10  C   UNL d   1      -1.169   4.337   1.311  0.00  0.00     0.173 C 
ATOM     11  C   UNL d   1      -0.339   5.353   0.547  0.00  0.00     0.053 C 
ATOM     12  C   UNL d   1      -0.103   4.841  -0.862  0.00  0.00     0.173 C 
ATOM     13  O   UNL d   1       0.464   3.538  -0.821  0.00  0.00    -0.357 OA
ENDBRANCH   1   8
BRANCH   3  14
ATOM     14  O   UNL d   1      -0.262  -2.465   0.050  0.00  0.00    -0.351 OA
ATOM     15  C   UNL d   1      -1.646  -2.741   0.027  0.00  0.00     0.210 C 
ENDBRANCH   3  14
BRANCH   5  16
ATOM     16  O   UNL d   1       2.275  -2.435   0.048  0.00  0.00    -0.353 OA
ATOM     17  C   UNL d   1       3.695  -2.479   0.044  0.00  0.00     0.210 C 
ENDBRANCH   5  16
TORSDOF 3
