REMARK  3 active torsions:
REMARK  status: ('A' for Active; 'I' for Inactive)
REMARK    1  A    between atoms: S_8  and  C_3 
REMARK    2  A    between atoms: C_9  and  C_4 
REMARK    3  A    between atoms: C_10  and  S_8 
ROOT
ATOM      1  N   UNL d   1       1.439  -0.590  -0.121  0.00  0.00    -0.329 N 
ATOM      2  HN  UNL d   1       2.384  -0.963  -0.208  1.00  0.00     0.168 HD
ATOM      3  C   UNL d   1       0.337  -1.304  -0.053  0.00  0.00     0.135 A 
ATOM      4  C   UNL d   1       1.100   0.769  -0.054  0.00  0.00     0.123 A 
ATOM      5  N   UNL d   1      -0.197   1.094   0.052  0.00  0.00    -0.310 N 
ATOM      6  HN  UNL d   1      -0.582   2.037   0.101  1.00  0.00     0.176 HD
ATOM      7  S   UNL d   1      -1.061  -0.329   0.088  0.00  0.00     0.013 SA
ENDROOT
BRANCH   3   8
ATOM      8  S   UNL d   1       0.313  -3.046   0.016  0.00  0.00    -0.064 SA
BRANCH   8   9
ATOM      9  C   UNL d   1       0.926  -3.436  -1.612  0.00  0.00     0.007 A 
ATOM     10  C   UNL d   1       2.231  -3.118  -2.004  0.00  0.00     0.021 A 
ATOM     11  C   UNL d   1       2.716  -3.519  -3.254  0.00  0.00     0.025 A 
ATOM     12  C   UNL d   1       1.897  -4.250  -4.111  0.00  0.00     0.034 A 
ATOM     13  C   UNL d   1       0.597  -4.576  -3.735  0.00  0.00     0.025 A 
ATOM     14 CL   UNL d   1       2.502  -4.772  -5.635  0.00  0.00    -0.084 Cl
ATOM     15  C   UNL d   1       0.113  -4.171  -2.486  0.00  0.00     0.021 A 
ENDBRANCH   8   9
ENDBRANCH   3   8
BRANCH   4  16
ATOM     16  C   UNL d   1       2.153   1.793  -0.090  0.00  0.00     0.009 A 
ATOM     17  C   UNL d   1       3.499   1.424  -0.237  0.00  0.00     0.015 A 
ATOM     18  C   UNL d   1       4.505   2.395  -0.276  0.00  0.00     0.001 A 
ATOM     19  C   UNL d   1       4.179   3.745  -0.168  0.00  0.00     0.000 A 
ATOM     20  C   UNL d   1       2.848   4.127  -0.017  0.00  0.00     0.001 A 
ATOM     21  C   UNL d   1       1.842   3.158   0.022  0.00  0.00     0.015 A 
ENDBRANCH   4  16
TORSDOF 3
