REMARK  8 active torsions:
REMARK  status: ('A' for Active; 'I' for Inactive)
REMARK    1  A    between atoms: N_7  and  C_1 
REMARK       I    between atoms: C_9  and  N_7 
REMARK    2  A    between atoms: C_15  and  C_9 
REMARK    3  A    between atoms: C_17  and  C_15 
REMARK    4  A    between atoms: C_21  and  C_17 
REMARK    5  A    between atoms: C_18  and  C_19 
REMARK    6  A    between atoms: C_19  and  C_20 
REMARK    7  A    between atoms: C_20  and  C_22 
REMARK    8  A    between atoms: C_22  and  C_21 
ROOT
ATOM      1  C   UNL d   1      -4.380  -0.745  -1.018  0.00  0.00     0.152 A 
ATOM      2  C   UNL d   1      -2.498  -1.841  -0.795  0.00  0.00     0.058 A 
ATOM      3  N   UNL d   1      -3.208  -0.709  -0.431  0.00  0.00    -0.335 N 
ATOM      4  HN  UNL d   1      -2.875   0.029   0.189  1.00  0.00     0.168 HD
ATOM      5  C   UNL d   1      -3.184  -2.732  -1.596  0.00  0.00     0.014 A 
ATOM      6  S   UNL d   1      -4.709  -2.112  -2.002  0.00  0.00    -0.056 SA
ATOM      7  C   UNL d   1      -1.129  -2.167  -0.404  0.00  0.00    -0.002 A 
ATOM      8  C   UNL d   1      -2.659  -4.051  -2.042  0.00  0.00     0.053 C 
ATOM      9  C   UNL d   1      -0.467  -3.233  -1.070  0.00  0.00    -0.045 A 
ATOM     10  C   UNL d   1      -1.140  -3.943  -2.232  0.00  0.00     0.044 C 
ATOM     11  C   UNL d   1      -0.469  -1.475   0.612  0.00  0.00     0.014 A 
ATOM     12  C   UNL d   1       0.838  -3.584  -0.702  0.00  0.00     0.008 A 
ATOM     13  C   UNL d   1       0.831  -1.848   0.982  0.00  0.00     0.001 A 
ATOM     14  C   UNL d   1       1.477  -2.900   0.331  0.00  0.00     0.001 A 
ENDROOT
BRANCH   1  15
ATOM     15  N   UNL d   1      -5.434   0.126  -0.991  0.00  0.00    -0.307 N 
ATOM     16  C   UNL d   1      -5.538   1.180  -0.115  0.00  0.00     0.223 C 
ATOM     17  O   UNL d   1      -4.714   1.520   0.725  0.00  0.00    -0.273 OA
ATOM     18  H   UNL d   1      -6.198  -0.106  -1.605  0.00  0.00     0.171 HD
BRANCH  16  19
ATOM     19  C   UNL d   1      -6.840   1.961  -0.285  0.00  0.00     0.103 C 
BRANCH  19  20
ATOM     20  C   UNL d   1      -8.087   1.091  -0.111  0.00  0.00     0.009 C 
BRANCH  20  21
ATOM     21  C   UNL d   1      -9.387   1.895  -0.206  0.00  0.00     0.000 C 
BRANCH  21  22
ATOM     22  C   UNL d   1     -10.602   0.972  -0.065  0.00  0.00     0.000 C 
BRANCH  22  23
ATOM     23  C   UNL d   1     -11.922   1.737  -0.168  0.00  0.00     0.000 C 
BRANCH  23  24
ATOM     24  C   UNL d   1     -13.121   0.794  -0.026  0.00  0.00    -0.000 C 
BRANCH  24  25
ATOM     25  C   UNL d   1     -14.443   1.554  -0.129  0.00  0.00    -0.005 C 
ATOM     26  C   UNL d   1     -15.637   0.624   0.012  0.00  0.00     0.005 C 
ENDBRANCH  24  25
ENDBRANCH  23  24
ENDBRANCH  22  23
ENDBRANCH  21  22
ENDBRANCH  20  21
ENDBRANCH  19  20
ENDBRANCH  16  19
ENDBRANCH   1  15
TORSDOF 8
