REMARK  2 active torsions:
REMARK  status: ('A' for Active; 'I' for Inactive)
REMARK    1  A    between atoms: C_10  and  N_1 
REMARK    2  A    between atoms: C_12  and  N_6 
ROOT
ATOM      1  N   UNL d   1      -0.400  -0.882  -0.235  0.00  0.00    -0.261 N 
ATOM      2  C   UNL d   1      -1.645  -0.534   0.274  0.00  0.00     0.155 C 
ATOM      3  C   UNL d   1      -0.933   1.089  -1.465  0.00  0.00     0.097 A 
ATOM      4  C   UNL d   1      -0.018  -0.082  -1.308  0.00  0.00     0.249 C 
ATOM      5  S   UNL d   1      -1.911   1.185  -0.046  0.00  0.00    -0.073 SA
ATOM      6  N   UNL d   1      -2.481  -1.333   0.857  0.00  0.00    -0.336 N 
ATOM      7  HN  UNL d   1      -2.189  -2.293   1.040  1.00  0.00     0.168 HD
ATOM      8  C   UNL d   1      -1.582   1.372  -2.801  0.00  0.00     0.033 A 
ATOM      9  C   UNL d   1      -0.538   2.305  -2.255  0.00  0.00     0.033 A 
ATOM     10  O   UNL d   1       0.874  -0.270  -2.129  0.00  0.00    -0.271 OA
ENDROOT
BRANCH   1  11
ATOM     11  C   UNL d   1       0.442  -1.946   0.252  0.00  0.00     0.044 A 
ATOM     12  C   UNL d   1       1.822  -1.940  -0.035  0.00  0.00     0.031 A 
ATOM     13  C   UNL d   1       2.707  -2.875   0.515  0.00  0.00     0.009 A 
ATOM     14  C   UNL d   1       2.238  -3.867   1.372  0.00  0.00    -0.062 A 
ATOM     15  C   UNL d   1       0.875  -3.905   1.661  0.00  0.00     0.009 A 
ATOM     16  C   UNL d   1       3.208  -4.822   2.002  0.00  0.00     0.048 C 
ATOM     17  C   UNL d   1      -0.009  -2.954   1.113  0.00  0.00     0.031 A 
ENDBRANCH   1  11
BRANCH   6  18
ATOM     18  C   UNL d   1      -3.776  -0.938   1.251  0.00  0.00     0.034 A 
ATOM     19  C   UNL d   1      -4.676  -0.284   0.398  0.00  0.00     0.030 A 
ATOM     20  C   UNL d   1      -5.936   0.126   0.846  0.00  0.00     0.009 A 
ATOM     21  C   UNL d   1      -6.364  -0.194   2.136  0.00  0.00    -0.062 A 
ATOM     22  C   UNL d   1      -5.506  -0.923   2.967  0.00  0.00     0.009 A 
ATOM     23  C   UNL d   1      -7.703   0.279   2.618  0.00  0.00     0.048 C 
ATOM     24  C   UNL d   1      -4.226  -1.289   2.525  0.00  0.00     0.030 A 
ENDBRANCH   6  18
TORSDOF 2
