REMARK  8 active torsions:
REMARK  status: ('A' for Active; 'I' for Inactive)
REMARK    1  A    between atoms: O_2  and  C_1 
REMARK    2  A    between atoms: C_5  and  C_1 
REMARK    3  A    between atoms: C_3  and  O_2 
REMARK    4  A    between atoms: C_4  and  C_16 
REMARK       I    between atoms: N_7  and  C_4 
REMARK    5  A    between atoms: C_6  and  C_11 
REMARK    6  A    between atoms: C_11  and  N_7 
REMARK    7  A    between atoms: O_10  and  C_8 
REMARK    8  A    between atoms: C_16  and  O_10 
ROOT
ATOM      1  C   UNL d   1      -0.888   1.141   0.265  0.00  0.00     0.112 A 
ATOM      2  C   UNL d   1      -1.523   0.169   1.055  0.00  0.00     0.103 A 
ATOM      3  C   UNL d   1      -1.605   2.241  -0.228  0.00  0.00     0.040 A 
ATOM      4  C   UNL d   1      -2.912   0.255   1.225  0.00  0.00     0.040 A 
ATOM      5  C   UNL d   1      -2.977   2.344   0.005  0.00  0.00     0.003 A 
ATOM      6  C   UNL d   1      -3.632   1.339   0.711  0.00  0.00     0.003 A 
ENDROOT
BRANCH   2   7
ATOM      7  O   UNL d   1      -0.753  -0.813   1.615  0.00  0.00    -0.339 OA
BRANCH   7   8
ATOM      8  C   UNL d   1      -1.237  -1.447   2.791  0.00  0.00     0.278 C 
BRANCH   8   9
ATOM      9  C   UNL d   1      -1.804  -2.854   2.590  0.00  0.00     0.242 C 
ATOM     10  N   UNL d   1      -1.203  -3.582   1.584  0.00  0.00    -0.355 N 
ATOM     11  H   UNL d   1      -0.590  -3.087   0.942  0.00  0.00     0.162 HD
ATOM     12  O   UNL d   1      -2.674  -3.316   3.334  0.00  0.00    -0.271 OA
BRANCH  10  13
ATOM     13  C   UNL d   1      -1.558  -4.955   1.298  0.00  0.00     0.162 C 
BRANCH  13  14
ATOM     14  C   UNL d   1      -0.367  -5.873   1.437  0.00  0.00    -0.019 A 
ATOM     15  C   UNL d   1       0.523  -6.135   0.384  0.00  0.00     0.042 A 
ATOM     16 CL   UNL d   1       0.324  -5.426  -1.179  0.00  0.00    -0.084 Cl
ATOM     17  C   UNL d   1       1.615  -6.991   0.569  0.00  0.00     0.024 A 
ATOM     18  C   UNL d   1       1.839  -7.590   1.808  0.00  0.00     0.002 A 
ATOM     19  C   UNL d   1       0.972  -7.333   2.865  0.00  0.00     0.001 A 
ATOM     20  C   UNL d   1      -0.119  -6.479   2.683  0.00  0.00     0.010 A 
ENDBRANCH  13  14
ENDBRANCH  10  13
ENDBRANCH   8   9
ENDBRANCH   7   8
ENDBRANCH   2   7
BRANCH   1  21
ATOM     21  O   UNL d   1       0.494   1.163  -0.043  0.00  0.00    -0.272 OA
BRANCH  21  22
ATOM     22  C   UNL d   1       1.097   0.041  -0.589  0.00  0.00     0.298 C 
ATOM     23  O   UNL d   1       0.642  -1.089  -0.654  0.00  0.00    -0.259 OA
BRANCH  22  24
ATOM     24  C   UNL d   1       2.413   0.386  -1.214  0.00  0.00     0.040 A 
ATOM     25  C   UNL d   1       3.193  -0.675  -1.710  0.00  0.00     0.019 A 
ATOM     26  C   UNL d   1       4.364  -0.425  -2.434  0.00  0.00     0.025 A 
ATOM     27  C   UNL d   1       4.764   0.888  -2.664  0.00  0.00     0.034 A 
ATOM     28  C   UNL d   1       4.021   1.950  -2.152  0.00  0.00     0.025 A 
ATOM     29 CL   UNL d   1       6.169   1.197  -3.609  0.00  0.00    -0.084 Cl
ATOM     30  C   UNL d   1       2.845   1.703  -1.423  0.00  0.00     0.019 A 
ENDBRANCH  22  24
ENDBRANCH  21  22
ENDBRANCH   1  21
TORSDOF 8
