REMARK  2 active torsions:
REMARK  status: ('A' for Active; 'I' for Inactive)
REMARK    1  A    between atoms: C_5  and  N_1 
REMARK    2  A    between atoms: C_13  and  C_8 
ROOT
ATOM      1  N   UNL d   1       2.467  -0.623   0.260  0.00  0.00    -0.254 N 
ATOM      2  C   UNL d   1       2.457   0.772   0.130  0.00  0.00     0.186 A 
ATOM      3  C   UNL d   1       1.304  -1.404   0.372  0.00  0.00     0.267 A 
ATOM      4  C   UNL d   1       0.015  -0.694   0.292  0.00  0.00     0.060 A 
ATOM      5  N   UNL d   1       1.225   1.380   0.134  0.00  0.00    -0.332 N 
ATOM      6  C   UNL d   1       0.016   0.687   0.167  0.00  0.00     0.050 A 
ATOM      7  S   UNL d   1       3.781   1.794  -0.050  0.00  0.00    -0.040 SA
ATOM      8  O   UNL d   1       1.282  -2.629   0.499  0.00  0.00    -0.267 OA
ATOM      9  C   UNL d   1      -1.192  -1.405   0.279  0.00  0.00     0.026 A 
ATOM     10  C   UNL d   1      -1.188   1.378   0.037  0.00  0.00     0.031 A 
ATOM     11  C   UNL d   1      -2.406  -0.725   0.127  0.00  0.00    -0.061 A 
ATOM     12  C   UNL d   1      -2.394   0.671   0.010  0.00  0.00     0.009 A 
ATOM     13  C   UNL d   1      -3.702  -1.479   0.054  0.00  0.00     0.048 C 
ATOM     14  H   UNL d   1       1.222   2.388   0.021  0.00  0.00     0.168 HD
ENDROOT
BRANCH   1  15
ATOM     15  C   UNL d   1       3.668  -1.360   0.012  0.00  0.00     0.051 A 
ATOM     16  C   UNL d   1       4.586  -1.696   1.030  0.00  0.00    -0.027 A 
ATOM     17  C   UNL d   1       5.692  -2.492   0.669  0.00  0.00     0.010 A 
ATOM     18  C   UNL d   1       5.888  -2.923  -0.646  0.00  0.00     0.001 A 
ATOM     19  C   UNL d   1       4.978  -2.579  -1.637  0.00  0.00     0.002 A 
ATOM     20  C   UNL d   1       3.870  -1.805  -1.308  0.00  0.00     0.031 A 
BRANCH  16  21
ATOM     21  C   UNL d   1       4.382  -1.285   2.483  0.00  0.00     0.013 C 
ATOM     22  C   UNL d   1       3.674  -2.398   3.260  0.00  0.00     0.015 C 
ATOM     23  C   UNL d   1       5.683  -0.895   3.200  0.00  0.00     0.015 C 
ENDBRANCH  16  21
ENDBRANCH   1  15
TORSDOF 2
