REMARK  4 active torsions:
REMARK  status: ('A' for Active; 'I' for Inactive)
REMARK    1  A    between atoms: N_11  and  N_1 
REMARK    2  A    between atoms: C_6  and  C_16 
REMARK    3  A    between atoms: C_20  and  N_9 
REMARK    4  A    between atoms: C_19  and  C_10 
ROOT
ATOM      1  N   UNL d   1       4.616  -5.167  -0.624  0.00  0.00    -0.292 N 
ATOM      2  HN  UNL d   1       5.075  -5.927  -1.126  1.00  0.00     0.187 HD
ATOM      3  C   UNL d   1       3.135  -3.550  -0.010  0.00  0.00     0.027 A 
ATOM      4  N   UNL d   1       5.130  -4.433   0.393  0.00  0.00    -0.266 N 
ATOM      5  C   UNL d   1       3.380  -4.689  -0.836  0.00  0.00     0.072 A 
ATOM      6  C   UNL d   1       4.257  -3.444   0.783  0.00  0.00     0.132 A 
ENDROOT
BRANCH   3   7
ATOM      7  C   UNL d   1       1.998  -2.658   0.061  0.00  0.00     0.123 C 
ATOM      8  N   UNL d   1       1.260  -2.534  -0.986  0.00  0.00    -0.300 N 
ATOM      9  HN  UNL d   1       1.529  -3.001  -1.853  1.00  0.00     0.186 HD
BRANCH   8  10
ATOM     10  N   UNL d   1       0.124  -1.785  -0.946  0.00  0.00    -0.210 N 
ATOM     11  C   UNL d   1      -0.431  -1.173  -2.048  0.00  0.00     0.161 A 
ATOM     12  N   UNL d   1      -1.588  -0.609  -1.803  0.00  0.00    -0.281 N 
ATOM     13  C   UNL d   1       0.195  -1.152  -3.351  0.00  0.00     0.052 A 
ATOM     14  N   UNL d   1      -1.844  -0.887  -0.489  0.00  0.00    -0.273 N 
ATOM     15  HN  UNL d   1      -2.170  -0.079  -2.451  1.00  0.00     0.188 HD
ATOM     16  C   UNL d   1      -0.831  -1.675   0.052  0.00  0.00     0.214 A 
ATOM     17  H   UNL d   1      -2.735  -0.662  -0.061  0.00  0.00     0.189 HD
ATOM     18  S   UNL d   1      -0.935  -2.335   1.572  0.00  0.00    -0.037 SA
ATOM     19  S   UNL d   1      -0.016   0.224  -4.357  0.00  0.00    -0.098 SA
ATOM     20  C   UNL d   1       0.968  -2.110  -3.985  0.00  0.00     0.023 A 
ATOM     21  C   UNL d   1       0.933  -0.451  -5.607  0.00  0.00     0.050 A 
ATOM     22  C   UNL d   1       1.389  -1.708  -5.287  0.00  0.00     0.009 A 
ENDBRANCH   8  10
ENDBRANCH   3   7
BRANCH   5  23
ATOM     23  C   UNL d   1       2.481  -5.351  -1.792  0.00  0.00    -0.007 A 
ATOM     24  C   UNL d   1       1.101  -5.433  -1.544  0.00  0.00     0.015 A 
ATOM     25  C   UNL d   1       0.233  -6.003  -2.478  0.00  0.00     0.024 A 
ATOM     26  C   UNL d   1       0.747  -6.553  -3.647  0.00  0.00     0.034 A 
ATOM     27  C   UNL d   1       2.119  -6.533  -3.890  0.00  0.00     0.024 A 
ATOM     28 CL   UNL d   1      -0.320  -7.265  -4.793  0.00  0.00    -0.084 Cl
ATOM     29  C   UNL d   1       2.983  -5.931  -2.966  0.00  0.00     0.015 A 
ENDBRANCH   5  23
BRANCH   4  30
ATOM     30  C   UNL d   1       6.410  -4.732   0.941  0.00  0.00     0.056 A 
ATOM     31  C   UNL d   1       6.910  -4.034   2.050  0.00  0.00     0.031 A 
ATOM     32  C   UNL d   1       8.157  -4.369   2.587  0.00  0.00     0.002 A 
ATOM     33  C   UNL d   1       8.913  -5.394   2.021  0.00  0.00     0.000 A 
ATOM     34  C   UNL d   1       8.428  -6.086   0.914  0.00  0.00     0.002 A 
ATOM     35  C   UNL d   1       7.181  -5.760   0.374  0.00  0.00     0.031 A 
ENDBRANCH   4  30
TORSDOF 4
