REMARK  4 active torsions:
REMARK  status: ('A' for Active; 'I' for Inactive)
REMARK    1  A    between atoms: C_4  and  N_1 
REMARK    2  A    between atoms: S_8  and  C_5 
REMARK    3  A    between atoms: C_9  and  S_8 
REMARK    4  A    between atoms: N_15  and  C_13 
ROOT
ATOM      1  N   UNL d   1       0.059   0.865   0.043  0.00  0.00    -0.251 N 
ATOM      2  C   UNL d   1      -1.094   0.132   0.161  0.00  0.00     0.232 C 
ATOM      3  C   UNL d   1       1.163   0.074  -0.166  0.00  0.00     0.245 C 
ATOM      4  C   UNL d   1       0.728  -1.379  -0.191  0.00  0.00     0.154 C 
ATOM      5  C   UNL d   1      -0.745  -1.325   0.186  0.00  0.00     0.129 C 
ATOM      6  O   UNL d   1      -2.246   0.546   0.246  0.00  0.00    -0.273 OA
ATOM      7  O   UNL d   1       2.324   0.446  -0.294  0.00  0.00    -0.271 OA
ENDROOT
BRANCH   4   8
ATOM      8  S   UNL d   1       1.060  -2.029  -1.876  0.00  0.00    -0.113 SA
BRANCH   8   9
ATOM      9  C   UNL d   1       0.551  -3.744  -1.716  0.00  0.00     0.022 A 
ATOM     10  C   UNL d   1      -0.449  -4.256  -2.574  0.00  0.00     0.022 A 
ATOM     11  C   UNL d   1      -0.863  -5.583  -2.420  0.00  0.00     0.024 A 
ATOM     12  C   UNL d   1      -0.216  -6.435  -1.527  0.00  0.00     0.002 A 
ATOM     13  C   UNL d   1       0.828  -5.950  -0.739  0.00  0.00     0.001 A 
ATOM     14  C   UNL d   1       1.204  -4.607  -0.825  0.00  0.00     0.020 A 
BRANCH  10  15
ATOM     15  N   UNL d   1      -1.180  -3.408  -3.431  0.00  0.00    -0.302 NA
ATOM     16  H   UNL d   1      -0.607  -2.621  -3.735  0.00  0.00     0.124 HD
ATOM     17  H   UNL d   1      -1.605  -3.894  -4.215  0.00  0.00     0.124 HD
ENDBRANCH  10  15
ENDBRANCH   8   9
ENDBRANCH   4   8
BRANCH   1  18
ATOM     18  C   UNL d   1       0.079   2.280  -0.029  0.00  0.00     0.052 A 
ATOM     19  C   UNL d   1      -0.478   3.096   0.984  0.00  0.00    -0.013 A 
ATOM     20  C   UNL d   1      -0.496   4.493   0.782  0.00  0.00     0.042 A 
ATOM     21  C   UNL d   1      -0.977   2.532   2.290  0.00  0.00     0.052 C 
ATOM     22 CL   UNL d   1      -1.149   5.575   1.967  0.00  0.00    -0.084 Cl
ATOM     23  C   UNL d   1       0.030   5.067  -0.378  0.00  0.00     0.024 A 
ATOM     24  C   UNL d   1       0.605   4.259  -1.352  0.00  0.00     0.004 A 
ATOM     25  C   UNL d   1       0.642   2.877  -1.171  0.00  0.00     0.031 A 
ENDBRANCH   1  18
TORSDOF 4
