REMARK  3 active torsions:
REMARK  status: ('A' for Active; 'I' for Inactive)
REMARK    1  A    between atoms: C_10  and  N_5 
REMARK    2  A    between atoms: C_11  and  C_10 
REMARK    3  A    between atoms: C_13  and  C_11 
ROOT
ATOM      1  N   UNL d   1       0.618   0.341  -0.015  0.00  0.00    -0.251 N 
ATOM      2  C   UNL d   1       1.214  -0.884   0.169  0.00  0.00     0.174 A 
ATOM      3  C   UNL d   1       1.383   1.467  -0.228  0.00  0.00     0.324 C 
ATOM      4  C   UNL d   1       2.884   1.206  -0.411  0.00  0.00     0.331 C 
ATOM      5  N   UNL d   1       3.324  -0.076  -0.093  0.00  0.00    -0.243 N 
ATOM      6  N   UNL d   1       2.479  -1.128   0.163  0.00  0.00    -0.274 N 
ATOM      7  HN  UNL d   1       2.839  -2.066   0.341  1.00  0.00     0.189 HD
ATOM      8  S   UNL d   1       0.026  -2.157   0.400  0.00  0.00    -0.050 SA
ATOM      9  C   UNL d   1      -0.797   0.304   0.036  0.00  0.00     0.062 A 
ATOM     10  C   UNL d   1      -1.294  -0.991   0.222  0.00  0.00     0.035 A 
ATOM     11  O   UNL d   1       3.610   2.092  -0.848  0.00  0.00    -0.260 OA
ATOM     12  O   UNL d   1       0.974   2.621  -0.297  0.00  0.00    -0.261 OA
ATOM     13  C   UNL d   1      -1.683   1.367  -0.100  0.00  0.00     0.031 A 
ATOM     14  C   UNL d   1      -2.654  -1.259   0.242  0.00  0.00     0.021 A 
ATOM     15  C   UNL d   1      -3.059   1.112  -0.065  0.00  0.00     0.002 A 
ATOM     16  C   UNL d   1      -3.542  -0.193   0.095  0.00  0.00     0.002 A 
ENDROOT
BRANCH   5  17
ATOM     17  C   UNL d   1       4.740  -0.396  -0.233  0.00  0.00     0.237 C 
BRANCH  17  18
ATOM     18  C   UNL d   1       5.560  -0.101   1.034  0.00  0.00     0.186 C 
ATOM     19  O   UNL d   1       5.052   0.464   2.005  0.00  0.00    -0.290 OA
BRANCH  18  20
ATOM     20  C   UNL d   1       6.963  -0.531   1.034  0.00  0.00     0.052 A 
ATOM     21  S   UNL d   1       7.726  -1.178  -0.362  0.00  0.00    -0.098 SA
ATOM     22  C   UNL d   1       9.204  -1.414   0.456  0.00  0.00     0.050 A 
ATOM     23  C   UNL d   1       9.138  -1.000   1.766  0.00  0.00     0.009 A 
ATOM     24  C   UNL d   1       7.850  -0.482   2.096  0.00  0.00     0.023 A 
ENDBRANCH  18  20
ENDBRANCH  17  18
ENDBRANCH   5  17
TORSDOF 3
