REMARK  8 active torsions:
REMARK  status: ('A' for Active; 'I' for Inactive)
REMARK    1  A    between atoms: C_3  and  N_1 
REMARK    2  A    between atoms: C_2  and  N_6 
REMARK    3  A    between atoms: N_11  and  C_2 
REMARK    4  A    between atoms: C_4  and  C_15 
REMARK       I    between atoms: N_9  and  C_4 
REMARK    5  A    between atoms: N_6  and  N_9 
REMARK    6  A    between atoms: C_20  and  N_11 
REMARK    7  A    between atoms: C_14  and  C_20 
REMARK    8  A    between atoms: C_15  and  C_17 
ROOT
ATOM      1  C   UNL d   1      -0.831  -3.091   5.106  0.00  0.00     0.240 C 
ATOM      2  N   UNL d   1       0.445  -2.579   4.974  0.00  0.00    -0.268 N 
ATOM      3  O   UNL d   1      -1.171  -3.736   6.098  0.00  0.00    -0.272 OA
ATOM      4  H   UNL d   1       0.740  -1.952   4.231  0.00  0.00     0.190 HD
ENDROOT
BRANCH   1   5
ATOM      5  C   UNL d   1      -1.750  -2.816   3.927  0.00  0.00     0.143 C 
BRANCH   5   6
ATOM      6  C   UNL d   1      -2.222  -4.033   3.148  0.00  0.00    -0.049 A 
ATOM      7  C   UNL d   1      -2.218  -5.334   3.675  0.00  0.00     0.010 A 
ATOM      8  C   UNL d   1      -2.684  -6.420   2.926  0.00  0.00     0.036 A 
ATOM      9  C   UNL d   1      -3.179  -6.207   1.636  0.00  0.00     0.102 A 
ATOM     10  C   UNL d   1      -3.218  -4.916   1.099  0.00  0.00     0.036 A 
ATOM     11  C   UNL d   1      -2.745  -3.839   1.856  0.00  0.00     0.010 A 
BRANCH   9  12
ATOM     12  N   UNL d   1      -3.661  -7.347   0.846  0.00  0.00    -0.116 N 
ATOM     13  O   UNL d   1      -4.117  -7.112  -0.284  0.00  0.00    -0.532 OA
ATOM     14  O   UNL d   1      -3.579  -8.476   1.348  0.00  0.00    -0.532 OA
ENDBRANCH   9  12
ENDBRANCH   5   6
ENDBRANCH   1   5
BRANCH   2  15
ATOM     15  N   UNL d   1       1.389  -2.897   5.962  0.00  0.00    -0.274 N 
ATOM     16  H   UNL d   1       1.051  -3.580   6.643  0.00  0.00     0.189 HD
BRANCH  15  17
ATOM     17  C   UNL d   1       2.294  -1.953   6.429  0.00  0.00     0.186 C 
ATOM     18  S   UNL d   1       2.400  -0.382   5.864  0.00  0.00    -0.040 SA
BRANCH  17  19
ATOM     19  N   UNL d   1       3.106  -2.516   7.396  0.00  0.00    -0.363 N 
ATOM     20  H   UNL d   1       3.186  -3.522   7.336  0.00  0.00     0.162 HD
BRANCH  19  21
ATOM     21  C   UNL d   1       4.194  -1.846   8.083  0.00  0.00     0.148 C 
BRANCH  21  22
ATOM     22  C   UNL d   1       4.740  -2.803   9.095  0.00  0.00    -0.018 C 
ATOM     23  C   UNL d   1       6.011  -3.228   9.131  0.00  0.00     0.008 C 
ENDBRANCH  21  22
ENDBRANCH  19  21
ENDBRANCH  17  19
ENDBRANCH  15  17
ENDBRANCH   2  15
TORSDOF 8
