REMARK  5 active torsions:
REMARK  status: ('A' for Active; 'I' for Inactive)
REMARK    1  A    between atoms: C_12  and  N_1 
REMARK    2  A    between atoms: C_8  and  C_4 
REMARK    3  A    between atoms: C_5  and  C_14 
REMARK    4  A    between atoms: C_13  and  C_12 
REMARK       I    between atoms: N_17  and  C_13 
REMARK    5  A    between atoms: C_14  and  N_17 
ROOT
ATOM      1  C   UNL d   1       3.807   1.426  -0.218  0.00  0.00     0.236 C 
ATOM      2  N   UNL d   1       2.982   2.531  -0.248  0.00  0.00    -0.355 N 
ATOM      3  O   UNL d   1       5.003   1.462  -0.505  0.00  0.00    -0.272 OA
ATOM      4  H   UNL d   1       1.986   2.351  -0.373  0.00  0.00     0.162 HD
ENDROOT
BRANCH   1   5
ATOM      5  C   UNL d   1       3.087   0.122   0.156  0.00  0.00     0.238 C 
BRANCH   5   6
ATOM      6  N   UNL d   1       2.454  -0.463  -1.008  0.00  0.00    -0.271 N 
ATOM      7  C   UNL d   1       1.528   0.190  -1.770  0.00  0.00     0.262 C 
ATOM      8  C   UNL d   1       1.157  -0.720  -2.843  0.00  0.00     0.048 A 
ATOM      9  O   UNL d   1       1.041   1.292  -1.604  0.00  0.00    -0.267 OA
ATOM     10  C   UNL d   1       0.474  -0.474  -4.016  0.00  0.00     0.018 A 
ATOM     11  C   UNL d   1       1.675  -1.962  -2.526  0.00  0.00     0.048 A 
ATOM     12  C   UNL d   1       0.300  -1.555  -4.881  0.00  0.00     0.001 A 
ATOM     13  C   UNL d   1       0.765  -2.841  -4.533  0.00  0.00     0.001 A 
ATOM     14  C   UNL d   1       1.458  -3.059  -3.335  0.00  0.00     0.018 A 
ATOM     15  C   UNL d   1       2.466  -1.802  -1.302  0.00  0.00     0.262 C 
ATOM     16  O   UNL d   1       2.969  -2.721  -0.687  0.00  0.00    -0.267 OA
ENDBRANCH   5   6
ENDBRANCH   1   5
BRANCH   2  17
ATOM     17  C   UNL d   1       3.433   3.847  -0.648  0.00  0.00     0.164 C 
BRANCH  17  18
ATOM     18  C   UNL d   1       2.986   4.837   0.380  0.00  0.00     0.001 A 
ATOM     19  C   UNL d   1       2.749   6.197   0.202  0.00  0.00     0.167 A 
ATOM     20  O   UNL d   1       2.319   6.754   1.376  0.00  0.00    -0.310 OA
ATOM     21  C   UNL d   1       2.307   5.773   2.315  0.00  0.00     0.050 A 
ATOM     22  C   UNL d   1       2.740   4.591   1.765  0.00  0.00     0.044 A 
ATOM     23  C   UNL d   1       1.850   6.156   3.664  0.00  0.00     0.076 C 
BRANCH  19  24
ATOM     24  C   UNL d   1       2.867   7.121  -0.956  0.00  0.00     0.440 C 
ATOM     25  F   UNL d   1       3.416   6.512  -2.041  0.00  0.00    -0.164 F 
ATOM     26  F   UNL d   1       1.661   7.604  -1.353  0.00  0.00    -0.164 F 
ATOM     27  F   UNL d   1       3.652   8.196  -0.680  0.00  0.00    -0.164 F 
ENDBRANCH  19  24
ENDBRANCH  17  18
ENDBRANCH   2  17
TORSDOF 5
