REMARK  6 active torsions:
REMARK  status: ('A' for Active; 'I' for Inactive)
REMARK    1  A    between atoms: C_4  and  N_1 
REMARK    2  A    between atoms: C_10  and  C_3 
REMARK    3  A    between atoms: N_13  and  C_4 
REMARK    4  A    between atoms: C_22  and  N_13 
REMARK    5  A    between atoms: C_16  and  C_22 
REMARK    6  A    between atoms: O_21  and  C_18 
ROOT
ATOM      1  N   UNL d   1      -2.580   0.203  -0.302  0.00  0.00    -0.345 N 
ATOM      2  C   UNL d   1      -0.205   0.795  -0.021  0.00  0.00    -0.017 A 
ATOM      3  C   UNL d   1      -1.633   1.265   0.131  0.00  0.00     0.154 C 
ATOM      4  C   UNL d   1       0.128  -0.536  -0.194  0.00  0.00    -0.007 A 
ATOM      5  C   UNL d   1      -2.257  -1.171   0.141  0.00  0.00     0.131 C 
ATOM      6  S   UNL d   1       1.804  -0.803  -0.272  0.00  0.00    -0.106 SA
ATOM      7  C   UNL d   1      -0.866  -1.643  -0.313  0.00  0.00     0.067 C 
ATOM      8  C   UNL d   1       0.973   1.613  -0.002  0.00  0.00     0.018 A 
ATOM      9  C   UNL d   1       2.128   0.869  -0.107  0.00  0.00     0.051 A 
ENDROOT
BRANCH   3  10
ATOM     10  C   UNL d   1      -1.841   1.639   1.602  0.00  0.00    -0.031 A 
ATOM     11  C   UNL d   1      -2.716   2.695   1.916  0.00  0.00     0.012 A 
ATOM     12  C   UNL d   1      -2.943   3.082   3.245  0.00  0.00     0.037 A 
ATOM     13  C   UNL d   1      -2.307   2.415   4.290  0.00  0.00     0.068 A 
ATOM     14  C   UNL d   1      -1.458   1.351   3.996  0.00  0.00     0.037 A 
ATOM     15  C   UNL d   1      -1.233   0.963   2.674  0.00  0.00     0.012 A 
BRANCH  13  16
ATOM     16  O   UNL d   1      -2.422   2.691   5.623  0.00  0.00    -0.356 OA
ATOM     17  C   UNL d   1      -3.248   3.788   5.986  0.00  0.00     0.210 C 
ENDBRANCH  13  16
ENDBRANCH   3  10
BRANCH   1  18
ATOM     18  C   UNL d   1      -3.568   0.443  -1.235  0.00  0.00     0.171 C 
ATOM     19  S   UNL d   1      -3.507   1.583  -2.463  0.00  0.00    -0.041 SA
BRANCH  18  20
ATOM     20  N   UNL d   1      -4.707  -0.312  -1.181  0.00  0.00    -0.364 N 
ATOM     21  H   UNL d   1      -5.345  -0.126  -1.948  0.00  0.00     0.162 HD
BRANCH  20  22
ATOM     22  C   UNL d   1      -5.314  -0.862   0.015  0.00  0.00     0.148 C 
BRANCH  22  23
ATOM     23  C   UNL d   1      -6.704  -0.325   0.122  0.00  0.00    -0.018 C 
ATOM     24  C   UNL d   1      -7.806  -1.086   0.177  0.00  0.00     0.008 C 
ENDBRANCH  22  23
ENDBRANCH  20  22
ENDBRANCH  18  20
ENDBRANCH   1  18
TORSDOF 6
