REMARK  1 active torsions:
REMARK  status: ('A' for Active; 'I' for Inactive)
REMARK    1  A    between atoms: O_20  and  C_16 
ROOT
ATOM      1  C   UNL d   1       0.062   2.623   0.175  0.00  0.00     0.028 C 
ATOM      2  C   UNL d   1       0.073   3.702   3.003  0.00  0.00     0.021 C 
ATOM      3  C   UNL d   1       1.373   2.644   1.049  0.00  0.00     0.022 C 
ATOM      4  C   UNL d   1       1.277   3.809   2.041  0.00  0.00     0.010 C 
ATOM      5  C   UNL d   1      -0.537   1.247  -0.108  0.00  0.00    -0.037 C 
ATOM      6  C   UNL d   1      -0.126   0.137   0.656  0.00  0.00    -0.027 C 
ATOM      7  C   UNL d   1       1.730   1.341   1.698  0.00  0.00    -0.020 C 
ATOM      8  C   UNL d   1      -1.514   1.052  -1.123  0.00  0.00    -0.052 C 
ATOM      9  C   UNL d   1       1.031   0.211   1.546  0.00  0.00     0.008 C 
ATOM     10  C   UNL d   1       0.368   4.949   3.830  0.00  0.00     0.135 C 
ATOM     11  C   UNL d   1      -1.234   3.707   2.205  0.00  0.00     0.018 C 
ATOM     12  C   UNL d   1      -1.030   3.624   0.683  0.00  0.00     0.011 C 
ATOM     13  C   UNL d   1       2.453   4.194   2.931  0.00  0.00     0.014 C 
ATOM     14  C   UNL d   1      -0.785  -1.092   0.525  0.00  0.00     0.048 C 
ATOM     15  C   UNL d   1      -2.175  -0.185  -1.220  0.00  0.00     0.043 C 
ATOM     16  C   UNL d   1      -1.823  -1.232  -0.382  0.00  0.00     0.067 C 
ATOM     17  C   UNL d   1       1.845   5.311   3.793  0.00  0.00     0.079 C 
ATOM     18  O   UNL d   1      -0.465   5.577   4.471  0.00  0.00    -0.297 OA
ATOM     19  C   UNL d   1       0.069   2.538   4.013  0.00  0.00     0.024 C 
ATOM     20  C   UNL d   1      -1.903   2.119  -2.115  0.00  0.00     0.049 C 
ENDROOT
BRANCH  16  21
ATOM     21  O   UNL d   1      -2.467  -2.433  -0.438  0.00  0.00    -0.361 OA
ATOM     22  H   UNL d   1      -3.246  -2.337  -1.011  0.00  0.00     0.217 HD
ENDBRANCH  16  21
TORSDOF 1
