REMARK  2 active torsions:
REMARK  status: ('A' for Active; 'I' for Inactive)
REMARK    1  A    between atoms: C_8  and  C_5 
REMARK    2  A    between atoms: C_10  and  C_8 
ROOT
ATOM      1  N   UNL d   1      -0.953  -1.064  -0.227  0.00  0.00    -0.273 N 
ATOM      2  C   UNL d   1       0.404  -1.157  -0.137  0.00  0.00     0.325 C 
ATOM      3  C   UNL d   1      -1.344   0.244  -0.224  0.00  0.00     0.250 C 
ATOM      4  N   UNL d   1       0.920   0.122  -0.105  0.00  0.00    -0.329 N 
ATOM      5  C   UNL d   1      -0.094   1.125  -0.308  0.00  0.00     0.179 C 
ATOM      6  O   UNL d   1       1.086  -2.164  -0.087  0.00  0.00    -0.247 OA
ATOM      7  O   UNL d   1      -2.496   0.660  -0.241  0.00  0.00    -0.271 OA
ATOM      8  C   UNL d   1      -1.859  -2.177  -0.320  0.00  0.00     0.164 C 
ATOM      9  H   UNL d   1       1.919   0.276  -0.056  0.00  0.00     0.165 HD
ENDROOT
BRANCH   5  10
ATOM     10  C   UNL d   1      -0.038   1.731  -1.711  0.00  0.00     0.038 C 
BRANCH  10  11
ATOM     11  C   UNL d   1       1.210   2.576  -2.013  0.00  0.00    -0.020 C 
ATOM     12  C   UNL d   1       1.212   2.950  -3.499  0.00  0.00     0.009 C 
ATOM     13  C   UNL d   1       1.265   3.841  -1.157  0.00  0.00     0.009 C 
ENDBRANCH  10  11
ENDBRANCH   5  10
TORSDOF 2
