REMARK  2 active torsions:
REMARK  status: ('A' for Active; 'I' for Inactive)
REMARK    1  A    between atoms: N_4  and  C_3 
REMARK    2  A    between atoms: C_7  and  C_10 
REMARK       I    between atoms: N_17  and  C_7 
ROOT
ATOM      1  N   UNL d   1       1.699   0.325  -1.030  0.00  0.00    -0.340 N 
ATOM      2  HN  UNL d   1       2.092   0.542  -1.945  1.00  0.00     0.167 HD
ATOM      3  C   UNL d   1       2.348   0.671   0.103  0.00  0.00     0.119 A 
ATOM      4  N   UNL d   1       0.592  -0.315   1.480  0.00  0.00    -0.361 N 
ATOM      5  HN  UNL d   1       0.206  -0.538   2.397  1.00  0.00     0.165 HD
ATOM      6  C   UNL d   1       0.516  -0.318  -0.919  0.00  0.00     0.060 A 
ATOM      7  C   UNL d   1       1.769   0.343   1.331  0.00  0.00     0.137 A 
ATOM      8  C   UNL d   1      -0.030  -0.651   0.343  0.00  0.00     0.059 A 
ATOM      9  C   UNL d   1      -0.186  -0.672  -2.065  0.00  0.00     0.032 A 
ATOM     10  C   UNL d   1      -1.232  -1.345   0.404  0.00  0.00     0.032 A 
ATOM     11  C   UNL d   1      -1.400  -1.360  -1.994  0.00  0.00     0.002 A 
ATOM     12  C   UNL d   1      -1.921  -1.705  -0.753  0.00  0.00     0.002 A 
ENDROOT
BRANCH   3  13
ATOM     13  N   UNL d   1       3.596   1.253   0.020  0.00  0.00    -0.366 N 
ATOM     14  C   UNL d   1       4.362   1.154  -1.213  0.00  0.00     0.125 C 
ATOM     15  C   UNL d   1       5.790   0.759  -0.821  0.00  0.00     0.034 C 
ATOM     16  C   UNL d   1       6.398   1.721   0.216  0.00  0.00     0.081 C 
ATOM     17  C   UNL d   1       5.442   1.964   1.399  0.00  0.00     0.034 C 
ATOM     18  C   UNL d   1       4.024   2.302   0.937  0.00  0.00     0.125 C 
BRANCH  16  19
ATOM     19  C   UNL d   1       6.827   3.032  -0.429  0.00  0.00     0.219 C 
ATOM     20  O   UNL d   1       6.395   4.135  -0.114  0.00  0.00    -0.273 OA
ATOM     21  N   UNL d   1       7.776   2.917  -1.402  0.00  0.00    -0.370 N 
ATOM     22  H   UNL d   1       8.297   2.066  -1.558  0.00  0.00     0.159 HD
ATOM     23  H   UNL d   1       8.133   3.776  -1.799  0.00  0.00     0.159 HD
ENDBRANCH  16  19
ENDBRANCH   3  13
TORSDOF 2
