REMARK  3 active torsions:
REMARK  status: ('A' for Active; 'I' for Inactive)
REMARK    1  A    between atoms: C_10  and  C_2 
REMARK    2  A    between atoms: S_12  and  C_7 
REMARK    3  A    between atoms: O_18  and  C_15 
ROOT
ATOM      1  C   UNL d   1      -0.710   1.242  -0.000  0.00  0.00     0.110 A 
ATOM      2  C   UNL d   1      -1.322   0.027  -0.026  0.00  0.00     0.068 A 
ATOM      3  N   UNL d   1       1.346  -0.084   0.012  0.00  0.00    -0.326 N 
ATOM      4  C   UNL d   1       0.794   1.176   0.022  0.00  0.00     0.125 A 
ATOM      5  N   UNL d   1      -0.693  -1.214  -0.031  0.00  0.00    -0.335 N 
ATOM      6  HN  UNL d   1      -1.227  -2.082  -0.048  1.00  0.00     0.168 HD
ATOM      7  C   UNL d   1       0.595  -1.216  -0.013  0.00  0.00     0.145 A 
ATOM      8  C   UNL d   1      -1.414   2.521   0.004  0.00  0.00     0.105 C 
ATOM      9  N   UNL d   1      -1.976   3.549   0.007  0.00  0.00    -0.191 NA
ATOM     10  S   UNL d   1       1.851   2.478   0.058  0.00  0.00    -0.059 SA
ATOM     11  H   UNL d   1       2.355  -0.188   0.025  0.00  0.00     0.169 HD
ENDROOT
BRANCH   2  12
ATOM     12  C   UNL d   1      -2.801  -0.010  -0.049  0.00  0.00    -0.008 A 
ATOM     13  C   UNL d   1      -3.492   0.062  -1.264  0.00  0.00     0.016 A 
ATOM     14  C   UNL d   1      -4.884   0.186  -1.272  0.00  0.00     0.037 A 
ATOM     15  C   UNL d   1      -5.606   0.214  -0.076  0.00  0.00     0.068 A 
ATOM     16  C   UNL d   1      -4.924   0.111   1.136  0.00  0.00     0.037 A 
ATOM     17  C   UNL d   1      -3.527  -0.002   1.149  0.00  0.00     0.016 A 
BRANCH  15  18
ATOM     18  O   UNL d   1      -6.951   0.411  -0.221  0.00  0.00    -0.356 OA
ATOM     19  C   UNL d   1      -7.784  -0.065   0.829  0.00  0.00     0.210 C 
ENDBRANCH  15  18
ENDBRANCH   2  12
BRANCH   7  20
ATOM     20  S   UNL d   1       1.593  -2.636  -0.015  0.00  0.00    -0.098 SA
ATOM     21  C   UNL d   1       0.353  -3.943  -0.039  0.00  0.00     0.099 C 
ENDBRANCH   7  20
TORSDOF 3
