REMARK  4 active torsions:
REMARK  status: ('A' for Active; 'I' for Inactive)
REMARK    1  A    between atoms: C_8  and  N_1 
REMARK    2  A    between atoms: S_10  and  C_2 
REMARK    3  A    between atoms: C_11  and  C_7 
REMARK    4  A    between atoms: C_12  and  C_8 
ROOT
ATOM      1  N   UNL d   1       1.423  -1.055  -0.050  0.00  0.00    -0.288 N 
ATOM      2  C   UNL d   1       0.101  -1.366   0.009  0.00  0.00     0.149 A 
ATOM      3  C   UNL d   1       1.514   0.306  -0.082  0.00  0.00     0.276 A 
ATOM      4  C   UNL d   1       0.089   0.738  -0.002  0.00  0.00     0.104 A 
ATOM      5  N   UNL d   1      -0.725  -0.367   0.057  0.00  0.00    -0.332 N 
ATOM      6  HN  UNL d   1      -1.743  -0.396   0.124  1.00  0.00     0.168 HD
ATOM      7  C   UNL d   1      -0.277   2.024  -0.028  0.00  0.00     0.046 C 
ATOM      8  O   UNL d   1       2.494   1.016  -0.199  0.00  0.00    -0.265 OA
ENDROOT
BRANCH   1   9
ATOM      9  C   UNL d   1       2.583  -1.910  -0.232  0.00  0.00     0.173 C 
BRANCH   9  10
ATOM     10  C   UNL d   1       3.248  -2.341   1.058  0.00  0.00    -0.040 A 
ATOM     11  C   UNL d   1       2.864  -3.528   1.700  0.00  0.00     0.010 A 
ATOM     12  C   UNL d   1       3.539  -3.976   2.839  0.00  0.00     0.024 A 
ATOM     13  C   UNL d   1       4.606  -3.241   3.346  0.00  0.00     0.034 A 
ATOM     14  C   UNL d   1       4.987  -2.047   2.738  0.00  0.00     0.024 A 
ATOM     15 CL   UNL d   1       5.470  -3.824   4.715  0.00  0.00    -0.084 Cl
ATOM     16  C   UNL d   1       4.305  -1.593   1.604  0.00  0.00     0.010 A 
ENDBRANCH   9  10
ENDBRANCH   1   9
BRANCH   2  17
ATOM     17  S   UNL d   1      -0.413  -3.020  -0.006  0.00  0.00    -0.098 SA
ATOM     18  C   UNL d   1      -2.207  -2.834   0.082  0.00  0.00     0.099 C 
ENDBRANCH   2  17
BRANCH   7  19
ATOM     19  C   UNL d   1      -1.671   2.466   0.048  0.00  0.00    -0.032 A 
ATOM     20  C   UNL d   1      -2.412   2.681  -1.117  0.00  0.00     0.035 A 
ATOM     21  C   UNL d   1      -3.737   3.113  -1.023  0.00  0.00     0.034 A 
ATOM     22 CL   UNL d   1      -4.653   3.382  -2.456  0.00  0.00    -0.084 Cl
ATOM     23  C   UNL d   1      -4.327   3.335   0.221  0.00  0.00     0.024 A 
ATOM     24  C   UNL d   1      -3.589   3.116   1.384  0.00  0.00     0.003 A 
ATOM     25  C   UNL d   1      -2.264   2.681   1.298  0.00  0.00     0.011 A 
ENDBRANCH   7  19
TORSDOF 4
