REMARK  2 active torsions:
REMARK  status: ('A' for Active; 'I' for Inactive)
REMARK    1  A    between atoms: C_9  and  C_3 
REMARK    2  A    between atoms: C_10  and  C_5 
ROOT
ATOM      1  N   UNL d   1      -0.447   1.631  -0.759  0.00  0.00    -0.358 N 
ATOM      2  HN  UNL d   1      -0.271   2.211  -1.580  1.00  0.00     0.166 HD
ATOM      3  C   UNL d   1      -1.589   1.722  -0.145  0.00  0.00     0.021 C 
ATOM      4  S   UNL d   1      -1.158  -1.508  -0.404  0.00  0.00    -0.118 SA
ATOM      5  C   UNL d   1      -2.360  -0.558   0.629  0.00  0.00     0.091 C 
ATOM      6  C   UNL d   1      -1.949   0.859   1.053  0.00  0.00     0.078 C 
ATOM      7  C   UNL d   1       0.553   0.743  -0.310  0.00  0.00     0.049 A 
ATOM      8  C   UNL d   1       0.377  -0.643  -0.122  0.00  0.00     0.028 A 
ATOM      9  C   UNL d   1       1.829   1.290  -0.109  0.00  0.00     0.031 A 
ATOM     10  C   UNL d   1       1.475  -1.440   0.246  0.00  0.00     0.021 A 
ATOM     11  C   UNL d   1       2.910   0.493   0.273  0.00  0.00     0.002 A 
ATOM     12  C   UNL d   1       2.733  -0.875   0.447  0.00  0.00     0.002 A 
ENDROOT
BRANCH   3  13
ATOM     13  C   UNL d   1      -2.620   2.670  -0.687  0.00  0.00    -0.013 A 
ATOM     14  C   UNL d   1      -2.646   2.909  -2.069  0.00  0.00     0.015 A 
ATOM     15  C   UNL d   1      -3.658   3.693  -2.633  0.00  0.00     0.024 A 
ATOM     16  C   UNL d   1      -4.634   4.254  -1.814  0.00  0.00     0.034 A 
ATOM     17  C   UNL d   1      -4.593   4.060  -0.435  0.00  0.00     0.024 A 
ATOM     18 CL   UNL d   1      -5.904   5.184  -2.507  0.00  0.00    -0.084 Cl
ATOM     19  C   UNL d   1      -3.582   3.274   0.130  0.00  0.00     0.015 A 
ENDBRANCH   3  13
BRANCH   5  20
ATOM     20  C   UNL d   1      -3.754  -0.583   0.005  0.00  0.00    -0.044 A 
ATOM     21  C   UNL d   1      -3.960  -0.358  -1.368  0.00  0.00     0.008 A 
ATOM     22  C   UNL d   1      -5.243  -0.360  -1.914  0.00  0.00     0.001 A 
ATOM     23  C   UNL d   1      -6.346  -0.586  -1.098  0.00  0.00     0.000 A 
ATOM     24  C   UNL d   1      -6.165  -0.805   0.267  0.00  0.00     0.001 A 
ATOM     25  C   UNL d   1      -4.880  -0.800   0.817  0.00  0.00     0.008 A 
ENDBRANCH   5  20
TORSDOF 2
