REMARK  7 active torsions:
REMARK  status: ('A' for Active; 'I' for Inactive)
REMARK    1  A    between atoms: C_12  and  N_5 
REMARK    2  A    between atoms: O_13  and  C_8 
REMARK    3  A    between atoms: C_11  and  C_12 
REMARK    4  A    between atoms: C_20  and  O_13 
REMARK    5  A    between atoms: O_21  and  C_22 
REMARK    6  A    between atoms: C_25  and  O_21 
REMARK    7  A    between atoms: C_30  and  C_25 
ROOT
ATOM      1  C   UNL d   1      -0.133  -0.801  -0.075  0.00  0.00     0.147 A 
ATOM      2  C   UNL d   1      -0.436   0.520  -0.047  0.00  0.00     0.151 A 
ATOM      3  N   UNL d   1      -1.228  -1.576  -0.130  0.00  0.00    -0.305 N 
ATOM      4  HN  UNL d   1      -1.261  -2.594  -0.193  1.00  0.00     0.171 HD
ATOM      5  N   UNL d   1      -1.815   0.566  -0.075  0.00  0.00    -0.300 N 
ATOM      6  N   UNL d   1       1.151  -1.276  -0.041  0.00  0.00    -0.287 N 
ATOM      7  N   UNL d   1       1.871   0.999  -0.009  0.00  0.00    -0.269 N 
ATOM      8  C   UNL d   1      -2.251  -0.749  -0.085  0.00  0.00     0.233 A 
ATOM      9  C   UNL d   1       2.207  -0.371  -0.003  0.00  0.00     0.332 A 
ATOM     10  C   UNL d   1       0.570   1.528  -0.018  0.00  0.00     0.282 A 
ATOM     11  O   UNL d   1       3.377  -0.761   0.034  0.00  0.00    -0.246 OA
ATOM     12  O   UNL d   1       0.319   2.728   0.001  0.00  0.00    -0.265 OA
ATOM     13  C   UNL d   1       1.428  -2.700  -0.033  0.00  0.00     0.163 C 
ATOM     14  C   UNL d   1       2.958   1.958   0.008  0.00  0.00     0.164 C 
ENDROOT
BRANCH   8  15
ATOM     15  O   UNL d   1      -3.534  -1.131  -0.076  0.00  0.00    -0.279 OA
BRANCH  15  16
ATOM     16  C   UNL d   1      -3.853  -2.479  -0.155  0.00  0.00     0.079 A 
ATOM     17  C   UNL d   1      -3.103  -3.497   0.449  0.00  0.00     0.040 A 
ATOM     18  C   UNL d   1      -3.394  -4.841   0.206  0.00  0.00     0.039 A 
ATOM     19  C   UNL d   1      -4.472  -5.191  -0.601  0.00  0.00     0.069 A 
ATOM     20  C   UNL d   1      -5.300  -4.182  -1.103  0.00  0.00     0.039 A 
ATOM     21  C   UNL d   1      -4.985  -2.830  -0.890  0.00  0.00     0.040 A 
BRANCH  19  22
ATOM     22  O   UNL d   1      -4.616  -6.535  -0.828  0.00  0.00    -0.347 OA
BRANCH  22  23
ATOM     23  C   UNL d   1      -5.374  -6.885  -1.988  0.00  0.00     0.214 C 
BRANCH  23  24
ATOM     24  C   UNL d   1      -5.081  -8.286  -2.488  0.00  0.00    -0.034 A 
ATOM     25  C   UNL d   1      -4.230  -9.178  -1.823  0.00  0.00     0.009 A 
ATOM     26  C   UNL d   1      -3.985 -10.450  -2.351  0.00  0.00     0.001 A 
ATOM     27  C   UNL d   1      -4.587 -10.844  -3.545  0.00  0.00     0.000 A 
ATOM     28  C   UNL d   1      -5.441  -9.971  -4.212  0.00  0.00     0.001 A 
ATOM     29  C   UNL d   1      -5.688  -8.702  -3.686  0.00  0.00     0.009 A 
ENDBRANCH  23  24
ENDBRANCH  22  23
ENDBRANCH  19  22
ENDBRANCH  15  16
ENDBRANCH   8  15
BRANCH   5  30
ATOM     30  C   UNL d   1      -2.649   1.760  -0.044  0.00  0.00     0.176 C 
BRANCH  30  31
ATOM     31  C   UNL d   1      -2.979   2.381  -1.385  0.00  0.00     0.020 A 
ATOM     32  C   UNL d   1      -3.747   3.562  -1.439  0.00  0.00     0.045 A 
ATOM     33 CL   UNL d   1      -4.264   4.376  -0.001  0.00  0.00    -0.084 Cl
ATOM     34  C   UNL d   1      -4.131   4.133  -2.662  0.00  0.00     0.024 A 
ATOM     35  C   UNL d   1      -3.750   3.542  -3.863  0.00  0.00     0.005 A 
ATOM     36  C   UNL d   1      -2.968   2.394  -3.835  0.00  0.00     0.043 A 
ATOM     37  C   UNL d   1      -2.591   1.832  -2.614  0.00  0.00     0.126 A 
ATOM     38  F   UNL d   1      -1.835   0.729  -2.671  0.00  0.00    -0.205 F 
ENDBRANCH  30  31
ENDBRANCH   5  30
TORSDOF 7
