REMARK  8 active torsions:
REMARK  status: ('A' for Active; 'I' for Inactive)
REMARK    1  A    between atoms: C_6  and  N_1 
REMARK    2  A    between atoms: C_8  and  C_4 
REMARK    3  A    between atoms: O_21  and  C_8 
REMARK    4  A    between atoms: N_10  and  C_9 
REMARK       I    between atoms: C_11  and  N_10 
REMARK    5  A    between atoms: C_14  and  C_11 
REMARK    6  A    between atoms: C_15  and  C_16 
REMARK    7  A    between atoms: O_22  and  C_15 
REMARK    8  A    between atoms: C_26  and  O_21 
ROOT
ATOM      1  C   UNL d   1      -0.503  -2.465   0.061  0.00  0.00     0.154 A 
ATOM      2  C   UNL d   1       0.241  -3.412   0.786  0.00  0.00     0.081 A 
ATOM      3  N   UNL d   1      -1.440  -2.817  -0.868  0.00  0.00    -0.349 N 
ATOM      4  HN  UNL d   1      -2.031  -2.117  -1.317  1.00  0.00     0.167 HD
ATOM      5  C   UNL d   1       0.113  -4.754   0.416  0.00  0.00     0.035 A 
ATOM      6  C   UNL d   1      -1.551  -4.128  -1.169  0.00  0.00     0.090 A 
ATOM      7  C   UNL d   1      -0.786  -5.119  -0.581  0.00  0.00     0.019 A 
ENDROOT
BRANCH   1   8
ATOM      8  N   UNL d   1      -0.258  -1.068   0.252  0.00  0.00    -0.241 N 
ATOM      9  N   UNL d   1       0.991  -0.638   0.589  0.00  0.00    -0.296 N 
ATOM     10  C   UNL d   1       0.989   0.663   0.283  0.00  0.00     0.041 C 
ATOM     11  HN  UNL d   1       1.754  -1.185   0.987  1.00  0.00     0.187 HD
ATOM     12  C   UNL d   1       2.281   1.399   0.248  0.00  0.00     0.071 C 
ATOM     13  C   UNL d   1      -0.324   1.144   0.018  0.00  0.00     0.087 C 
ATOM     14  C   UNL d   1      -1.117   0.001   0.041  0.00  0.00     0.050 C 
ATOM     15  C   UNL d   1      -2.588  -0.176  -0.104  0.00  0.00     0.071 C 
BRANCH  13  16
ATOM     16  C   UNL d   1      -0.756   2.506  -0.265  0.00  0.00     0.297 C 
ATOM     17  O   UNL d   1      -1.901   2.809  -0.578  0.00  0.00    -0.259 OA
BRANCH  16  18
ATOM     18  O   UNL d   1       0.273   3.398  -0.188  0.00  0.00    -0.318 OA
BRANCH  18  19
ATOM     19  C   UNL d   1       0.017   4.706  -0.716  0.00  0.00     0.174 C 
ATOM     20  C   UNL d   1       0.281   4.689  -2.209  0.00  0.00     0.034 C 
ENDBRANCH  18  19
ENDBRANCH  16  18
ENDBRANCH  13  16
ENDBRANCH   1   8
BRANCH   2  21
ATOM     21  N   UNL d   1       1.072  -3.038   1.863  0.00  0.00    -0.320 N 
ATOM     22  C   UNL d   1       1.136  -3.557   3.130  0.00  0.00     0.246 C 
ATOM     23  O   UNL d   1       1.910  -3.082   3.959  0.00  0.00    -0.268 OA
ATOM     24  H   UNL d   1       1.465  -2.092   1.808  0.00  0.00     0.169 HD
BRANCH  22  25
ATOM     25  C   UNL d   1       0.167  -4.608   3.532  0.00  0.00     0.081 C 
ATOM     26  C   UNL d   1       0.158  -5.060   4.794  0.00  0.00     0.086 C 
BRANCH  26  27
ATOM     27  C   UNL d   1      -0.838  -6.077   5.161  0.00  0.00     0.165 C 
ATOM     28  O   UNL d   1      -1.476  -6.736   4.354  0.00  0.00    -0.647 OA
BRANCH  27  29
ATOM     29  O   UNL d   1      -0.981  -6.197   6.493  0.00  0.00    -0.773 OA
ATOM     30  H   UNL d   1      -0.460  -5.568   7.024  0.00  0.00     0.167 HD
ENDBRANCH  27  29
ENDBRANCH  26  27
ENDBRANCH  22  25
ENDBRANCH   2  21
TORSDOF 8
