REMARK  3 active torsions:
REMARK  status: ('A' for Active; 'I' for Inactive)
REMARK    1  A    between atoms: N_2  and  S_1 
REMARK    2  A    between atoms: C_4  and  S_1 
REMARK    3  A    between atoms: C_3  and  N_2 
ROOT
ATOM      1  S   UNL d   1      -0.811   2.044  -0.442  0.00  0.00     0.242 S 
ATOM      2  O   UNL d   1      -1.653   2.681   0.545  0.00  0.00    -0.206 OA
ATOM      3  O   UNL d   1      -1.306   0.992  -1.302  0.00  0.00    -0.206 OA
ENDROOT
BRANCH   1   4
ATOM      4  N   UNL d   1       0.562   1.423   0.359  0.00  0.00    -0.202 NA
ATOM      5  H   UNL d   1       1.372   1.429  -0.264  0.00  0.00     0.141 HD
BRANCH   4   6
ATOM      6  C   UNL d   1       0.901   2.037   1.683  0.00  0.00     0.163 C 
ATOM      7  C   UNL d   1       1.376   3.479   1.529  0.00  0.00     0.236 C 
ATOM      8  N   UNL d   1       1.520   4.242   2.646  0.00  0.00    -0.360 N 
ATOM      9  O   UNL d   1       1.699   3.960   0.444  0.00  0.00    -0.272 OA
ATOM     10  C   UNL d   1       1.378   3.803   4.014  0.00  0.00     0.122 C 
ATOM     11  H   UNL d   1       1.842   5.186   2.462  0.00  0.00     0.162 HD
ATOM     12  C   UNL d   1       2.405   2.740   4.388  0.00  0.00     0.020 C 
ATOM     13  C   UNL d   1       2.069   1.344   3.858  0.00  0.00     0.004 C 
ATOM     14  C   UNL d   1       2.030   1.218   2.331  0.00  0.00     0.030 C 
ENDBRANCH   4   6
ENDBRANCH   1   4
BRANCH   1  15
ATOM     15  C   UNL d   1      -0.173   3.291  -1.537  0.00  0.00     0.077 A 
ATOM     16  C   UNL d   1      -0.614   4.618  -1.420  0.00  0.00     0.070 A 
ATOM     17  C   UNL d   1      -0.036   5.591  -2.224  0.00  0.00     0.156 A 
ATOM     18  F   UNL d   1      -0.426   6.867  -2.100  0.00  0.00    -0.203 F 
ATOM     19  C   UNL d   1       0.952   5.253  -3.149  0.00  0.00     0.154 A 
ATOM     20  C   UNL d   1       1.363   3.932  -3.296  0.00  0.00     0.047 A 
ATOM     21  F   UNL d   1       1.515   6.202  -3.912  0.00  0.00    -0.203 F 
ATOM     22  C   UNL d   1       0.789   2.941  -2.494  0.00  0.00     0.028 A 
ENDBRANCH   1  15
TORSDOF 3
