REMARK  4 active torsions:
REMARK  status: ('A' for Active; 'I' for Inactive)
REMARK    1  A    between atoms: C_3  and  N_1 
REMARK    2  A    between atoms: C_2  and  C_5 
REMARK    3  A    between atoms: C_5  and  C_4 
REMARK    4  A    between atoms: O_12  and  C_5 
ROOT
ATOM      1  C   UNL d   1       0.192  -0.477   0.926  0.00  0.00     0.103 A 
ATOM      2  C   UNL d   1      -0.137  -0.576   3.334  0.00  0.00    -0.023 A 
ATOM      3  C   UNL d   1       0.644  -0.206   2.226  0.00  0.00     0.046 A 
ATOM      4  C   UNL d   1      -1.367  -1.220   3.111  0.00  0.00     0.010 A 
ATOM      5  C   UNL d   1      -1.033  -1.122   0.716  0.00  0.00     0.036 A 
ATOM      6  C   UNL d   1      -1.808  -1.493   1.814  0.00  0.00     0.003 A 
ENDROOT
BRANCH   2   7
ATOM      7  C   UNL d   1       0.330  -0.308   4.756  0.00  0.00     0.205 C 
BRANCH   7   8
ATOM      8  C   UNL d   1       1.215  -1.427   5.441  0.00  0.00     0.218 C 
ATOM      9 CL   UNL d   1       1.413  -2.931   4.475  0.00  0.00    -0.081 Cl
ATOM     10 CL   UNL d   1       2.877  -0.804   5.790  0.00  0.00    -0.081 Cl
ATOM     11 CL   UNL d   1       0.485  -1.903   7.022  0.00  0.00    -0.081 Cl
ENDBRANCH   7   8
BRANCH   7  12
ATOM     12  O   UNL d   1       0.910   1.015   4.761  0.00  0.00    -0.386 OA
ATOM     13  H   UNL d   1       1.872   0.931   4.902  0.00  0.00     0.210 HD
ENDBRANCH   7  12
ENDBRANCH   2   7
BRANCH   1  14
ATOM     14  N   UNL d   1       1.010  -0.077  -0.226  0.00  0.00    -0.116 N 
ATOM     15  O   UNL d   1       2.084   0.500   0.004  0.00  0.00    -0.532 OA
ATOM     16  O   UNL d   1       0.582  -0.341  -1.355  0.00  0.00    -0.532 OA
ENDBRANCH   1  14
TORSDOF 4
