REMARK  3 active torsions:
REMARK  status: ('A' for Active; 'I' for Inactive)
REMARK    1  A    between atoms: C_7  and  C_1 
REMARK    2  A    between atoms: O_14  and  C_7 
REMARK    3  A    between atoms: O_15  and  C_8 
ROOT
ATOM      1  C   UNL d   1       3.400   1.408   0.001  0.00  0.00     0.114 A 
ATOM      2  C   UNL d   1       3.837   0.003   0.016  0.00  0.00     0.305 A 
ATOM      3  O   UNL d   1       2.867  -0.980  -0.014  0.00  0.00    -0.271 OA
ATOM      4  C   UNL d   1       2.090   1.714  -0.022  0.00  0.00     0.039 A 
ATOM      5  C   UNL d   1       1.079   0.663  -0.028  0.00  0.00     0.003 A 
ATOM      6  C   UNL d   1       1.490  -0.668  -0.029  0.00  0.00     0.123 A 
ATOM      7  C   UNL d   1       0.581  -1.736  -0.036  0.00  0.00     0.104 A 
ATOM      8  C   UNL d   1      -0.782  -1.447  -0.036  0.00  0.00     0.058 A 
ATOM      9  C   UNL d   1      -0.289   0.941  -0.030  0.00  0.00     0.033 A 
ATOM     10  O   UNL d   1       5.035  -0.274   0.051  0.00  0.00    -0.259 OA
ATOM     11  C   UNL d   1      -1.207  -0.115  -0.031  0.00  0.00     0.014 A 
ATOM     12 BR   UNL d   1      -3.063   0.261  -0.019  0.00  0.00    -0.051 Br
ENDROOT
BRANCH   1  13
ATOM     13  C   UNL d   1       4.377   2.525   0.012  0.00  0.00     0.182 C 
ATOM     14  O   UNL d   1       4.044   3.701  -0.004  0.00  0.00    -0.646 OA
BRANCH  13  15
ATOM     15  O   UNL d   1       5.679   2.160   0.042  0.00  0.00    -0.772 OA
ATOM     16  H   UNL d   1       5.850   1.188   0.056  0.00  0.00     0.167 HD
ENDBRANCH  13  15
ENDBRANCH   1  13
BRANCH   7  17
ATOM     17  O   UNL d   1       1.129  -2.990  -0.041  0.00  0.00    -0.353 OA
ATOM     18  C   UNL d   1       0.236  -4.096  -0.048  0.00  0.00     0.210 C 
ENDBRANCH   7  17
TORSDOF 3
