REMARK  4 active torsions:
REMARK  status: ('A' for Active; 'I' for Inactive)
REMARK    1  A    between atoms: N_2  and  S_1 
REMARK    2  A    between atoms: C_3  and  S_1 
REMARK    3  A    between atoms: C_8  and  N_2 
REMARK       I    between atoms: C_6  and  N_7 
REMARK    4  A    between atoms: N_7  and  C_12 
ROOT
ATOM      1  C   UNL d   1       1.255   1.810   0.743  0.00  0.00     0.079 A 
ATOM      2  C   UNL d   1       0.484   2.193   1.840  0.00  0.00     0.027 A 
ATOM      3  C   UNL d   1       2.232   2.679   0.251  0.00  0.00     0.027 A 
ATOM      4  C   UNL d   1       1.584   4.378   1.852  0.00  0.00     0.034 A 
ATOM      5  C   UNL d   1       2.369   3.962   0.776  0.00  0.00     0.031 A 
ATOM      6  C   UNL d   1       0.657   3.474   2.396  0.00  0.00     0.031 A 
ENDROOT
BRANCH   1   7
ATOM      7  S   UNL d   1       1.169   0.158   0.062  0.00  0.00     0.260 S 
ATOM      8  O   UNL d   1       2.543  -0.227  -0.204  0.00  0.00    -0.200 OA
ATOM      9  O   UNL d   1       0.362  -0.629   0.970  0.00  0.00    -0.200 OA
BRANCH   7  10
ATOM     10  N   UNL d   1       0.386   0.325  -1.468  0.00  0.00    -0.306 N 
ATOM     11  C   UNL d   1       1.048   1.317  -2.357  0.00  0.00     0.163 C 
BRANCH  10  12
ATOM     12  C   UNL d   1      -1.117   0.264  -1.589  0.00  0.00     0.095 C 
ATOM     13  C   UNL d   1      -1.714  -1.067  -1.085  0.00  0.00     0.026 C 
ATOM     14  C   UNL d   1      -1.265  -2.273  -1.911  0.00  0.00     0.002 C 
ATOM     15  C   UNL d   1      -1.676  -2.115  -3.370  0.00  0.00     0.000 C 
ATOM     16  C   UNL d   1      -1.181  -0.793  -3.944  0.00  0.00     0.002 C 
ATOM     17  C   UNL d   1      -1.591   0.399  -3.064  0.00  0.00     0.026 C 
ENDBRANCH  10  12
ENDBRANCH   7  10
ENDBRANCH   1   7
BRANCH   4  18
ATOM     18  N   UNL d   1       1.703   5.661   2.436  0.00  0.00    -0.328 N 
ATOM     19  C   UNL d   1       2.511   6.696   1.997  0.00  0.00     0.218 C 
ATOM     20  O   UNL d   1       3.227   6.699   0.994  0.00  0.00    -0.274 OA
ATOM     21  C   UNL d   1       2.453   7.925   2.864  0.00  0.00     0.117 C 
ATOM     22  H   UNL d   1       1.125   5.836   3.248  0.00  0.00     0.169 HD
ENDBRANCH   4  18
TORSDOF 4
