REMARK  4 active torsions:
REMARK  status: ('A' for Active; 'I' for Inactive)
REMARK    1  A    between atoms: C_11  and  C_1 
REMARK    2  A    between atoms: O_7  and  C_4 
REMARK    3  A    between atoms: C_8  and  O_7 
REMARK    4  A    between atoms: C_12  and  C_8 
ROOT
ATOM      1  C   UNL d   1       2.545  -0.982   0.008  0.00  0.00     0.077 A 
ATOM      2  N   UNL d   1       0.919   0.853  -0.008  0.00  0.00    -0.312 N 
ATOM      3  C   UNL d   1       2.241   0.515  -0.011  0.00  0.00     0.262 A 
ATOM      4  C   UNL d   1       1.534  -1.890   0.015  0.00  0.00     0.108 A 
ATOM      5  C   UNL d   1       0.126  -1.446   0.056  0.00  0.00     0.026 A 
ATOM      6  C   UNL d   1      -0.095  -0.084   0.027  0.00  0.00     0.057 A 
ATOM      7  C   UNL d   1       0.350   2.194  -0.032  0.00  0.00     0.137 A 
ATOM      8  O   UNL d   1       3.131   1.359  -0.025  0.00  0.00    -0.267 OA
ATOM      9  C   UNL d   1      -1.339   0.527   0.037  0.00  0.00    -0.029 A 
ATOM     10  C   UNL d   1      -1.186   2.018  -0.005  0.00  0.00     0.061 A 
ATOM     11  C   UNL d   1      -1.020  -2.239   0.109  0.00  0.00     0.017 A 
ATOM     12  C   UNL d   1      -2.305  -1.650   0.117  0.00  0.00     0.002 A 
ATOM     13  C   UNL d   1      -2.472  -0.257   0.080  0.00  0.00     0.009 A 
ENDROOT
BRANCH   4  14
ATOM     14  O   UNL d   1       1.733  -3.288   0.027  0.00  0.00    -0.273 OA
BRANCH  14  15
ATOM     15  C   UNL d   1       1.633  -3.826  -1.224  0.00  0.00     0.298 C 
ATOM     16  O   UNL d   1       1.521  -3.242  -2.293  0.00  0.00    -0.259 OA
BRANCH  15  17
ATOM     17  C   UNL d   1       1.705  -5.303  -1.154  0.00  0.00     0.040 A 
ATOM     18  C   UNL d   1       2.637  -5.950  -1.975  0.00  0.00     0.020 A 
ATOM     19  C   UNL d   1       2.660  -7.345  -2.038  0.00  0.00     0.043 A 
ATOM     20  C   UNL d   1       1.740  -8.080  -1.298  0.00  0.00     0.116 A 
ATOM     21  C   UNL d   1       0.806  -7.448  -0.481  0.00  0.00     0.043 A 
ATOM     22  F   UNL d   1       1.742  -9.417  -1.387  0.00  0.00    -0.206 F 
ATOM     23  C   UNL d   1       0.789  -6.051  -0.401  0.00  0.00     0.020 A 
ENDBRANCH  15  17
ENDBRANCH  14  15
ENDBRANCH   4  14
BRANCH   1  24
ATOM     24  C   UNL d   1       3.978  -1.338   0.004  0.00  0.00    -0.018 A 
ATOM     25  C   UNL d   1       4.646  -1.582  -1.202  0.00  0.00     0.012 A 
ATOM     26  C   UNL d   1       6.040  -1.669  -1.227  0.00  0.00     0.001 A 
ATOM     27  C   UNL d   1       6.773  -1.521  -0.048  0.00  0.00     0.000 A 
ATOM     28  C   UNL d   1       6.113  -1.308   1.160  0.00  0.00     0.001 A 
ATOM     29  C   UNL d   1       4.720  -1.221   1.189  0.00  0.00     0.012 A 
ENDBRANCH   1  24
TORSDOF 4
