REMARK  4 active torsions:
REMARK  status: ('A' for Active; 'I' for Inactive)
REMARK    1  A    between atoms: C1_2  and  C3_5 
REMARK    2  A    between atoms: C4_6  and  C2_3 
REMARK    3  A    between atoms: O3_10  and  C3_5 
REMARK    4  A    between atoms: O4_11  and  C4_6 
ROOT
ATOM      1  N1  <1> d   1      -1.367  -0.697   0.173  0.00  0.00     0.123 N 
ATOM      2  C1  <1> d   1      -1.381   0.777  -0.009  0.00  0.00     0.328 C 
ATOM      3  C2  <1> d   1      -0.118  -1.236  -0.385  0.00  0.00     0.380 C 
ATOM      4  S1  <1> d   1       1.165  -0.035   0.031  0.00  0.00    -0.120 SA
ATOM      5  C5  <1> d   1       0.029   1.354  -0.195  0.00  0.00     0.123 C 
ATOM      6  H3  <1> d   1      -2.136  -1.167  -0.307  0.00  0.00     0.319 HD
ENDROOT
BRANCH   2   7
ATOM      7  C3  <1> d   1      -2.329   1.161  -1.150  0.00  0.00     0.175 C 
ATOM      8  O1  <1> d   1      -2.024   1.788  -2.150  0.00  0.00    -0.648 OA
BRANCH   7   9
ATOM      9  O3  <1> d   1      -3.591   0.706  -0.935  0.00  0.00    -0.775 OA
ATOM     10  H6  <1> d   1      -3.699   0.268  -0.066  0.00  0.00     0.167 HD
ENDBRANCH   7   9
ENDBRANCH   2   7
BRANCH   3  11
ATOM     11  C4  <1> d   1       0.155  -2.640   0.185  0.00  0.00     0.184 C 
ATOM     12  O2  <1> d   1      -0.612  -3.585   0.032  0.00  0.00    -0.648 OA
BRANCH  11  13
ATOM     13  O4  <1> d   1       1.313  -2.766   0.879  0.00  0.00    -0.774 OA
ATOM     14  H7  <1> d   1       1.775  -1.900   0.931  0.00  0.00     0.167 HD
ENDBRANCH  11  13
ENDBRANCH   3  11
TORSDOF 4
