REMARK  2 active torsions:
REMARK  status: ('A' for Active; 'I' for Inactive)
REMARK    1  A    between atoms: C_2  and  C_1 
REMARK       I    between atoms: N_6  and  C_2 
REMARK    2  A    between atoms: C_4  and  C_13 
ROOT
ATOM      1  C   UNL d   1      -1.338  -2.849  -0.049  0.00  0.00     0.256 C 
ATOM      2  N   UNL d   1      -2.272  -3.895  -0.182  0.00  0.00    -0.348 N 
ATOM      3  C   UNL d   1      -4.099  -6.202  -0.312  0.00  0.00     0.024 C 
ATOM      4  O   UNL d   1      -0.685  -2.679   0.979  0.00  0.00    -0.267 OA
ATOM      5  C   UNL d   1      -3.296  -3.963  -1.228  0.00  0.00     0.127 C 
ATOM      6  C   UNL d   1      -2.479  -4.727   1.006  0.00  0.00     0.127 C 
ATOM      7  C   UNL d   1      -2.923  -6.147   0.669  0.00  0.00     0.029 C 
ATOM      8  C   UNL d   1      -3.755  -5.378  -1.553  0.00  0.00     0.029 C 
ENDROOT
BRANCH   1   9
ATOM      9  C   UNL d   1      -1.090  -1.917  -1.177  0.00  0.00     0.066 A 
ATOM     10  C   UNL d   1       0.208  -1.695  -1.619  0.00  0.00     0.092 A 
ATOM     11  O   UNL d   1       1.336  -2.282  -1.106  0.00  0.00    -0.339 OA
ATOM     12  C   UNL d   1       0.476  -0.818  -2.660  0.00  0.00    -0.021 A 
ATOM     13  C   UNL d   1       2.449  -1.791  -1.900  0.00  0.00     0.064 C 
ATOM     14  C   UNL d   1       3.034  -2.989  -2.655  0.00  0.00     0.046 C 
ATOM     15  C   UNL d   1       3.492  -1.220  -0.936  0.00  0.00     0.046 C 
ATOM     16  C   UNL d   1       1.938  -0.708  -2.874  0.00  0.00     0.079 C 
ATOM     17  C   UNL d   1      -0.542  -0.147  -3.316  0.00  0.00     0.010 A 
ATOM     18  C   UNL d   1      -1.851  -0.336  -2.874  0.00  0.00     0.002 A 
ATOM     19  C   UNL d   1      -2.120  -1.185  -1.787  0.00  0.00     0.020 A 
ENDBRANCH   1   9
BRANCH   3  20
ATOM     20  C   UNL d   1      -5.436  -5.844   0.307  0.00  0.00    -0.026 A 
ATOM     21  C   UNL d   1      -5.788  -4.661   0.936  0.00  0.00     0.096 A 
ATOM     22  N   UNL d   1      -7.065  -4.768   1.399  0.00  0.00    -0.365 N 
ATOM     23  C   UNL d   1      -7.592  -5.983   1.057  0.00  0.00     0.042 A 
ATOM     24  H   UNL d   1      -7.560  -4.054   1.918  0.00  0.00     0.165 HD
ATOM     25  C   UNL d   1      -6.607  -6.680   0.354  0.00  0.00    -0.001 A 
ATOM     26  C   UNL d   1      -8.863  -6.510   1.322  0.00  0.00     0.030 A 
ATOM     27  C   UNL d   1      -6.928  -7.970  -0.126  0.00  0.00     0.014 A 
ATOM     28  C   UNL d   1      -8.198  -8.508   0.122  0.00  0.00     0.001 A 
ATOM     29  C   UNL d   1      -9.149  -7.788   0.840  0.00  0.00     0.002 A 
ENDBRANCH   3  20
TORSDOF 2
