REMARK  5 active torsions:
REMARK  status: ('A' for Active; 'I' for Inactive)
REMARK    1  A    between atoms: N_2  and  S_1 
REMARK    2  A    between atoms: C_5  and  S_1 
REMARK    3  A    between atoms: C_3  and  N_2 
REMARK    4  A    between atoms: S_6  and  C_4 
REMARK    5  A    between atoms: C_13  and  S_6 
ROOT
ATOM      1  C   UNL d   1       1.002   0.676  -2.514  0.00  0.00     0.076 A 
ATOM      2  C   UNL d   1      -0.047   1.179  -3.304  0.00  0.00     0.102 A 
ATOM      3  N   UNL d   1       0.156   2.146  -4.240  0.00  0.00    -0.358 N 
ATOM      4  HN  UNL d   1      -0.618   2.509  -4.797  1.00  0.00     0.166 HD
ATOM      5  C   UNL d   1       2.284   1.200  -2.709  0.00  0.00     0.034 A 
ATOM      6  C   UNL d   1       1.411   2.611  -4.411  0.00  0.00     0.089 A 
ATOM      7  C   UNL d   1       2.498   2.169  -3.681  0.00  0.00     0.019 A 
ENDROOT
BRANCH   1   8
ATOM      8  N   UNL d   1       0.865  -0.381  -1.556  0.00  0.00    -0.278 N 
ATOM      9  H   UNL d   1       1.260  -0.224  -0.630  0.00  0.00     0.179 HD
BRANCH   8  10
ATOM     10  S   UNL d   1       1.048  -1.987  -2.051  0.00  0.00     0.263 S 
ATOM     11  O   UNL d   1       0.116  -2.281  -3.115  0.00  0.00    -0.200 OA
ATOM     12  O   UNL d   1       1.084  -2.773  -0.838  0.00  0.00    -0.200 OA
BRANCH  10  13
ATOM     13  C   UNL d   1       2.689  -2.049  -2.756  0.00  0.00     0.080 A 
ATOM     14  C   UNL d   1       3.784  -2.388  -1.954  0.00  0.00     0.027 A 
ATOM     15  C   UNL d   1       5.059  -2.471  -2.526  0.00  0.00     0.025 A 
ATOM     16  C   UNL d   1       5.227  -2.224  -3.890  0.00  0.00     0.034 A 
ATOM     17  C   UNL d   1       4.132  -1.903  -4.692  0.00  0.00     0.025 A 
ATOM     18 CL   UNL d   1       6.796  -2.325  -4.589  0.00  0.00    -0.084 Cl
ATOM     19  C   UNL d   1       2.854  -1.825  -4.131  0.00  0.00     0.027 A 
ENDBRANCH  10  13
ENDBRANCH   8  10
ENDBRANCH   1   8
BRANCH   2  20
ATOM     20  S   UNL d   1      -1.712   0.558  -3.237  0.00  0.00    -0.070 SA
BRANCH  20  21
ATOM     21  C   UNL d   1      -2.578   1.688  -2.163  0.00  0.00     0.007 A 
ATOM     22  C   UNL d   1      -2.605   3.074  -2.346  0.00  0.00     0.019 A 
ATOM     23  C   UNL d   1      -3.406   3.885  -1.525  0.00  0.00     0.008 A 
ATOM     24  C   UNL d   1      -4.203   3.320  -0.521  0.00  0.00    -0.062 A 
ATOM     25  C   UNL d   1      -4.165   1.936  -0.331  0.00  0.00     0.008 A 
ATOM     26  C   UNL d   1      -5.093   4.183   0.326  0.00  0.00     0.048 C 
ATOM     27  C   UNL d   1      -3.368   1.131  -1.150  0.00  0.00     0.019 A 
ENDBRANCH  20  21
ENDBRANCH   2  20
TORSDOF 5
