REMARK  7 active torsions:
REMARK  status: ('A' for Active; 'I' for Inactive)
REMARK    1  A    between atoms: C_16  and  N_2 
REMARK    2  A    between atoms: N_7  and  C_6 
REMARK    3  A    between atoms: C_14  and  N_7 
REMARK    4  A    between atoms: C_15  and  N_7 
REMARK    5  A    between atoms: C_20  and  C_14 
REMARK    6  A    between atoms: C_19  and  C_15 
REMARK    7  A    between atoms: C_17  and  C_16 
ROOT
ATOM      1  C   UNL d   1      -1.696  -0.742   1.660  0.00  0.00     0.096 A 
ATOM      2  N   UNL d   1      -2.262   1.158   2.907  0.00  0.00    -0.314 N 
ATOM      3  C   UNL d   1      -3.078   0.243   3.557  0.00  0.00     0.147 A 
ATOM      4  C   UNL d   1      -1.514   0.622   1.831  0.00  0.00     0.131 A 
ATOM      5  S   UNL d   1      -2.822  -1.367   2.868  0.00  0.00    -0.053 SA
ATOM      6  C   UNL d   1      -0.932  -1.363   0.687  0.00  0.00     0.126 A 
ATOM      7  N   UNL d   1      -0.699   1.381   1.088  0.00  0.00    -0.337 N 
ATOM      8  HN  UNL d   1      -0.592   2.385   1.234  1.00  0.00     0.168 HD
ATOM      9  N   UNL d   1      -0.108  -0.610  -0.080  0.00  0.00    -0.337 N 
ATOM     10  HN  UNL d   1       0.452  -1.041  -0.816  1.00  0.00     0.168 HD
ATOM     11  S   UNL d   1      -4.163   0.516   4.794  0.00  0.00    -0.052 SA
ATOM     12  C   UNL d   1      -0.039   0.712   0.143  0.00  0.00     0.183 A 
ENDROOT
BRANCH   6  13
ATOM     13  N   UNL d   1      -0.902  -2.746   0.500  0.00  0.00    -0.358 N 
BRANCH  13  14
ATOM     14  C   UNL d   1       0.330  -3.253  -0.121  0.00  0.00     0.163 C 
BRANCH  14  15
ATOM     15  C   UNL d   1       0.747  -4.621   0.393  0.00  0.00    -0.040 A 
ATOM     16  C   UNL d   1       1.486  -5.469  -0.446  0.00  0.00     0.009 A 
ATOM     17  C   UNL d   1       1.950  -6.702   0.016  0.00  0.00     0.001 A 
ATOM     18  C   UNL d   1       1.681  -7.105   1.323  0.00  0.00     0.000 A 
ATOM     19  C   UNL d   1       0.966  -6.268   2.173  0.00  0.00     0.001 A 
ATOM     20  C   UNL d   1       0.517  -5.024   1.719  0.00  0.00     0.009 A 
ENDBRANCH  14  15
ENDBRANCH  13  14
BRANCH  13  21
ATOM     21  C   UNL d   1      -2.150  -3.473   0.220  0.00  0.00     0.163 C 
BRANCH  21  22
ATOM     22  C   UNL d   1      -2.687  -3.411  -1.200  0.00  0.00    -0.040 A 
ATOM     23  C   UNL d   1      -3.248  -4.575  -1.758  0.00  0.00     0.009 A 
ATOM     24  C   UNL d   1      -3.892  -4.546  -2.997  0.00  0.00     0.001 A 
ATOM     25  C   UNL d   1      -3.988  -3.351  -3.702  0.00  0.00     0.000 A 
ATOM     26  C   UNL d   1      -3.435  -2.189  -3.170  0.00  0.00     0.001 A 
ATOM     27  C   UNL d   1      -2.796  -2.217  -1.925  0.00  0.00     0.009 A 
ENDBRANCH  21  22
ENDBRANCH  13  21
ENDBRANCH   6  13
BRANCH   2  28
ATOM     28  C   UNL d   1      -2.021   2.530   3.336  0.00  0.00     0.158 C 
BRANCH  28  29
ATOM     29  C   UNL d   1      -0.986   2.508   4.429  0.00  0.00    -0.017 C 
ATOM     30  C   UNL d   1      -1.208   2.887   5.695  0.00  0.00     0.008 C 
ENDBRANCH  28  29
ENDBRANCH   2  28
TORSDOF 7
