REMARK  7 active torsions:
REMARK  status: ('A' for Active; 'I' for Inactive)
REMARK    1  A    between atoms: C_3  and  S_1 
REMARK    2  A    between atoms: N_4  and  S_1 
REMARK    3  A    between atoms: C_2  and  C_10 
REMARK    4  A    between atoms: C_15  and  N_4 
REMARK    5  A    between atoms: C_5  and  C_7 
REMARK    6  A    between atoms: C_6  and  C_8 
REMARK    7  A    between atoms: C_10  and  C_16 
ROOT
ATOM      1  N   UNL d   1       0.698  -0.269  -1.557  0.00  0.00    -0.181 NA
ATOM      2  H   UNL d   1       1.541  -0.366  -0.991  0.00  0.00     0.146 HD
ENDROOT
BRANCH   1   3
ATOM      3  S   UNL d   1       0.169  -1.857  -1.907  0.00  0.00     0.245 S 
ATOM      4  O   UNL d   1      -0.513  -1.915  -3.187  0.00  0.00    -0.206 OA
ATOM      5  O   UNL d   1       1.300  -2.714  -1.618  0.00  0.00    -0.206 OA
BRANCH   3   6
ATOM      6  C   UNL d   1      -1.083  -2.207  -0.647  0.00  0.00     0.076 A 
ATOM      7  C   UNL d   1      -2.439  -1.987  -0.940  0.00  0.00     0.041 A 
ATOM      8  C   UNL d   1      -3.445  -2.448  -0.066  0.00  0.00     0.050 A 
ATOM      9  C   UNL d   1      -3.072  -3.128   1.108  0.00  0.00     0.032 A 
ATOM     10  C   UNL d   1      -1.722  -3.378   1.403  0.00  0.00     0.050 A 
ATOM     11  C   UNL d   1      -0.728  -2.909   0.518  0.00  0.00     0.041 A 
BRANCH   8  12
ATOM     12  C   UNL d   1      -4.919  -2.275  -0.369  0.00  0.00     0.417 C 
ATOM     13  F   UNL d   1      -5.167  -1.716  -1.583  0.00  0.00    -0.166 F 
ATOM     14  F   UNL d   1      -5.591  -3.460  -0.354  0.00  0.00    -0.166 F 
ATOM     15  F   UNL d   1      -5.543  -1.484   0.548  0.00  0.00    -0.166 F 
ENDBRANCH   8  12
BRANCH  10  16
ATOM     16  C   UNL d   1      -1.383  -4.175   2.647  0.00  0.00     0.417 C 
ATOM     17  F   UNL d   1      -0.079  -4.553   2.712  0.00  0.00    -0.166 F 
ATOM     18  F   UNL d   1      -1.635  -3.479   3.789  0.00  0.00    -0.166 F 
ATOM     19  F   UNL d   1      -2.113  -5.321   2.742  0.00  0.00    -0.166 F 
ENDBRANCH  10  16
ENDBRANCH   3   6
ENDBRANCH   1   3
BRANCH   1  20
ATOM     20  C   UNL d   1       0.922   0.612  -2.693  0.00  0.00     0.029 A 
ATOM     21  C   UNL d   1       2.212   1.033  -3.121  0.00  0.00    -0.034 A 
ATOM     22  C   UNL d   1       2.272   1.908  -4.216  0.00  0.00     0.009 A 
ATOM     23  C   UNL d   1       1.129   2.399  -4.845  0.00  0.00     0.001 A 
ATOM     24  C   UNL d   1      -0.121   1.984  -4.419  0.00  0.00     0.002 A 
ATOM     25  C   UNL d   1      -0.222   1.089  -3.354  0.00  0.00     0.025 A 
BRANCH  21  26
ATOM     26  C   UNL d   1       3.500   0.570  -2.455  0.00  0.00     0.081 C 
BRANCH  26  27
ATOM     27  C   UNL d   1       4.951   1.086  -2.866  0.00  0.00     0.260 C 
ATOM     28  N   UNL d   1       5.360   2.482  -2.596  0.00  0.00     0.093 NA
ATOM     29  C   UNL d   1       5.356   3.426  -3.710  0.00  0.00     0.277 C 
ATOM     30  C   UNL d   1       4.769   3.075  -1.404  0.00  0.00     0.310 C 
ATOM     31  C   UNL d   1       5.779   2.910  -5.092  0.00  0.00     0.069 C 
ATOM     32  C   UNL d   1       5.810   1.418  -5.257  0.00  0.00    -0.048 A 
ATOM     33  C   UNL d   1       5.459   0.556  -4.206  0.00  0.00    -0.018 A 
ATOM     34  C   UNL d   1       6.249   0.891  -6.485  0.00  0.00     0.008 A 
ATOM     35  C   UNL d   1       5.633  -0.828  -4.394  0.00  0.00     0.010 A 
ATOM     36  C   UNL d   1       6.101  -1.341  -5.606  0.00  0.00     0.001 A 
ATOM     37  C   UNL d   1       6.392  -0.482  -6.659  0.00  0.00     0.001 A 
ENDBRANCH  26  27
ENDBRANCH  21  26
ENDBRANCH   1  20
TORSDOF 7
