REMARK  2 active torsions:
REMARK  status: ('A' for Active; 'I' for Inactive)
REMARK    1  A    between atoms: C_10  and  N_3 
REMARK    2  A    between atoms: N_12  and  C_10 
ROOT
ATOM      1  N   UNL d   1       0.647   0.732  -0.405  0.00  0.00    -0.251 N 
ATOM      2  C   UNL d   1       1.512   0.415  -1.425  0.00  0.00     0.174 A 
ATOM      3  N   UNL d   1       3.282   0.067  -0.032  0.00  0.00    -0.222 N 
ATOM      4  C   UNL d   1       1.076   0.731   0.902  0.00  0.00     0.324 A 
ATOM      5  C   UNL d   1       2.536   0.313   1.119  0.00  0.00     0.332 A 
ATOM      6  N   UNL d   1       2.750   0.093  -1.303  0.00  0.00    -0.272 N 
ATOM      7  HN  UNL d   1       3.319  -0.135  -2.118  1.00  0.00     0.189 HD
ATOM      8  S   UNL d   1       0.726   0.485  -2.994  0.00  0.00    -0.050 SA
ATOM      9  C   UNL d   1      -0.666   1.039  -0.843  0.00  0.00     0.062 A 
ATOM     10  C   UNL d   1      -0.802   0.954  -2.235  0.00  0.00     0.035 A 
ATOM     11  O   UNL d   1       2.954   0.189   2.266  0.00  0.00    -0.260 OA
ATOM     12  O   UNL d   1       0.396   1.015   1.885  0.00  0.00    -0.261 OA
ATOM     13  C   UNL d   1      -1.764   1.390  -0.067  0.00  0.00     0.031 A 
ATOM     14  C   UNL d   1      -2.006   1.213  -2.872  0.00  0.00     0.021 A 
ATOM     15  C   UNL d   1      -2.985   1.655  -0.698  0.00  0.00     0.002 A 
ATOM     16  C   UNL d   1      -3.106   1.568  -2.091  0.00  0.00     0.002 A 
ENDROOT
BRANCH   3  17
ATOM     17  C   UNL d   1       4.660  -0.387   0.094  0.00  0.00     0.424 C 
BRANCH  17  18
ATOM     18  N   UNL d   1       5.630   0.727   0.021  0.00  0.00     0.107 N 
ATOM     19  C   UNL d   1       5.571   1.397  -1.289  0.00  0.00     0.274 C 
ATOM     20  C   UNL d   1       6.721   2.375  -1.542  0.00  0.00     0.030 C 
ATOM     21  C   UNL d   1       8.069   1.707  -1.328  0.00  0.00     0.003 C 
ATOM     22  C   UNL d   1       8.122   1.138   0.080  0.00  0.00     0.030 C 
ATOM     23  C   UNL d   1       6.964   0.170   0.318  0.00  0.00     0.274 C 
ENDBRANCH  17  18
ENDBRANCH   3  17
TORSDOF 2
