REMARK  3 active torsions:
REMARK  status: ('A' for Active; 'I' for Inactive)
REMARK    1  A    between atoms: C_10  and  N_1 
REMARK    2  A    between atoms: C_9  and  C_4 
REMARK    3  A    between atoms: C_11  and  N_7 
ROOT
ATOM      1  N   UNL d   1      -0.358  -1.027   0.045  0.00  0.00    -0.267 N 
ATOM      2  N   UNL d   1       0.937  -0.650   0.227  0.00  0.00    -0.293 N 
ATOM      3  HN  UNL d   1       1.732  -1.251   0.448  1.00  0.00     0.187 HD
ATOM      4  C   UNL d   1       0.945   0.679   0.053  0.00  0.00     0.065 A 
ATOM      5  C   UNL d   1      -1.170   0.067  -0.155  0.00  0.00     0.119 A 
ATOM      6  C   UNL d   1      -0.358   1.174  -0.172  0.00  0.00     0.051 A 
ENDROOT
BRANCH   4   7
ATOM      7  C   UNL d   1       2.193   1.421   0.091  0.00  0.00     0.119 C 
ATOM      8  N   UNL d   1       2.202   2.659  -0.284  0.00  0.00    -0.364 N 
ATOM      9  HN  UNL d   1       1.335   3.120  -0.560  1.00  0.00     0.165 HD
BRANCH   8  10
ATOM     10  C   UNL d   1       3.417   3.360  -0.306  0.00  0.00     0.032 A 
ATOM     11  C   UNL d   1       4.623   2.804  -0.753  0.00  0.00     0.031 A 
ATOM     12  C   UNL d   1       5.788   3.575  -0.812  0.00  0.00     0.026 A 
ATOM     13  C   UNL d   1       5.749   4.917  -0.445  0.00  0.00     0.034 A 
ATOM     14  C   UNL d   1       4.556   5.493  -0.016  0.00  0.00     0.026 A 
ATOM     15 CL   UNL d   1       7.176   5.872  -0.540  0.00  0.00    -0.084 Cl
ATOM     16  C   UNL d   1       3.397   4.713   0.050  0.00  0.00     0.031 A 
ENDBRANCH   8  10
ENDBRANCH   4   7
BRANCH   1  17
ATOM     17  C   UNL d   1      -0.729  -2.402   0.056  0.00  0.00     0.056 A 
ATOM     18  C   UNL d   1       0.251  -3.381   0.288  0.00  0.00     0.031 A 
ATOM     19  C   UNL d   1      -0.090  -4.735   0.283  0.00  0.00     0.002 A 
ATOM     20  C   UNL d   1      -1.407  -5.123   0.043  0.00  0.00     0.000 A 
ATOM     21  C   UNL d   1      -2.385  -4.158  -0.188  0.00  0.00     0.002 A 
ATOM     22  C   UNL d   1      -2.052  -2.800  -0.182  0.00  0.00     0.031 A 
ENDBRANCH   1  17
TORSDOF 3
