REMARK  3 active torsions:
REMARK  status: ('A' for Active; 'I' for Inactive)
REMARK    1  A    between atoms: C_11  and  C_3 
REMARK    2  A    between atoms: O_14  and  C_4 
REMARK    3  A    between atoms: C_15  and  C_11 
ROOT
ATOM      1  C   UNL d   1       1.378   0.919  -0.020  0.00  0.00     0.101 A 
ATOM      2  C   UNL d   1       0.709  -0.244   0.019  0.00  0.00     0.110 A 
ATOM      3  C   UNL d   1       3.498  -0.301   0.047  0.00  0.00     0.056 A 
ATOM      4  C   UNL d   1       2.829   0.865  -0.044  0.00  0.00     0.096 A 
ATOM      5  C   UNL d   1       0.589   2.203  -0.017  0.00  0.00     0.261 A 
ATOM      6  C   UNL d   1       2.727  -1.565   0.169  0.00  0.00     0.297 A 
ATOM      7  O   UNL d   1       1.368  -1.487   0.092  0.00  0.00    -0.273 OA
ATOM      8  N   UNL d   1      -0.779   2.095  -0.016  0.00  0.00    -0.322 N 
ATOM      9  C   UNL d   1      -0.758  -0.315   0.008  0.00  0.00     0.026 A 
ATOM     10  C   UNL d   1      -1.475   0.886  -0.006  0.00  0.00     0.048 A 
ATOM     11  O   UNL d   1       1.093   3.321   0.002  0.00  0.00    -0.267 OA
ATOM     12  O   UNL d   1       3.285  -2.650   0.309  0.00  0.00    -0.259 OA
ATOM     13  C   UNL d   1      -1.468  -1.523   0.004  0.00  0.00     0.016 A 
ATOM     14  C   UNL d   1      -2.871   0.892  -0.011  0.00  0.00     0.030 A 
ATOM     15  C   UNL d   1      -2.865  -1.523  -0.006  0.00  0.00     0.001 A 
ATOM     16  C   UNL d   1      -3.566  -0.317  -0.010  0.00  0.00     0.002 A 
ATOM     17  H   UNL d   1      -1.278   2.974  -0.015  0.00  0.00     0.169 HD
ENDROOT
BRANCH   3  18
ATOM     18  C   UNL d   1       4.999  -0.456  -0.040  0.00  0.00     0.086 C 
BRANCH  18  19
ATOM     19  C   UNL d   1       5.692  -0.258   1.291  0.00  0.00    -0.054 A 
ATOM     20  C   UNL d   1       5.508  -1.179   2.333  0.00  0.00     0.007 A 
ATOM     21  C   UNL d   1       6.072  -0.955   3.589  0.00  0.00     0.001 A 
ATOM     22  C   UNL d   1       6.845   0.180   3.813  0.00  0.00     0.000 A 
ATOM     23  C   UNL d   1       7.079   1.078   2.773  0.00  0.00     0.001 A 
ATOM     24  C   UNL d   1       6.511   0.859   1.516  0.00  0.00     0.007 A 
ENDBRANCH  18  19
ENDBRANCH   3  18
BRANCH   4  25
ATOM     25  O   UNL d   1       3.463   2.076  -0.194  0.00  0.00    -0.359 OA
ATOM     26  H   UNL d   1       4.381   2.021   0.112  0.00  0.00     0.217 HD
ENDBRANCH   4  25
TORSDOF 3
