REMARK  9 active torsions:
REMARK  status: ('A' for Active; 'I' for Inactive)
REMARK    1  A    between atoms: C_8  and  C_1 
REMARK    2  A    between atoms: N_5  and  C_4 
REMARK       I    between atoms: C_10  and  N_5 
REMARK    3  A    between atoms: O_19  and  C_8 
REMARK    4  A    between atoms: C_9  and  S_11 
REMARK    5  A    between atoms: C_16  and  C_10 
REMARK    6  A    between atoms: S_11  and  C_16 
REMARK    7  A    between atoms: O_21  and  C_13 
REMARK    8  A    between atoms: O_22  and  C_18 
REMARK    9  A    between atoms: C_23  and  O_19 
ROOT
ATOM      1  N   UNL d   1       2.730  -3.061  -1.066  0.00  0.00    -0.306 N 
ATOM      2  C   UNL d   1       1.558  -3.417  -0.430  0.00  0.00     0.233 C 
ATOM      3  O   UNL d   1       0.694  -2.653  -0.007  0.00  0.00    -0.272 OA
ATOM      4  H   UNL d   1       3.360  -3.777  -1.397  0.00  0.00     0.171 HD
ENDROOT
BRANCH   2   5
ATOM      5  C   UNL d   1       1.318  -4.922  -0.392  0.00  0.00     0.182 C 
BRANCH   5   6
ATOM      6  S   UNL d   1       2.863  -5.827  -0.003  0.00  0.00    -0.118 SA
BRANCH   6   7
ATOM      7  C   UNL d   1       2.299  -7.529  -0.083  0.00  0.00     0.037 A 
ATOM      8  C   UNL d   1       1.707  -7.957  -1.290  0.00  0.00     0.058 A 
ATOM      9  C   UNL d   1       1.387  -9.298  -1.510  0.00  0.00     0.069 A 
ATOM     10  C   UNL d   1       1.642 -10.228  -0.506  0.00  0.00     0.039 A 
ATOM     11  C   UNL d   1       2.231  -9.826   0.693  0.00  0.00     0.041 A 
ATOM     12  C   UNL d   1       2.563  -8.483   0.916  0.00  0.00     0.085 A 
BRANCH   9  13
ATOM     13  O   UNL d   1       0.860  -9.820  -2.658  0.00  0.00    -0.356 OA
ATOM     14  C   UNL d   1       0.715  -8.939  -3.766  0.00  0.00     0.210 C 
ENDBRANCH   9  13
BRANCH  12  15
ATOM     15  O   UNL d   1       3.249  -8.282   2.086  0.00  0.00    -0.355 OA
ATOM     16  C   UNL d   1       2.809  -7.204   2.903  0.00  0.00     0.210 C 
ENDBRANCH  12  15
ENDBRANCH   6   7
ENDBRANCH   5   6
ENDBRANCH   2   5
BRANCH   1  17
ATOM     17  C   UNL d   1       3.177  -1.774  -1.100  0.00  0.00     0.151 A 
ATOM     18  N   UNL d   1       2.645  -0.714  -0.566  0.00  0.00    -0.331 N 
ATOM     19  C   UNL d   1       3.488   0.384  -0.743  0.00  0.00     0.117 A 
ATOM     20  HN  UNL d   1       1.745  -0.688  -0.088  1.00  0.00     0.168 HD
ATOM     21  C   UNL d   1       4.616   0.111  -1.499  0.00  0.00     0.089 A 
ATOM     22  S   UNL d   1       4.657  -1.555  -1.915  0.00  0.00    -0.063 SA
BRANCH  19  23
ATOM     23  C   UNL d   1       3.223   1.669  -0.097  0.00  0.00     0.310 C 
ATOM     24  O   UNL d   1       3.982   2.630  -0.171  0.00  0.00    -0.258 OA
BRANCH  23  25
ATOM     25  O   UNL d   1       2.103   1.620   0.678  0.00  0.00    -0.317 OA
BRANCH  25  26
ATOM     26  C   UNL d   1       2.000   2.609   1.706  0.00  0.00     0.175 C 
ATOM     27  C   UNL d   1       2.775   2.126   2.919  0.00  0.00     0.034 C 
ENDBRANCH  25  26
ENDBRANCH  23  25
ENDBRANCH  19  23
ENDBRANCH   1  17
TORSDOF 9
