REMARK  3 active torsions:
REMARK  status: ('A' for Active; 'I' for Inactive)
REMARK    1  A    between atoms: N_2  and  C_1 
REMARK    2  A    between atoms: C_5  and  C_4 
REMARK       I    between atoms: N_11  and  C_5 
REMARK    3  A    between atoms: N_12  and  N_11 
ROOT
ATOM      1  C   UNL d   1      -0.154   1.059   0.006  0.00  0.00     0.215 A 
ATOM      2  O   UNL d   1      -1.032   0.019   0.006  0.00  0.00    -0.283 OA
ATOM      3  C   UNL d   1      -0.274  -1.127  -0.001  0.00  0.00     0.146 A 
ATOM      4  C   UNL d   1       1.149   0.625   0.009  0.00  0.00     0.066 A 
ATOM      5  C   UNL d   1       1.071  -0.792   0.006  0.00  0.00     0.048 A 
ENDROOT
BRANCH   3   6
ATOM      6  C   UNL d   1      -0.933  -2.416  -0.026  0.00  0.00     0.289 C 
ATOM      7  O   UNL d   1      -0.334  -3.490  -0.085  0.00  0.00    -0.264 OA
ATOM      8  N   UNL d   1      -2.324  -2.344   0.013  0.00  0.00    -0.288 N 
ATOM      9  H   UNL d   1      -2.768  -1.437   0.152  0.00  0.00     0.183 HD
BRANCH   8  10
ATOM     10  N   UNL d   1      -3.105  -3.522   0.059  0.00  0.00    -0.247 NA
ATOM     11  H   UNL d   1      -2.455  -4.313   0.170  0.00  0.00     0.143 HD
ATOM     12  H   UNL d   1      -3.519  -3.664  -0.865  0.00  0.00     0.143 HD
ENDBRANCH   8  10
ENDBRANCH   3   6
BRANCH   1  13
ATOM     13  N   UNL d   1      -0.724   2.369  -0.005  0.00  0.00    -0.090 N 
ATOM     14  O   UNL d   1       0.075   3.315  -0.012  0.00  0.00    -0.530 OA
ATOM     15  O   UNL d   1      -1.958   2.459  -0.010  0.00  0.00    -0.530 OA
ENDBRANCH   1  13
TORSDOF 3
