REMARK  4 active torsions:
REMARK  status: ('A' for Active; 'I' for Inactive)
REMARK    1  A    between atoms: C_11  and  N_1 
REMARK    2  A    between atoms: N_5  and  C_2 
REMARK    3  A    between atoms: C_9  and  C_8 
REMARK    4  A    between atoms: O_13  and  C_12 
ROOT
ATOM      1  N   UNL d   1       0.844  -0.714   0.168  0.00  0.00    -0.240 N 
ATOM      2  C   UNL d   1      -0.490  -1.143   0.102  0.00  0.00     0.128 C 
ATOM      3  N   UNL d   1       0.926   0.638   0.330  0.00  0.00    -0.303 N 
ATOM      4  HN  UNL d   1       1.760   1.196   0.516  1.00  0.00     0.186 HD
ATOM      5  C   UNL d   1      -1.241   0.017   0.048  0.00  0.00     0.069 C 
ATOM      6  C   UNL d   1      -0.326   1.066   0.192  0.00  0.00     0.111 C 
ENDROOT
BRANCH   2   7
ATOM      7  N   UNL d   1      -0.854  -2.452   0.221  0.00  0.00    -0.350 N 
ATOM      8  C   UNL d   1      -1.787  -2.885  -0.563  0.00  0.00     0.104 C 
ATOM      9  HN  UNL d   1      -0.408  -3.066   0.902  1.00  0.00     0.166 HD
BRANCH   8  10
ATOM     10  C   UNL d   1      -2.242  -4.288  -0.476  0.00  0.00     0.012 A 
ATOM     11  C   UNL d   1      -1.963  -5.086   0.642  0.00  0.00     0.077 A 
ATOM     12  C   UNL d   1      -2.403  -6.406   0.688  0.00  0.00     0.037 A 
ATOM     13  C   UNL d   1      -3.108  -6.942  -0.390  0.00  0.00     0.003 A 
ATOM     14  C   UNL d   1      -3.385  -6.152  -1.507  0.00  0.00     0.001 A 
ATOM     15  C   UNL d   1      -2.962  -4.821  -1.549  0.00  0.00     0.015 A 
BRANCH  11  16
ATOM     16  O   UNL d   1      -1.272  -4.633   1.731  0.00  0.00    -0.360 OA
ATOM     17  H   UNL d   1      -0.930  -3.738   1.513  0.00  0.00     0.217 HD
ENDBRANCH  11  16
ENDBRANCH   8  10
ENDBRANCH   2   7
BRANCH   1  18
ATOM     18  C   UNL d   1       2.037  -1.485   0.056  0.00  0.00     0.058 A 
ATOM     19  C   UNL d   1       2.055  -2.690  -0.656  0.00  0.00     0.031 A 
ATOM     20  C   UNL d   1       3.249  -3.402  -0.796  0.00  0.00     0.002 A 
ATOM     21  C   UNL d   1       4.419  -2.932  -0.202  0.00  0.00     0.000 A 
ATOM     22  C   UNL d   1       4.406  -1.736   0.514  0.00  0.00     0.002 A 
ATOM     23  C   UNL d   1       3.224  -1.001   0.627  0.00  0.00     0.031 A 
ENDBRANCH   1  18
TORSDOF 4
