REMARK  5 active torsions:
REMARK  status: ('A' for Active; 'I' for Inactive)
REMARK    1  A    between atoms: N_2  and  C_1 
REMARK    2  A    between atoms: N_3  and  C_1 
REMARK    3  A    between atoms: C_9  and  N_3 
REMARK    4  A    between atoms: C_5  and  C_8 
REMARK    5  A    between atoms: O_15  and  C_10 
ROOT
ATOM      1  N   UNL d   1      -0.210  -1.050  -0.083  0.00  0.00    -0.358 N 
ATOM      2  C   UNL d   1       0.342  -2.387  -0.316  0.00  0.00     0.126 C 
ATOM      3  C   UNL d   1      -1.095  -0.603  -1.149  0.00  0.00     0.126 C 
ATOM      4  C   UNL d   1      -1.819  -3.057  -1.530  0.00  0.00     0.024 C 
ATOM      5  C   UNL d   1      -2.251  -1.583  -1.352  0.00  0.00     0.029 C 
ATOM      6  C   UNL d   1      -0.746  -3.440  -0.491  0.00  0.00     0.029 C 
ENDROOT
BRANCH   1   7
ATOM      7  C   UNL d   1       0.680  -0.137   0.482  0.00  0.00     0.174 C 
ATOM      8  S   UNL d   1       1.770   0.800  -0.380  0.00  0.00    -0.041 SA
BRANCH   7   9
ATOM      9  N   UNL d   1       0.752  -0.148   1.854  0.00  0.00    -0.333 N 
ATOM     10  H   UNL d   1       1.621   0.200   2.235  0.00  0.00     0.168 HD
BRANCH   9  11
ATOM     11  C   UNL d   1      -0.318  -0.237   2.772  0.00  0.00     0.034 A 
ATOM     12  C   UNL d   1      -1.651  -0.032   2.405  0.00  0.00     0.036 A 
ATOM     13  C   UNL d   1      -2.673   0.004   3.363  0.00  0.00    -0.060 A 
ATOM     14  C   UNL d   1      -4.088   0.294   2.957  0.00  0.00     0.048 C 
ATOM     15  C   UNL d   1      -2.353  -0.215   4.705  0.00  0.00     0.007 A 
ATOM     16  C   UNL d   1      -1.026  -0.425   5.083  0.00  0.00     0.003 A 
ATOM     17  C   UNL d   1      -0.011  -0.416   4.123  0.00  0.00     0.029 A 
ENDBRANCH   9  11
ENDBRANCH   7   9
ENDBRANCH   1   7
BRANCH   4  18
ATOM     18  C   UNL d   1      -1.479  -3.493  -2.960  0.00  0.00    -0.021 A 
ATOM     19  C   UNL d   1      -1.693  -4.832  -3.372  0.00  0.00     0.074 A 
ATOM     20  C   UNL d   1      -1.407  -5.221  -4.690  0.00  0.00     0.037 A 
ATOM     21  C   UNL d   1      -0.943  -4.296  -5.622  0.00  0.00     0.003 A 
ATOM     22  C   UNL d   1      -0.745  -2.979  -5.238  0.00  0.00     0.001 A 
ATOM     23  C   UNL d   1      -1.004  -2.587  -3.923  0.00  0.00     0.010 A 
BRANCH  19  24
ATOM     24  O   UNL d   1      -2.179  -5.703  -2.427  0.00  0.00    -0.355 OA
ATOM     25  C   UNL d   1      -2.837  -6.865  -2.925  0.00  0.00     0.210 C 
ENDBRANCH  19  24
ENDBRANCH   4  18
TORSDOF 5
