REMARK  5 active torsions:
REMARK  status: ('A' for Active; 'I' for Inactive)
REMARK    1  A    between atoms: C_14  and  N_7 
REMARK    2  A    between atoms: N_11  and  C_10 
REMARK    3  A    between atoms: N_12  and  N_11 
REMARK    4  A    between atoms: C_24  and  C_14 
REMARK    5  A    between atoms: C_18  and  C_17 
ROOT
ATOM      1  C   UNL d   1      -0.081  -1.227  -0.001  0.00  0.00     0.160 A 
ATOM      2  C   UNL d   1       0.670  -2.365  -0.020  0.00  0.00     0.165 A 
ATOM      3  N   UNL d   1      -1.403  -1.496   0.054  0.00  0.00    -0.172 N 
ATOM      4  HN  UNL d   1      -2.167  -0.819   0.071  1.00  0.00     0.186 HD
ATOM      5  N   UNL d   1       0.481   0.024  -0.003  0.00  0.00    -0.287 N 
ATOM      6  N   UNL d   1       2.621  -1.032  -0.005  0.00  0.00    -0.269 N 
ATOM      7  N   UNL d   1      -0.246  -3.393  -0.018  0.00  0.00    -0.168 N 
ATOM      8  C   UNL d   1       1.867   0.157  -0.003  0.00  0.00     0.332 A 
ATOM      9  C   UNL d   1       2.093  -2.333  -0.010  0.00  0.00     0.282 A 
ATOM     10  C   UNL d   1      -1.507  -2.811   0.081  0.00  0.00     0.701 A 
ATOM     11  O   UNL d   1       2.401   1.270   0.003  0.00  0.00    -0.246 OA
ATOM     12  O   UNL d   1       2.793  -3.343   0.017  0.00  0.00    -0.265 OA
ATOM     13  C   UNL d   1      -0.341   1.220   0.019  0.00  0.00     0.163 C 
ATOM     14  C   UNL d   1       4.066  -0.918   0.031  0.00  0.00     0.164 C 
ENDROOT
BRANCH  10  15
ATOM     15  N   UNL d   1      -2.666  -3.515   0.213  0.00  0.00    -0.132 N 
ATOM     16  H   UNL d   1      -2.650  -4.528   0.235  0.00  0.00     0.205 HD
BRANCH  15  17
ATOM     17  N   UNL d   1      -3.760  -2.886   0.735  0.00  0.00    -0.290 N 
ATOM     18  C   UNL d   1      -4.947  -3.416   0.681  0.00  0.00     0.032 C 
ATOM     19  C   UNL d   1      -5.272  -4.733   0.011  0.00  0.00     0.070 C 
ATOM     20  HN  UNL d   1      -3.644  -1.976   1.180  1.00  0.00     0.187 HD
BRANCH  18  21
ATOM     21  C   UNL d   1      -6.086  -2.660   1.325  0.00  0.00    -0.013 A 
ATOM     22  C   UNL d   1      -5.840  -1.401   1.900  0.00  0.00     0.015 A 
ATOM     23  C   UNL d   1      -6.872  -0.681   2.515  0.00  0.00     0.024 A 
ATOM     24  C   UNL d   1      -8.157  -1.213   2.559  0.00  0.00     0.034 A 
ATOM     25  C   UNL d   1      -8.418  -2.458   1.992  0.00  0.00     0.024 A 
ATOM     26 CL   UNL d   1      -9.427  -0.335   3.317  0.00  0.00    -0.084 Cl
ATOM     27  C   UNL d   1      -7.387  -3.180   1.377  0.00  0.00     0.015 A 
ENDBRANCH  18  21
ENDBRANCH  15  17
ENDBRANCH  10  15
BRANCH   7  28
ATOM     28  C   UNL d   1       0.077  -4.812   0.020  0.00  0.00     0.186 C 
BRANCH  28  29
ATOM     29  C   UNL d   1       0.304  -5.398  -1.354  0.00  0.00    -0.039 A 
ATOM     30  C   UNL d   1       1.571  -5.886  -1.716  0.00  0.00     0.009 A 
ATOM     31  C   UNL d   1       1.790  -6.442  -2.978  0.00  0.00     0.001 A 
ATOM     32  C   UNL d   1       0.746  -6.522  -3.896  0.00  0.00     0.000 A 
ATOM     33  C   UNL d   1      -0.518  -6.052  -3.549  0.00  0.00     0.001 A 
ATOM     34  C   UNL d   1      -0.740  -5.496  -2.286  0.00  0.00     0.009 A 
ENDBRANCH  28  29
ENDBRANCH   7  28
TORSDOF 5
