REMARK  4 active torsions:
REMARK  status: ('A' for Active; 'I' for Inactive)
REMARK    1  A    between atoms: C_4  and  N_1 
REMARK    2  A    between atoms: S_10  and  C_4 
REMARK    3  A    between atoms: C_6  and  C_12 
REMARK    4  A    between atoms: C_7  and  S_10 
ROOT
ATOM      1  C   UNL d   1       4.105  -4.278   0.690  0.00  0.00     0.146 A 
ATOM      2  N   UNL d   1       5.293  -4.772   1.073  0.00  0.00    -0.333 N 
ATOM      3  HN  UNL d   1       6.090  -4.158   1.236  1.00  0.00     0.168 HD
ATOM      4  C   UNL d   1       5.399  -6.117   1.238  0.00  0.00     0.119 A 
ATOM      5  N   UNL d   1       3.022  -5.028   0.435  0.00  0.00    -0.347 N 
ATOM      6  HN  UNL d   1       2.143  -4.615   0.125  1.00  0.00     0.167 HD
ATOM      7  C   UNL d   1       4.325  -6.958   1.015  0.00  0.00     0.051 A 
ATOM      8  C   UNL d   1       3.156  -6.357   0.612  0.00  0.00     0.092 A 
ENDROOT
BRANCH   1   9
ATOM      9  S   UNL d   1       4.016  -2.514   0.550  0.00  0.00    -0.073 SA
BRANCH   9  10
ATOM     10  C   UNL d   1       2.283  -2.304   0.057  0.00  0.00     0.213 C 
BRANCH  10  11
ATOM     11  N   UNL d   1       1.903  -0.889   0.058  0.00  0.00    -0.321 N 
ATOM     12  C   UNL d   1       1.224  -0.256   1.105  0.00  0.00     0.147 A 
ATOM     13  S   UNL d   1       0.943   1.453   0.703  0.00  0.00    -0.058 SA
ATOM     14  S   UNL d   1       0.706  -0.912   2.550  0.00  0.00    -0.052 SA
ATOM     15  C   UNL d   1       1.793   1.286  -0.834  0.00  0.00     0.034 A 
ATOM     16  C   UNL d   1       2.241  -0.023  -1.021  0.00  0.00     0.054 A 
ATOM     17  C   UNL d   1       2.027   2.282  -1.770  0.00  0.00     0.021 A 
ATOM     18  C   UNL d   1       2.951  -0.350  -2.171  0.00  0.00     0.031 A 
ATOM     19  C   UNL d   1       3.201   0.648  -3.120  0.00  0.00     0.002 A 
ATOM     20  C   UNL d   1       2.740   1.956  -2.923  0.00  0.00     0.002 A 
ENDBRANCH  10  11
ENDBRANCH   9  10
ENDBRANCH   1   9
BRANCH   4  21
ATOM     21  C   UNL d   1       6.720  -6.711   1.699  0.00  0.00     0.432 C 
ATOM     22  F   UNL d   1       7.737  -5.812   1.811  0.00  0.00    -0.165 F 
ATOM     23  F   UNL d   1       6.617  -7.316   2.918  0.00  0.00    -0.165 F 
ATOM     24  F   UNL d   1       7.175  -7.681   0.851  0.00  0.00    -0.165 F 
ENDBRANCH   4  21
TORSDOF 4
