REMARK  2 active torsions:
REMARK  status: ('A' for Active; 'I' for Inactive)
REMARK    1  A    between atoms: C_8  and  C_4 
REMARK    2  A    between atoms: C_14  and  N_7 
ROOT
ATOM      1  N   UNL d   1       1.442  -0.528   0.029  0.00  0.00    -0.335 N 
ATOM      2  HN  UNL d   1       2.352  -0.989   0.026  1.00  0.00     0.168 HD
ATOM      3  C   UNL d   1       0.292  -1.161   0.012  0.00  0.00     0.149 A 
ATOM      4  C   UNL d   1       1.264   0.841   0.052  0.00  0.00     0.051 A 
ATOM      5  S   UNL d   1      -1.084  -0.125   0.130  0.00  0.00    -0.064 SA
ATOM      6  C   UNL d   1      -0.054   1.248   0.096  0.00  0.00     0.083 A 
ATOM      7  N   UNL d   1       0.126  -2.502  -0.076  0.00  0.00    -0.335 N 
ATOM      8  H   UNL d   1      -0.821  -2.854  -0.003  0.00  0.00     0.168 HD
ENDROOT
BRANCH   7   9
ATOM      9  C   UNL d   1       1.033  -3.417  -0.644  0.00  0.00     0.049 A 
ATOM     10  C   UNL d   1       2.235  -3.070  -1.268  0.00  0.00     0.117 A 
ATOM     11  N   UNL d   1       3.123  -3.952  -1.802  0.00  0.00    -0.373 N 
ATOM     12  C   UNL d   1       2.817  -5.258  -1.687  0.00  0.00     0.088 A 
ATOM     13  HN  UNL d   1       3.976  -3.639  -2.266  1.00  0.00     0.164 HD
ATOM     14  C   UNL d   1       1.675  -5.721  -1.061  0.00  0.00     0.019 A 
ATOM     15  C   UNL d   1       0.782  -4.789  -0.530  0.00  0.00     0.032 A 
ENDBRANCH   7   9
BRANCH   4  16
ATOM     16  C   UNL d   1       2.417   1.731   0.042  0.00  0.00    -0.009 A 
ATOM     17  C   UNL d   1       2.373   2.997  -0.557  0.00  0.00     0.015 A 
ATOM     18  C   UNL d   1       3.508   3.815  -0.565  0.00  0.00     0.024 A 
ATOM     19  C   UNL d   1       4.690   3.372   0.025  0.00  0.00     0.034 A 
ATOM     20  C   UNL d   1       4.753   2.114   0.618  0.00  0.00     0.024 A 
ATOM     21 CL   UNL d   1       6.082   4.383   0.015  0.00  0.00    -0.084 Cl
ATOM     22  C   UNL d   1       3.620   1.295   0.621  0.00  0.00     0.015 A 
ENDBRANCH   4  16
TORSDOF 2
