REMARK  5 active torsions:
REMARK  status: ('A' for Active; 'I' for Inactive)
REMARK    1  A    between atoms: C_8  and  C_3 
REMARK    2  A    between atoms: C_13  and  C_7 
REMARK    3  A    between atoms: C_11  and  C_21 
REMARK    4  A    between atoms: O_24  and  C_13 
REMARK    5  A    between atoms: N_18  and  O_24 
ROOT
ATOM      1  N   UNL d   1       0.981  -0.644   0.088  0.00  0.00    -0.277 N 
ATOM      2  HN  UNL d   1       1.814  -1.227   0.170  1.00  0.00     0.189 HD
ATOM      3  C   UNL d   1      -0.265  -1.062  -0.021  0.00  0.00     0.174 A 
ATOM      4  O   UNL d   1      -1.160  -0.023  -0.112  0.00  0.00    -0.275 OA
ATOM      5  N   UNL d   1       0.940   0.734   0.069  0.00  0.00    -0.279 N 
ATOM      6  HN  UNL d   1       1.736   1.369   0.137  1.00  0.00     0.189 HD
ATOM      7  C   UNL d   1      -0.326   1.071  -0.055  0.00  0.00     0.167 A 
ENDROOT
BRANCH   7   8
ATOM      8  C   UNL d   1      -0.943   2.418  -0.012  0.00  0.00     0.287 C 
BRANCH   8   9
ATOM      9  O   UNL d   1      -1.050   2.930  -1.348  0.00  0.00    -0.273 OA
BRANCH   9  10
ATOM     10  N   UNL d   1      -1.592   4.229  -1.267  0.00  0.00    -0.277 N 
ATOM     11  C   UNL d   1      -1.692   4.749  -2.451  0.00  0.00     0.128 C 
ATOM     12  HN  UNL d   1      -1.866   4.694  -0.401  1.00  0.00     0.193 HD
BRANCH  11  13
ATOM     13  C   UNL d   1      -2.228   6.111  -2.642  0.00  0.00     0.018 A 
ATOM     14  C   UNL d   1      -2.360   6.657  -3.906  0.00  0.00     0.116 A 
ATOM     15  O   UNL d   1      -2.056   6.070  -5.097  0.00  0.00    -0.322 OA
ATOM     16  C   UNL d   1      -2.851   7.935  -4.078  0.00  0.00     0.105 A 
ATOM     17  C   UNL d   1      -2.462   7.096  -6.029  0.00  0.00     0.352 A 
ATOM     18  O   UNL d   1      -2.910   8.303  -5.386  0.00  0.00    -0.323 OA
ATOM     19  C   UNL d   1      -3.234   8.728  -3.015  0.00  0.00     0.040 A 
ATOM     20  C   UNL d   1      -3.121   8.194  -1.731  0.00  0.00     0.004 A 
ATOM     21  C   UNL d   1      -2.620   6.893  -1.544  0.00  0.00     0.016 A 
ENDBRANCH  11  13
ENDBRANCH   9  10
ENDBRANCH   8   9
ENDBRANCH   7   8
BRANCH   3  22
ATOM     22  C   UNL d   1      -0.782  -2.428  -0.067  0.00  0.00     0.018 A 
ATOM     23  C   UNL d   1       0.109  -3.509   0.065  0.00  0.00     0.028 A 
ATOM     24  C   UNL d   1      -0.327  -4.844  -0.034  0.00  0.00    -0.025 A 
ATOM     25  C   UNL d   1       0.570  -5.921   0.074  0.00  0.00     0.012 A 
ATOM     26  C   UNL d   1      -1.694  -5.107  -0.262  0.00  0.00    -0.026 A 
ATOM     27  C   UNL d   1       0.126  -7.239  -0.058  0.00  0.00     0.001 A 
ATOM     28  C   UNL d   1      -1.220  -7.497  -0.294  0.00  0.00     0.001 A 
ATOM     29  C   UNL d   1      -2.126  -6.438  -0.391  0.00  0.00     0.012 A 
ATOM     30  C   UNL d   1      -2.589  -4.030  -0.363  0.00  0.00     0.013 A 
ATOM     31  C   UNL d   1      -2.139  -2.707  -0.266  0.00  0.00     0.017 A 
ENDBRANCH   3  22
TORSDOF 5
