REMARK  1 active torsions:
REMARK  status: ('A' for Active; 'I' for Inactive)
REMARK    1  A    between atoms: N_12  and  C_6 
ROOT
ATOM      1  C   UNL d   1      -0.374   0.659   0.070  0.00  0.00     0.039 A 
ATOM      2  C   UNL d   1       2.097   0.499   0.319  0.00  0.00     0.018 C 
ATOM      3  C   UNL d   1       0.887   1.377   0.260  0.00  0.00     0.192 C 
ATOM      4  C   UNL d   1      -0.484  -0.702  -0.160  0.00  0.00     0.055 A 
ATOM      5  S   UNL d   1       0.857  -1.820  -0.353  0.00  0.00    -0.117 SA
ATOM      6  C   UNL d   1       3.022   0.815   1.241  0.00  0.00     0.096 C 
ATOM      7  S   UNL d   1      -2.104  -1.231  -0.245  0.00  0.00    -0.094 SA
ATOM      8  C   UNL d   1       2.148  -0.593  -0.697  0.00  0.00     0.124 C 
ATOM      9  C   UNL d   1      -1.675   1.267   0.116  0.00  0.00     0.024 A 
ATOM     10  C   UNL d   1      -2.696   0.355  -0.030  0.00  0.00     0.052 A 
ATOM     11  O   UNL d   1       0.947   2.595   0.401  0.00  0.00    -0.287 OA
ENDROOT
BRANCH   6  12
ATOM     12  N   UNL d   1       4.202   0.184   1.619  0.00  0.00    -0.398 N 
ATOM     13  C   UNL d   1       4.391  -1.268   1.579  0.00  0.00     0.148 C 
ATOM     14  C   UNL d   1       5.196   0.882   2.441  0.00  0.00     0.148 C 
ENDBRANCH   6  12
TORSDOF 1
