REMARK  8 active torsions:
REMARK  status: ('A' for Active; 'I' for Inactive)
REMARK    1  A    between atoms: S_2  and  C_1 
REMARK    2  A    between atoms: C_3  and  C_1 
REMARK    3  A    between atoms: C_4  and  C_1 
REMARK    4  A    between atoms: C_6  and  S_2 
REMARK    5  A    between atoms: C_5  and  C_3 
REMARK    6  A    between atoms: C_10  and  C_5 
REMARK    7  A    between atoms: O_12  and  C_7 
REMARK    8  A    between atoms: N_11  and  C_8 
ROOT
ATOM      1  C   UNL d   1       0.883  -0.101   0.217  0.00  0.00     0.095 C 
ENDROOT
BRANCH   1   2
ATOM      2  S   UNL d   1       0.572  -0.899   1.862  0.00  0.00    -0.118 SA
BRANCH   2   3
ATOM      3  C   UNL d   1      -1.210  -1.189   1.774  0.00  0.00     0.022 A 
ATOM      4  C   UNL d   1      -2.076  -0.544   2.684  0.00  0.00     0.022 A 
ATOM      5  C   UNL d   1      -3.460  -0.727   2.555  0.00  0.00     0.024 A 
ATOM      6  C   UNL d   1      -3.982  -1.580   1.583  0.00  0.00     0.002 A 
ATOM      7  C   UNL d   1      -3.122  -2.249   0.714  0.00  0.00     0.001 A 
ATOM      8  C   UNL d   1      -1.740  -2.060   0.812  0.00  0.00     0.020 A 
BRANCH   4   9
ATOM      9  N   UNL d   1      -1.610   0.454   3.560  0.00  0.00    -0.302 NA
ATOM     10  H   UNL d   1      -0.599   0.395   3.697  0.00  0.00     0.124 HD
ATOM     11  H   UNL d   1      -2.123   0.513   4.432  0.00  0.00     0.124 HD
ENDBRANCH   4   9
ENDBRANCH   2   3
ENDBRANCH   1   2
BRANCH   1  12
ATOM     12  C   UNL d   1      -0.107   1.062  -0.038  0.00  0.00     0.104 C 
BRANCH  12  13
ATOM     13  C   UNL d   1      -0.045   2.233   0.941  0.00  0.00     0.161 C 
ATOM     14  O   UNL d   1       0.748   2.288   1.883  0.00  0.00    -0.292 OA
BRANCH  13  15
ATOM     15  C   UNL d   1      -0.936   3.406   0.685  0.00  0.00     0.010 A 
ATOM     16  C   UNL d   1      -1.829   3.449  -0.393  0.00  0.00     0.015 A 
ATOM     17  C   UNL d   1      -2.599   4.591  -0.623  0.00  0.00     0.001 A 
ATOM     18  C   UNL d   1      -2.488   5.693   0.222  0.00  0.00     0.000 A 
ATOM     19  C   UNL d   1      -1.610   5.656   1.304  0.00  0.00     0.001 A 
ATOM     20  C   UNL d   1      -0.837   4.516   1.536  0.00  0.00     0.015 A 
ENDBRANCH  13  15
ENDBRANCH  12  13
ENDBRANCH   1  12
BRANCH   1  21
ATOM     21  C   UNL d   1       2.364   0.213  -0.087  0.00  0.00    -0.010 A 
ATOM     22  C   UNL d   1       3.361  -0.789  -0.095  0.00  0.00     0.075 A 
ATOM     23  C   UNL d   1       4.662  -0.501  -0.548  0.00  0.00     0.037 A 
ATOM     24  C   UNL d   1       5.014   0.781  -0.960  0.00  0.00     0.003 A 
ATOM     25  C   UNL d   1       4.065   1.789  -0.925  0.00  0.00     0.001 A 
ATOM     26  C   UNL d   1       2.765   1.506  -0.500  0.00  0.00     0.011 A 
BRANCH  22  27
ATOM     27  O   UNL d   1       3.003  -2.060   0.284  0.00  0.00    -0.355 OA
ATOM     28  C   UNL d   1       4.043  -2.821   0.902  0.00  0.00     0.210 C 
ENDBRANCH  22  27
ENDBRANCH   1  21
TORSDOF 8
