REMARK  2 active torsions:
REMARK  status: ('A' for Active; 'I' for Inactive)
REMARK    1  A    between atoms: C_10  and  C_7 
REMARK       I    between atoms: N_12  and  C_10 
REMARK    2  A    between atoms: N_14  and  N_12 
ROOT
ATOM      1  C   UNL d   1       0.137  -0.853   0.004  0.00  0.00     0.104 A 
ATOM      2  C   UNL d   1      -0.031   0.472  -0.011  0.00  0.00     0.024 A 
ATOM      3  S   UNL d   1       1.724  -1.328  -0.021  0.00  0.00    -0.065 SA
ATOM      4  N   UNL d   1      -1.101  -1.391   0.029  0.00  0.00    -0.289 N 
ATOM      5  N   UNL d   1      -2.074  -0.433   0.036  0.00  0.00    -0.302 N 
ATOM      6  HN  UNL d   1      -3.085  -0.568   0.056  1.00  0.00     0.187 HD
ATOM      7  C   UNL d   1       2.235   0.348  -0.071  0.00  0.00     0.077 A 
ATOM      8  C   UNL d   1       1.142   1.220  -0.051  0.00  0.00     0.041 A 
ATOM      9  C   UNL d   1      -1.394   0.736   0.010  0.00  0.00     0.035 A 
ATOM     10  C   UNL d   1      -1.472  -2.782   0.028  0.00  0.00     0.178 C 
ATOM     11  C   UNL d   1      -2.125   2.023   0.001  0.00  0.00     0.070 C 
ENDROOT
BRANCH   7  12
ATOM     12  C   UNL d   1       3.646   0.706  -0.146  0.00  0.00     0.272 C 
ATOM     13  O   UNL d   1       4.043   1.867  -0.257  0.00  0.00    -0.266 OA
ATOM     14  N   UNL d   1       4.545  -0.360  -0.088  0.00  0.00    -0.289 N 
ATOM     15  H   UNL d   1       4.191  -1.296   0.099  0.00  0.00     0.183 HD
BRANCH  14  16
ATOM     16  N   UNL d   1       5.939  -0.134  -0.107  0.00  0.00    -0.247 NA
ATOM     17  H   UNL d   1       6.081   0.876   0.034  0.00  0.00     0.143 HD
ATOM     18  H   UNL d   1       6.271  -0.300  -1.061  0.00  0.00     0.143 HD
ENDBRANCH  14  16
ENDBRANCH   7  12
TORSDOF 2
