REMARK  4 active torsions:
REMARK  status: ('A' for Active; 'I' for Inactive)
REMARK    1  A    between atoms: C_13  and  N_1 
REMARK    2  A    between atoms: N_12  and  C_7 
REMARK    3  A    between atoms: C_15  and  N_12 
REMARK    4  A    between atoms: C_16  and  C_13 
ROOT
ATOM      1  N   UNL d   1       1.478   1.070  -0.051  0.00  0.00    -0.254 N 
ATOM      2  C   UNL d   1       0.259  -0.714  -0.108  0.00  0.00     0.136 A 
ATOM      3  C   UNL d   1       0.176   0.667  -0.128  0.00  0.00     0.154 A 
ATOM      4  N   UNL d   1       2.322   0.012  -0.048  0.00  0.00    -0.018 NA
ATOM      5  N   UNL d   1       1.578  -1.092  -0.066  0.00  0.00    -0.277 N 
ATOM      6  HN  UNL d   1       1.926  -2.051  -0.051  1.00  0.00     0.184 HD
ATOM      7  C   UNL d   1      -0.951  -1.424  -0.105  0.00  0.00     0.139 A 
ATOM      8  N   UNL d   1      -0.931   1.428  -0.184  0.00  0.00    -0.336 N 
ATOM      9  HN  UNL d   1      -0.933   2.448  -0.202  1.00  0.00     0.168 HD
ATOM     10  N   UNL d   1      -2.100  -0.682  -0.173  0.00  0.00    -0.337 N 
ATOM     11  HN  UNL d   1      -3.007  -1.148  -0.194  1.00  0.00     0.168 HD
ATOM     12  C   UNL d   1      -2.032   0.661  -0.212  0.00  0.00     0.183 A 
ENDROOT
BRANCH   7  13
ATOM     13  N   UNL d   1      -1.024  -2.825  -0.048  0.00  0.00    -0.340 N 
ATOM     14  H   UNL d   1      -0.128  -3.298  -0.104  0.00  0.00     0.167 HD
BRANCH  13  15
ATOM     15  C   UNL d   1      -2.071  -3.596   0.486  0.00  0.00     0.033 A 
ATOM     16  C   UNL d   1      -2.293  -4.896   0.023  0.00  0.00     0.030 A 
ATOM     17  C   UNL d   1      -3.391  -5.641   0.477  0.00  0.00     0.009 A 
ATOM     18  C   UNL d   1      -4.282  -5.102   1.412  0.00  0.00    -0.062 A 
ATOM     19  C   UNL d   1      -4.050  -3.815   1.897  0.00  0.00     0.009 A 
ATOM     20  C   UNL d   1      -5.476  -5.883   1.871  0.00  0.00     0.048 C 
ATOM     21  C   UNL d   1      -2.963  -3.074   1.433  0.00  0.00     0.030 A 
ENDBRANCH  13  15
ENDBRANCH   7  13
BRANCH   1  22
ATOM     22  C   UNL d   1       1.969   2.431   0.008  0.00  0.00     0.187 C 
BRANCH  22  23
ATOM     23  C   UNL d   1       2.100   2.901   1.437  0.00  0.00    -0.039 A 
ATOM     24  C   UNL d   1       3.291   2.688   2.146  0.00  0.00     0.009 A 
ATOM     25  C   UNL d   1       3.396   3.069   3.484  0.00  0.00     0.001 A 
ATOM     26  C   UNL d   1       2.313   3.664   4.128  0.00  0.00     0.000 A 
ATOM     27  C   UNL d   1       1.126   3.887   3.433  0.00  0.00     0.001 A 
ATOM     28  C   UNL d   1       1.018   3.508   2.094  0.00  0.00     0.009 A 
ENDBRANCH  22  23
ENDBRANCH   1  22
TORSDOF 4
