REMARK  1 active torsions:
REMARK  status: ('A' for Active; 'I' for Inactive)
REMARK    1  A    between atoms: C_15  and  N_7 
ROOT
ATOM      1  C   UNL d   1       0.801  -0.799  -0.123  0.00  0.00     0.173 A 
ATOM      2  C   UNL d   1       0.481   0.544  -0.168  0.00  0.00     0.090 A 
ATOM      3  C   UNL d   1       2.011  -1.528   0.144  0.00  0.00     0.285 C 
ATOM      4  C   UNL d   1      -0.953   0.621  -0.239  0.00  0.00     0.051 A 
ATOM      5  C   UNL d   1      -1.391  -0.702  -0.173  0.00  0.00     0.162 A 
ATOM      6  O   UNL d   1      -0.336  -1.546  -0.195  0.00  0.00    -0.285 OA
ATOM      7  N   UNL d   1       2.983  -0.798   0.835  0.00  0.00    -0.303 N 
ATOM      8  N   UNL d   1       1.343   1.616  -0.073  0.00  0.00    -0.322 N 
ATOM      9  N   UNL d   1      -2.648  -1.150  -0.043  0.00  0.00    -0.340 N 
ATOM     10  HN  UNL d   1      -2.885  -2.142  -0.018  1.00  0.00     0.167 HD
ATOM     11  C   UNL d   1      -1.951   1.625  -0.275  0.00  0.00    -0.043 A 
ATOM     12  C   UNL d   1       2.690   1.640   0.117  0.00  0.00     0.240 C 
ATOM     13  C   UNL d   1       3.544   0.376   0.181  0.00  0.00     0.235 C 
ATOM     14  O   UNL d   1       2.125  -2.732  -0.083  0.00  0.00    -0.265 OA
ATOM     15  C   UNL d   1      -3.277   1.181  -0.091  0.00  0.00     0.032 A 
ATOM     16  C   UNL d   1      -3.567  -0.175   0.053  0.00  0.00     0.008 A 
ATOM     17  O   UNL d   1       3.234   2.752   0.101  0.00  0.00    -0.271 OA
ATOM     18  C   UNL d   1      -1.729   3.105  -0.411  0.00  0.00     0.049 C 
ATOM     19  C   UNL d   1      -4.967  -0.602   0.386  0.00  0.00     0.068 C 
ATOM     20  H   UNL d   1       0.945   2.544  -0.111  0.00  0.00     0.169 HD
ENDROOT
BRANCH   7  21
ATOM     21  C   UNL d   1       3.698  -1.480   1.873  0.00  0.00     0.038 A 
ATOM     22  C   UNL d   1       5.076  -1.356   2.073  0.00  0.00     0.030 A 
ATOM     23  C   UNL d   1       5.703  -2.016   3.135  0.00  0.00     0.002 A 
ATOM     24  C   UNL d   1       4.962  -2.794   4.021  0.00  0.00     0.000 A 
ATOM     25  C   UNL d   1       3.588  -2.930   3.836  0.00  0.00     0.002 A 
ATOM     26  C   UNL d   1       2.967  -2.287   2.767  0.00  0.00     0.030 A 
ENDBRANCH   7  21
TORSDOF 1
