REMARK  3 active torsions:
REMARK  status: ('A' for Active; 'I' for Inactive)
REMARK       I    between atoms: N_3  and  C_1 
REMARK       I    between atoms: N_5  and  C_1 
REMARK       I    between atoms: C_2  and  N_4 
REMARK    1  A    between atoms: O_6  and  C_2 
REMARK    2  A    between atoms: C_11  and  N_5 
REMARK    3  A    between atoms: C_13  and  O_6 
ROOT
ATOM      1  C   UNL d   1       0.704  -0.079   0.208  0.00  0.00     0.322 C 
ATOM      2  C   UNL d   1      -3.033  -3.446  -1.719  0.00  0.00     0.363 C 
ATOM      3  N   UNL d   1       0.155  -1.055  -0.631  0.00  0.00    -0.332 N 
ATOM      4  N   UNL d   1      -2.453  -2.582  -0.801  0.00  0.00    -0.326 N 
ATOM      5  N   UNL d   1       0.543   1.219  -0.223  0.00  0.00    -0.309 N 
ATOM      6  O   UNL d   1       1.300  -0.396   1.236  0.00  0.00    -0.247 OA
ATOM      7  O   UNL d   1      -3.318  -3.105  -2.859  0.00  0.00    -0.238 OA
ATOM      8  C   UNL d   1      -2.279  -1.177  -1.175  0.00  0.00     0.148 C 
ATOM      9  C   UNL d   1      -0.867  -0.849  -1.669  0.00  0.00     0.147 C 
ATOM     10  C   UNL d   1      -0.514  -3.032   0.778  0.00  0.00     0.040 C 
ATOM     11  C   UNL d   1       0.408  -2.455  -0.293  0.00  0.00     0.129 C 
ATOM     12  C   UNL d   1      -2.027  -2.967   0.540  0.00  0.00     0.129 C 
ATOM     13  H   UNL d   1       0.304   1.334  -1.192  0.00  0.00     0.170 HD
ENDROOT
BRANCH   5  14
ATOM     14  C   UNL d   1       0.945   2.410   0.429  0.00  0.00     0.037 A 
ATOM     15  C   UNL d   1       1.466   2.465   1.724  0.00  0.00     0.053 A 
ATOM     16  C   UNL d   1       1.844   3.693   2.276  0.00  0.00     0.036 A 
ATOM     17 CL   UNL d   1       2.504   3.751   3.866  0.00  0.00    -0.084 Cl
ATOM     18  C   UNL d   1       1.699   4.877   1.556  0.00  0.00     0.024 A 
ATOM     19  C   UNL d   1       1.169   4.834   0.269  0.00  0.00     0.004 A 
ATOM     20  C   UNL d   1       0.796   3.608  -0.289  0.00  0.00     0.029 A 
ENDBRANCH   5  14
BRANCH   2  21
ATOM     21  O   UNL d   1      -3.275  -4.684  -1.210  0.00  0.00    -0.294 OA
BRANCH  21  22
ATOM     22  C   UNL d   1      -3.991  -5.681  -1.992  0.00  0.00     0.061 C 
ATOM     23  C   UNL d   1      -3.243  -6.030  -3.284  0.00  0.00     0.046 C 
ATOM     24  C   UNL d   1      -4.039  -6.934  -1.103  0.00  0.00     0.046 C 
ATOM     25  C   UNL d   1      -5.433  -5.236  -2.272  0.00  0.00     0.046 C 
ENDBRANCH  21  22
ENDBRANCH   2  21
TORSDOF 3
