REMARK  2 active torsions:
REMARK  status: ('A' for Active; 'I' for Inactive)
REMARK    1  A    between atoms: N_8  and  C_4 
REMARK    2  A    between atoms: C_9  and  C_10 
ROOT
ATOM      1  C   UNL d   1       1.044  -0.945   0.001  0.00  0.00     0.094 A 
ATOM      2  N   UNL d   1      -0.067  -1.751   0.024  0.00  0.00    -0.338 N 
ATOM      3  HN  UNL d   1      -0.088  -2.771   0.046  1.00  0.00     0.167 HD
ATOM      4  C   UNL d   1       2.412  -1.246   0.000  0.00  0.00     0.132 A 
ATOM      5  C   UNL d   1       0.684   0.407  -0.004  0.00  0.00     0.070 A 
ATOM      6  N   UNL d   1      -0.700   0.399  -0.000  0.00  0.00    -0.306 N 
ATOM      7  C   UNL d   1      -1.097  -0.936   0.010  0.00  0.00     0.112 A 
ATOM      8  C   UNL d   1       3.010   1.102  -0.002  0.00  0.00     0.052 A 
ATOM      9  C   UNL d   1       3.394  -0.246   0.006  0.00  0.00     0.054 A 
ATOM     10  C   UNL d   1       1.638   1.445  -0.007  0.00  0.00     0.048 A 
ATOM     11  C   UNL d   1      -1.605   1.462  -0.003  0.00  0.00     0.099 A 
ATOM     12  C   UNL d   1      -2.496  -1.202   0.008  0.00  0.00     0.049 A 
ATOM     13  C   UNL d   1      -2.924   1.205   0.000  0.00  0.00     0.018 A 
ATOM     14  C   UNL d   1      -3.373  -0.180   0.003  0.00  0.00     0.005 A 
ENDROOT
BRANCH   8  15
ATOM     15  C   UNL d   1       4.053   2.201  -0.005  0.00  0.00     0.417 C 
ATOM     16  F   UNL d   1       5.331   1.734  -0.003  0.00  0.00    -0.166 F 
ATOM     17  F   UNL d   1       3.949   3.007  -1.096  0.00  0.00    -0.166 F 
ATOM     18  F   UNL d   1       3.947   3.016   1.079  0.00  0.00    -0.166 F 
ENDBRANCH   8  15
BRANCH   4  19
ATOM     19  N   UNL d   1       2.795  -2.634   0.019  0.00  0.00    -0.113 N 
ATOM     20  O   UNL d   1       2.470  -3.333  -0.948  0.00  0.00    -0.532 OA
ATOM     21  O   UNL d   1       3.507  -2.998   0.966  0.00  0.00    -0.532 OA
ENDBRANCH   4  19
TORSDOF 2
