REMARK  3 active torsions:
REMARK  status: ('A' for Active; 'I' for Inactive)
REMARK    1  A    between atoms: C_2  and  C_1 
REMARK       I    between atoms: N_3  and  C_1 
REMARK    2  A    between atoms: C_6  and  N_3 
REMARK    3  A    between atoms: N_7  and  C_4 
ROOT
ATOM      1  C   UNL d   1       1.085   0.014   0.086  0.00  0.00     0.258 C 
ATOM      2  N   UNL d   1       0.384   1.202  -0.049  0.00  0.00    -0.323 N 
ATOM      3  O   UNL d   1       2.304  -0.101   0.158  0.00  0.00    -0.267 OA
ATOM      4  H   UNL d   1      -0.609   1.174   0.136  0.00  0.00     0.169 HD
ENDROOT
BRANCH   1   5
ATOM      5  C   UNL d   1       0.262  -1.227   0.183  0.00  0.00     0.053 A 
ATOM      6  C   UNL d   1       0.699  -2.290   1.004  0.00  0.00     0.021 A 
ATOM      7  C   UNL d   1      -0.065  -3.463   1.040  0.00  0.00     0.024 A 
ATOM      8  C   UNL d   1      -1.179  -3.620   0.213  0.00  0.00     0.002 A 
ATOM      9  C   UNL d   1      -1.577  -2.583  -0.628  0.00  0.00     0.001 A 
ATOM     10  C   UNL d   1      -0.863  -1.384  -0.642  0.00  0.00     0.019 A 
BRANCH   6  11
ATOM     11  N   UNL d   1       1.732  -2.132   1.951  0.00  0.00    -0.302 NA
ATOM     12  H   UNL d   1       2.399  -1.413   1.645  0.00  0.00     0.124 HD
ATOM     13  H   UNL d   1       2.211  -2.997   2.179  0.00  0.00     0.124 HD
ENDBRANCH   6  11
ENDBRANCH   1   5
BRANCH   2  14
ATOM     14  C   UNL d   1       0.954   2.475  -0.279  0.00  0.00     0.035 A 
ATOM     15  C   UNL d   1       2.289   2.662  -0.652  0.00  0.00     0.031 A 
ATOM     16  C   UNL d   1       2.801   3.944  -0.870  0.00  0.00     0.026 A 
ATOM     17  C   UNL d   1       1.975   5.052  -0.719  0.00  0.00     0.034 A 
ATOM     18  C   UNL d   1       0.640   4.886  -0.361  0.00  0.00     0.026 A 
ATOM     19 CL   UNL d   1       2.607   6.631  -0.979  0.00  0.00    -0.084 Cl
ATOM     20  C   UNL d   1       0.128   3.599  -0.149  0.00  0.00     0.031 A 
ENDBRANCH   2  14
TORSDOF 3
