REMARK  5 active torsions:
REMARK  status: ('A' for Active; 'I' for Inactive)
REMARK    1  A    between atoms: C_4  and  C_1 
REMARK    2  A    between atoms: O_9  and  C_2 
REMARK       I    between atoms: N_8  and  C_4 
REMARK    3  A    between atoms: C_7  and  O_9 
REMARK    4  A    between atoms: C_19  and  N_8 
REMARK    5  A    between atoms: C_10  and  C_19 
ROOT
ATOM      1  C   UNL d   1      -0.101   1.181   0.025  0.00  0.00     0.145 A 
ATOM      2  C   UNL d   1      -0.133  -1.020  -0.060  0.00  0.00     0.191 A 
ATOM      3  O   UNL d   1      -0.932   0.089  -0.020  0.00  0.00    -0.282 OA
ATOM      4  C   UNL d   1       1.215   0.759   0.048  0.00  0.00     0.048 A 
ATOM      5  C   UNL d   1       1.196  -0.653   0.015  0.00  0.00     0.067 A 
ENDROOT
BRANCH   2   6
ATOM      6  O   UNL d   1      -0.790  -2.175  -0.172  0.00  0.00    -0.288 OA
BRANCH   6   7
ATOM      7  C   UNL d   1      -0.190  -3.260  -0.777  0.00  0.00     0.081 A 
ATOM      8  C   UNL d   1      -0.453  -4.525  -0.250  0.00  0.00     0.061 A 
ATOM      9  C   UNL d   1       0.093  -5.656  -0.865  0.00  0.00     0.038 A 
ATOM     10 CL   UNL d   1      -0.234  -7.219  -0.223  0.00  0.00    -0.084 Cl
ATOM     11  C   UNL d   1       0.894  -5.536  -2.000  0.00  0.00     0.048 A 
ATOM     12  C   UNL d   1       1.138  -4.272  -2.525  0.00  0.00     0.038 A 
ATOM     13  C   UNL d   1       0.588  -3.135  -1.933  0.00  0.00     0.061 A 
ATOM     14 CL   UNL d   1       2.121  -4.105  -3.929  0.00  0.00    -0.084 Cl
ENDBRANCH   6   7
ENDBRANCH   2   6
BRANCH   1  15
ATOM     15  C   UNL d   1      -0.626   2.532   0.027  0.00  0.00     0.275 C 
ATOM     16  N   UNL d   1      -1.994   2.649  -0.035  0.00  0.00    -0.355 N 
ATOM     17  H   UNL d   1      -2.549   1.805   0.021  0.00  0.00     0.162 HD
ATOM     18  O   UNL d   1       0.109   3.518   0.076  0.00  0.00    -0.265 OA
BRANCH  16  19
ATOM     19  C   UNL d   1      -2.629   3.946  -0.013  0.00  0.00     0.127 C 
BRANCH  19  20
ATOM     20  C   UNL d   1      -3.969   3.873  -0.671  0.00  0.00     0.003 A 
ATOM     21  C   UNL d   1      -4.071   3.574  -2.146  0.00  0.00     0.007 A 
ATOM     22  C   UNL d   1      -4.409   4.946  -1.638  0.00  0.00     0.007 A 
ENDBRANCH  19  20
ENDBRANCH  16  19
ENDBRANCH   1  15
TORSDOF 5
