REMARK  2 active torsions:
REMARK  status: ('A' for Active; 'I' for Inactive)
REMARK    1  A    between atoms: C_3  and  N_1 
REMARK       I    between atoms: C_5  and  N_1 
REMARK    2  A    between atoms: N_2  and  C_4 
REMARK       I    between atoms: C_6  and  N_2 
ROOT
ATOM      1  C   UNL d   1       0.529  -0.718   1.192  0.00  0.00     0.061 A 
ATOM      2  C   UNL d   1       0.785  -0.102   2.441  0.00  0.00     0.061 A 
ATOM      3  C   UNL d   1      -0.686  -1.417   1.030  0.00  0.00     0.032 A 
ATOM      4  C   UNL d   1      -0.135  -0.272   3.487  0.00  0.00     0.032 A 
ATOM      5  C   UNL d   1      -1.598  -1.557   2.077  0.00  0.00     0.002 A 
ATOM      6  C   UNL d   1      -1.314  -0.997   3.313  0.00  0.00     0.002 A 
ENDROOT
BRANCH   1   7
ATOM      7  N   UNL d   1       1.327  -0.668   0.013  0.00  0.00    -0.326 N 
ATOM      8  C   UNL d   1       2.628  -0.256  -0.171  0.00  0.00     0.218 C 
ATOM      9  O   UNL d   1       3.420   0.092   0.697  0.00  0.00    -0.274 OA
ATOM     10  C   UNL d   1       3.056  -0.298  -1.618  0.00  0.00     0.117 C 
ATOM     11  H   UNL d   1       0.887  -1.068  -0.806  0.00  0.00     0.169 HD
ENDBRANCH   1   7
BRANCH   2  12
ATOM     12  N   UNL d   1       1.931   0.691   2.642  0.00  0.00    -0.326 N 
ATOM     13  C   UNL d   1       2.104   1.705   3.563  0.00  0.00     0.218 C 
ATOM     14  O   UNL d   1       1.280   2.110   4.375  0.00  0.00    -0.274 OA
ATOM     15  C   UNL d   1       3.454   2.362   3.428  0.00  0.00     0.117 C 
ATOM     16  H   UNL d   1       2.664   0.597   1.942  0.00  0.00     0.169 HD
ENDBRANCH   2  12
TORSDOF 2
