REMARK  9 active torsions:
REMARK  status: ('A' for Active; 'I' for Inactive)
REMARK    1  A    between atoms: C_12  and  C_1 
REMARK    2  A    between atoms: C_2  and  C_17 
REMARK    3  A    between atoms: C_7  and  C_13 
REMARK    4  A    between atoms: O_16  and  C_7 
REMARK    5  A    between atoms: C_24  and  C_9 
REMARK    6  A    between atoms: N_25  and  C_9 
REMARK    7  A    between atoms: N_10  and  O_16 
REMARK    8  A    between atoms: O_26  and  C_24 
REMARK    9  A    between atoms: C_27  and  O_26 
ROOT
ATOM      1  C   UNL d   1      -0.168  -3.687   6.693  0.00  0.00     0.100 C 
ATOM      2  N   UNL d   1      -0.067  -3.326   5.452  0.00  0.00    -0.248 N 
ATOM      3  HN  UNL d   1       0.058  -3.986   4.684  1.00  0.00     0.196 HD
ENDROOT
BRANCH   1   4
ATOM      4  C   UNL d   1      -0.077  -5.199   6.984  0.00  0.00     0.247 C 
BRANCH   4   5
ATOM      5  O   UNL d   1      -1.390  -5.705   7.208  0.00  0.00    -0.344 OA
BRANCH   5   6
ATOM      6  C   UNL d   1      -1.511  -7.053   7.421  0.00  0.00     0.069 A 
ATOM      7  C   UNL d   1      -2.737  -7.452   7.957  0.00  0.00     0.038 A 
ATOM      8  C   UNL d   1      -3.003  -8.800   8.226  0.00  0.00     0.018 A 
ATOM      9  C   UNL d   1      -2.052  -9.789   7.946  0.00  0.00     0.017 A 
ATOM     10  C   UNL d   1      -0.824  -9.383   7.396  0.00  0.00     0.018 A 
ATOM     11  C   UNL d   1      -0.556  -8.028   7.135  0.00  0.00     0.038 A 
BRANCH   9  12
ATOM     12  C   UNL d   1      -2.312 -11.202   8.197  0.00  0.00     0.173 A 
ATOM     13  N   UNL d   1      -1.554 -12.262   7.993  0.00  0.00    -0.278 N 
ATOM     14  N   UNL d   1      -2.291 -13.361   8.391  0.00  0.00    -0.288 N 
ATOM     15  HN  UNL d   1      -0.606 -12.270   7.615  1.00  0.00     0.189 HD
ATOM     16  C   UNL d   1      -3.441 -12.890   8.808  0.00  0.00     0.251 A 
ATOM     17  HN  UNL d   1      -2.000 -14.338   8.365  1.00  0.00     0.188 HD
ATOM     18  O   UNL d   1      -3.539 -11.536   8.723  0.00  0.00    -0.286 OA
ENDBRANCH   9  12
ENDBRANCH   5   6
ENDBRANCH   4   5
ENDBRANCH   1   4
BRANCH   1  19
ATOM     19  N   UNL d   1      -0.361  -2.834   7.756  0.00  0.00    -0.289 NA
ATOM     20  H   UNL d   1      -0.720  -1.926   7.486  0.00  0.00     0.125 HD
ATOM     21  H   UNL d   1      -0.841  -3.235   8.556  0.00  0.00     0.125 HD
ENDBRANCH   1  19
BRANCH   2  22
ATOM     22  O   UNL d   1      -0.147  -1.923   5.265  0.00  0.00    -0.194 OA
BRANCH  22  23
ATOM     23  C   UNL d   1      -0.040  -1.659   3.924  0.00  0.00     0.315 C 
ATOM     24  O   UNL d   1       0.058  -2.481   3.019  0.00  0.00    -0.257 OA
BRANCH  23  25
ATOM     25  C   UNL d   1      -0.056  -0.195   3.629  0.00  0.00     0.042 A 
ATOM     26  C   UNL d   1      -0.110   0.802   4.614  0.00  0.00     0.034 A 
ATOM     27  C   UNL d   1      -0.111   2.166   4.250  0.00  0.00     0.048 A 
ATOM     28  C   UNL d   1      -0.051   2.517   2.890  0.00  0.00     0.016 A 
ATOM     29  C   UNL d   1       0.005   1.532   1.909  0.00  0.00     0.002 A 
ATOM     30  C   UNL d   1       0.002   0.187   2.277  0.00  0.00     0.018 A 
BRANCH  27  31
ATOM     31  C   UNL d   1      -0.170   3.262   5.287  0.00  0.00     0.417 C 
ATOM     32  F   UNL d   1      -0.266   2.795   6.563  0.00  0.00    -0.166 F 
ATOM     33  F   UNL d   1      -1.240   4.086   5.110  0.00  0.00    -0.166 F 
ATOM     34  F   UNL d   1       0.929   4.064   5.262  0.00  0.00    -0.166 F 
ENDBRANCH  27  31
ENDBRANCH  23  25
ENDBRANCH  22  23
ENDBRANCH   2  22
TORSDOF 9
