REMARK  5 active torsions:
REMARK  status: ('A' for Active; 'I' for Inactive)
REMARK    1  A    between atoms: C_7  and  C_1 
REMARK    2  A    between atoms: O_11  and  C_4 
REMARK    3  A    between atoms: O_12  and  C_6 
REMARK    4  A    between atoms: N_8  and  C_7 
REMARK    5  A    between atoms: C_10  and  N_8 
ROOT
ATOM      1  C   UNL d   1       0.904   1.105  -0.027  0.00  0.00    -0.020 A 
ATOM      2  C   UNL d   1       0.939  -1.330  -0.043  0.00  0.00     0.059 A 
ATOM      3  C   UNL d   1       0.230  -0.119  -0.053  0.00  0.00     0.021 A 
ATOM      4  C   UNL d   1       2.341  -1.357   0.002  0.00  0.00     0.102 A 
ATOM      5  C   UNL d   1       2.308   1.069   0.045  0.00  0.00     0.049 A 
ATOM      6  C   UNL d   1       3.033  -0.137   0.050  0.00  0.00     0.102 A 
ATOM      7 BR   UNL d   1      -1.668  -0.230  -0.094  0.00  0.00    -0.050 Br
ENDROOT
BRANCH   1   8
ATOM      8  C   UNL d   1       0.207   2.449  -0.046  0.00  0.00     0.160 C 
BRANCH   8   9
ATOM      9  N   UNL d   1      -0.096   2.870   1.312  0.00  0.00    -0.386 N 
ATOM     10  H   UNL d   1      -0.436   2.114   1.901  0.00  0.00     0.160 HD
BRANCH   9  11
ATOM     11  C   UNL d   1      -0.782   4.061   1.565  0.00  0.00     0.028 A 
ATOM     12  C   UNL d   1      -1.066   5.030   0.595  0.00  0.00     0.029 A 
ATOM     13  C   UNL d   1      -1.705   6.231   0.934  0.00  0.00     0.002 A 
ATOM     14  C   UNL d   1      -2.038   6.500   2.259  0.00  0.00     0.000 A 
ATOM     15  C   UNL d   1      -1.725   5.570   3.244  0.00  0.00     0.002 A 
ATOM     16  C   UNL d   1      -1.098   4.369   2.897  0.00  0.00     0.029 A 
ENDBRANCH   9  11
ENDBRANCH   8   9
ENDBRANCH   1   8
BRANCH   6  17
ATOM     17  O   UNL d   1       4.386   0.080   0.105  0.00  0.00    -0.353 OA
ATOM     18  C   UNL d   1       5.270  -1.029   0.056  0.00  0.00     0.210 C 
ENDBRANCH   6  17
BRANCH   4  19
ATOM     19  O   UNL d   1       3.065  -2.518   0.009  0.00  0.00    -0.353 OA
ATOM     20  C   UNL d   1       2.374  -3.758  -0.061  0.00  0.00     0.210 C 
ENDBRANCH   4  19
TORSDOF 5
