REMARK  2 active torsions:
REMARK  status: ('A' for Active; 'I' for Inactive)
REMARK    1  A    between atoms: C_6  and  C_3 
REMARK    2  A    between atoms: O_13  and  C_10 
ROOT
ATOM      1  C   UNL d   1      -0.896   2.459  -0.032  0.00  0.00    -0.008 A 
ATOM      2  C   UNL d   1      -0.535   3.317  -1.079  0.00  0.00     0.016 A 
ATOM      3  C   UNL d   1      -1.788   2.927   0.943  0.00  0.00     0.016 A 
ATOM      4  C   UNL d   1      -1.933   5.075  -0.172  0.00  0.00     0.068 A 
ATOM      5  C   UNL d   1      -2.311   4.221   0.864  0.00  0.00     0.037 A 
ATOM      6  C   UNL d   1      -1.050   4.619  -1.149  0.00  0.00     0.037 A 
ENDROOT
BRANCH   1   7
ATOM      7  C   UNL d   1      -0.370   1.096   0.039  0.00  0.00     0.059 A 
ATOM      8  N   UNL d   1      -0.222   0.452   1.209  0.00  0.00    -0.300 N 
ATOM      9  N   UNL d   1       0.276  -0.748   0.877  0.00  0.00    -0.311 N 
ATOM     10  HN  UNL d   1      -0.440   0.799   2.143  1.00  0.00     0.187 HD
ATOM     11  C   UNL d   1       0.439  -0.918  -0.463  0.00  0.00     0.109 A 
ATOM     12  H   UNL d   1       0.477  -1.406   1.623  0.00  0.00     0.186 HD
ATOM     13  C   UNL d   1       0.035   0.260  -1.040  0.00  0.00     0.050 A 
ENDBRANCH   1   7
BRANCH   4  14
ATOM     14  O   UNL d   1      -2.518   6.311  -0.156  0.00  0.00    -0.356 OA
ATOM     15  C   UNL d   1      -1.748   7.361  -0.732  0.00  0.00     0.210 C 
ENDBRANCH   4  14
TORSDOF 2
