REMARK  4 active torsions:
REMARK  status: ('A' for Active; 'I' for Inactive)
REMARK    1  A    between atoms: N_6  and  C_1 
REMARK    2  A    between atoms: C_2  and  C_5 
REMARK    3  A    between atoms: N_8  and  N_6 
REMARK       I    between atoms: C_7  and  N_8 
REMARK    4  A    between atoms: C_12  and  C_7 
ROOT
ATOM      1  N   UNL d   1       0.536   2.308  -0.081  0.00  0.00    -0.277 N 
ATOM      2  C   UNL d   1       1.961   2.582  -0.270  0.00  0.00     0.179 C 
ENDROOT
BRANCH   1   3
ATOM      3  C   UNL d   1       0.038   1.006  -0.302  0.00  0.00     0.143 A 
ATOM      4  N   UNL d   1      -1.106   0.912  -1.053  0.00  0.00    -0.349 N 
ATOM      5  C   UNL d   1      -1.730  -0.287  -1.160  0.00  0.00     0.106 A 
ATOM      6  HN  UNL d   1      -1.483   1.734  -1.525  1.00  0.00     0.167 HD
ATOM      7  C   UNL d   1      -1.283  -1.448  -0.558  0.00  0.00     0.065 A 
ATOM      8  C   UNL d   1      -0.083  -1.374   0.152  0.00  0.00     0.045 A 
ATOM      9  C   UNL d   1       0.576  -0.147   0.303  0.00  0.00     0.080 A 
ATOM     10 CL   UNL d   1       1.949  -0.152   1.354  0.00  0.00    -0.080 Cl
BRANCH   7  11
ATOM     11  C   UNL d   1      -2.116  -2.692  -0.617  0.00  0.00     0.418 C 
ATOM     12  F   UNL d   1      -1.606  -3.717   0.120  0.00  0.00    -0.166 F 
ATOM     13  F   UNL d   1      -3.380  -2.485  -0.149  0.00  0.00    -0.166 F 
ATOM     14  F   UNL d   1      -2.252  -3.167  -1.883  0.00  0.00    -0.166 F 
ENDBRANCH   7  11
ENDBRANCH   1   3
BRANCH   1  15
ATOM     15  N   UNL d   1      -0.323   3.304  -0.616  0.00  0.00    -0.262 N 
ATOM     16  C   UNL d   1      -0.281   4.590  -0.103  0.00  0.00     0.270 C 
ATOM     17  O   UNL d   1       0.532   4.987   0.724  0.00  0.00    -0.266 OA
ATOM     18  H   UNL d   1      -1.032   2.951  -1.247  0.00  0.00     0.190 HD
BRANCH  16  19
ATOM     19  C   UNL d   1      -1.271   5.551  -0.659  0.00  0.00     0.033 A 
ATOM     20  C   UNL d   1      -2.541   5.164  -1.104  0.00  0.00     0.019 A 
ATOM     21  C   UNL d   1      -3.420   6.125  -1.621  0.00  0.00     0.025 A 
ATOM     22  C   UNL d   1      -3.027   7.462  -1.697  0.00  0.00     0.034 A 
ATOM     23  C   UNL d   1      -1.769   7.855  -1.251  0.00  0.00     0.025 A 
ATOM     24 CL   UNL d   1      -4.112   8.634  -2.336  0.00  0.00    -0.084 Cl
ATOM     25  C   UNL d   1      -0.892   6.901  -0.729  0.00  0.00     0.019 A 
ENDBRANCH  16  19
ENDBRANCH   1  15
TORSDOF 4
