REMARK  4 active torsions:
REMARK  status: ('A' for Active; 'I' for Inactive)
REMARK    1  A    between atoms: C_7  and  N_1 
REMARK    2  A    between atoms: S_12  and  C_2 
REMARK    3  A    between atoms: C_18  and  S_12 
REMARK    4  A    between atoms: C_14  and  C_18 
ROOT
ATOM      1  N   UNL d   1      -0.017  -1.304   0.113  0.00  0.00    -0.218 N 
ATOM      2  C   UNL d   1       1.100  -0.569   0.504  0.00  0.00     0.177 A 
ATOM      3  N   UNL d   1       0.870   0.705   0.274  0.00  0.00    -0.264 N 
ATOM      4  HN  UNL d   1       1.501   1.483   0.466  1.00  0.00     0.186 HD
ATOM      5  N   UNL d   1      -0.924  -0.417  -0.376  0.00  0.00     0.001 NA
ATOM      6  N   UNL d   1      -0.377   0.783  -0.271  0.00  0.00    -0.006 NA
ENDROOT
BRANCH   1   7
ATOM      7  C   UNL d   1      -0.316  -2.696   0.127  0.00  0.00     0.068 A 
ATOM      8  C   UNL d   1      -0.045  -3.495   1.266  0.00  0.00    -0.033 A 
ATOM      9  C   UNL d   1      -0.249  -4.889   1.188  0.00  0.00     0.015 A 
ATOM     10  C   UNL d   1       0.343  -2.980   2.625  0.00  0.00     0.050 C 
ATOM     11  C   UNL d   1      -0.794  -5.491   0.054  0.00  0.00    -0.061 A 
ATOM     12  C   UNL d   1      -1.145  -4.684  -1.025  0.00  0.00     0.015 A 
ATOM     13  C   UNL d   1      -1.004  -6.976   0.012  0.00  0.00     0.048 C 
ATOM     14  C   UNL d   1      -0.912  -3.296  -1.023  0.00  0.00    -0.033 A 
ATOM     15  C   UNL d   1      -1.346  -2.573  -2.273  0.00  0.00     0.050 C 
ENDBRANCH   1   7
BRANCH   2  16
ATOM     16  S   UNL d   1       2.588  -1.115   1.197  0.00  0.00    -0.087 SA
BRANCH  16  17
ATOM     17  C   UNL d   1       3.208  -2.354   0.036  0.00  0.00     0.108 C 
BRANCH  17  18
ATOM     18  C   UNL d   1       4.436  -2.973   0.645  0.00  0.00    -0.026 C 
ATOM     19  C   UNL d   1       5.681  -2.836   0.170  0.00  0.00     0.007 C 
ENDBRANCH  17  18
ENDBRANCH  16  17
ENDBRANCH   2  16
TORSDOF 4
