REMARK  7 active torsions:
REMARK  status: ('A' for Active; 'I' for Inactive)
REMARK    1  A    between atoms: N_4  and  C_1 
REMARK    2  A    between atoms: S_2  and  N_4 
REMARK    3  A    between atoms: C_9  and  S_2 
REMARK    4  A    between atoms: C_8  and  C_3 
REMARK    5  A    between atoms: C_12  and  C_5 
REMARK    6  A    between atoms: O_16  and  C_8 
REMARK    7  A    between atoms: C_23  and  O_16 
ROOT
ATOM      1  C   UNL d   1      -1.757  -0.115   0.241  0.00  0.00     0.081 C 
ATOM      2  C   UNL d   1      -1.353  -1.423   0.441  0.00  0.00     0.080 C 
ATOM      3  C   UNL d   1       0.092  -1.569   0.179  0.00  0.00     0.005 C 
ATOM      4  S   UNL d   1      -0.451   0.960   0.198  0.00  0.00    -0.080 SA
ATOM      5  C   UNL d   1       0.692  -0.310   0.069  0.00  0.00    -0.007 C 
ATOM      6  C   UNL d   1       2.119   0.105  -0.128  0.00  0.00     0.057 C 
ENDROOT
BRANCH   1   7
ATOM      7  N   UNL d   1      -3.113   0.352   0.282  0.00  0.00    -0.174 NA
ATOM      8  H   UNL d   1      -3.211   1.192   0.858  0.00  0.00     0.146 HD
BRANCH   7   9
ATOM      9  S   UNL d   1      -3.745   0.859  -1.236  0.00  0.00     0.246 S 
ATOM     10  O   UNL d   1      -4.967   1.570  -0.909  0.00  0.00    -0.206 OA
ATOM     11  O   UNL d   1      -2.714   1.511  -2.012  0.00  0.00    -0.206 OA
BRANCH   9  12
ATOM     12  C   UNL d   1      -4.198  -0.633  -2.085  0.00  0.00     0.074 A 
ATOM     13  C   UNL d   1      -5.542  -0.954  -2.290  0.00  0.00     0.025 A 
ATOM     14  C   UNL d   1      -5.874  -2.096  -3.023  0.00  0.00     0.008 A 
ATOM     15  C   UNL d   1      -4.870  -2.925  -3.545  0.00  0.00    -0.062 A 
ATOM     16  C   UNL d   1      -3.526  -2.575  -3.358  0.00  0.00     0.008 A 
ATOM     17  C   UNL d   1      -5.234  -4.156  -4.323  0.00  0.00     0.048 C 
ATOM     18  C   UNL d   1      -3.190  -1.424  -2.646  0.00  0.00     0.025 A 
ENDBRANCH   9  12
ENDBRANCH   7   9
ENDBRANCH   1   7
BRANCH   2  19
ATOM     19  C   UNL d   1      -2.248  -2.493   0.880  0.00  0.00     0.296 C 
ATOM     20  O   UNL d   1      -1.887  -3.407   1.613  0.00  0.00    -0.259 OA
BRANCH  19  21
ATOM     21  O   UNL d   1      -3.517  -2.389   0.385  0.00  0.00    -0.318 OA
BRANCH  21  22
ATOM     22  C   UNL d   1      -4.448  -3.401   0.788  0.00  0.00     0.174 C 
ATOM     23  C   UNL d   1      -4.325  -4.623  -0.102  0.00  0.00     0.034 C 
ENDBRANCH  21  22
ENDBRANCH  19  21
ENDBRANCH   2  19
BRANCH   3  24
ATOM     24  C   UNL d   1       0.834  -2.845  -0.028  0.00  0.00    -0.024 A 
ATOM     25  C   UNL d   1       0.177  -3.962  -0.578  0.00  0.00     0.012 A 
ATOM     26  C   UNL d   1       0.860  -5.149  -0.872  0.00  0.00     0.001 A 
ATOM     27  C   UNL d   1       2.232  -5.233  -0.672  0.00  0.00     0.000 A 
ATOM     28  C   UNL d   1       2.905  -4.151  -0.123  0.00  0.00     0.001 A 
ATOM     29  C   UNL d   1       2.206  -2.987   0.229  0.00  0.00     0.012 A 
ENDBRANCH   3  24
TORSDOF 7
