REMARK  2 active torsions:
REMARK  status: ('A' for Active; 'I' for Inactive)
REMARK    1  A    between atoms: C_5  and  C_1 
REMARK    2  A    between atoms: C_6  and  C_2 
REMARK       I    between atoms: N_11  and  C_5 
ROOT
ATOM      1  C   UNL d   1       0.624   0.208   0.482  0.00  0.00     0.137 A 
ATOM      2  C   UNL d   1       0.603  -1.107   0.046  0.00  0.00     0.119 A 
ATOM      3  N   UNL d   1      -0.627   0.787   0.275  0.00  0.00    -0.340 N 
ATOM      4  HN  UNL d   1      -0.931   1.734   0.502  1.00  0.00     0.167 HD
ATOM      5  C   UNL d   1      -1.322  -0.177  -0.281  0.00  0.00     0.234 A 
ATOM      6  O   UNL d   1      -0.653  -1.344  -0.460  0.00  0.00    -0.303 OA
ENDROOT
BRANCH   2   7
ATOM      7  C   UNL d   1       1.509  -2.247   0.026  0.00  0.00     0.002 A 
ATOM      8  C   UNL d   1       1.471  -3.171  -1.028  0.00  0.00     0.038 A 
ATOM      9  C   UNL d   1       2.326  -4.275  -1.030  0.00  0.00     0.035 A 
ATOM     10 CL   UNL d   1       2.258  -5.406  -2.326  0.00  0.00    -0.084 Cl
ATOM     11  C   UNL d   1       3.230  -4.475   0.009  0.00  0.00     0.024 A 
ATOM     12  C   UNL d   1       3.278  -3.565   1.062  0.00  0.00     0.003 A 
ATOM     13  C   UNL d   1       2.417  -2.465   1.072  0.00  0.00     0.014 A 
ENDBRANCH   2   7
BRANCH   1  14
ATOM     14  C   UNL d   1       1.736   0.951   1.061  0.00  0.00     0.268 C 
ATOM     15  O   UNL d   1       2.884   0.535   1.179  0.00  0.00    -0.266 OA
ATOM     16  N   UNL d   1       1.401   2.205   1.484  0.00  0.00    -0.365 N 
ATOM     17  H   UNL d   1       0.460   2.552   1.338  0.00  0.00     0.159 HD
ATOM     18  H   UNL d   1       2.117   2.799   1.874  0.00  0.00     0.159 HD
ENDBRANCH   1  14
TORSDOF 2
