REMARK  3 active torsions:
REMARK  status: ('A' for Active; 'I' for Inactive)
REMARK       I    between atoms: N_2  and  C_1 
REMARK    1  A    between atoms: C_4  and  C_1 
REMARK    2  A    between atoms: C_3  and  N_2 
REMARK    3  A    between atoms: C_12  and  N_2 
ROOT
ATOM      1  C   UNL d   1      -1.258  -1.218   0.169  0.00  0.00     0.048 A 
ATOM      2  C   UNL d   1      -1.988  -1.724   1.288  0.00  0.00     0.001 A 
ATOM      3  C   UNL d   1      -3.403  -1.782   1.198  0.00  0.00    -0.024 A 
ATOM      4  C   UNL d   1      -1.940  -0.785  -0.979  0.00  0.00     0.031 A 
ATOM      5  C   UNL d   1      -1.402  -2.150   2.505  0.00  0.00     0.014 A 
ATOM      6  C   UNL d   1      -3.331  -0.770  -1.012  0.00  0.00     0.003 A 
ATOM      7  C   UNL d   1      -4.054  -1.266   0.068  0.00  0.00     0.012 A 
ATOM      8  C   UNL d   1      -4.156  -2.349   2.239  0.00  0.00     0.012 A 
ATOM      9  C   UNL d   1      -2.163  -2.727   3.527  0.00  0.00     0.001 A 
ATOM     10  C   UNL d   1      -3.537  -2.852   3.381  0.00  0.00     0.001 A 
ENDROOT
BRANCH   1  11
ATOM     11  N   UNL d   1       0.167  -1.135   0.172  0.00  0.00    -0.313 N 
ATOM     12  C   UNL d   1       0.909   0.068   0.050  0.00  0.00     0.265 C 
ATOM     13  O   UNL d   1       2.151  -0.001   0.037  0.00  0.00    -0.267 OA
BRANCH  12  14
ATOM     14  C   UNL d   1       0.286   1.384  -0.127  0.00  0.00     0.073 C 
ATOM     15  S   UNL d   1      -1.181   1.902   0.593  0.00  0.00    -0.097 SA
ATOM     16  C   UNL d   1      -1.215   3.340  -0.333  0.00  0.00     0.050 C 
ATOM     17  C   UNL d   1      -0.012   3.558  -0.961  0.00  0.00     0.009 C 
ATOM     18  C   UNL d   1       0.867   2.448  -0.807  0.00  0.00     0.025 C 
ENDBRANCH  12  14
BRANCH  11  19
ATOM     19  C   UNL d   1       0.948  -2.386   0.184  0.00  0.00     0.128 C 
ATOM     20  C   UNL d   1       0.274  -3.653  -0.336  0.00  0.00     0.027 C 
ENDBRANCH  11  19
ENDBRANCH   1  11
TORSDOF 3
