REMARK  5 active torsions:
REMARK  status: ('A' for Active; 'I' for Inactive)
REMARK    1  A    between atoms: N_7  and  C_2 
REMARK    2  A    between atoms: C_14  and  C_3 
REMARK       I    between atoms: C_4  and  N_7 
REMARK       I    between atoms: N_10  and  C_4 
REMARK    3  A    between atoms: C_9  and  O_11 
REMARK    4  A    between atoms: C_12  and  N_10 
REMARK    5  A    between atoms: O_11  and  C_13 
ROOT
ATOM      1  C   UNL d   1      -1.071  -3.013   0.949  0.00  0.00     0.326 C 
ATOM      2  N   UNL d   1      -0.067  -2.096   0.803  0.00  0.00    -0.293 N 
ATOM      3  N   UNL d   1      -2.289  -2.681   0.429  0.00  0.00    -0.306 N 
ATOM      4  O   UNL d   1      -0.803  -4.089   1.490  0.00  0.00    -0.247 OA
ATOM      5  H   UNL d   1       0.839  -2.439   1.088  0.00  0.00     0.172 HD
ATOM      6  H   UNL d   1      -2.275  -1.954  -0.284  0.00  0.00     0.171 HD
ENDROOT
BRANCH   2   7
ATOM      7  C   UNL d   1      -0.196  -0.735   0.611  0.00  0.00     0.132 A 
ATOM      8  C   UNL d   1       0.882   0.178   0.662  0.00  0.00     0.086 A 
ATOM      9  C   UNL d   1       0.296   1.422   0.582  0.00  0.00     0.087 A 
ATOM     10  O   UNL d   1      -1.045   1.251   0.406  0.00  0.00    -0.240 OA
ATOM     11  N   UNL d   1      -1.350  -0.092   0.416  0.00  0.00    -0.245 N 
ATOM     12  HN  UNL d   1      -2.272  -0.512   0.297  1.00  0.00     0.196 HD
BRANCH   9  13
ATOM     13  C   UNL d   1       0.788   2.841   0.633  0.00  0.00     0.000 C 
ATOM     14  C   UNL d   1       0.777   3.433  -0.786  0.00  0.00     0.021 C 
ATOM     15  C   UNL d   1      -0.122   3.687   1.546  0.00  0.00     0.021 C 
ATOM     16  C   UNL d   1       2.221   2.911   1.194  0.00  0.00     0.021 C 
ENDBRANCH   9  13
ENDBRANCH   2   7
BRANCH   3  17
ATOM     17  C   UNL d   1      -3.484  -3.399   0.627  0.00  0.00     0.070 A 
ATOM     18  C   UNL d   1      -4.449  -3.502  -0.384  0.00  0.00     0.105 A 
ATOM     19  C   UNL d   1      -5.716  -4.021  -0.084  0.00  0.00     0.039 A 
ATOM     20  C   UNL d   1      -6.015  -4.473   1.202  0.00  0.00     0.003 A 
ATOM     21  C   UNL d   1      -5.039  -4.429   2.191  0.00  0.00     0.002 A 
ATOM     22  C   UNL d   1      -3.776  -3.903   1.902  0.00  0.00     0.032 A 
BRANCH  18  23
ATOM     23  O   UNL d   1      -4.298  -3.146  -1.697  0.00  0.00    -0.253 OA
BRANCH  23  24
ATOM     24  C   UNL d   1      -3.042  -3.421  -2.303  0.00  0.00     0.530 C 
ATOM     25  F   UNL d   1      -2.383  -4.454  -1.742  0.00  0.00    -0.144 F 
ATOM     26  F   UNL d   1      -3.249  -3.724  -3.606  0.00  0.00    -0.144 F 
ATOM     27  F   UNL d   1      -2.271  -2.312  -2.253  0.00  0.00    -0.144 F 
ENDBRANCH  23  24
ENDBRANCH  18  23
ENDBRANCH   3  17
TORSDOF 5
