REMARK  5 active torsions:
REMARK  status: ('A' for Active; 'I' for Inactive)
REMARK    1  A    between atoms: C_10  and  N_1 
REMARK    2  A    between atoms: C_13  and  N_5 
REMARK    3  A    between atoms: C_15  and  C_9 
REMARK    4  A    between atoms: C_11  and  C_10 
REMARK    5  A    between atoms: C_17  and  C_11 
ROOT
ATOM      1  N   UNL d   1       1.101  -1.362  -0.038  0.00  0.00    -0.285 N 
ATOM      2  C   UNL d   1      -0.105  -0.689   0.008  0.00  0.00     0.097 A 
ATOM      3  C   UNL d   1      -0.239   0.665   0.095  0.00  0.00     0.068 A 
ATOM      4  C   UNL d   1       2.277  -0.604   0.042  0.00  0.00     0.337 A 
ATOM      5  N   UNL d   1       2.154   0.806   0.086  0.00  0.00    -0.229 N 
ATOM      6  C   UNL d   1       0.935   1.508   0.153  0.00  0.00     0.269 A 
ATOM      7  S   UNL d   1      -1.587  -1.497  -0.052  0.00  0.00    -0.070 SA
ATOM      8  C   UNL d   1      -1.617   1.053   0.089  0.00  0.00     0.039 A 
ATOM      9  C   UNL d   1      -2.483  -0.028   0.028  0.00  0.00     0.018 A 
ATOM     10  O   UNL d   1       3.369  -1.186   0.081  0.00  0.00    -0.246 OA
ATOM     11  O   UNL d   1       0.809   2.726   0.200  0.00  0.00    -0.266 OA
ENDROOT
BRANCH   1  12
ATOM     12  C   UNL d   1       1.254  -2.820  -0.090  0.00  0.00     0.218 C 
BRANCH  12  13
ATOM     13  C   UNL d   1       1.342  -3.445   1.302  0.00  0.00     0.177 C 
ATOM     14  O   UNL d   1       1.330  -2.790   2.343  0.00  0.00    -0.291 OA
BRANCH  13  15
ATOM     15  C   UNL d   1       1.481  -4.928   1.384  0.00  0.00     0.011 A 
ATOM     16  C   UNL d   1       2.191  -5.478   2.461  0.00  0.00     0.015 A 
ATOM     17  C   UNL d   1       2.310  -6.863   2.591  0.00  0.00     0.001 A 
ATOM     18  C   UNL d   1       1.715  -7.706   1.654  0.00  0.00     0.000 A 
ATOM     19  C   UNL d   1       1.011  -7.166   0.579  0.00  0.00     0.001 A 
ATOM     20  C   UNL d   1       0.895  -5.780   0.439  0.00  0.00     0.015 A 
ENDBRANCH  13  15
ENDBRANCH  12  13
ENDBRANCH   1  12
BRANCH   5  21
ATOM     21  C   UNL d   1       3.372   1.572   0.076  0.00  0.00     0.047 A 
ATOM     22  C   UNL d   1       4.393   1.270  -0.840  0.00  0.00     0.030 A 
ATOM     23  C   UNL d   1       5.597   1.975  -0.832  0.00  0.00     0.002 A 
ATOM     24  C   UNL d   1       5.804   2.985   0.102  0.00  0.00     0.000 A 
ATOM     25  C   UNL d   1       4.796   3.308   1.009  0.00  0.00     0.002 A 
ATOM     26  C   UNL d   1       3.581   2.617   0.987  0.00  0.00     0.030 A 
ENDBRANCH   5  21
BRANCH   9  27
ATOM     27  C   UNL d   1      -3.959  -0.036   0.005  0.00  0.00    -0.019 A 
ATOM     28  C   UNL d   1      -4.705  -1.093   0.553  0.00  0.00     0.013 A 
ATOM     29  C   UNL d   1      -6.103  -1.075   0.538  0.00  0.00     0.001 A 
ATOM     30  C   UNL d   1      -6.782   0.004  -0.020  0.00  0.00     0.000 A 
ATOM     31  C   UNL d   1      -6.062   1.063  -0.567  0.00  0.00     0.001 A 
ATOM     32  C   UNL d   1      -4.663   1.043  -0.555  0.00  0.00     0.013 A 
ENDBRANCH   9  27
TORSDOF 5
