REMARK  3 active torsions:
REMARK  status: ('A' for Active; 'I' for Inactive)
REMARK    1  A    between atoms: C_7  and  C_1 
REMARK    2  A    between atoms: C_5  and  C_18 
REMARK       I    between atoms: N_11  and  C_7 
REMARK    3  A    between atoms: C_18  and  N_11 
ROOT
ATOM      1  C   UNL d   1       0.223   3.070   0.138  0.00  0.00     0.254 C 
ATOM      2  N   UNL d   1      -1.044   3.620   0.089  0.00  0.00    -0.351 N 
ATOM      3  O   UNL d   1       1.213   3.799   0.226  0.00  0.00    -0.268 OA
ATOM      4  H   UNL d   1      -1.883   3.053   0.050  0.00  0.00     0.163 HD
ENDROOT
BRANCH   1   5
ATOM      5  C   UNL d   1       0.437   1.593   0.074  0.00  0.00     0.069 A 
ATOM      6  C   UNL d   1      -0.554   0.607  -0.063  0.00  0.00     0.096 A 
ATOM      7  C   UNL d   1      -0.187  -0.757  -0.115  0.00  0.00     0.003 A 
ATOM      8  O   UNL d   1      -1.873   0.977  -0.131  0.00  0.00    -0.325 OA
ATOM      9  C   UNL d   1      -1.233  -1.820  -0.256  0.00  0.00     0.212 C 
ATOM     10  C   UNL d   1       1.163  -1.126  -0.069  0.00  0.00     0.054 A 
ATOM     11  O   UNL d   1      -2.508  -1.310   0.103  0.00  0.00    -0.362 OA
ATOM     12  C   UNL d   1      -2.735  -0.079  -0.567  0.00  0.00     0.345 C 
ATOM     13  C   UNL d   1       2.134  -0.150   0.054  0.00  0.00     0.118 A 
ATOM     14  C   UNL d   1       1.787   1.189   0.131  0.00  0.00     0.062 A 
ATOM     15  F   UNL d   1       3.425  -0.504   0.094  0.00  0.00    -0.206 F 
ENDBRANCH   1   5
BRANCH   2  16
ATOM     16  C   UNL d   1      -1.117   5.067   0.139  0.00  0.00     0.187 C 
BRANCH  16  17
ATOM     17  C   UNL d   1      -2.490   5.662   0.086  0.00  0.00     0.070 A 
ATOM     18  N   UNL d   1      -3.648   5.035   0.024  0.00  0.00    -0.351 N 
ATOM     19  C   UNL d   1      -4.685   5.971   0.002  0.00  0.00     0.050 A 
ATOM     20  HN  UNL d   1      -3.768   4.023  -0.005  1.00  0.00     0.166 HD
ATOM     21  C   UNL d   1      -6.066   5.688  -0.054  0.00  0.00     0.031 A 
ATOM     22  C   UNL d   1      -4.291   7.310   0.043  0.00  0.00     0.033 A 
ATOM     23  C   UNL d   1      -6.999   6.736  -0.069  0.00  0.00     0.002 A 
ATOM     24  C   UNL d   1      -6.576   8.060  -0.029  0.00  0.00     0.002 A 
ATOM     25  C   UNL d   1      -5.216   8.370   0.028  0.00  0.00     0.021 A 
ATOM     26  S   UNL d   1      -2.581   7.388   0.113  0.00  0.00    -0.073 SA
ENDBRANCH  16  17
ENDBRANCH   2  16
TORSDOF 3
