REMARK  3 active torsions:
REMARK  status: ('A' for Active; 'I' for Inactive)
REMARK       I    between atoms: N_2  and  C_1 
REMARK    1  A    between atoms: C_5  and  C_1 
REMARK    2  A    between atoms: C_4  and  N_2 
REMARK    3  A    between atoms: N_3  and  C_5 
ROOT
ATOM      1  C   UNL d   1       1.009   0.501  -0.346  0.00  0.00     0.255 C 
ATOM      2  N   UNL d   1       0.772   0.435   1.019  0.00  0.00    -0.325 N 
ATOM      3  O   UNL d   1       1.722   1.329  -0.914  0.00  0.00    -0.271 OA
ATOM      4  H   UNL d   1       0.219  -0.362   1.317  0.00  0.00     0.169 HD
ENDROOT
BRANCH   2   5
ATOM      5  C   UNL d   1       1.292   1.269   2.030  0.00  0.00     0.038 A 
ATOM      6  C   UNL d   1       2.179   2.322   1.794  0.00  0.00     0.053 A 
ATOM      7  C   UNL d   1       2.691   3.064   2.863  0.00  0.00     0.037 A 
ATOM      8 CL   UNL d   1       3.812   4.336   2.560  0.00  0.00    -0.084 Cl
ATOM      9  C   UNL d   1       2.316   2.783   4.172  0.00  0.00     0.048 A 
ATOM     10  C   UNL d   1       1.412   1.752   4.405  0.00  0.00     0.037 A 
ATOM     11  C   UNL d   1       0.900   0.998   3.347  0.00  0.00     0.053 A 
ATOM     12 CL   UNL d   1       0.925   1.395   6.018  0.00  0.00    -0.084 Cl
ENDBRANCH   2   5
BRANCH   1  13
ATOM     13  C   UNL d   1       0.281  -0.601  -1.157  0.00  0.00     0.310 C 
ATOM     14  C   UNL d   1      -1.233  -0.471  -0.941  0.00  0.00     0.053 C 
BRANCH  13  15
ATOM     15  N   UNL d   1       0.824  -1.934  -0.784  0.00  0.00     0.101 N 
ATOM     16  C   UNL d   1       2.234  -2.084  -1.210  0.00  0.00     0.273 C 
ATOM     17  C   UNL d   1       2.281  -3.257  -2.173  0.00  0.00     0.032 C 
ATOM     18  C   UNL d   1       1.111  -4.103  -1.728  0.00  0.00     0.032 C 
ATOM     19  C   UNL d   1       0.073  -3.052  -1.381  0.00  0.00     0.273 C 
ENDBRANCH  13  15
ENDBRANCH   1  13
TORSDOF 3
