REMARK  1 active torsions:
REMARK  status: ('A' for Active; 'I' for Inactive)
REMARK    1  A    between atoms: C_5  and  C_7 
ROOT
ATOM      1  N   UNL d   1       1.130  -1.732  -1.154  0.00  0.00    -0.192 NA
ATOM      2  C   UNL d   1       2.290  -1.757  -1.117  0.00  0.00     0.087 C 
ATOM      3  C   UNL d   1       3.710  -1.791  -1.095  0.00  0.00     0.094 C 
ATOM      4  C   UNL d   1       4.444  -0.686  -0.887  0.00  0.00     0.024 C 
ENDROOT
BRANCH   4   5
ATOM      5  C   UNL d   1       5.912  -0.710  -0.884  0.00  0.00    -0.014 A 
ATOM      6  C   UNL d   1       6.673  -0.893   0.284  0.00  0.00     0.045 A 
ATOM      7  C   UNL d   1       8.070  -0.892   0.231  0.00  0.00     0.048 A 
ATOM      8 CL   UNL d   1       5.925  -1.118   1.827  0.00  0.00    -0.083 Cl
ATOM      9  C   UNL d   1       8.713  -0.711  -0.990  0.00  0.00     0.035 A 
ATOM     10  C   UNL d   1       7.975  -0.532  -2.158  0.00  0.00     0.024 A 
ATOM     11 CL   UNL d   1      10.432  -0.705  -1.059  0.00  0.00    -0.084 Cl
ATOM     12  C   UNL d   1       6.578  -0.532  -2.105  0.00  0.00     0.015 A 
ENDBRANCH   4   5
TORSDOF 1
