REMARK  9 active torsions:
REMARK  status: ('A' for Active; 'I' for Inactive)
REMARK    1  A    between atoms: C_2  and  C_1 
REMARK    2  A    between atoms: C_3  and  O_15 
REMARK    3  A    between atoms: C_5  and  C_3 
REMARK    4  A    between atoms: C_4  and  O_16 
REMARK    5  A    between atoms: C_6  and  C_4 
REMARK    6  A    between atoms: C_19  and  C_7 
REMARK    7  A    between atoms: C_20  and  C_8 
REMARK    8  A    between atoms: O_15  and  C_19 
REMARK    9  A    between atoms: O_16  and  C_20 
ROOT
ATOM      1  C   UNL d   1       0.753  -0.003  -0.011  0.00  0.00    -0.013 C 
ATOM      2  C   UNL d   1       1.951   0.072  -0.028  0.00  0.00    -0.066 C 
ENDROOT
BRANCH   1   3
ATOM      3  C   UNL d   1      -0.776  -0.083  -0.007  0.00  0.00    -0.013 C 
ATOM      4  C   UNL d   1      -1.976  -0.091  -0.020  0.00  0.00    -0.066 C 
BRANCH   4   5
ATOM      5  C   UNL d   1      -3.440  -0.019  -0.024  0.00  0.00     0.273 C 
BRANCH   5   6
ATOM      6  O   UNL d   1      -3.983  -1.125  -0.763  0.00  0.00    -0.305 OA
BRANCH   6   7
ATOM      7  C   UNL d   1      -4.872  -1.889  -0.089  0.00  0.00     0.295 C 
ATOM      8  O   UNL d   1      -5.218  -1.731   1.074  0.00  0.00    -0.259 OA
BRANCH   7   9
ATOM      9  C   UNL d   1      -5.428  -2.965  -0.936  0.00  0.00     0.054 A 
ATOM     10  C   UNL d   1      -6.379  -3.808  -0.370  0.00  0.00     0.105 A 
ATOM     11  N   UNL d   1      -6.981  -4.830  -1.028  0.00  0.00    -0.374 N 
ATOM     12  C   UNL d   1      -6.615  -5.020  -2.313  0.00  0.00     0.087 A 
ATOM     13  HN  UNL d   1      -7.674  -5.424  -0.574  1.00  0.00     0.164 HD
ATOM     14  C   UNL d   1      -5.679  -4.235  -2.969  0.00  0.00     0.018 A 
ATOM     15  C   UNL d   1      -5.073  -3.190  -2.268  0.00  0.00     0.020 A 
ENDBRANCH   7   9
ENDBRANCH   6   7
ENDBRANCH   5   6
ENDBRANCH   4   5
ENDBRANCH   1   3
BRANCH   2  16
ATOM     16  C   UNL d   1       3.415   0.143  -0.041  0.00  0.00     0.273 C 
BRANCH  16  17
ATOM     17  O   UNL d   1       3.838   1.278  -0.816  0.00  0.00    -0.305 OA
BRANCH  17  18
ATOM     18  C   UNL d   1       4.637   2.156  -0.167  0.00  0.00     0.295 C 
ATOM     19  O   UNL d   1       5.003   2.075   0.993  0.00  0.00    -0.259 OA
BRANCH  18  20
ATOM     20  C   UNL d   1       5.054   3.269  -1.051  0.00  0.00     0.054 A 
ATOM     21  C   UNL d   1       5.910   4.230  -0.521  0.00  0.00     0.105 A 
ATOM     22  N   UNL d   1       6.383   5.295  -1.216  0.00  0.00    -0.374 N 
ATOM     23  C   UNL d   1       5.983   5.408  -2.499  0.00  0.00     0.087 A 
ATOM     24  HN  UNL d   1       7.009   5.978  -0.788  1.00  0.00     0.164 HD
ATOM     25  C   UNL d   1       5.133   4.504  -3.120  0.00  0.00     0.018 A 
ATOM     26  C   UNL d   1       4.659   3.416  -2.383  0.00  0.00     0.020 A 
ENDBRANCH  18  20
ENDBRANCH  17  18
ENDBRANCH  16  17
ENDBRANCH   2  16
TORSDOF 9
