REMARK  6 active torsions:
REMARK  status: ('A' for Active; 'I' for Inactive)
REMARK    1  A    between atoms: N_2  and  C_1 
REMARK    2  A    between atoms: C_3  and  N_2 
REMARK    3  A    between atoms: C_9  and  C_5 
REMARK    4  A    between atoms: C_10  and  N_6 
REMARK    5  A    between atoms: O_7  and  C_12 
REMARK    6  A    between atoms: C_12  and  C_10 
ROOT
ATOM      1  N   UNL d   1       0.302   0.285  -1.169  0.00  0.00    -0.333 N 
ATOM      2  H   UNL d   1       0.967   0.037  -0.448  0.00  0.00     0.168 HD
ENDROOT
BRANCH   1   3
ATOM      3  C   UNL d   1      -0.796   0.964  -0.705  0.00  0.00     0.172 C 
ATOM      4  S   UNL d   1      -0.744   1.599   0.838  0.00  0.00    -0.041 SA
ATOM      5  N   UNL d   1      -1.872   0.991  -1.542  0.00  0.00    -0.365 N 
ATOM      6  H   UNL d   1      -1.809   0.420  -2.376  0.00  0.00     0.161 HD
BRANCH   5   7
ATOM      7  C   UNL d   1      -3.088   1.796  -1.456  0.00  0.00     0.148 C 
BRANCH   7   8
ATOM      8  C   UNL d   1      -3.112   2.822  -2.591  0.00  0.00     0.183 C 
BRANCH   8   9
ATOM      9  O   UNL d   1      -3.109   2.145  -3.849  0.00  0.00    -0.399 OA
ATOM     10  H   UNL d   1      -3.030   2.826  -4.538  0.00  0.00     0.209 HD
ENDBRANCH   8   9
ENDBRANCH   7   8
ENDBRANCH   5   7
ENDBRANCH   1   3
BRANCH   1  11
ATOM     11  C   UNL d   1       0.771   0.151  -2.495  0.00  0.00     0.040 A 
ATOM     12  C   UNL d   1       1.692  -0.859  -2.834  0.00  0.00    -0.032 A 
ATOM     13  C   UNL d   1       2.248  -0.843  -4.132  0.00  0.00     0.009 A 
ATOM     14  C   UNL d   1       1.887   0.120  -5.078  0.00  0.00     0.001 A 
ATOM     15  C   UNL d   1       0.963   1.095  -4.741  0.00  0.00     0.002 A 
ATOM     16  C   UNL d   1       0.416   1.112  -3.460  0.00  0.00     0.030 A 
BRANCH  12  17
ATOM     17  C   UNL d   1       2.176  -1.972  -1.922  0.00  0.00     0.036 C 
ATOM     18  C   UNL d   1       1.190  -2.580  -0.932  0.00  0.00     0.010 C 
ENDBRANCH  12  17
ENDBRANCH   1  11
TORSDOF 6
