REMARK  4 active torsions:
REMARK  status: ('A' for Active; 'I' for Inactive)
REMARK    1  A    between atoms: N_2  and  S_1 
REMARK    2  A    between atoms: C_19  and  S_1 
REMARK    3  A    between atoms: C_3  and  C_6 
REMARK    4  A    between atoms: C_5  and  N_4 
ROOT
ATOM      1  N   UNL d   1       0.450   0.339   1.392  0.00  0.00    -0.208 NA
ATOM      2  N   UNL d   1       2.005   2.351   2.820  0.00  0.00    -0.365 N 
ATOM      3  C   UNL d   1      -0.022   1.775   1.496  0.00  0.00     0.127 C 
ATOM      4  C   UNL d   1       1.268   0.014   2.597  0.00  0.00     0.127 C 
ATOM      5  C   UNL d   1       2.462   0.961   2.785  0.00  0.00     0.140 C 
ATOM      6  C   UNL d   1       1.142   2.773   1.698  0.00  0.00     0.140 C 
ENDROOT
BRANCH   2   7
ATOM      7  C   UNL d   1       2.768   3.337   3.420  0.00  0.00     0.103 A 
ATOM      8  C   UNL d   1       4.073   3.112   3.857  0.00  0.00     0.064 A 
ATOM      9  C   UNL d   1       4.767   4.087   4.586  0.00  0.00     0.052 A 
ATOM     10  C   UNL d   1       4.121   5.288   4.865  0.00  0.00     0.033 A 
ATOM     11  C   UNL d   1       2.841   5.460   4.379  0.00  0.00     0.090 A 
ATOM     12  N   UNL d   1       2.175   4.525   3.665  0.00  0.00    -0.352 N 
ATOM     13  HN  UNL d   1       1.236   4.715   3.316  1.00  0.00     0.166 HD
BRANCH   9  14
ATOM     14  C   UNL d   1       6.170   3.838   5.065  0.00  0.00     0.417 C 
ATOM     15  F   UNL d   1       6.664   2.623   4.694  0.00  0.00    -0.166 F 
ATOM     16  F   UNL d   1       7.054   4.759   4.595  0.00  0.00    -0.166 F 
ATOM     17  F   UNL d   1       6.271   3.879   6.422  0.00  0.00    -0.166 F 
ENDBRANCH   9  14
ENDBRANCH   2   7
BRANCH   1  18
ATOM     18  S   UNL d   1       1.036  -0.082  -0.142  0.00  0.00     0.211 S 
ATOM     19  O   UNL d   1       2.238   0.688  -0.387  0.00  0.00    -0.211 OA
ATOM     20  O   UNL d   1      -0.079  -0.014  -1.057  0.00  0.00    -0.211 OA
BRANCH  18  21
ATOM     21  C   UNL d   1       1.527  -1.796   0.049  0.00  0.00     0.153 C 
ATOM     22  C   UNL d   1       2.005  -2.389  -1.260  0.00  0.00     0.022 C 
ENDBRANCH  18  21
ENDBRANCH   1  18
TORSDOF 4
