REMARK  3 active torsions:
REMARK  status: ('A' for Active; 'I' for Inactive)
REMARK    1  A    between atoms: C_6  and  C_8 
REMARK    2  A    between atoms: O_16  and  C_7 
REMARK    3  A    between atoms: C_10  and  N_9 
ROOT
ATOM      1  C   UNL d   1      -1.450  -2.821  -0.833  0.00  0.00     0.116 A 
ATOM      2  C   UNL d   1      -2.293  -3.901  -1.047  0.00  0.00     0.131 A 
ATOM      3  N   UNL d   1      -3.351  -2.315  -2.414  0.00  0.00    -0.304 N 
ATOM      4  HN  UNL d   1      -4.023  -1.935  -3.081  1.00  0.00     0.176 HD
ATOM      5  S   UNL d   1      -2.123  -1.475  -1.682  0.00  0.00     0.007 SA
ATOM      6  C   UNL d   1      -3.307  -3.564  -1.980  0.00  0.00     0.170 A 
ATOM      7  N   UNL d   1      -0.320  -2.702  -0.082  0.00  0.00    -0.347 N 
ATOM      8  C   UNL d   1      -2.171  -5.172  -0.421  0.00  0.00     0.107 C 
ATOM      9  N   UNL d   1      -2.127  -6.237   0.042  0.00  0.00    -0.191 NA
ATOM     10  H   UNL d   1       0.007  -1.752   0.114  0.00  0.00     0.166 HD
ENDROOT
BRANCH   6  11
ATOM     11  O   UNL d   1      -4.252  -4.369  -2.492  0.00  0.00    -0.344 OA
ATOM     12  H   UNL d   1      -4.131  -5.288  -2.204  0.00  0.00     0.219 HD
ENDBRANCH   6  11
BRANCH   7  13
ATOM     13  C   UNL d   1       0.742  -3.640  -0.021  0.00  0.00     0.048 A 
ATOM     14  C   UNL d   1       1.604  -3.689   1.093  0.00  0.00     0.074 A 
ATOM     15  C   UNL d   1       2.641  -4.649   1.124  0.00  0.00     0.018 A 
ATOM     16  C   UNL d   1       2.815  -5.560   0.085  0.00  0.00     0.001 A 
ATOM     17  C   UNL d   1       1.962  -5.523  -1.007  0.00  0.00     0.002 A 
ATOM     18  C   UNL d   1       0.948  -4.567  -1.063  0.00  0.00     0.030 A 
BRANCH  14  19
ATOM     19  C   UNL d   1       1.466  -2.792   2.300  0.00  0.00     0.419 C 
ATOM     20  F   UNL d   1       0.499  -1.836   2.199  0.00  0.00    -0.166 F 
ATOM     21  F   UNL d   1       1.187  -3.487   3.438  0.00  0.00    -0.166 F 
ATOM     22  F   UNL d   1       2.616  -2.107   2.561  0.00  0.00    -0.166 F 
ENDBRANCH  14  19
ENDBRANCH   7  13
TORSDOF 3
