REMARK  7 active torsions:
REMARK  status: ('A' for Active; 'I' for Inactive)
REMARK    1  A    between atoms: C_8  and  C_1 
REMARK    2  A    between atoms: C_9  and  N_2 
REMARK    3  A    between atoms: C_18  and  C_3 
REMARK    4  A    between atoms: N_6  and  C_10 
REMARK    5  A    between atoms: O_19  and  C_8 
REMARK    6  A    between atoms: C_21  and  C_18 
REMARK    7  A    between atoms: C_20  and  O_19 
ROOT
ATOM      1  C   UNL d   1      -0.292   1.201  -0.038  0.00  0.00     0.081 C 
ATOM      2  N   UNL d   1       0.972  -0.630  -0.062  0.00  0.00    -0.260 N 
ATOM      3  C   UNL d   1       1.031   0.764  -0.003  0.00  0.00     0.052 C 
ATOM      4  N   UNL d   1      -0.295  -1.048  -0.341  0.00  0.00    -0.304 N 
ATOM      5  HN  UNL d   1      -0.598  -1.994  -0.572  1.00  0.00     0.186 HD
ATOM      6  C   UNL d   1      -1.047   0.039  -0.245  0.00  0.00     0.127 C 
ENDROOT
BRANCH   2   7
ATOM      7  C   UNL d   1       1.961  -1.637   0.169  0.00  0.00     0.056 A 
ATOM      8  C   UNL d   1       3.128  -1.388   0.898  0.00  0.00     0.034 A 
ATOM      9  C   UNL d   1       4.018  -2.429   1.190  0.00  0.00     0.038 A 
ATOM     10  C   UNL d   1       3.739  -3.730   0.756  0.00  0.00     0.103 A 
ATOM     11  C   UNL d   1       2.588  -3.993   0.007  0.00  0.00     0.038 A 
ATOM     12  C   UNL d   1       1.703  -2.949  -0.277  0.00  0.00     0.034 A 
BRANCH  10  13
ATOM     13  N   UNL d   1       4.638  -4.829   1.124  0.00  0.00    -0.116 N 
ATOM     14  O   UNL d   1       5.617  -4.558   1.835  0.00  0.00    -0.532 OA
ATOM     15  O   UNL d   1       4.363  -5.965   0.711  0.00  0.00    -0.532 OA
ENDBRANCH  10  13
ENDBRANCH   2   7
BRANCH   3  16
ATOM     16  C   UNL d   1       2.268   1.615   0.013  0.00  0.00     0.060 C 
BRANCH  16  17
ATOM     17  C   UNL d   1       3.159   1.454  -1.221  0.00  0.00     0.002 C 
ATOM     18  C   UNL d   1       2.465   1.839  -2.521  0.00  0.00     0.005 C 
ENDBRANCH  16  17
ENDBRANCH   3  16
BRANCH   1  19
ATOM     19  C   UNL d   1      -0.789   2.554   0.105  0.00  0.00     0.296 C 
ATOM     20  O   UNL d   1      -0.184   3.442   0.685  0.00  0.00    -0.259 OA
BRANCH  19  21
ATOM     21  O   UNL d   1      -2.041   2.686  -0.421  0.00  0.00    -0.318 OA
BRANCH  21  22
ATOM     22  C   UNL d   1      -2.750   3.867  -0.029  0.00  0.00     0.174 C 
ATOM     23  C   UNL d   1      -3.535   3.528   1.224  0.00  0.00     0.034 C 
ENDBRANCH  21  22
ENDBRANCH  19  21
ENDBRANCH   1  19
TORSDOF 7
