REMARK  5 active torsions:
REMARK  status: ('A' for Active; 'I' for Inactive)
REMARK    1  A    between atoms: C_3  and  C_9 
REMARK    2  A    between atoms: C_13  and  C_6 
REMARK    3  A    between atoms: C_7  and  C_8 
REMARK    4  A    between atoms: O_22  and  C_7 
REMARK    5  A    between atoms: C_26  and  O_22 
ROOT
ATOM      1  C   UNL d   1      -2.049   0.293   0.036  0.00  0.00    -0.006 C 
ATOM      2  C   UNL d   1      -1.056  -0.829  -0.001  0.00  0.00     0.189 C 
ATOM      3  C   UNL d   1       0.384  -0.428   0.026  0.00  0.00     0.021 A 
ATOM      4  C   UNL d   1       0.754   0.928  -0.013  0.00  0.00    -0.043 A 
ATOM      5  C   UNL d   1      -3.260   0.088  -0.512  0.00  0.00     0.022 C 
ATOM      6  C   UNL d   1       3.100   0.281  -0.064  0.00  0.00     0.040 A 
ATOM      7  C   UNL d   1       2.111   1.272  -0.072  0.00  0.00     0.025 A 
ATOM      8  C   UNL d   1       1.371  -1.420   0.048  0.00  0.00     0.017 A 
ATOM      9  C   UNL d   1      -1.551   1.571   0.653  0.00  0.00     0.047 C 
ATOM     10  O   UNL d   1      -1.393  -2.006  -0.070  0.00  0.00    -0.287 OA
ATOM     11  C   UNL d   1       2.725  -1.068   0.009  0.00  0.00     0.018 A 
ATOM     12  C   UNL d   1      -0.282   2.019  -0.055  0.00  0.00     0.044 C 
ENDROOT
BRANCH   5  13
ATOM     13  C   UNL d   1      -4.246   1.164  -0.619  0.00  0.00    -0.035 A 
ATOM     14  C   UNL d   1      -4.211   2.023  -1.726  0.00  0.00     0.027 A 
ATOM     15  C   UNL d   1      -5.029   3.162  -1.774  0.00  0.00     0.048 A 
ATOM     16  C   UNL d   1      -5.910   3.408  -0.709  0.00  0.00     0.016 A 
ATOM     17  C   UNL d   1      -5.964   2.540   0.384  0.00  0.00     0.002 A 
ATOM     18  C   UNL d   1      -5.129   1.424   0.431  0.00  0.00     0.011 A 
BRANCH  15  19
ATOM     19  C   UNL d   1      -4.938   4.138  -2.920  0.00  0.00     0.417 C 
ATOM     20  F   UNL d   1      -4.012   3.792  -3.859  0.00  0.00    -0.166 F 
ATOM     21  F   UNL d   1      -6.115   4.278  -3.589  0.00  0.00    -0.166 F 
ATOM     22  F   UNL d   1      -4.591   5.388  -2.505  0.00  0.00    -0.166 F 
ENDBRANCH  15  19
ENDBRANCH   5  13
BRANCH   6  23
ATOM     23  C   UNL d   1       4.511   0.724  -0.221  0.00  0.00     0.293 C 
ATOM     24  O   UNL d   1       4.835   1.893  -0.344  0.00  0.00    -0.259 OA
BRANCH  23  25
ATOM     25  O   UNL d   1       5.329  -0.351  -0.329  0.00  0.00    -0.318 OA
BRANCH  25  26
ATOM     26  C   UNL d   1       6.599  -0.085  -0.938  0.00  0.00     0.174 C 
ATOM     27  C   UNL d   1       6.440  -0.265  -2.437  0.00  0.00     0.034 C 
ENDBRANCH  25  26
ENDBRANCH  23  25
ENDBRANCH   6  23
TORSDOF 5
