REMARK  6 active torsions:
REMARK  status: ('A' for Active; 'I' for Inactive)
REMARK       I    between atoms: C_4  and  N_1 
REMARK    1  A    between atoms: C_13  and  C_3 
REMARK    2  A    between atoms: C_11  and  C_4 
REMARK    3  A    between atoms: C_6  and  O_17 
REMARK    4  A    between atoms: C_7  and  O_16 
REMARK    5  A    between atoms: O_16  and  C_28 
REMARK    6  A    between atoms: O_17  and  C_29 
ROOT
ATOM      1  N   UNL d   1      -2.528   0.305  -0.387  0.00  0.00    -0.335 N 
ATOM      2  C   UNL d   1      -0.153   0.768   0.043  0.00  0.00    -0.017 A 
ATOM      3  C   UNL d   1      -1.562   1.326   0.116  0.00  0.00     0.155 C 
ATOM      4  C   UNL d   1      -3.636   0.561  -1.198  0.00  0.00     0.254 C 
ATOM      5  C   UNL d   1       0.121  -0.582  -0.079  0.00  0.00    -0.007 A 
ATOM      6  C   UNL d   1      -2.306  -1.092   0.066  0.00  0.00     0.132 C 
ATOM      7  S   UNL d   1       1.784  -0.935  -0.091  0.00  0.00    -0.106 SA
ATOM      8  C   UNL d   1      -0.912  -1.642  -0.256  0.00  0.00     0.067 C 
ATOM      9  C   UNL d   1       1.067   1.523  -0.038  0.00  0.00     0.018 A 
ATOM     10  C   UNL d   1       2.188   0.724  -0.057  0.00  0.00     0.051 A 
ATOM     11  O   UNL d   1      -4.380  -0.342  -1.588  0.00  0.00    -0.267 OA
ENDROOT
BRANCH   3  12
ATOM     12  C   UNL d   1      -1.807   1.754   1.577  0.00  0.00    -0.031 A 
ATOM     13  C   UNL d   1      -0.996   2.725   2.197  0.00  0.00     0.012 A 
ATOM     14  C   UNL d   1      -1.201   3.134   3.523  0.00  0.00     0.037 A 
ATOM     15  C   UNL d   1      -2.274   2.636   4.250  0.00  0.00     0.078 A 
ATOM     16  C   UNL d   1      -3.103   1.688   3.654  0.00  0.00     0.037 A 
ATOM     17  C   UNL d   1      -2.886   1.269   2.336  0.00  0.00     0.012 A 
BRANCH  15  18
ATOM     18  O   UNL d   1      -2.616   2.965   5.524  0.00  0.00    -0.255 OA
BRANCH  18  19
ATOM     19  C   UNL d   1      -2.239   4.231   6.044  0.00  0.00     0.530 C 
ATOM     20  F   UNL d   1      -1.930   5.141   5.096  0.00  0.00    -0.144 F 
ATOM     21  F   UNL d   1      -3.278   4.722   6.756  0.00  0.00    -0.144 F 
ATOM     22  F   UNL d   1      -1.187   4.087   6.877  0.00  0.00    -0.144 F 
ENDBRANCH  18  19
ENDBRANCH  15  18
ENDBRANCH   3  12
BRANCH   4  23
ATOM     23  C   UNL d   1      -3.966   1.938  -1.690  0.00  0.00     0.032 A 
ATOM     24  C   UNL d   1      -4.446   2.076  -3.002  0.00  0.00     0.020 A 
ATOM     25  C   UNL d   1      -4.765   3.339  -3.526  0.00  0.00     0.038 A 
ATOM     26  C   UNL d   1      -4.564   4.483  -2.760  0.00  0.00     0.078 A 
ATOM     27  C   UNL d   1      -4.160   4.341  -1.431  0.00  0.00     0.038 A 
ATOM     28  C   UNL d   1      -3.899   3.079  -0.890  0.00  0.00     0.020 A 
BRANCH  26  29
ATOM     29  O   UNL d   1      -4.808   5.765  -3.141  0.00  0.00    -0.255 OA
BRANCH  29  30
ATOM     30  C   UNL d   1      -4.615   6.155  -4.494  0.00  0.00     0.530 C 
ATOM     31  F   UNL d   1      -4.131   5.184  -5.293  0.00  0.00    -0.144 F 
ATOM     32  F   UNL d   1      -5.791   6.589  -4.998  0.00  0.00    -0.144 F 
ATOM     33  F   UNL d   1      -3.741   7.187  -4.521  0.00  0.00    -0.144 F 
ENDBRANCH  29  30
ENDBRANCH  26  29
ENDBRANCH   4  23
TORSDOF 6
