REMARK  5 active torsions:
REMARK  status: ('A' for Active; 'I' for Inactive)
REMARK    1  A    between atoms: N_2  and  S_1 
REMARK    2  A    between atoms: C_7  and  S_1 
REMARK    3  A    between atoms: C_4  and  N_2 
REMARK    4  A    between atoms: C_3  and  C_10 
REMARK    5  A    between atoms: N_5  and  C_6 
ROOT
ATOM      1  N   UNL d   1       0.535   1.480  -0.504  0.00  0.00    -0.179 NA
ATOM      2  H   UNL d   1      -0.126   1.729  -1.236  0.00  0.00     0.146 HD
ENDROOT
BRANCH   1   3
ATOM      3  S   UNL d   1       0.057   0.060   0.295  0.00  0.00     0.245 S 
ATOM      4  O   UNL d   1       0.553   0.023   1.654  0.00  0.00    -0.206 OA
ATOM      5  O   UNL d   1       0.291  -1.033  -0.623  0.00  0.00    -0.206 OA
BRANCH   3   6
ATOM      6  C   UNL d   1      -1.719   0.263   0.372  0.00  0.00     0.074 A 
ATOM      7  C   UNL d   1      -2.503  -0.165  -0.706  0.00  0.00     0.025 A 
ATOM      8  C   UNL d   1      -3.896  -0.084  -0.624  0.00  0.00     0.018 A 
ATOM      9  C   UNL d   1      -4.517   0.404   0.537  0.00  0.00     0.048 A 
ATOM     10  C   UNL d   1      -3.713   0.825   1.613  0.00  0.00     0.018 A 
ATOM     11  C   UNL d   1      -2.319   0.749   1.535  0.00  0.00     0.025 A 
BRANCH   9  12
ATOM     12  C   UNL d   1      -6.026   0.451   0.621  0.00  0.00     0.417 C 
ATOM     13  F   UNL d   1      -6.493   0.927   1.808  0.00  0.00    -0.166 F 
ATOM     14  F   UNL d   1      -6.572   1.246  -0.341  0.00  0.00    -0.166 F 
ATOM     15  F   UNL d   1      -6.594  -0.775   0.459  0.00  0.00    -0.166 F 
ENDBRANCH   9  12
ENDBRANCH   3   6
ENDBRANCH   1   3
BRANCH   1  16
ATOM     16  C   UNL d   1       0.916   2.597   0.315  0.00  0.00     0.049 A 
ATOM     17  C   UNL d   1       2.231   2.724   0.829  0.00  0.00     0.052 A 
ATOM     18  C   UNL d   1       2.480   3.833   1.663  0.00  0.00     0.031 A 
ATOM     19  C   UNL d   1       1.495   4.777   1.965  0.00  0.00     0.002 A 
ATOM     20  C   UNL d   1       0.216   4.630   1.446  0.00  0.00     0.002 A 
ATOM     21  C   UNL d   1      -0.077   3.538   0.632  0.00  0.00     0.027 A 
BRANCH  17  22
ATOM     22  N   UNL d   1       3.323   1.917   0.498  0.00  0.00    -0.379 N 
ATOM     23  C   UNL d   1       3.384   1.211  -0.782  0.00  0.00     0.123 C 
ATOM     24  C   UNL d   1       4.851   1.101  -1.206  0.00  0.00     0.020 C 
ATOM     25  C   UNL d   1       5.696   0.433  -0.123  0.00  0.00     0.003 C 
ATOM     26  C   UNL d   1       5.514   1.131   1.225  0.00  0.00     0.020 C 
ATOM     27  C   UNL d   1       4.034   1.253   1.599  0.00  0.00     0.123 C 
ENDBRANCH  17  22
ENDBRANCH   1  16
TORSDOF 5
