REMARK  6 active torsions:
REMARK  status: ('A' for Active; 'I' for Inactive)
REMARK    1  A    between atoms: C_6  and  C_1 
REMARK    2  A    between atoms: C_5  and  C_2 
REMARK    3  A    between atoms: N_19  and  C_6 
REMARK    4  A    between atoms: C_9  and  C_12 
REMARK    5  A    between atoms: O_13  and  N_10 
REMARK    6  A    between atoms: C_12  and  O_13 
ROOT
ATOM      1  C   UNL d   1      -2.768   1.378  -0.027  0.00  0.00     0.128 C 
ATOM      2  N   UNL d   1      -3.934   0.844   0.090  0.00  0.00    -0.244 N 
ATOM      3  HN  UNL d   1      -4.792   1.373   0.243  1.00  0.00     0.196 HD
ENDROOT
BRANCH   1   4
ATOM      4  C   UNL d   1      -2.663   2.828   0.022  0.00  0.00     0.113 A 
ATOM      5  C   UNL d   1      -3.630   3.770  -0.266  0.00  0.00     0.191 A 
ATOM      6  O   UNL d   1      -3.069   5.010  -0.060  0.00  0.00    -0.291 OA
ATOM      7  C   UNL d   1      -1.786   4.753   0.324  0.00  0.00     0.120 A 
ATOM      8  N   UNL d   1      -1.478   3.473   0.373  0.00  0.00    -0.336 N 
ATOM      9  C   UNL d   1      -0.947   5.934   0.608  0.00  0.00     0.098 C 
ATOM     10  HN  UNL d   1      -0.580   3.052   0.612  1.00  0.00     0.168 HD
BRANCH   5  11
ATOM     11  C   UNL d   1      -5.020   3.750  -0.760  0.00  0.00     0.441 C 
ATOM     12  F   UNL d   1      -5.491   2.529  -1.103  0.00  0.00    -0.164 F 
ATOM     13  F   UNL d   1      -5.887   4.273   0.148  0.00  0.00    -0.164 F 
ATOM     14  F   UNL d   1      -5.142   4.516  -1.882  0.00  0.00    -0.164 F 
ENDBRANCH   5  11
ENDBRANCH   1   4
BRANCH   1  15
ATOM     15  N   UNL d   1      -1.550   0.772  -0.164  0.00  0.00    -0.285 NA
ATOM     16  H   UNL d   1      -0.768   1.350   0.135  0.00  0.00     0.125 HD
ATOM     17  H   UNL d   1      -1.520  -0.177   0.187  0.00  0.00     0.125 HD
ENDBRANCH   1  15
BRANCH   2  18
ATOM     18  O   UNL d   1      -3.882  -0.562  -0.018  0.00  0.00    -0.193 OA
BRANCH  18  19
ATOM     19  C   UNL d   1      -5.108  -1.077   0.283  0.00  0.00     0.316 C 
ATOM     20  O   UNL d   1      -6.095  -0.468   0.674  0.00  0.00    -0.257 OA
BRANCH  19  21
ATOM     21  C   UNL d   1      -5.183  -2.526  -0.022  0.00  0.00     0.063 A 
ATOM     22  C   UNL d   1      -4.148  -3.449   0.190  0.00  0.00     0.050 A 
ATOM     23 CL   UNL d   1      -2.616  -3.029   0.867  0.00  0.00    -0.083 Cl
ATOM     24  C   UNL d   1      -4.358  -4.803  -0.109  0.00  0.00     0.025 A 
ATOM     25  C   UNL d   1      -5.588  -5.247  -0.598  0.00  0.00     0.002 A 
ATOM     26  C   UNL d   1      -6.622  -4.338  -0.799  0.00  0.00     0.001 A 
ATOM     27  C   UNL d   1      -6.421  -2.989  -0.512  0.00  0.00     0.019 A 
ENDBRANCH  19  21
ENDBRANCH  18  19
ENDBRANCH   2  18
TORSDOF 6
