REMARK  4 active torsions:
REMARK  status: ('A' for Active; 'I' for Inactive)
REMARK    1  A    between atoms: N_2  and  S_1 
REMARK    2  A    between atoms: C_3  and  S_1 
REMARK    3  A    between atoms: C_9  and  N_2 
REMARK    4  A    between atoms: O_19  and  C_8 
ROOT
ATOM      1  N   UNL d   1       0.414  -1.366   0.837  0.00  0.00    -0.279 N 
ATOM      2  H   UNL d   1      -0.516  -1.207   1.225  0.00  0.00     0.179 HD
ENDROOT
BRANCH   1   3
ATOM      3  S   UNL d   1       0.955  -0.052  -0.082  0.00  0.00     0.263 S 
ATOM      4  O   UNL d   1       2.372  -0.202  -0.337  0.00  0.00    -0.200 OA
ATOM      5  O   UNL d   1       0.420   1.133   0.550  0.00  0.00    -0.200 OA
BRANCH   3   6
ATOM      6  C   UNL d   1       0.091  -0.262  -1.629  0.00  0.00     0.080 A 
ATOM      7  C   UNL d   1      -1.173   0.323  -1.797  0.00  0.00     0.028 A 
ATOM      8  C   UNL d   1      -1.850   0.156  -3.006  0.00  0.00     0.044 A 
ATOM      9  C   UNL d   1      -1.260  -0.579  -4.030  0.00  0.00     0.116 A 
ATOM     10  C   UNL d   1       0.002  -1.146  -3.875  0.00  0.00     0.044 A 
ATOM     11  F   UNL d   1      -1.917  -0.743  -5.186  0.00  0.00    -0.206 F 
ATOM     12  C   UNL d   1       0.691  -0.978  -2.672  0.00  0.00     0.028 A 
ENDBRANCH   3   6
ENDBRANCH   1   3
BRANCH   1  13
ATOM     13  C   UNL d   1       0.724  -2.673   0.374  0.00  0.00     0.058 A 
ATOM     14  C   UNL d   1       1.978  -3.236   0.595  0.00  0.00     0.120 A 
ATOM     15  N   UNL d   1       2.358  -4.444   0.117  0.00  0.00    -0.345 N 
ATOM     16  C   UNL d   1       1.458  -5.105  -0.641  0.00  0.00     0.141 A 
ATOM     17  HN  UNL d   1       3.279  -4.834   0.319  1.00  0.00     0.167 HD
ATOM     18  C   UNL d   1       0.193  -4.617  -0.933  0.00  0.00     0.058 A 
ATOM     19  C   UNL d   1      -0.183  -3.382  -0.407  0.00  0.00     0.036 A 
BRANCH  16  20
ATOM     20  O   UNL d   1       1.782  -6.330  -1.185  0.00  0.00    -0.341 OA
ATOM     21  C   UNL d   1       3.088  -6.769  -0.821  0.00  0.00     0.211 C 
ENDBRANCH  16  20
ENDBRANCH   1  13
TORSDOF 4
