REMARK  6 active torsions:
REMARK  status: ('A' for Active; 'I' for Inactive)
REMARK    1  A    between atoms: N_3  and  C_1 
REMARK    2  A    between atoms: N_4  and  C_1 
REMARK       I    between atoms: C_2  and  N_5 
REMARK    3  A    between atoms: O_9  and  C_2 
REMARK    4  A    between atoms: C_7  and  N_4 
REMARK    5  A    between atoms: N_6  and  C_8 
REMARK    6  A    between atoms: C_14  and  O_9 
ROOT
ATOM      1  C   UNL d   1       0.573  -0.587  -0.554  0.00  0.00     0.174 C 
ATOM      2  S   UNL d   1       0.538   0.996  -1.133  0.00  0.00    -0.041 SA
ENDROOT
BRANCH   1   3
ATOM      3  N   UNL d   1      -0.065  -0.895   0.662  0.00  0.00    -0.356 N 
ATOM      4  C   UNL d   1      -0.878  -2.097   0.844  0.00  0.00     0.145 C 
ATOM      5  C   UNL d   1      -2.159  -1.884   1.671  0.00  0.00     0.148 C 
ATOM      6  N   UNL d   1      -1.995  -1.445   3.066  0.00  0.00    -0.326 N 
ATOM      7  C   UNL d   1      -2.690  -2.180   4.044  0.00  0.00     0.363 C 
ATOM      8  C   UNL d   1      -1.660  -0.040   3.270  0.00  0.00     0.129 C 
ATOM      9  O   UNL d   1      -3.105  -3.320   3.846  0.00  0.00    -0.238 OA
ATOM     10  C   UNL d   1      -0.279   0.445   2.814  0.00  0.00     0.040 C 
ATOM     11  C   UNL d   1       0.576  -0.402   1.883  0.00  0.00     0.127 C 
BRANCH   7  12
ATOM     12  O   UNL d   1      -2.874  -1.511   5.218  0.00  0.00    -0.294 OA
BRANCH  12  13
ATOM     13  C   UNL d   1      -3.555  -2.133   6.354  0.00  0.00     0.061 C 
ATOM     14  C   UNL d   1      -2.785  -3.364   6.844  0.00  0.00     0.046 C 
ATOM     15  C   UNL d   1      -3.547  -1.078   7.476  0.00  0.00     0.046 C 
ATOM     16  C   UNL d   1      -5.022  -2.475   6.050  0.00  0.00     0.046 C 
ENDBRANCH  12  13
ENDBRANCH   7  12
ENDBRANCH   1   3
BRANCH   1  17
ATOM     17  N   UNL d   1       1.187  -1.661  -1.191  0.00  0.00    -0.331 N 
ATOM     18  H   UNL d   1       0.756  -2.558  -1.082  0.00  0.00     0.168 HD
BRANCH  17  19
ATOM     19  C   UNL d   1       2.405  -1.657  -1.951  0.00  0.00     0.061 A 
ATOM     20  C   UNL d   1       2.722  -2.614  -2.958  0.00  0.00     0.057 A 
ATOM     21  C   UNL d   1       4.035  -2.554  -3.508  0.00  0.00     0.031 A 
ATOM     22  C   UNL d   1       4.978  -1.591  -3.153  0.00  0.00     0.002 A 
ATOM     23  C   UNL d   1       4.651  -0.652  -2.198  0.00  0.00     0.002 A 
ATOM     24  C   UNL d   1       3.389  -0.704  -1.595  0.00  0.00     0.032 A 
BRANCH  20  25
ATOM     25  N   UNL d   1       1.905  -3.612  -3.512  0.00  0.00    -0.375 N 
ATOM     26  C   UNL d   1       1.714  -3.512  -4.989  0.00  0.00     0.149 C 
ATOM     27  C   UNL d   1       1.326  -4.888  -5.555  0.00  0.00     0.187 C 
ATOM     28  O   UNL d   1       0.130  -5.381  -4.932  0.00  0.00    -0.388 OA
ATOM     29  C   UNL d   1       0.335  -5.510  -3.517  0.00  0.00     0.187 C 
ATOM     30  C   UNL d   1       0.719  -4.170  -2.856  0.00  0.00     0.149 C 
ENDBRANCH  20  25
ENDBRANCH  17  19
ENDBRANCH   1  17
TORSDOF 6
