REMARK  5 active torsions:
REMARK  status: ('A' for Active; 'I' for Inactive)
REMARK    1  A    between atoms: S_2  and  C_1 
REMARK    2  A    between atoms: C_11  and  S_2 
REMARK    3  A    between atoms: C_6  and  C_3 
REMARK    4  A    between atoms: N_13  and  C_4 
REMARK       I    between atoms: N_8  and  C_6 
REMARK    5  A    between atoms: C_14  and  N_8 
ROOT
ATOM      1  C   UNL d   1      -0.652  -1.268   0.069  0.00  0.00     0.093 A 
ATOM      2  C   UNL d   1      -0.257   1.042   0.082  0.00  0.00     0.100 A 
ATOM      3  C   UNL d   1      -1.217   0.038   0.039  0.00  0.00     0.070 A 
ATOM      4  S   UNL d   1       1.321   0.376   0.174  0.00  0.00    -0.093 SA
ATOM      5  C   UNL d   1       0.723  -1.227   0.173  0.00  0.00     0.076 A 
ENDROOT
BRANCH   2   6
ATOM      6  C   UNL d   1      -0.510   2.486   0.111  0.00  0.00     0.265 C 
ATOM      7  N   UNL d   1       0.605   3.313   0.075  0.00  0.00    -0.322 N 
ATOM      8  H   UNL d   1       1.496   2.857  -0.078  0.00  0.00     0.169 HD
ATOM      9  O   UNL d   1      -1.664   2.909   0.154  0.00  0.00    -0.267 OA
BRANCH   7  10
ATOM     10  C   UNL d   1       0.615   4.722   0.209  0.00  0.00     0.035 A 
ATOM     11  C   UNL d   1      -0.511   5.471   0.576  0.00  0.00     0.032 A 
ATOM     12  C   UNL d   1      -0.435   6.859   0.718  0.00  0.00     0.044 A 
ATOM     13  C   UNL d   1       0.769   7.506   0.491  0.00  0.00     0.116 A 
ATOM     14  C   UNL d   1       1.900   6.788   0.125  0.00  0.00     0.044 A 
ATOM     15  F   UNL d   1       0.842   8.835   0.633  0.00  0.00    -0.206 F 
ATOM     16  C   UNL d   1       1.825   5.396  -0.011  0.00  0.00     0.032 A 
ENDBRANCH   7  10
ENDBRANCH   2   6
BRANCH   3  17
ATOM     17  N   UNL d   1      -2.549   0.297  -0.011  0.00  0.00    -0.397 N 
ATOM     18  H   UNL d   1      -2.837   1.278   0.102  0.00  0.00     0.156 HD
ATOM     19  H   UNL d   1      -3.185  -0.308   0.513  0.00  0.00     0.156 HD
ENDBRANCH   3  17
BRANCH   1  20
ATOM     20  S   UNL d   1      -1.564  -2.743   0.005  0.00  0.00     0.181 S 
ATOM     21  O   UNL d   1      -0.566  -3.793  -0.016  0.00  0.00    -0.222 OA
ATOM     22  O   UNL d   1      -2.510  -2.606   1.097  0.00  0.00    -0.222 OA
BRANCH  20  23
ATOM     23  C   UNL d   1      -2.455  -2.723  -1.556  0.00  0.00     0.105 C 
ATOM     24  C   UNL d   1      -1.524  -2.571  -2.753  0.00  0.00     0.026 C 
ATOM     25  C   UNL d   1      -3.283  -4.001  -1.689  0.00  0.00     0.026 C 
ENDBRANCH  20  23
ENDBRANCH   1  20
TORSDOF 5
