REMARK  4 active torsions:
REMARK  status: ('A' for Active; 'I' for Inactive)
REMARK    1  A    between atoms: C_7  and  N_1 
REMARK    2  A    between atoms: N_6  and  C_9 
REMARK    3  A    between atoms: C_8  and  C_7 
REMARK       I    between atoms: N_11  and  C_8 
REMARK    4  A    between atoms: C_16  and  N_11 
ROOT
ATOM      1  C   UNL d   1       3.628   1.565  -0.370  0.00  0.00     0.240 C 
ATOM      2  N   UNL d   1       2.982   2.731   0.015  0.00  0.00    -0.326 N 
ATOM      3  O   UNL d   1       3.076   0.496  -0.628  0.00  0.00    -0.271 OA
ATOM      4  H   UNL d   1       3.543   3.582   0.065  0.00  0.00     0.169 HD
ENDROOT
BRANCH   1   5
ATOM      5  C   UNL d   1       5.154   1.626  -0.319  0.00  0.00     0.238 C 
BRANCH   5   6
ATOM      6  N   UNL d   1       5.804   2.599  -1.174  0.00  0.00    -0.271 N 
ATOM      7  C   UNL d   1       5.889   3.930  -0.873  0.00  0.00     0.262 A 
ATOM      8  C   UNL d   1       6.934   4.493  -1.733  0.00  0.00     0.048 A 
ATOM      9  O   UNL d   1       5.247   4.544  -0.043  0.00  0.00    -0.267 OA
ATOM     10  C   UNL d   1       7.479   5.761  -1.775  0.00  0.00     0.018 A 
ATOM     11  C   UNL d   1       7.423   3.463  -2.515  0.00  0.00     0.048 A 
ATOM     12  C   UNL d   1       8.555   5.967  -2.649  0.00  0.00     0.001 A 
ATOM     13  C   UNL d   1       9.049   4.917  -3.450  0.00  0.00     0.001 A 
ATOM     14  C   UNL d   1       8.482   3.642  -3.388  0.00  0.00     0.018 A 
ATOM     15  C   UNL d   1       6.708   2.245  -2.140  0.00  0.00     0.262 A 
ATOM     16  O   UNL d   1       6.982   1.143  -2.573  0.00  0.00    -0.267 OA
ENDBRANCH   5   6
ENDBRANCH   1   5
BRANCH   2  17
ATOM     17  C   UNL d   1       1.595   2.869   0.275  0.00  0.00     0.036 A 
ATOM     18  C   UNL d   1       0.732   1.776   0.442  0.00  0.00     0.059 A 
ATOM     19  C   UNL d   1      -0.647   1.951   0.651  0.00  0.00     0.040 A 
ATOM     20  C   UNL d   1      -1.158   3.252   0.722  0.00  0.00     0.030 A 
ATOM     21  C   UNL d   1      -0.297   4.349   0.598  0.00  0.00     0.004 A 
ATOM     22  C   UNL d   1       1.071   4.159   0.384  0.00  0.00     0.029 A 
BRANCH  19  23
ATOM     23  N   UNL d   1      -1.509   0.812   0.764  0.00  0.00    -0.333 N 
ATOM     24  C   UNL d   1      -2.894   0.820   0.788  0.00  0.00     0.096 A 
ATOM     25  C   UNL d   1      -3.361  -0.476   0.837  0.00  0.00     0.019 A 
ATOM     26  C   UNL d   1      -2.238  -1.322   0.879  0.00  0.00     0.019 A 
ATOM     27  C   UNL d   1      -1.122  -0.515   0.847  0.00  0.00     0.096 A 
ENDBRANCH  19  23
ENDBRANCH   2  17
TORSDOF 4
