REMARK  4 active torsions:
REMARK  status: ('A' for Active; 'I' for Inactive)
REMARK    1  A    between atoms: C_6  and  C_1 
REMARK    2  A    between atoms: C_11  and  C_6 
REMARK    3  A    between atoms: C_7  and  O_13 
REMARK    4  A    between atoms: O_13  and  C_21 
ROOT
ATOM      1  C   UNL d   1      -3.819  -0.029   0.067  0.00  0.00     0.215 C 
ATOM      2  O   UNL d   1      -4.402  -1.105   0.145  0.00  0.00    -0.284 OA
ENDROOT
BRANCH   1   3
ATOM      3  C   UNL d   1      -2.377   0.096   0.025  0.00  0.00     0.128 A 
ATOM      4  O   UNL d   1      -1.786   1.233   0.499  0.00  0.00    -0.304 OA
ATOM      5  C   UNL d   1      -0.442   1.100   0.336  0.00  0.00     0.104 A 
ATOM      6  C   UNL d   1       0.532   2.040   0.676  0.00  0.00     0.047 A 
ATOM      7  C   UNL d   1      -0.155  -0.132  -0.243  0.00  0.00     0.003 A 
ATOM      8  C   UNL d   1       1.862   1.709   0.413  0.00  0.00     0.041 A 
ATOM      9 BR   UNL d   1       0.084   3.698   1.450  0.00  0.00    -0.048 Br
ATOM     10  C   UNL d   1       2.178   0.480  -0.173  0.00  0.00     0.013 A 
ATOM     11  C   UNL d   1       1.188  -0.455  -0.510  0.00  0.00     0.033 A 
ATOM     12 BR   UNL d   1       3.991   0.061  -0.521  0.00  0.00    -0.051 Br
ATOM     13  C   UNL d   1      -1.406  -0.779  -0.421  0.00  0.00     0.055 A 
ENDBRANCH   1   3
BRANCH   1  14
ATOM     14  C   UNL d   1      -4.641   1.216  -0.039  0.00  0.00     0.017 A 
ATOM     15  C   UNL d   1      -5.891   1.269   0.588  0.00  0.00     0.018 A 
ATOM     16  C   UNL d   1      -6.694   2.411   0.465  0.00  0.00     0.038 A 
ATOM     17  C   UNL d   1      -6.242   3.513  -0.261  0.00  0.00     0.078 A 
ATOM     18  C   UNL d   1      -5.011   3.438  -0.919  0.00  0.00     0.038 A 
ATOM     19  C   UNL d   1      -4.213   2.300  -0.812  0.00  0.00     0.018 A 
BRANCH  17  20
ATOM     20  O   UNL d   1      -6.910   4.679  -0.465  0.00  0.00    -0.255 OA
BRANCH  20  21
ATOM     21  C   UNL d   1      -7.818   5.160   0.515  0.00  0.00     0.530 C 
ATOM     22  F   UNL d   1      -7.806   4.469   1.673  0.00  0.00    -0.144 F 
ATOM     23  F   UNL d   1      -7.497   6.443   0.797  0.00  0.00    -0.144 F 
ATOM     24  F   UNL d   1      -9.069   5.141   0.007  0.00  0.00    -0.144 F 
ENDBRANCH  20  21
ENDBRANCH  17  20
ENDBRANCH   1  14
TORSDOF 4
