REMARK  6 active torsions:
REMARK  status: ('A' for Active; 'I' for Inactive)
REMARK    1  A    between atoms: C_2  and  C_1 
REMARK    2  A    between atoms: N_3  and  C_1 
REMARK       I    between atoms: N_15  and  C_2 
REMARK       I    between atoms: C_5  and  N_3 
REMARK    3  A    between atoms: C_8  and  C_4 
REMARK    4  A    between atoms: C_18  and  C_5 
REMARK    5  A    between atoms: C_7  and  C_14 
REMARK    6  A    between atoms: N_9  and  N_15 
ROOT
ATOM      1  C   UNL d   1       0.888  -0.073  -0.041  0.00  0.00     0.100 C 
ATOM      2  C   UNL d   1       2.234   0.009  -0.069  0.00  0.00     0.048 C 
ENDROOT
BRANCH   1   3
ATOM      3  C   UNL d   1       0.118   0.125   1.242  0.00  0.00     0.265 C 
ATOM      4  N   UNL d   1       0.827   0.449   2.391  0.00  0.00    -0.169 NA
ATOM      5  H   UNL d   1       0.121   0.817   3.032  0.00  0.00     0.156 HD
ATOM      6  O   UNL d   1      -1.114   0.159   1.216  0.00  0.00    -0.271 OA
BRANCH   4   7
ATOM      7  N   UNL d   1       1.436  -0.607   3.038  0.00  0.00    -0.323 N 
ATOM      8  C   UNL d   1       2.523  -0.402   3.729  0.00  0.00     0.139 C 
ATOM      9  HN  UNL d   1       1.038  -1.544   2.977  1.00  0.00     0.180 HD
BRANCH   8  10
ATOM     10  C   UNL d   1       3.417   0.725   3.801  0.00  0.00     0.092 A 
ATOM     11  O   UNL d   1       4.364   0.664   4.794  0.00  0.00    -0.314 OA
ATOM     12  C   UNL d   1       5.220   1.708   4.632  0.00  0.00     0.050 A 
ATOM     13  C   UNL d   1       6.350   1.781   5.582  0.00  0.00     0.076 C 
ATOM     14  C   UNL d   1       4.835   2.459   3.544  0.00  0.00     0.035 A 
ATOM     15  C   UNL d   1       3.654   1.851   3.035  0.00  0.00     0.041 A 
ENDBRANCH   8  10
ENDBRANCH   4   7
ENDBRANCH   1   3
BRANCH   1  16
ATOM     16  N   UNL d   1       0.111  -0.174  -1.197  0.00  0.00    -0.319 N 
ATOM     17  C   UNL d   1       0.207  -1.282  -2.025  0.00  0.00     0.256 C 
ATOM     18  O   UNL d   1       0.849  -2.296  -1.767  0.00  0.00    -0.267 OA
ATOM     19  H   UNL d   1      -0.850   0.144  -1.078  0.00  0.00     0.169 HD
BRANCH  17  20
ATOM     20  C   UNL d   1      -0.566  -1.237  -3.290  0.00  0.00     0.032 A 
ATOM     21  C   UNL d   1      -0.621  -0.075  -4.069  0.00  0.00     0.017 A 
ATOM     22  C   UNL d   1      -1.220  -0.117  -5.332  0.00  0.00     0.001 A 
ATOM     23  C   UNL d   1      -1.770  -1.307  -5.812  0.00  0.00     0.000 A 
ATOM     24  C   UNL d   1      -1.735  -2.459  -5.028  0.00  0.00     0.001 A 
ATOM     25  C   UNL d   1      -1.128  -2.427  -3.772  0.00  0.00     0.017 A 
ENDBRANCH  17  20
ENDBRANCH   1  16
BRANCH   2  26
ATOM     26  C   UNL d   1       3.026   0.247  -1.278  0.00  0.00    -0.012 A 
ATOM     27  C   UNL d   1       3.292   1.556  -1.734  0.00  0.00     0.044 A 
ATOM     28 CL   UNL d   1       2.742   2.955  -0.876  0.00  0.00    -0.083 Cl
ATOM     29  C   UNL d   1       4.033   1.761  -2.900  0.00  0.00     0.024 A 
ATOM     30  C   UNL d   1       4.507   0.674  -3.628  0.00  0.00     0.002 A 
ATOM     31  C   UNL d   1       4.260  -0.622  -3.179  0.00  0.00     0.001 A 
ATOM     32  C   UNL d   1       3.536  -0.833  -2.004  0.00  0.00     0.013 A 
ENDBRANCH   2  26
TORSDOF 6
