REMARK  3 active torsions:
REMARK  status: ('A' for Active; 'I' for Inactive)
REMARK    1  A    between atoms: S_11  and  C_3 
REMARK    2  A    between atoms: C_13  and  S_11 
REMARK    3  A    between atoms: C_12  and  C_13 
ROOT
ATOM      1  N   UNL d   1       0.879  -0.622   0.118  0.00  0.00    -0.268 N 
ATOM      2  C   UNL d   1       1.601   0.526  -0.029  0.00  0.00     0.173 A 
ATOM      3  C   UNL d   1       1.810  -1.603   0.309  0.00  0.00     0.168 A 
ATOM      4  N   UNL d   1       2.885   0.292  -0.008  0.00  0.00    -0.277 N 
ATOM      5  HN  UNL d   1       3.635   0.973  -0.125  1.00  0.00     0.189 HD
ATOM      6  S   UNL d   1       0.622   1.943  -0.183  0.00  0.00    -0.050 SA
ATOM      7  N   UNL d   1       3.020  -1.077   0.206  0.00  0.00    -0.277 N 
ATOM      8  HN  UNL d   1       3.901  -1.587   0.272  1.00  0.00     0.189 HD
ATOM      9  C   UNL d   1      -0.505  -0.472   0.072  0.00  0.00     0.061 A 
ATOM     10  C   UNL d   1      -0.831   0.891  -0.065  0.00  0.00     0.035 A 
ATOM     11  C   UNL d   1      -1.475  -1.457   0.133  0.00  0.00     0.031 A 
ATOM     12  C   UNL d   1      -2.153   1.294  -0.099  0.00  0.00     0.021 A 
ATOM     13  C   UNL d   1      -2.811  -1.048   0.080  0.00  0.00     0.002 A 
ATOM     14  C   UNL d   1      -3.147   0.313  -0.023  0.00  0.00     0.002 A 
ENDROOT
BRANCH   3  15
ATOM     15  S   UNL d   1       1.439  -3.231   0.743  0.00  0.00    -0.087 SA
BRANCH  15  16
ATOM     16  C   UNL d   1       3.102  -3.958   0.853  0.00  0.00     0.122 C 
BRANCH  16  17
ATOM     17  C   UNL d   1       3.052  -5.356   1.426  0.00  0.00    -0.027 A 
ATOM     18  C   UNL d   1       2.744  -6.487   0.651  0.00  0.00     0.041 A 
ATOM     19 CL   UNL d   1       2.411  -6.374  -1.041  0.00  0.00    -0.084 Cl
ATOM     20  C   UNL d   1       2.696  -7.759   1.234  0.00  0.00     0.024 A 
ATOM     21  C   UNL d   1       2.950  -7.920   2.595  0.00  0.00     0.002 A 
ATOM     22  C   UNL d   1       3.248  -6.809   3.379  0.00  0.00     0.001 A 
ATOM     23  C   UNL d   1       3.294  -5.538   2.801  0.00  0.00     0.009 A 
ENDBRANCH  16  17
ENDBRANCH  15  16
ENDBRANCH   3  15
TORSDOF 3
