REMARK  2 active torsions:
REMARK  status: ('A' for Active; 'I' for Inactive)
REMARK    1  A    between atoms: C_3  and  N_1 
REMARK    2  A    between atoms: C_6  and  C_3 
ROOT
ATOM      1  C   UNL d   1      -1.538  -1.999  -0.562  0.00  0.00     0.174 C 
ENDROOT
BRANCH   1   2
ATOM      2  N   UNL d   1      -0.576  -0.943  -0.327  0.00  0.00    -0.292 N 
ATOM      3  C   UNL d   1       0.218  -0.918   0.802  0.00  0.00     0.367 C 
ATOM      4  O   UNL d   1       1.040   0.180   0.756  0.00  0.00    -0.298 OA
ATOM      5  O   UNL d   1       0.203  -1.700   1.736  0.00  0.00    -0.238 OA
ATOM      6  C   UNL d   1       0.843   0.838  -0.503  0.00  0.00     0.237 C 
ATOM      7  C   UNL d   1      -0.365   0.179  -1.080  0.00  0.00     0.032 C 
ATOM      8  C   UNL d   1      -1.122   0.649  -2.075  0.00  0.00     0.041 C 
ENDBRANCH   1   2
BRANCH   1   9
ATOM      9  C   UNL d   1      -0.893  -3.332  -0.892  0.00  0.00    -0.018 A 
ATOM     10  C   UNL d   1      -0.435  -3.672  -2.174  0.00  0.00     0.042 A 
ATOM     11 CL   UNL d   1      -0.541  -2.583  -3.510  0.00  0.00    -0.084 Cl
ATOM     12  C   UNL d   1       0.127  -4.931  -2.420  0.00  0.00     0.024 A 
ATOM     13  C   UNL d   1       0.250  -5.863  -1.391  0.00  0.00     0.002 A 
ATOM     14  C   UNL d   1      -0.173  -5.533  -0.109  0.00  0.00     0.001 A 
ATOM     15  C   UNL d   1      -0.736  -4.279   0.138  0.00  0.00     0.010 A 
ENDBRANCH   1   9
TORSDOF 2
