REMARK  1 active torsions:
REMARK  status: ('A' for Active; 'I' for Inactive)
REMARK    1  A    between atoms: C_2  and  C_1 
ROOT
ATOM      1  C   UNL d   1      -2.026  -0.856  -0.056  0.00  0.00     0.103 A 
ATOM      2  N   UNL d   1      -0.964  -1.620   0.108  0.00  0.00    -0.348 N 
ATOM      3  HN  UNL d   1      -0.984  -2.631   0.245  1.00  0.00     0.167 HD
ATOM      4  S   UNL d   1      -1.711   0.825  -0.216  0.00  0.00    -0.068 SA
ATOM      5  C   UNL d   1       0.184  -0.846   0.067  0.00  0.00     0.050 A 
ATOM      6  C   UNL d   1      -0.023   0.525  -0.088  0.00  0.00     0.033 A 
ATOM      7  C   UNL d   1       1.507  -1.324   0.165  0.00  0.00     0.031 A 
ATOM      8  C   UNL d   1       1.044   1.438  -0.133  0.00  0.00     0.021 A 
ATOM      9  C   UNL d   1       2.578  -0.425   0.110  0.00  0.00     0.002 A 
ATOM     10  C   UNL d   1       2.346   0.939  -0.033  0.00  0.00     0.002 A 
ENDROOT
BRANCH   1  11
ATOM     11  C   UNL d   1      -3.416  -1.434  -0.114  0.00  0.00     0.083 A 
ATOM     12  N   UNL d   1      -4.514  -0.712  -0.390  0.00  0.00    -0.297 N 
ATOM     13  N   UNL d   1      -5.507  -1.617  -0.398  0.00  0.00    -0.307 N 
ATOM     14  HN  UNL d   1      -4.579   0.293  -0.555  1.00  0.00     0.187 HD
ATOM     15  C   UNL d   1      -6.848  -1.216  -0.748  0.00  0.00     0.177 C 
ATOM     16  C   UNL d   1      -5.097  -2.881  -0.086  0.00  0.00     0.112 A 
ATOM     17  C   UNL d   1      -3.736  -2.798   0.093  0.00  0.00     0.052 A 
ENDBRANCH   1  11
TORSDOF 1
