REMARK  5 active torsions:
REMARK  status: ('A' for Active; 'I' for Inactive)
REMARK    1  A    between atoms: C_2  and  C_1 
REMARK       I    between atoms: N_3  and  C_1 
REMARK    2  A    between atoms: C_6  and  N_3 
REMARK    3  A    between atoms: C_16  and  N_3 
REMARK    4  A    between atoms: C_4  and  C_5 
REMARK    5  A    between atoms: O_17  and  C_7 
ROOT
ATOM      1  C   UNL d   1       2.480  -0.315  -0.042  0.00  0.00     0.098 C 
ATOM      2  C   UNL d   1       3.382  -1.389  -0.046  0.00  0.00     0.069 C 
ATOM      3  C   UNL d   1       3.025   0.969  -0.081  0.00  0.00     0.158 C 
ATOM      4  N   UNL d   1       4.347   1.240   0.073  0.00  0.00    -0.346 N 
ATOM      5  HN  UNL d   1       4.694   2.198   0.087  1.00  0.00     0.167 HD
ATOM      6  C   UNL d   1       5.177   0.194   0.208  0.00  0.00     0.091 C 
ATOM      7  C   UNL d   1       4.751  -1.117   0.135  0.00  0.00     0.034 C 
ENDROOT
BRANCH   1   8
ATOM      8  C   UNL d   1       1.007  -0.465  -0.093  0.00  0.00     0.263 C 
ATOM      9  N   UNL d   1       0.289  -1.026   0.991  0.00  0.00    -0.313 N 
ATOM     10  O   UNL d   1       0.451  -0.054  -1.113  0.00  0.00    -0.267 OA
BRANCH   9  11
ATOM     11  C   UNL d   1       0.894  -1.731   2.075  0.00  0.00     0.049 A 
ATOM     12  C   UNL d   1       1.644  -1.029   3.045  0.00  0.00    -0.035 A 
ATOM     13  C   UNL d   1       2.335  -1.746   4.040  0.00  0.00     0.009 A 
ATOM     14  C   UNL d   1       1.713   0.473   3.118  0.00  0.00     0.050 C 
ATOM     15  C   UNL d   1       2.232  -3.127   4.126  0.00  0.00     0.001 A 
ATOM     16  C   UNL d   1       1.428  -3.813   3.227  0.00  0.00     0.009 A 
ATOM     17  C   UNL d   1       0.752  -3.136   2.194  0.00  0.00    -0.035 A 
ATOM     18  C   UNL d   1      -0.045  -4.011   1.259  0.00  0.00     0.050 C 
ENDBRANCH   9  11
BRANCH   9  19
ATOM     19  C   UNL d   1      -1.176  -0.959   0.898  0.00  0.00     0.128 C 
ATOM     20  C   UNL d   1      -1.979  -1.234   2.166  0.00  0.00     0.027 C 
ENDBRANCH   9  19
ENDBRANCH   1   8
BRANCH   2  21
ATOM     21  C   UNL d   1       2.992  -2.803  -0.353  0.00  0.00     0.418 C 
ATOM     22  F   UNL d   1       1.708  -2.986  -0.746  0.00  0.00    -0.166 F 
ATOM     23  F   UNL d   1       3.745  -3.307  -1.379  0.00  0.00    -0.166 F 
ATOM     24  F   UNL d   1       3.216  -3.649   0.687  0.00  0.00    -0.166 F 
ENDBRANCH   2  21
BRANCH   3  25
ATOM     25  O   UNL d   1       2.201   2.058  -0.265  0.00  0.00    -0.340 OA
ATOM     26  C   UNL d   1       2.795   2.985  -1.180  0.00  0.00     0.211 C 
ENDBRANCH   3  25
TORSDOF 5
