REMARK  9 active torsions:
REMARK  status: ('A' for Active; 'I' for Inactive)
REMARK    1  A    between atoms: C_6  and  C_1 
REMARK    2  A    between atoms: N_7  and  C_2 
REMARK    3  A    between atoms: C_8  and  C_4 
REMARK    4  A    between atoms: O_17  and  C_6 
REMARK       I    between atoms: C_9  and  N_7 
REMARK    5  A    between atoms: C_23  and  C_9 
REMARK    6  A    between atoms: C_10  and  C_24 
REMARK    7  A    between atoms: O_19  and  C_10 
REMARK    8  A    between atoms: S_16  and  C_23 
REMARK    9  A    between atoms: C_24  and  S_16 
ROOT
ATOM      1  C   UNL d   1       0.114   1.367  -0.002  0.00  0.00     0.107 A 
ATOM      2  C   UNL d   1       1.415   0.929  -0.189  0.00  0.00     0.059 A 
ATOM      3  S   UNL d   1      -0.976   0.045   0.073  0.00  0.00    -0.081 SA
ATOM      4  C   UNL d   1       0.259  -1.131  -0.066  0.00  0.00     0.018 A 
ATOM      5  C   UNL d   1       1.484  -0.507  -0.236  0.00  0.00     0.051 A 
ENDROOT
BRANCH   2   6
ATOM      6  N   UNL d   1       2.522   1.776  -0.286  0.00  0.00    -0.325 N 
ATOM      7  C   UNL d   1       3.515   1.575  -1.231  0.00  0.00     0.231 C 
ATOM      8  O   UNL d   1       3.438   0.779  -2.168  0.00  0.00    -0.272 OA
ATOM      9  H   UNL d   1       2.393   2.723   0.059  0.00  0.00     0.169 HD
BRANCH   7  10
ATOM     10  C   UNL d   1       4.717   2.499  -1.094  0.00  0.00     0.177 C 
BRANCH  10  11
ATOM     11  S   UNL d   1       6.282   1.559  -0.990  0.00  0.00    -0.149 SA
BRANCH  11  12
ATOM     12  C   UNL d   1       6.317   0.664  -2.585  0.00  0.00     0.184 C 
BRANCH  12  13
ATOM     13  C   UNL d   1       6.226   1.592  -3.776  0.00  0.00     0.149 C 
ATOM     14  O   UNL d   1       7.183   2.159  -4.285  0.00  0.00    -0.649 OA
BRANCH  13  15
ATOM     15  O   UNL d   1       4.958   1.769  -4.228  0.00  0.00    -0.776 OA
ATOM     16  H   UNL d   1       4.280   1.248  -3.729  0.00  0.00     0.167 HD
ENDBRANCH  13  15
ENDBRANCH  12  13
ENDBRANCH  11  12
ENDBRANCH  10  11
ENDBRANCH   7  10
ENDBRANCH   2   6
BRANCH   1  17
ATOM     17  C   UNL d   1      -0.477   2.693   0.049  0.00  0.00     0.302 C 
ATOM     18  O   UNL d   1      -1.680   2.939   0.133  0.00  0.00    -0.259 OA
BRANCH  17  19
ATOM     19  O   UNL d   1       0.485   3.663  -0.045  0.00  0.00    -0.322 OA
ATOM     20  C   UNL d   1      -0.040   4.995  -0.120  0.00  0.00     0.213 C 
ENDBRANCH  17  19
ENDBRANCH   1  17
BRANCH   4  21
ATOM     21  C   UNL d   1      -0.075  -2.571  -0.022  0.00  0.00    -0.019 A 
ATOM     22  C   UNL d   1       0.732  -3.511  -0.683  0.00  0.00     0.014 A 
ATOM     23  C   UNL d   1       0.426  -4.878  -0.647  0.00  0.00     0.024 A 
ATOM     24  C   UNL d   1      -0.693  -5.324   0.050  0.00  0.00     0.034 A 
ATOM     25  C   UNL d   1      -1.510  -4.415   0.712  0.00  0.00     0.024 A 
ATOM     26 CL   UNL d   1      -1.069  -7.002   0.096  0.00  0.00    -0.084 Cl
ATOM     27  C   UNL d   1      -1.199  -3.051   0.678  0.00  0.00     0.014 A 
ENDBRANCH   4  21
TORSDOF 9
