REMARK  4 active torsions:
REMARK  status: ('A' for Active; 'I' for Inactive)
REMARK    1  A    between atoms: C_8  and  N_1 
REMARK    2  A    between atoms: C_3  and  C_12 
REMARK    3  A    between atoms: C_19  and  N_9 
REMARK    4  A    between atoms: C_14  and  C_20 
ROOT
ATOM      1  C   UNL d   1      -3.165   6.827  -7.048  0.00  0.00    -0.008 A 
ATOM      2  C   UNL d   1      -2.883   5.554  -7.554  0.00  0.00     0.016 A 
ATOM      3  C   UNL d   1      -2.909   7.082  -5.696  0.00  0.00     0.016 A 
ATOM      4  C   UNL d   1      -2.050   4.829  -5.380  0.00  0.00     0.031 A 
ATOM      5  C   UNL d   1      -2.332   4.569  -6.724  0.00  0.00     0.030 A 
ATOM      6  C   UNL d   1      -2.378   6.088  -4.867  0.00  0.00     0.030 A 
ENDROOT
BRANCH   4   7
ATOM      7  N   UNL d   1      -1.471   3.794  -4.627  0.00  0.00    -0.365 N 
ATOM      8  C   UNL d   1      -0.632   4.085  -3.687  0.00  0.00     0.099 C 
ATOM      9  HN  UNL d   1      -1.711   2.821  -4.819  1.00  0.00     0.165 HD
BRANCH   8  10
ATOM     10  C   UNL d   1       0.055   3.036  -2.907  0.00  0.00    -0.021 A 
ATOM     11  C   UNL d   1      -0.037   1.691  -3.281  0.00  0.00     0.015 A 
ATOM     12  C   UNL d   1       0.652   0.716  -2.554  0.00  0.00     0.037 A 
ATOM     13  C   UNL d   1       1.425   1.098  -1.447  0.00  0.00     0.102 A 
ATOM     14  C   UNL d   1       1.515   2.446  -1.070  0.00  0.00     0.037 A 
ATOM     15  C   UNL d   1       0.830   3.417  -1.806  0.00  0.00     0.015 A 
BRANCH  13  16
ATOM     16  N   UNL d   1       2.149   0.079  -0.677  0.00  0.00    -0.116 N 
ATOM     17  O   UNL d   1       2.809   0.459   0.300  0.00  0.00    -0.532 OA
ATOM     18  O   UNL d   1       2.057  -1.099  -1.049  0.00  0.00    -0.532 OA
ENDBRANCH  13  16
ENDBRANCH   8  10
ENDBRANCH   4   7
BRANCH   1  19
ATOM     19  C   UNL d   1      -3.696   7.892  -7.889  0.00  0.00     0.063 A 
ATOM     20  N   UNL d   1      -3.423   9.229  -7.612  0.00  0.00    -0.292 N 
ATOM     21  N   UNL d   1      -3.986  10.042  -8.489  0.00  0.00    -0.061 NA
ATOM     22  HN  UNL d   1      -2.855   9.544  -6.826  1.00  0.00     0.183 HD
ATOM     23  S   UNL d   1      -4.868   9.230  -9.654  0.00  0.00    -0.010 SA
ATOM     24  C   UNL d   1      -4.503   7.688  -8.995  0.00  0.00     0.096 A 
ENDBRANCH   1  19
TORSDOF 4
