REMARK  4 active torsions:
REMARK  status: ('A' for Active; 'I' for Inactive)
REMARK    1  A    between atoms: C_6  and  C_1 
REMARK    2  A    between atoms: O_12  and  C_6 
REMARK    3  A    between atoms: C_11  and  C_13 
REMARK    4  A    between atoms: C_16  and  O_12 
ROOT
ATOM      1  C   UNL d   1      -1.947   0.729   0.332  0.00  0.00     0.085 C 
ATOM      2  C   UNL d   1      -0.530   0.500   0.490  0.00  0.00     0.062 A 
ATOM      3  C   UNL d   1      -0.307  -0.821   0.104  0.00  0.00     0.132 A 
ATOM      4  C   UNL d   1      -2.476  -0.521   0.019  0.00  0.00     0.067 C 
ATOM      5  O   UNL d   1      -1.485  -1.435  -0.160  0.00  0.00    -0.310 OA
ATOM      6  C   UNL d   1       0.603   1.232   0.899  0.00  0.00     0.172 A 
ATOM      7  C   UNL d   1       0.951  -1.418   0.020  0.00  0.00     0.192 A 
ATOM      8  C   UNL d   1       1.875   0.645   0.853  0.00  0.00     0.197 A 
ATOM      9  C   UNL d   1       2.047  -0.650   0.395  0.00  0.00     0.199 A 
ATOM     10  F   UNL d   1       0.479   2.479   1.375  0.00  0.00    -0.202 F 
ATOM     11  F   UNL d   1       1.104  -2.679  -0.404  0.00  0.00    -0.200 F 
ATOM     12  F   UNL d   1       2.941   1.349   1.264  0.00  0.00    -0.199 F 
ATOM     13  F   UNL d   1       3.279  -1.182   0.335  0.00  0.00    -0.199 F 
ATOM     14  C   UNL d   1      -3.841  -1.071  -0.157  0.00  0.00     0.078 C 
ENDROOT
BRANCH   1  15
ATOM     15  C   UNL d   1      -2.738   1.958   0.436  0.00  0.00     0.302 C 
ATOM     16  O   UNL d   1      -3.957   1.982   0.320  0.00  0.00    -0.259 OA
BRANCH  15  17
ATOM     17  O   UNL d   1      -1.949   3.097   0.616  0.00  0.00    -0.275 OA
BRANCH  17  18
ATOM     18  C   UNL d   1      -2.436   4.428   0.514  0.00  0.00     0.080 A 
ATOM     19  C   UNL d   1      -3.447   4.818  -0.366  0.00  0.00     0.053 A 
ATOM     20  C   UNL d   1      -3.763   6.183  -0.510  0.00  0.00     0.050 A 
ATOM     21  C   UNL d   1      -3.059   7.133   0.252  0.00  0.00     0.016 A 
ATOM     22  C   UNL d   1      -2.056   6.731   1.135  0.00  0.00     0.004 A 
ATOM     23  C   UNL d   1      -1.739   5.380   1.261  0.00  0.00     0.037 A 
BRANCH  20  24
ATOM     24  C   UNL d   1      -4.809   6.655  -1.492  0.00  0.00     0.417 C 
ATOM     25  F   UNL d   1      -5.430   5.646  -2.162  0.00  0.00    -0.166 F 
ATOM     26  F   UNL d   1      -5.798   7.379  -0.900  0.00  0.00    -0.166 F 
ATOM     27  F   UNL d   1      -4.281   7.467  -2.452  0.00  0.00    -0.166 F 
ENDBRANCH  20  24
ENDBRANCH  17  18
ENDBRANCH  15  17
ENDBRANCH   1  15
TORSDOF 4
