REMARK  7 active torsions:
REMARK  status: ('A' for Active; 'I' for Inactive)
REMARK       I    between atoms: N_2  and  C_1 
REMARK    1  A    between atoms: O_6  and  C_1 
REMARK       I    between atoms: C_3  and  N_5 
REMARK       I    between atoms: N_4  and  C_3 
REMARK    2  A    between atoms: C_16  and  N_4 
REMARK    3  A    between atoms: N_5  and  C_15 
REMARK    4  A    between atoms: C_20  and  O_6 
REMARK    5  A    between atoms: C_7  and  O_12 
REMARK    6  A    between atoms: O_12  and  C_17 
REMARK    7  A    between atoms: C_25  and  C_20 
ROOT
ATOM      1  C   UNL d   1       1.301  -0.270  -0.106  0.00  0.00     0.363 C 
ATOM      2  N   UNL d   1       0.863   1.037  -0.240  0.00  0.00    -0.328 N 
ATOM      3  C   UNL d   1       1.317   1.968  -1.264  0.00  0.00     0.130 C 
ATOM      4  C   UNL d   1       0.009   1.622   0.779  0.00  0.00     0.130 C 
ATOM      5  O   UNL d   1       0.963  -1.005   0.815  0.00  0.00    -0.238 OA
ATOM      6  C   UNL d   1      -1.271   2.129   0.141  0.00  0.00     0.045 C 
ATOM      7  C   UNL d   1       0.135   2.644  -1.962  0.00  0.00     0.045 C 
ATOM      8  C   UNL d   1      -1.020   3.074  -1.040  0.00  0.00     0.089 C 
ENDROOT
BRANCH   8   9
ATOM      9  N   UNL d   1      -1.022   4.484  -0.653  0.00  0.00    -0.338 N 
ATOM     10  C   UNL d   1      -0.047   5.171  -0.001  0.00  0.00     0.321 C 
ATOM     11  N   UNL d   1      -0.315   6.479   0.303  0.00  0.00    -0.309 N 
ATOM     12  O   UNL d   1       1.056   4.706   0.263  0.00  0.00    -0.247 OA
ATOM     13  H   UNL d   1       0.531   6.987   0.532  0.00  0.00     0.170 HD
ATOM     14  H   UNL d   1      -1.656   5.074  -1.172  0.00  0.00     0.164 HD
BRANCH  11  15
ATOM     15  C   UNL d   1      -1.519   7.210   0.298  0.00  0.00     0.036 A 
ATOM     16  C   UNL d   1      -2.781   6.619   0.376  0.00  0.00     0.032 A 
ATOM     17  C   UNL d   1      -3.944   7.387   0.239  0.00  0.00     0.039 A 
ATOM     18  C   UNL d   1      -3.856   8.767   0.067  0.00  0.00     0.075 A 
ATOM     19  C   UNL d   1      -2.597   9.371   0.087  0.00  0.00     0.039 A 
ATOM     20  C   UNL d   1      -1.436   8.601   0.219  0.00  0.00     0.032 A 
BRANCH  18  21
ATOM     21  O   UNL d   1      -4.901   9.623  -0.134  0.00  0.00    -0.290 OA
BRANCH  21  22
ATOM     22  C   UNL d   1      -6.206   9.070  -0.068  0.00  0.00     0.505 C 
ATOM     23  F   UNL d   1      -7.087  10.092  -0.210  0.00  0.00    -0.184 F 
ATOM     24  F   UNL d   1      -6.399   8.241  -1.124  0.00  0.00    -0.184 F 
ENDBRANCH  21  22
ENDBRANCH  18  21
ENDBRANCH  11  15
ENDBRANCH   8   9
BRANCH   1  25
ATOM     25  O   UNL d   1       2.168  -0.644  -1.087  0.00  0.00    -0.299 OA
BRANCH  25  26
ATOM     26  C   UNL d   1       2.891  -1.855  -0.839  0.00  0.00     0.219 C 
BRANCH  26  27
ATOM     27  C   UNL d   1       2.480  -2.975  -1.763  0.00  0.00    -0.034 A 
ATOM     28  C   UNL d   1       3.119  -3.157  -2.997  0.00  0.00     0.009 A 
ATOM     29  C   UNL d   1       2.810  -4.251  -3.807  0.00  0.00     0.001 A 
ATOM     30  C   UNL d   1       1.850  -5.177  -3.393  0.00  0.00     0.000 A 
ATOM     31  C   UNL d   1       1.184  -4.990  -2.184  0.00  0.00     0.001 A 
ATOM     32  C   UNL d   1       1.496  -3.891  -1.371  0.00  0.00     0.009 A 
ENDBRANCH  26  27
ENDBRANCH  25  26
ENDBRANCH   1  25
TORSDOF 7
