REMARK  3 active torsions:
REMARK  status: ('A' for Active; 'I' for Inactive)
REMARK       I    between atoms: N_3  and  C_1 
REMARK    1  A    between atoms: C_4  and  C_1 
REMARK    2  A    between atoms: N_2  and  C_5 
REMARK    3  A    between atoms: C_11  and  N_3 
ROOT
ATOM      1  C   UNL d   1      -6.348   0.126   0.027  0.00  0.00     0.030 A 
ATOM      2  C   UNL d   1      -5.612  -0.244  -1.111  0.00  0.00     0.031 A 
ATOM      3  C   UNL d   1      -5.611   0.601   1.112  0.00  0.00     0.031 A 
ATOM      4  C   UNL d   1      -3.487   0.237  -0.020  0.00  0.00     0.035 A 
ATOM      5  C   UNL d   1      -4.213   0.665   1.089  0.00  0.00     0.032 A 
ATOM      6  C   UNL d   1      -4.204  -0.192  -1.139  0.00  0.00     0.032 A 
ENDROOT
BRANCH   4   7
ATOM      7  N   UNL d   1      -2.069   0.216  -0.055  0.00  0.00    -0.323 N 
ATOM      8  C   UNL d   1      -1.244   0.392   1.040  0.00  0.00     0.251 C 
ATOM      9  O   UNL d   1      -1.622   0.520   2.204  0.00  0.00    -0.268 OA
ATOM     10  H   UNL d   1      -1.644  -0.051  -0.931  0.00  0.00     0.169 HD
BRANCH   8  11
ATOM     11  C   UNL d   1       0.233   0.403   0.758  0.00  0.00     0.002 C 
ATOM     12  C   UNL d   1       1.012   0.005   1.786  0.00  0.00    -0.019 C 
ATOM     13  C   UNL d   1       2.503   0.024   1.861  0.00  0.00     0.036 C 
ATOM     14  C   UNL d   1       0.772   0.960  -0.520  0.00  0.00     0.054 C 
ENDBRANCH   8  11
ENDBRANCH   4   7
BRANCH   1  15
ATOM     15  N   UNL d   1      -7.723  -0.041   0.078  0.00  0.00    -0.377 N 
ATOM     16  C   UNL d   1      -8.424  -0.211   1.365  0.00  0.00     0.149 C 
ATOM     17  C   UNL d   1      -9.132   1.084   1.784  0.00  0.00     0.187 C 
ATOM     18  O   UNL d   1     -10.035   1.529   0.758  0.00  0.00    -0.388 OA
ATOM     19  C   UNL d   1      -9.310   1.796  -0.454  0.00  0.00     0.187 C 
ATOM     20  C   UNL d   1      -8.565   0.551  -0.978  0.00  0.00     0.149 C 
ENDBRANCH   1  15
TORSDOF 3
