REMARK  5 active torsions:
REMARK  status: ('A' for Active; 'I' for Inactive)
REMARK    1  A    between atoms: C_9  and  N_1 
REMARK    2  A    between atoms: C_7  and  C_4 
REMARK    3  A    between atoms: C_8  and  C_10 
REMARK    4  A    between atoms: O_23  and  C_15 
REMARK    5  A    between atoms: O_22  and  C_16 
ROOT
ATOM      1  N   UNL d   1      -0.441  -1.002  -0.229  0.00  0.00    -0.180 N 
ATOM      2  N   UNL d   1       0.888  -0.681  -0.369  0.00  0.00    -0.266 N 
ATOM      3  HN  UNL d   1       1.652  -1.263  -0.713  1.00  0.00     0.190 HD
ATOM      4  C   UNL d   1       0.927   0.550   0.045  0.00  0.00     0.184 A 
ATOM      5  C   UNL d   1      -1.155   0.051   0.297  0.00  0.00     0.394 A 
ATOM      6  O   UNL d   1      -0.247   1.062   0.483  0.00  0.00    -0.240 OA
ATOM      7  O   UNL d   1      -2.333   0.156   0.589  0.00  0.00    -0.236 OA
ENDROOT
BRANCH   1   8
ATOM      8  C   UNL d   1      -0.974  -2.112  -0.914  0.00  0.00     0.132 A 
ATOM      9  N   UNL d   1      -2.260  -2.075  -1.335  0.00  0.00    -0.350 N 
ATOM     10  C   UNL d   1      -2.715  -3.084  -2.115  0.00  0.00     0.106 A 
ATOM     11  HN  UNL d   1      -2.872  -1.303  -1.071  1.00  0.00     0.166 HD
ATOM     12  C   UNL d   1      -1.960  -4.186  -2.478  0.00  0.00     0.063 A 
ATOM     13  C   UNL d   1      -0.653  -4.246  -1.991  0.00  0.00     0.021 A 
ATOM     14  C   UNL d   1      -0.149  -3.194  -1.222  0.00  0.00     0.051 A 
BRANCH  12  15
ATOM     15  C   UNL d   1      -2.527  -5.254  -3.361  0.00  0.00     0.418 C 
ATOM     16  F   UNL d   1      -3.780  -4.980  -3.819  0.00  0.00    -0.166 F 
ATOM     17  F   UNL d   1      -1.767  -5.468  -4.471  0.00  0.00    -0.166 F 
ATOM     18  F   UNL d   1      -2.614  -6.459  -2.734  0.00  0.00    -0.166 F 
ENDBRANCH  12  15
ENDBRANCH   1   8
BRANCH   4  19
ATOM     19  C   UNL d   1       2.061   1.495   0.003  0.00  0.00     0.083 A 
ATOM     20  C   UNL d   1       2.945   1.459  -1.101  0.00  0.00     0.085 A 
ATOM     21  C   UNL d   1       4.027   2.346  -1.150  0.00  0.00     0.038 A 
ATOM     22  C   UNL d   1       4.225   3.279  -0.139  0.00  0.00     0.005 A 
ATOM     23  C   UNL d   1       3.340   3.343   0.932  0.00  0.00     0.038 A 
ATOM     24  C   UNL d   1       2.245   2.470   1.009  0.00  0.00     0.085 A 
BRANCH  20  25
ATOM     25  O   UNL d   1       2.710   0.536  -2.089  0.00  0.00    -0.355 OA
ATOM     26  C   UNL d   1       3.217   0.837  -3.386  0.00  0.00     0.210 C 
ENDBRANCH  20  25
BRANCH  24  27
ATOM     27  O   UNL d   1       1.368   2.499   2.065  0.00  0.00    -0.355 OA
ATOM     28  C   UNL d   1       1.247   3.748   2.745  0.00  0.00     0.210 C 
ENDBRANCH  24  27
ENDBRANCH   4  19
TORSDOF 5
