REMARK  6 active torsions:
REMARK  status: ('A' for Active; 'I' for Inactive)
REMARK    1  A    between atoms: C_8  and  N_1 
REMARK    2  A    between atoms: C_9  and  N_4 
REMARK    3  A    between atoms: C_10  and  C_8 
REMARK    4  A    between atoms: C_11  and  C_9 
REMARK    5  A    between atoms: C_12  and  C_10 
REMARK    6  A    between atoms: C_13  and  C_11 
ROOT
ATOM      1  N   UNL d   1       0.856   0.944  -0.324  0.00  0.00    -0.341 N 
ATOM      2  C   UNL d   1       1.567  -0.043   0.350  0.00  0.00     0.139 C 
ATOM      3  S   UNL d   1       0.936  -1.633  -0.009  0.00  0.00    -0.070 SA
ATOM      4  N   UNL d   1      -1.304  -0.075  -0.252  0.00  0.00     0.115 N 
ATOM      5  C   UNL d   1      -0.516   1.093   0.131  0.00  0.00     0.400 C 
ATOM      6  C   UNL d   1      -0.778  -1.284   0.390  0.00  0.00     0.355 C 
ATOM      7  S   UNL d   1       2.887   0.171   1.355  0.00  0.00    -0.053 SA
ENDROOT
BRANCH   1   8
ATOM      8  C   UNL d   1       1.508   2.183  -0.795  0.00  0.00     0.131 C 
BRANCH   8   9
ATOM      9  C   UNL d   1       2.733   1.931  -1.688  0.00  0.00     0.058 C 
BRANCH   9  10
ATOM     10  C   UNL d   1       3.230   3.174  -2.386  0.00  0.00    -0.057 A 
ATOM     11  C   UNL d   1       3.992   4.125  -1.694  0.00  0.00     0.007 A 
ATOM     12  C   UNL d   1       4.493   5.247  -2.357  0.00  0.00     0.001 A 
ATOM     13  C   UNL d   1       4.235   5.428  -3.715  0.00  0.00     0.000 A 
ATOM     14  C   UNL d   1       3.469   4.496  -4.408  0.00  0.00     0.001 A 
ATOM     15  C   UNL d   1       2.966   3.375  -3.748  0.00  0.00     0.007 A 
ENDBRANCH   9  10
ENDBRANCH   8   9
ENDBRANCH   1   8
BRANCH   4  16
ATOM     16  C   UNL d   1      -2.722   0.075   0.161  0.00  0.00     0.280 C 
BRANCH  16  17
ATOM     17  C   UNL d   1      -3.480   1.233  -0.514  0.00  0.00     0.069 C 
BRANCH  17  18
ATOM     18  C   UNL d   1      -4.905   1.341  -0.022  0.00  0.00    -0.057 A 
ATOM     19  C   UNL d   1      -5.195   2.032   1.164  0.00  0.00     0.007 A 
ATOM     20  C   UNL d   1      -6.511   2.154   1.609  0.00  0.00     0.001 A 
ATOM     21  C   UNL d   1      -7.551   1.583   0.877  0.00  0.00     0.000 A 
ATOM     22  C   UNL d   1      -7.272   0.883  -0.295  0.00  0.00     0.001 A 
ATOM     23  C   UNL d   1      -5.955   0.758  -0.742  0.00  0.00     0.007 A 
ENDBRANCH  17  18
ENDBRANCH  16  17
ENDBRANCH   4  16
TORSDOF 6
