REMARK  5 active torsions:
REMARK  status: ('A' for Active; 'I' for Inactive)
REMARK    1  A    between atoms: C_5  and  C_1 
REMARK       I    between atoms: C_2  and  N_10 
REMARK       I    between atoms: N_6  and  C_2 
REMARK    2  A    between atoms: C_8  and  C_5 
REMARK    3  A    between atoms: C_15  and  N_6 
REMARK    4  A    between atoms: N_10  and  C_8 
REMARK    5  A    between atoms: C_16  and  C_12 
ROOT
ATOM      1  C   UNL d   1       3.107  -4.751   0.092  0.00  0.00     0.324 C 
ATOM      2  N   UNL d   1       4.163  -3.897  -0.168  0.00  0.00    -0.309 N 
ATOM      3  N   UNL d   1       3.404  -6.063  -0.258  0.00  0.00    -0.319 N 
ATOM      4  O   UNL d   1       2.048  -4.448   0.631  0.00  0.00    -0.247 OA
ATOM      5  H   UNL d   1       4.938  -4.273  -0.689  0.00  0.00     0.170 HD
ATOM      6  H   UNL d   1       4.283  -6.263  -0.710  0.00  0.00     0.170 HD
ENDROOT
BRANCH   3   7
ATOM      7  C   UNL d   1       2.610  -7.116   0.137  0.00  0.00     0.094 C 
BRANCH   7   8
ATOM      8  C   UNL d   1       2.953  -8.398  -0.042  0.00  0.00     0.036 C 
BRANCH   8   9
ATOM      9  C   UNL d   1       2.173  -9.471   0.490  0.00  0.00     0.012 A 
ATOM     10  C   UNL d   1       1.506  -9.632   1.706  0.00  0.00    -0.044 A 
ATOM     11  C   UNL d   1       0.881 -10.925   1.796  0.00  0.00     0.015 A 
ATOM     12  C   UNL d   1       1.429  -8.660   2.844  0.00  0.00     0.049 C 
ATOM     13  C   UNL d   1       1.097 -11.703   0.685  0.00  0.00     0.051 A 
ATOM     14  S   UNL d   1       2.043 -10.900  -0.477  0.00  0.00    -0.102 SA
ENDBRANCH   8   9
ENDBRANCH   7   8
ENDBRANCH   3   7
BRANCH   2  15
ATOM     15  C   UNL d   1       4.311  -2.575   0.316  0.00  0.00     0.036 A 
ATOM     16  C   UNL d   1       3.353  -1.924   1.090  0.00  0.00     0.030 A 
ATOM     17  C   UNL d   1       3.606  -0.663   1.640  0.00  0.00     0.010 A 
ATOM     18  C   UNL d   1       4.824  -0.012   1.420  0.00  0.00    -0.055 A 
ATOM     19  C   UNL d   1       5.770  -0.647   0.602  0.00  0.00     0.010 A 
ATOM     20  C   UNL d   1       5.516  -1.913   0.054  0.00  0.00     0.030 A 
BRANCH  18  21
ATOM     21  C   UNL d   1       5.174   1.299   2.103  0.00  0.00     0.010 C 
ATOM     22  C   UNL d   1       3.980   2.231   2.341  0.00  0.00     0.015 C 
ATOM     23  C   UNL d   1       5.882   1.008   3.431  0.00  0.00     0.015 C 
ENDBRANCH  18  21
ENDBRANCH   2  15
TORSDOF 5
