REMARK  4 active torsions:
REMARK  status: ('A' for Active; 'I' for Inactive)
REMARK    1  A    between atoms: C_4  and  C_1 
REMARK       I    between atoms: N_7  and  C_1 
REMARK    2  A    between atoms: C_5  and  C_6 
REMARK    3  A    between atoms: O_16  and  C_5 
REMARK    4  A    between atoms: C_8  and  N_7 
ROOT
ATOM      1  C   UNL d   1       0.880  -0.161   0.024  0.00  0.00     0.245 C 
ATOM      2  N   UNL d   1       0.149   0.749   0.759  0.00  0.00    -0.324 N 
ATOM      3  O   UNL d   1       0.448  -1.073  -0.668  0.00  0.00    -0.268 OA
ATOM      4  H   UNL d   1       0.661   1.460   1.268  0.00  0.00     0.169 HD
ENDROOT
BRANCH   2   5
ATOM      5  C   UNL d   1      -1.260   0.804   0.874  0.00  0.00     0.038 A 
ATOM      6  C   UNL d   1      -2.126  -0.089   0.238  0.00  0.00     0.075 A 
ATOM      7  C   UNL d   1      -3.505   0.055   0.379  0.00  0.00     0.157 A 
ATOM      8  F   UNL d   1      -4.321  -0.804  -0.249  0.00  0.00    -0.203 F 
ATOM      9  C   UNL d   1      -4.034   1.076   1.155  0.00  0.00     0.154 A 
ATOM     10  C   UNL d   1      -3.189   1.960   1.813  0.00  0.00     0.048 A 
ATOM     11  F   UNL d   1      -5.361   1.219   1.273  0.00  0.00    -0.203 F 
ATOM     12  C   UNL d   1      -1.803   1.823   1.674  0.00  0.00     0.032 A 
ENDBRANCH   2   5
BRANCH   1  13
ATOM     13  C   UNL d   1       2.345   0.051   0.147  0.00  0.00     0.081 C 
ATOM     14  C   UNL d   1       3.174  -0.824  -0.445  0.00  0.00     0.086 C 
BRANCH  14  15
ATOM     15  C   UNL d   1       4.624  -0.632  -0.311  0.00  0.00     0.165 C 
ATOM     16  O   UNL d   1       5.139   0.288   0.301  0.00  0.00    -0.647 OA
BRANCH  15  17
ATOM     17  O   UNL d   1       5.330  -1.595  -0.935  0.00  0.00    -0.773 OA
ATOM     18  H   UNL d   1       4.803  -2.280  -1.387  0.00  0.00     0.167 HD
ENDBRANCH  15  17
ENDBRANCH  14  15
ENDBRANCH   1  13
TORSDOF 4
