REMARK  3 active torsions:
REMARK  status: ('A' for Active; 'I' for Inactive)
REMARK    1  A    between atoms: S_2  and  N_3 
REMARK    2  A    between atoms: C_9  and  S_2 
REMARK    3  A    between atoms: C_12  and  C_7 
ROOT
ATOM      1  C   UNL d   1      -0.756  -0.955  -0.216  0.00  0.00     0.232 C 
ATOM      2  N   UNL d   1      -1.367  -1.735  -1.032  0.00  0.00    -0.245 N 
ATOM      3  HN  UNL d   1      -2.190  -1.417  -1.545  1.00  0.00     0.182 HD
ATOM      4  N   UNL d   1      -1.188   0.249   0.276  0.00  0.00    -0.344 N 
ATOM      5  O   UNL d   1       0.458  -1.253   0.324  0.00  0.00    -0.309 OA
ATOM      6  C   UNL d   1       0.691  -0.403   1.463  0.00  0.00     0.187 C 
ATOM      7  C   UNL d   1      -0.235   0.808   1.223  0.00  0.00     0.117 C 
ATOM      8  C   UNL d   1      -2.306   1.006  -0.221  0.00  0.00     0.154 C 
ATOM      9  C   UNL d   1      -0.874   1.391   2.475  0.00  0.00     0.035 C 
ENDROOT
BRANCH   2  10
ATOM     10  S   UNL d   1      -0.795  -3.240  -1.226  0.00  0.00     0.265 S 
ATOM     11  O   UNL d   1       0.644  -3.244  -1.436  0.00  0.00    -0.200 OA
ATOM     12  O   UNL d   1      -1.407  -4.112  -0.244  0.00  0.00    -0.200 OA
BRANCH  10  13
ATOM     13  C   UNL d   1      -1.491  -3.739  -2.795  0.00  0.00     0.080 A 
ATOM     14  C   UNL d   1      -0.634  -4.085  -3.845  0.00  0.00     0.027 A 
ATOM     15  C   UNL d   1      -1.172  -4.495  -5.065  0.00  0.00     0.025 A 
ATOM     16  C   UNL d   1      -2.555  -4.557  -5.223  0.00  0.00     0.034 A 
ATOM     17  C   UNL d   1      -3.410  -4.217  -4.171  0.00  0.00     0.025 A 
ATOM     18 CL   UNL d   1      -3.213  -5.065  -6.729  0.00  0.00    -0.084 Cl
ATOM     19  C   UNL d   1      -2.880  -3.806  -2.947  0.00  0.00     0.027 A 
ENDBRANCH  10  13
ENDBRANCH   2  10
BRANCH   6  20
ATOM     20  C   UNL d   1       0.463  -1.271   2.682  0.00  0.00    -0.027 A 
ATOM     21  C   UNL d   1       1.502  -1.490   3.596  0.00  0.00     0.010 A 
ATOM     22  C   UNL d   1       1.305  -2.316   4.704  0.00  0.00     0.001 A 
ATOM     23  C   UNL d   1       0.072  -2.934   4.910  0.00  0.00     0.000 A 
ATOM     24  C   UNL d   1      -0.963  -2.739   4.003  0.00  0.00     0.001 A 
ATOM     25  C   UNL d   1      -0.767  -1.919   2.897  0.00  0.00     0.010 A 
ENDBRANCH   6  20
TORSDOF 3
