REMARK  6 active torsions:
REMARK  status: ('A' for Active; 'I' for Inactive)
REMARK    1  A    between atoms: C_4  and  C_1 
REMARK    2  A    between atoms: N_11  and  C_2 
REMARK    3  A    between atoms: C_3  and  C_8 
REMARK    4  A    between atoms: O_19  and  C_4 
REMARK    5  A    between atoms: N_9  and  N_11 
REMARK    6  A    between atoms: C_20  and  C_18 
ROOT
ATOM      1  N   UNL d   1       2.670   2.908   0.363  0.00  0.00    -0.311 N 
ATOM      2  HN  UNL d   1       1.872   3.371   0.799  1.00  0.00     0.186 HD
ATOM      3  C   UNL d   1       3.715   3.581   0.002  0.00  0.00     0.118 C 
ENDROOT
BRANCH   1   4
ATOM      4  N   UNL d   1       2.668   1.564   0.145  0.00  0.00    -0.300 N 
ATOM      5  H   UNL d   1       3.443   1.129  -0.361  0.00  0.00     0.187 HD
BRANCH   4   6
ATOM      6  C   UNL d   1       1.599   0.801   0.520  0.00  0.00     0.071 A 
ATOM      7  C   UNL d   1       1.426  -0.551   0.265  0.00  0.00     0.108 A 
ATOM      8  S   UNL d   1      -0.087  -1.105   0.893  0.00  0.00    -0.094 SA
ATOM      9  C   UNL d   1      -0.485   0.427   1.516  0.00  0.00     0.053 A 
ATOM     10  C   UNL d   1       0.496   1.351   1.251  0.00  0.00     0.039 A 
BRANCH   7  11
ATOM     11  C   UNL d   1       2.250  -1.536  -0.407  0.00  0.00     0.302 C 
ATOM     12  O   UNL d   1       1.958  -2.717  -0.590  0.00  0.00    -0.259 OA
BRANCH  11  13
ATOM     13  O   UNL d   1       3.439  -0.994  -0.820  0.00  0.00    -0.322 OA
ATOM     14  C   UNL d   1       4.295  -1.952  -1.447  0.00  0.00     0.213 C 
ENDBRANCH  11  13
ENDBRANCH   7  11
ENDBRANCH   4   6
ENDBRANCH   1   4
BRANCH   3  15
ATOM     15  C   UNL d   1       3.772   5.046   0.229  0.00  0.00    -0.019 A 
ATOM     16  C   UNL d   1       2.666   5.721   0.758  0.00  0.00     0.013 A 
ATOM     17  C   UNL d   1       2.735   7.092   1.018  0.00  0.00     0.017 A 
ATOM     18  C   UNL d   1       3.912   7.807   0.755  0.00  0.00     0.048 A 
ATOM     19  C   UNL d   1       5.009   7.124   0.200  0.00  0.00     0.017 A 
ATOM     20  C   UNL d   1       4.941   5.750  -0.064  0.00  0.00     0.013 A 
BRANCH  18  21
ATOM     21  C   UNL d   1       4.014   9.280   1.078  0.00  0.00     0.417 C 
ATOM     22  F   UNL d   1       2.877   9.802   1.617  0.00  0.00    -0.166 F 
ATOM     23  F   UNL d   1       5.005   9.545   1.975  0.00  0.00    -0.166 F 
ATOM     24  F   UNL d   1       4.290  10.039  -0.018  0.00  0.00    -0.166 F 
ENDBRANCH  18  21
ENDBRANCH   3  15
TORSDOF 6
