REMARK  6 active torsions:
REMARK  status: ('A' for Active; 'I' for Inactive)
REMARK    1  A    between atoms: C_3  and  S_1 
REMARK    2  A    between atoms: C_9  and  S_1 
REMARK    3  A    between atoms: N_2  and  C_7 
REMARK    4  A    between atoms: C_8  and  C_3 
REMARK    5  A    between atoms: C_7  and  C_8 
REMARK    6  A    between atoms: O_12  and  C_8 
ROOT
ATOM      1  C   UNL d   1       0.315  -1.007  -1.743  0.00  0.00     0.179 C 
ENDROOT
BRANCH   1   2
ATOM      2  S   UNL d   1       0.655  -0.734  -0.023  0.00  0.00     0.178 S 
ATOM      3  O   UNL d   1       0.143   0.581   0.330  0.00  0.00    -0.223 OA
ATOM      4  O   UNL d   1       2.032  -1.095   0.236  0.00  0.00    -0.223 OA
BRANCH   2   5
ATOM      5  C   UNL d   1      -0.366  -1.950   0.780  0.00  0.00     0.059 A 
ATOM      6  C   UNL d   1      -0.056  -3.305   0.618  0.00  0.00     0.023 A 
ATOM      7  C   UNL d   1      -0.877  -4.270   1.199  0.00  0.00     0.002 A 
ATOM      8  C   UNL d   1      -1.990  -3.882   1.948  0.00  0.00     0.000 A 
ATOM      9  C   UNL d   1      -2.279  -2.528   2.127  0.00  0.00     0.002 A 
ATOM     10  C   UNL d   1      -1.466  -1.555   1.545  0.00  0.00     0.023 A 
ENDBRANCH   2   5
ENDBRANCH   1   2
BRANCH   1  11
ATOM     11  C   UNL d   1       0.851   0.092  -2.650  0.00  0.00     0.150 C 
BRANCH  11  12
ATOM     12  C   UNL d   1       2.389   0.194  -2.666  0.00  0.00     0.158 C 
BRANCH  12  13
ATOM     13  N   UNL d   1       2.943   1.133  -3.644  0.00  0.00    -0.350 N 
ATOM     14  C   UNL d   1       4.315   1.177  -3.860  0.00  0.00     0.219 C 
ATOM     15  O   UNL d   1       5.119   0.317  -3.538  0.00  0.00    -0.273 OA
ATOM     16  C   UNL d   1       4.671   2.486  -4.507  0.00  0.00     0.104 C 
ATOM     17  C   UNL d   1       3.344   3.191  -4.728  0.00  0.00     0.029 C 
ATOM     18  C   UNL d   1       2.307   2.389  -3.963  0.00  0.00     0.126 C 
ENDBRANCH  12  13
ENDBRANCH  11  12
BRANCH  11  19
ATOM     19  O   UNL d   1       0.354  -0.189  -3.971  0.00  0.00    -0.393 OA
ATOM     20  H   UNL d   1       0.972  -0.809  -4.401  0.00  0.00     0.210 HD
ENDBRANCH  11  19
ENDBRANCH   1  11
TORSDOF 6
