REMARK  4 active torsions:
REMARK  status: ('A' for Active; 'I' for Inactive)
REMARK    1  A    between atoms: C_8  and  C_3 
REMARK    2  A    between atoms: C_10  and  C_4 
REMARK    3  A    between atoms: C_11  and  C_8 
REMARK    4  A    between atoms: O_17  and  C_12 
ROOT
ATOM      1  N   UNL d   1       0.478   1.277   0.147  0.00  0.00    -0.341 N 
ATOM      2  HN  UNL d   1       0.834   2.222   0.289  1.00  0.00     0.167 HD
ATOM      3  C   UNL d   1      -0.873   1.015   0.100  0.00  0.00     0.104 C 
ATOM      4  C   UNL d   1       1.278   0.264   0.003  0.00  0.00     0.109 C 
ATOM      5  C   UNL d   1      -1.403  -0.396   0.112  0.00  0.00     0.282 C 
ATOM      6  N   UNL d   1      -0.433  -1.371   0.129  0.00  0.00    -0.280 N 
ATOM      7  N   UNL d   1       0.891  -1.057  -0.197  0.00  0.00    -0.187 NA
ATOM      8  O   UNL d   1      -2.594  -0.689   0.110  0.00  0.00    -0.265 OA
ATOM      9  H   UNL d   1      -0.748  -2.320  -0.042  0.00  0.00     0.184 HD
ATOM     10  H   UNL d   1       1.562  -1.749   0.131  0.00  0.00     0.154 HD
ENDROOT
BRANCH   3  11
ATOM     11  C   UNL d   1      -1.794   1.995   0.044  0.00  0.00     0.046 C 
BRANCH  11  12
ATOM     12  C   UNL d   1      -1.454   3.419  -0.017  0.00  0.00    -0.034 A 
ATOM     13  C   UNL d   1      -1.252   4.033  -1.257  0.00  0.00     0.014 A 
ATOM     14  C   UNL d   1      -0.911   5.388  -1.331  0.00  0.00     0.037 A 
ATOM     15  C   UNL d   1      -0.766   6.135  -0.162  0.00  0.00     0.068 A 
ATOM     16  C   UNL d   1      -0.991   5.528   1.076  0.00  0.00     0.037 A 
ATOM     17  C   UNL d   1      -1.323   4.172   1.152  0.00  0.00     0.014 A 
BRANCH  15  18
ATOM     18  O   UNL d   1      -0.451   7.466  -0.113  0.00  0.00    -0.356 OA
ATOM     19  C   UNL d   1       0.356   7.942  -1.183  0.00  0.00     0.210 C 
ENDBRANCH  15  18
ENDBRANCH  11  12
ENDBRANCH   3  11
BRANCH   4  20
ATOM     20  C   UNL d   1       2.751   0.549   0.063  0.00  0.00     0.004 A 
ATOM     21  C   UNL d   1       3.217   1.633   0.818  0.00  0.00     0.015 A 
ATOM     22  C   UNL d   1       4.588   1.884   0.909  0.00  0.00     0.001 A 
ATOM     23  C   UNL d   1       5.494   1.062   0.240  0.00  0.00     0.000 A 
ATOM     24  C   UNL d   1       5.034  -0.006  -0.529  0.00  0.00     0.001 A 
ATOM     25  C   UNL d   1       3.664  -0.263  -0.622  0.00  0.00     0.015 A 
ENDBRANCH   4  20
TORSDOF 4
