REMARK  3 active torsions:
REMARK  status: ('A' for Active; 'I' for Inactive)
REMARK    1  A    between atoms: C_9  and  C_15 
REMARK    2  A    between atoms: O_16  and  C_11 
REMARK    3  A    between atoms: C_15  and  O_16 
ROOT
ATOM      1  C   UNL d   1      -0.038  -0.905   0.021  0.00  0.00     0.049 A 
ATOM      2  C   UNL d   1      -1.362  -1.580  -0.019  0.00  0.00     0.165 C 
ATOM      3  C   UNL d   1      -0.064   0.500   0.070  0.00  0.00     0.086 A 
ATOM      4  O   UNL d   1      -1.199   1.273   0.007  0.00  0.00    -0.340 OA
ATOM      5  C   UNL d   1       1.198  -1.579   0.027  0.00  0.00    -0.043 A 
ATOM      6  C   UNL d   1      -2.391   0.603  -0.426  0.00  0.00     0.067 C 
ATOM      7  C   UNL d   1      -2.545  -0.714   0.315  0.00  0.00     0.121 C 
ATOM      8  C   UNL d   1       1.119   1.234   0.168  0.00  0.00     0.074 A 
ATOM      9  C   UNL d   1       2.381  -0.808   0.087  0.00  0.00     0.044 A 
ATOM     10  C   UNL d   1       2.350   0.587   0.145  0.00  0.00     0.072 A 
ATOM     11  O   UNL d   1      -1.512  -2.762  -0.293  0.00  0.00    -0.292 OA
ATOM     12  C   UNL d   1       1.382  -3.069  -0.072  0.00  0.00     0.049 C 
ATOM     13  C   UNL d   1      -2.387   0.441  -1.959  0.00  0.00     0.046 C 
ATOM     14  C   UNL d   1      -3.559   1.527  -0.051  0.00  0.00     0.046 C 
ENDROOT
BRANCH  10  15
ATOM     15  O   UNL d   1       3.572   1.206   0.155  0.00  0.00    -0.347 OA
BRANCH  15  16
ATOM     16  C   UNL d   1       3.556   2.602  -0.141  0.00  0.00     0.215 C 
BRANCH  16  17
ATOM     17  C   UNL d   1       4.951   3.085  -0.469  0.00  0.00    -0.028 A 
ATOM     18  C   UNL d   1       5.505   2.983  -1.761  0.00  0.00    -0.054 A 
ATOM     19  C   UNL d   1       6.757   3.564  -2.014  0.00  0.00     0.008 A 
ATOM     20  C   UNL d   1       4.802   2.313  -2.912  0.00  0.00     0.049 C 
ATOM     21  C   UNL d   1       7.479   4.187  -0.997  0.00  0.00     0.007 A 
ATOM     22  C   UNL d   1       6.975   4.229   0.303  0.00  0.00    -0.061 A 
ATOM     23  C   UNL d   1       5.711   3.684   0.556  0.00  0.00     0.016 A 
ATOM     24  C   UNL d   1       7.769   4.883   1.394  0.00  0.00     0.048 C 
ENDBRANCH  16  17
ENDBRANCH  15  16
ENDBRANCH  10  15
TORSDOF 3
