REMARK  4 active torsions:
REMARK  status: ('A' for Active; 'I' for Inactive)
REMARK    1  A    between atoms: C_7  and  C_4 
REMARK    2  A    between atoms: C_13  and  C_5 
REMARK    3  A    between atoms: O_27  and  C_16 
REMARK    4  A    between atoms: O_28  and  C_18 
ROOT
ATOM      1  C   UNL d   1      -0.699   0.481  -0.086  0.00  0.00     0.068 A 
ATOM      2  N   UNL d   1      -1.542  -0.620  -0.152  0.00  0.00    -0.341 N 
ATOM      3  C   UNL d   1      -1.524   1.590  -0.085  0.00  0.00     0.085 A 
ATOM      4  C   UNL d   1      -2.891   1.149  -0.086  0.00  0.00     0.028 A 
ATOM      5  C   UNL d   1      -2.877  -0.247  -0.153  0.00  0.00     0.093 A 
ATOM      6  C   UNL d   1       0.765   0.303  -0.032  0.00  0.00     0.002 A 
ATOM      7  C   UNL d   1       1.293  -0.960  -0.348  0.00  0.00    -0.041 A 
ATOM      8  C   UNL d   1       1.654   1.315   0.357  0.00  0.00     0.054 A 
ATOM      9  C   UNL d   1      -1.078   2.950  -0.037  0.00  0.00     0.102 C 
ATOM     10  C   UNL d   1      -1.002  -1.974  -0.159  0.00  0.00     0.134 C 
ATOM     11  N   UNL d   1      -0.704   4.051  -0.015  0.00  0.00    -0.191 NA
ATOM     12  C   UNL d   1       3.041   1.090   0.406  0.00  0.00     0.102 A 
ATOM     13  C   UNL d   1       2.677  -1.182  -0.283  0.00  0.00     0.047 A 
ATOM     14  C   UNL d   1       3.562  -0.171   0.108  0.00  0.00     0.102 A 
ATOM     15  C   UNL d   1       0.374  -2.060  -0.815  0.00  0.00     0.060 C 
ENDROOT
BRANCH   4  16
ATOM     16  C   UNL d   1      -4.078   1.992   0.128  0.00  0.00    -0.019 A 
ATOM     17  C   UNL d   1      -4.142   3.266  -0.461  0.00  0.00     0.052 A 
ATOM     18  C   UNL d   1      -5.039   4.176   0.057  0.00  0.00     0.105 A 
ATOM     19  O   UNL d   1      -5.098   5.499  -0.262  0.00  0.00    -0.323 OA
ATOM     20  C   UNL d   1      -5.928   3.840   1.049  0.00  0.00     0.105 A 
ATOM     21  C   UNL d   1      -5.951   5.977   0.799  0.00  0.00     0.352 C 
ATOM     22  O   UNL d   1      -6.649   4.911   1.478  0.00  0.00    -0.323 OA
ATOM     23  C   UNL d   1      -5.993   2.564   1.555  0.00  0.00     0.040 A 
ATOM     24  C   UNL d   1      -5.041   1.640   1.105  0.00  0.00     0.015 A 
ENDBRANCH   4  16
BRANCH   5  25
ATOM     25  C   UNL d   1      -4.025  -1.146  -0.241  0.00  0.00     0.173 C 
ATOM     26  O   UNL d   1      -4.994  -0.907  -0.961  0.00  0.00    -0.291 OA
ATOM     27  C   UNL d   1      -4.028  -2.407   0.589  0.00  0.00     0.098 C 
ENDBRANCH   5  25
BRANCH  12  28
ATOM     28  O   UNL d   1       3.835   2.113   0.853  0.00  0.00    -0.353 OA
ATOM     29  C   UNL d   1       4.040   3.099  -0.161  0.00  0.00     0.210 C 
ENDBRANCH  12  28
BRANCH  14  30
ATOM     30  O   UNL d   1       4.861  -0.597   0.151  0.00  0.00    -0.353 OA
ATOM     31  C   UNL d   1       5.885   0.349   0.417  0.00  0.00     0.210 C 
ENDBRANCH  14  30
TORSDOF 4
