REMARK  8 active torsions:
REMARK  status: ('A' for Active; 'I' for Inactive)
REMARK    1  A    between atoms: N_2  and  C_1 
REMARK    2  A    between atoms: N_7  and  C_1 
REMARK    3  A    between atoms: C_3  and  N_2 
REMARK    4  A    between atoms: C_9  and  C_4 
REMARK    5  A    between atoms: N_5  and  C_10 
REMARK    6  A    between atoms: C_16  and  N_7 
REMARK    7  A    between atoms: C_10  and  C_11 
REMARK    8  A    between atoms: C_11  and  C_16 
ROOT
ATOM      1  C   UNL d   1       1.107   0.320  -0.592  0.00  0.00     0.172 C 
ATOM      2  S   UNL d   1       0.295   1.769  -0.377  0.00  0.00    -0.041 SA
ENDROOT
BRANCH   1   3
ATOM      3  N   UNL d   1       0.550  -0.936  -0.576  0.00  0.00    -0.333 N 
ATOM      4  H   UNL d   1       1.086  -1.663  -0.111  0.00  0.00     0.168 HD
BRANCH   3   5
ATOM      5  C   UNL d   1      -0.716  -1.299  -1.108  0.00  0.00     0.041 A 
ATOM      6  C   UNL d   1      -1.532  -2.309  -0.546  0.00  0.00    -0.028 A 
ATOM      7  C   UNL d   1      -2.698  -2.687  -1.257  0.00  0.00     0.010 A 
ATOM      8  C   UNL d   1      -3.050  -2.090  -2.464  0.00  0.00     0.001 A 
ATOM      9  C   UNL d   1      -2.261  -1.085  -2.992  0.00  0.00     0.002 A 
ATOM     10  C   UNL d   1      -1.105  -0.692  -2.317  0.00  0.00     0.030 A 
BRANCH   6  11
ATOM     11  C   UNL d   1      -1.306  -2.900   0.842  0.00  0.00     0.013 C 
ATOM     12  C   UNL d   1      -2.156  -2.160   1.886  0.00  0.00     0.015 C 
ATOM     13  C   UNL d   1      -1.601  -4.406   0.945  0.00  0.00     0.015 C 
ENDBRANCH   6  11
ENDBRANCH   3   5
ENDBRANCH   1   3
BRANCH   1  14
ATOM     14  N   UNL d   1       2.461   0.398  -0.760  0.00  0.00    -0.367 N 
ATOM     15  H   UNL d   1       2.796   1.355  -0.743  0.00  0.00     0.161 HD
BRANCH  14  16
ATOM     16  C   UNL d   1       3.313  -0.556  -1.448  0.00  0.00     0.123 C 
BRANCH  16  17
ATOM     17  C   UNL d   1       4.406  -1.102  -0.537  0.00  0.00     0.050 C 
BRANCH  17  18
ATOM     18  C   UNL d   1       3.853  -1.966   0.600  0.00  0.00     0.274 C 
BRANCH  18  19
ATOM     19  N   UNL d   1       3.001  -3.078   0.141  0.00  0.00     0.092 N 
ATOM     20  C   UNL d   1       3.739  -4.081  -0.664  0.00  0.00     0.298 C 
ATOM     21  C   UNL d   1       4.740  -4.910   0.157  0.00  0.00     0.198 C 
ATOM     22  O   UNL d   1       4.089  -5.577   1.246  0.00  0.00    -0.388 OA
ATOM     23  C   UNL d   1       3.400  -4.645   2.087  0.00  0.00     0.198 C 
ATOM     24  C   UNL d   1       2.400  -3.794   1.289  0.00  0.00     0.298 C 
ENDBRANCH  18  19
ENDBRANCH  17  18
ENDBRANCH  16  17
ENDBRANCH  14  16
ENDBRANCH   1  14
TORSDOF 8
