REMARK  6 active torsions:
REMARK  status: ('A' for Active; 'I' for Inactive)
REMARK    1  A    between atoms: O_5  and  S_1 
REMARK    2  A    between atoms: C_11  and  S_1 
REMARK    3  A    between atoms: C_3  and  O_5 
REMARK    4  A    between atoms: N_4  and  C_12 
REMARK    5  A    between atoms: C_9  and  C_6 
REMARK    6  A    between atoms: O_26  and  C_9 
ROOT
ATOM      1  C   UNL d   1       0.007  -1.416  -3.268  0.00  0.00     0.031 C 
ATOM      2  C   UNL d   1       1.039  -0.824  -2.266  0.00  0.00     0.151 C 
ATOM      3  C   UNL d   1       0.438  -1.109  -4.732  0.00  0.00     0.096 C 
ATOM      4  C   UNL d   1       2.418  -1.459  -2.552  0.00  0.00     0.017 C 
ATOM      5  C   UNL d   1       1.843  -1.714  -4.985  0.00  0.00     0.000 C 
ATOM      6  C   UNL d   1       2.854  -1.137  -3.985  0.00  0.00     0.012 C 
ATOM      7  C   UNL d   1       1.321  -3.575  -3.358  0.00  0.00    -0.013 C 
ATOM      8  C   UNL d   1      -0.063  -2.951  -3.111  0.00  0.00     0.012 C 
ATOM      9  C   UNL d   1       2.326  -2.983  -2.357  0.00  0.00     0.012 C 
ATOM     10  C   UNL d   1       1.784  -3.240  -4.787  0.00  0.00     0.010 C 
ENDROOT
BRANCH   2  11
ATOM     11  O   UNL d   1       0.623  -1.073  -0.914  0.00  0.00    -0.266 OA
BRANCH  11  12
ATOM     12  S   UNL d   1       1.466  -0.331   0.278  0.00  0.00     0.298 S 
ATOM     13  O   UNL d   1       1.315   1.099   0.117  0.00  0.00    -0.193 OA
ATOM     14  O   UNL d   1       2.775  -0.950   0.366  0.00  0.00    -0.193 OA
BRANCH  12  15
ATOM     15  C   UNL d   1       0.690  -0.750   1.819  0.00  0.00     0.086 A 
ATOM     16  C   UNL d   1      -0.505  -1.463   1.880  0.00  0.00     0.028 A 
ATOM     17  C   UNL d   1      -0.997  -1.854   3.133  0.00  0.00     0.037 A 
ATOM     18  C   UNL d   1      -0.279  -1.530   4.300  0.00  0.00     0.102 A 
ATOM     19  C   UNL d   1       0.916  -0.806   4.229  0.00  0.00     0.037 A 
ATOM     20  C   UNL d   1       1.397  -0.417   2.984  0.00  0.00     0.028 A 
BRANCH  18  21
ATOM     21  N   UNL d   1      -0.770  -1.977   5.611  0.00  0.00    -0.116 N 
ATOM     22  O   UNL d   1      -1.821  -2.631   5.637  0.00  0.00    -0.532 OA
ATOM     23  O   UNL d   1      -0.100  -1.678   6.609  0.00  0.00    -0.532 OA
ENDBRANCH  18  21
ENDBRANCH  12  15
ENDBRANCH  11  12
ENDBRANCH   2  11
BRANCH   3  24
ATOM     24  C   UNL d   1       0.401   0.373  -5.101  0.00  0.00     0.263 C 
ATOM     25  O   UNL d   1       1.161   0.903  -5.898  0.00  0.00    -0.265 OA
BRANCH  24  26
ATOM     26  O   UNL d   1      -0.618   1.013  -4.466  0.00  0.00    -0.326 OA
ATOM     27  C   UNL d   1      -0.690   2.412  -4.747  0.00  0.00     0.213 C 
ENDBRANCH  24  26
ENDBRANCH   3  24
TORSDOF 6
