REMARK  3 active torsions:
REMARK  status: ('A' for Active; 'I' for Inactive)
REMARK    1  A    between atoms: C_9  and  C_1 
REMARK    2  A    between atoms: C_2  and  C_10 
REMARK    3  A    between atoms: N_3  and  N_5 
ROOT
ATOM      1  N   UNL d   1      -2.348   3.802   0.015  0.00  0.00    -0.311 N 
ATOM      2  HN  UNL d   1      -1.766   4.639  -0.021  1.00  0.00     0.186 HD
ATOM      3  C   UNL d   1      -3.646   3.797  -0.003  0.00  0.00     0.120 C 
ENDROOT
BRANCH   1   4
ATOM      4  N   UNL d   1      -1.866   2.501   0.089  0.00  0.00    -0.311 N 
ATOM      5  C   UNL d   1      -0.570   2.466   0.098  0.00  0.00     0.120 C 
ATOM      6  HN  UNL d   1      -2.460   1.673   0.132  1.00  0.00     0.186 HD
BRANCH   5   7
ATOM      7  C   UNL d   1       0.157   1.176   0.139  0.00  0.00     0.002 A 
ATOM      8  C   UNL d   1       1.555   1.108   0.163  0.00  0.00     0.045 A 
ATOM      9 CL   UNL d   1       2.568   2.507   0.162  0.00  0.00    -0.083 Cl
ATOM     10  C   UNL d   1       2.191  -0.141   0.187  0.00  0.00     0.024 A 
ATOM     11  C   UNL d   1       1.439  -1.318   0.186  0.00  0.00     0.002 A 
ATOM     12  C   UNL d   1       0.049  -1.253   0.163  0.00  0.00     0.001 A 
ATOM     13  C   UNL d   1      -0.590  -0.013   0.140  0.00  0.00     0.014 A 
ENDBRANCH   5   7
ENDBRANCH   1   4
BRANCH   3  14
ATOM     14  C   UNL d   1      -4.439   5.040  -0.122  0.00  0.00     0.002 A 
ATOM     15  C   UNL d   1      -5.839   5.020  -0.142  0.00  0.00     0.045 A 
ATOM     16 CL   UNL d   1      -6.767   3.570   0.021  0.00  0.00    -0.083 Cl
ATOM     17  C   UNL d   1      -6.551   6.215  -0.298  0.00  0.00     0.024 A 
ATOM     18  C   UNL d   1      -5.873   7.428  -0.428  0.00  0.00     0.002 A 
ATOM     19  C   UNL d   1      -4.481   7.453  -0.396  0.00  0.00     0.001 A 
ATOM     20  C   UNL d   1      -3.765   6.264  -0.244  0.00  0.00     0.014 A 
ENDBRANCH   3  14
TORSDOF 3
