REMARK  6 active torsions:
REMARK  status: ('A' for Active; 'I' for Inactive)
REMARK    1  A    between atoms: C_5  and  C_1 
REMARK    2  A    between atoms: O_15  and  C_1 
REMARK    3  A    between atoms: C_3  and  C_2 
REMARK    4  A    between atoms: C_6  and  C_3 
REMARK    5  A    between atoms: C_4  and  N_9 
REMARK    6  A    between atoms: N_9  and  C_14 
ROOT
ATOM      1  N   UNL d   1      -1.400  -3.668  -3.638  0.00  0.00    -0.366 N 
ATOM      2  H   UNL d   1      -2.364  -3.444  -3.860  0.00  0.00     0.165 HD
ENDROOT
BRANCH   1   3
ATOM      3  C   UNL d   1      -0.947  -4.911  -4.005  0.00  0.00     0.092 C 
ATOM      4  C   UNL d   1      -1.578  -5.829  -4.748  0.00  0.00     0.072 C 
BRANCH   4   5
ATOM      5  C   UNL d   1      -0.914  -7.144  -4.966  0.00  0.00     0.183 C 
ATOM      6  O   UNL d   1       0.162  -7.423  -4.447  0.00  0.00    -0.288 OA
BRANCH   5   7
ATOM      7  C   UNL d   1      -1.608  -8.163  -5.798  0.00  0.00     0.014 A 
ATOM      8  C   UNL d   1      -2.456  -7.826  -6.860  0.00  0.00     0.017 A 
ATOM      9  C   UNL d   1      -3.074  -8.835  -7.606  0.00  0.00     0.025 A 
ATOM     10  C   UNL d   1      -2.838 -10.175  -7.301  0.00  0.00     0.034 A 
ATOM     11  C   UNL d   1      -1.980 -10.520  -6.259  0.00  0.00     0.025 A 
ATOM     12 CL   UNL d   1      -3.604 -11.409  -8.221  0.00  0.00    -0.084 Cl
ATOM     13  C   UNL d   1      -1.362  -9.515  -5.512  0.00  0.00     0.017 A 
ENDBRANCH   5   7
ENDBRANCH   4   5
ENDBRANCH   1   3
BRANCH   1  14
ATOM     14  C   UNL d   1      -0.706  -2.717  -2.868  0.00  0.00     0.031 A 
ATOM     15  C   UNL d   1       0.694  -2.707  -2.765  0.00  0.00     0.030 A 
ATOM     16  C   UNL d   1       1.357  -1.818  -1.913  0.00  0.00     0.020 A 
ATOM     17  C   UNL d   1       0.621  -0.912  -1.147  0.00  0.00     0.037 A 
ATOM     18  C   UNL d   1      -0.774  -0.913  -1.227  0.00  0.00     0.020 A 
ATOM     19  C   UNL d   1      -1.429  -1.806  -2.085  0.00  0.00     0.030 A 
BRANCH  17  20
ATOM     20  C   UNL d   1       1.276   0.021  -0.197  0.00  0.00     0.176 C 
ATOM     21  O   UNL d   1       0.763   0.365   0.854  0.00  0.00    -0.646 OA
BRANCH  20  22
ATOM     22  O   UNL d   1       2.468   0.485  -0.627  0.00  0.00    -0.773 OA
ATOM     23  H   UNL d   1       2.682   0.275  -1.554  0.00  0.00     0.167 HD
ENDBRANCH  20  22
ENDBRANCH  17  20
ENDBRANCH   1  14
TORSDOF 6
