REMARK  4 active torsions:
REMARK  status: ('A' for Active; 'I' for Inactive)
REMARK    1  A    between atoms: N_2  and  S_1 
REMARK    2  A    between atoms: C_11  and  S_1 
REMARK    3  A    between atoms: C_3  and  N_2 
REMARK    4  A    between atoms: C_7  and  C_6 
ROOT
ATOM      1  C   UNL d   1       0.757  -2.159   1.494  0.00  0.00     0.137 C 
ATOM      2  N   UNL d   1       1.919  -2.609   1.099  0.00  0.00    -0.339 N 
ATOM      3  HN  UNL d   1       2.636  -2.058   0.627  1.00  0.00     0.167 HD
ATOM      4  C   UNL d   1       2.026  -3.952   1.423  0.00  0.00     0.052 C 
ATOM      5  S   UNL d   1      -0.378  -3.323   2.003  0.00  0.00    -0.069 SA
ATOM      6  C   UNL d   1       0.846  -4.523   1.875  0.00  0.00     0.083 C 
ENDROOT
BRANCH   1   7
ATOM      7  N   UNL d   1       0.488  -0.774   1.367  0.00  0.00    -0.160 NA
ATOM      8  H   UNL d   1       1.229  -0.420   0.758  0.00  0.00     0.148 HD
BRANCH   7   9
ATOM      9  S   UNL d   1       0.755   0.007   2.854  0.00  0.00     0.247 S 
ATOM     10  O   UNL d   1       2.052   0.645   2.762  0.00  0.00    -0.205 OA
ATOM     11  O   UNL d   1       0.399  -0.841   3.969  0.00  0.00    -0.205 OA
BRANCH   9  12
ATOM     12  C   UNL d   1      -0.467   1.301   2.774  0.00  0.00     0.075 A 
ATOM     13  C   UNL d   1      -1.730   1.093   3.339  0.00  0.00     0.026 A 
ATOM     14  C   UNL d   1      -2.673   2.122   3.309  0.00  0.00     0.025 A 
ATOM     15  C   UNL d   1      -2.347   3.348   2.727  0.00  0.00     0.034 A 
ATOM     16  C   UNL d   1      -1.080   3.561   2.182  0.00  0.00     0.025 A 
ATOM     17 CL   UNL d   1      -3.516   4.609   2.684  0.00  0.00    -0.084 Cl
ATOM     18  C   UNL d   1      -0.130   2.537   2.211  0.00  0.00     0.026 A 
ENDBRANCH   9  12
ENDBRANCH   7   9
ENDBRANCH   1   7
BRANCH   4  19
ATOM     19  C   UNL d   1       3.288  -4.685   1.298  0.00  0.00     0.013 A 
ATOM     20  C   UNL d   1       4.541  -4.098   1.574  0.00  0.00     0.048 A 
ATOM     21  C   UNL d   1       5.722  -4.843   1.465  0.00  0.00     0.048 A 
ATOM     22 CL   UNL d   1       4.729  -2.463   2.119  0.00  0.00    -0.083 Cl
ATOM     23  C   UNL d   1       5.669  -6.182   1.093  0.00  0.00     0.035 A 
ATOM     24  C   UNL d   1       4.447  -6.787   0.822  0.00  0.00     0.025 A 
ATOM     25 CL   UNL d   1       7.120  -7.098   0.977  0.00  0.00    -0.084 Cl
ATOM     26  C   UNL d   1       3.266  -6.042   0.917  0.00  0.00     0.017 A 
ENDBRANCH   4  19
TORSDOF 4
