REMARK  8 active torsions:
REMARK  status: ('A' for Active; 'I' for Inactive)
REMARK    1  A    between atoms: O_2  and  C_1 
REMARK    2  A    between atoms: C_5  and  O_2 
REMARK       I    between atoms: C_6  and  N_7 
REMARK    3  A    between atoms: C_21  and  C_6 
REMARK    4  A    between atoms: N_7  and  C_13 
REMARK    5  A    between atoms: C_10  and  C_22 
REMARK    6  A    between atoms: O_19  and  C_10 
REMARK    7  A    between atoms: O_18  and  C_21 
REMARK    8  A    between atoms: C_22  and  O_18 
ROOT
ATOM      1  N   UNL d   1      -1.714   3.402  -1.209  0.00  0.00    -0.344 N 
ATOM      2  HN  UNL d   1      -1.188   3.443  -2.082  1.00  0.00     0.167 HD
ATOM      3  C   UNL d   1      -1.246   2.751  -0.121  0.00  0.00     0.148 A 
ATOM      4  C   UNL d   1      -3.704   3.961   0.088  0.00  0.00     0.050 A 
ATOM      5  C   UNL d   1      -2.924   3.996  -1.071  0.00  0.00     0.119 A 
ATOM      6  C   UNL d   1      -1.954   2.621   1.063  0.00  0.00     0.059 A 
ATOM      7  C   UNL d   1      -3.196   3.244   1.168  0.00  0.00     0.035 A 
ENDROOT
BRANCH   4   8
ATOM      8  N   UNL d   1      -4.945   4.627   0.093  0.00  0.00    -0.324 N 
ATOM      9  C   UNL d   1      -5.841   4.725   1.144  0.00  0.00     0.245 C 
ATOM     10  O   UNL d   1      -5.673   4.322   2.290  0.00  0.00    -0.271 OA
ATOM     11  H   UNL d   1      -5.241   5.056  -0.775  0.00  0.00     0.169 HD
BRANCH   9  12
ATOM     12  C   UNL d   1      -7.118   5.475   0.754  0.00  0.00     0.271 C 
BRANCH  12  13
ATOM     13  O   UNL d   1      -7.569   5.101  -0.555  0.00  0.00    -0.372 OA
BRANCH  13  14
ATOM     14  C   UNL d   1      -8.910   5.548  -0.785  0.00  0.00     0.277 C 
BRANCH  14  15
ATOM     15  C   UNL d   1      -8.912   6.986  -1.275  0.00  0.00     0.164 C 
ATOM     16  O   UNL d   1      -9.714   7.840  -0.928  0.00  0.00    -0.648 OA
BRANCH  15  17
ATOM     17  O   UNL d   1      -7.915   7.221  -2.163  0.00  0.00    -0.775 OA
ATOM     18  H   UNL d   1      -7.389   6.407  -2.303  0.00  0.00     0.167 HD
ENDBRANCH  15  17
ENDBRANCH  14  15
ENDBRANCH  13  14
ENDBRANCH  12  13
ENDBRANCH   9  12
ENDBRANCH   4   8
BRANCH   3  19
ATOM     19  O   UNL d   1       0.030   2.202  -0.127  0.00  0.00    -0.290 OA
BRANCH  19  20
ATOM     20  C   UNL d   1       0.939   2.736  -1.013  0.00  0.00     0.121 A 
ATOM     21  C   UNL d   1       1.317   4.089  -1.005  0.00  0.00     0.069 A 
ATOM     22 CL   UNL d   1       0.717   5.228   0.153  0.00  0.00    -0.081 Cl
ATOM     23  C   UNL d   1       2.273   4.558  -1.912  0.00  0.00     0.027 A 
ATOM     24  C   UNL d   1       2.899   3.678  -2.795  0.00  0.00     0.003 A 
ATOM     25  C   UNL d   1       2.572   2.324  -2.769  0.00  0.00     0.027 A 
ATOM     26  C   UNL d   1       1.596   1.855  -1.883  0.00  0.00     0.069 A 
ATOM     27 CL   UNL d   1       1.255   0.160  -1.878  0.00  0.00    -0.081 Cl
ENDBRANCH  19  20
ENDBRANCH   3  19
TORSDOF 8
