REMARK  5 active torsions:
REMARK  status: ('A' for Active; 'I' for Inactive)
REMARK    1  A    between atoms: C_7  and  C_1 
REMARK    2  A    between atoms: C_11  and  N_2 
REMARK    3  A    between atoms: C_8  and  C_5 
REMARK       I    between atoms: C_9  and  N_10 
REMARK    4  A    between atoms: C_12  and  C_9 
REMARK    5  A    between atoms: N_10  and  C_24 
ROOT
ATOM      1  C   UNL d   1       2.029   1.458   0.135  0.00  0.00     0.057 A 
ATOM      2  C   UNL d   1       3.026   1.179  -0.802  0.00  0.00     0.034 A 
ATOM      3  C   UNL d   1       2.173   2.575   0.971  0.00  0.00     0.034 A 
ATOM      4  C   UNL d   1       4.323   3.091  -0.023  0.00  0.00     0.035 A 
ATOM      5  C   UNL d   1       4.175   1.980  -0.863  0.00  0.00     0.032 A 
ATOM      6  C   UNL d   1       3.318   3.375   0.898  0.00  0.00     0.032 A 
ENDROOT
BRANCH   1   7
ATOM      7  N   UNL d   1       0.847   0.671   0.244  0.00  0.00    -0.251 N 
ATOM      8  C   UNL d   1       0.611  -0.654  -0.051  0.00  0.00     0.142 C 
ATOM      9  C   UNL d   1      -0.759  -0.830   0.024  0.00  0.00     0.072 C 
ATOM     10  C   UNL d   1      -1.283   0.395   0.490  0.00  0.00     0.134 C 
ATOM     11  N   UNL d   1      -0.289   1.275   0.693  0.00  0.00    -0.289 N 
ATOM     12  HN  UNL d   1      -0.369   2.206   1.101  1.00  0.00     0.187 HD
BRANCH   8  13
ATOM     13  C   UNL d   1       1.645  -1.672  -0.296  0.00  0.00     0.434 C 
ATOM     14  F   UNL d   1       2.892  -1.328   0.096  0.00  0.00    -0.165 F 
ATOM     15  F   UNL d   1       1.352  -2.822   0.367  0.00  0.00    -0.165 F 
ATOM     16  F   UNL d   1       1.712  -1.993  -1.612  0.00  0.00    -0.165 F 
ENDBRANCH   8  13
BRANCH  10  17
ATOM     17  C   UNL d   1      -2.733   0.691   0.778  0.00  0.00     0.434 C 
ATOM     18  F   UNL d   1      -2.961   1.957   1.211  0.00  0.00    -0.165 F 
ATOM     19  F   UNL d   1      -3.503   0.509  -0.330  0.00  0.00    -0.165 F 
ATOM     20  F   UNL d   1      -3.229  -0.146   1.729  0.00  0.00    -0.165 F 
ENDBRANCH  10  17
ENDBRANCH   1   7
BRANCH   4  21
ATOM     21  N   UNL d   1       5.485   3.871  -0.180  0.00  0.00    -0.323 N 
ATOM     22  C   UNL d   1       5.787   5.060   0.465  0.00  0.00     0.256 C 
ATOM     23  O   UNL d   1       5.121   5.631   1.311  0.00  0.00    -0.267 OA
ATOM     24  H   UNL d   1       6.175   3.503  -0.825  0.00  0.00     0.169 HD
BRANCH  22  25
ATOM     25  C   UNL d   1       7.099   5.654   0.086  0.00  0.00     0.032 A 
ATOM     26  C   UNL d   1       7.594   5.593  -1.224  0.00  0.00     0.018 A 
ATOM     27  C   UNL d   1       8.865   6.101  -1.512  0.00  0.00     0.025 A 
ATOM     28  C   UNL d   1       9.624   6.685  -0.497  0.00  0.00     0.034 A 
ATOM     29  C   UNL d   1       9.115   6.797   0.796  0.00  0.00     0.025 A 
ATOM     30 CL   UNL d   1      11.206   7.262  -0.842  0.00  0.00    -0.084 Cl
ATOM     31  C   UNL d   1       7.847   6.287   1.086  0.00  0.00     0.018 A 
ENDBRANCH  22  25
ENDBRANCH   4  21
TORSDOF 5
