REMARK  4 active torsions:
REMARK  status: ('A' for Active; 'I' for Inactive)
REMARK    1  A    between atoms: C_7  and  N_1 
REMARK    2  A    between atoms: C_13  and  N_4 
REMARK    3  A    between atoms: C_8  and  C_7 
REMARK    4  A    between atoms: C_10  and  C_13 
ROOT
ATOM      1  N   UNL d   1       0.779   1.073  -0.282  0.00  0.00    -0.335 N 
ATOM      2  C   UNL d   1       1.604   0.130   0.303  0.00  0.00     0.140 C 
ATOM      3  S   UNL d   1       1.074  -1.507  -0.015  0.00  0.00    -0.070 SA
ATOM      4  N   UNL d   1      -1.279  -0.141  -0.304  0.00  0.00     0.121 N 
ATOM      5  C   UNL d   1      -0.615   1.087   0.118  0.00  0.00     0.400 C 
ATOM      6  C   UNL d   1      -0.667  -1.301   0.339  0.00  0.00     0.356 C 
ATOM      7  S   UNL d   1       3.048   0.416   1.101  0.00  0.00    -0.053 SA
ENDROOT
BRANCH   1   8
ATOM      8  C   UNL d   1       1.310   2.322  -0.842  0.00  0.00     0.191 C 
BRANCH   8   9
ATOM      9  C   UNL d   1       1.314   3.438   0.140  0.00  0.00     0.070 A 
ATOM     10  O   UNL d   1       0.097   3.892   0.567  0.00  0.00    -0.325 OA
ATOM     11  C   UNL d   1       0.332   4.884   1.457  0.00  0.00     0.142 A 
ATOM     12  C   UNL d   1       1.683   5.104   1.591  0.00  0.00     0.027 A 
ATOM     13  C   UNL d   1       2.319   4.179   0.732  0.00  0.00     0.036 A 
ENDBRANCH   8   9
ENDBRANCH   1   8
BRANCH   4  14
ATOM     14  C   UNL d   1      -2.704  -0.105   0.110  0.00  0.00     0.340 C 
BRANCH  14  15
ATOM     15  C   UNL d   1      -3.463   1.054  -0.440  0.00  0.00     0.081 A 
ATOM     16  O   UNL d   1      -3.975   1.927   0.479  0.00  0.00    -0.325 OA
ATOM     17  C   UNL d   1      -4.582   2.924  -0.218  0.00  0.00     0.142 A 
ATOM     18  C   UNL d   1      -4.464   2.707  -1.567  0.00  0.00     0.027 A 
ATOM     19  C   UNL d   1      -3.749   1.492  -1.716  0.00  0.00     0.036 A 
ENDBRANCH  14  15
ENDBRANCH   4  14
TORSDOF 4
