REMARK  3 active torsions:
REMARK  status: ('A' for Active; 'I' for Inactive)
REMARK    1  A    between atoms: C_10  and  C_4 
REMARK    2  A    between atoms: C_11  and  C_6 
REMARK       I    between atoms: N_12  and  C_10 
REMARK       I    between atoms: C_14  and  N_12 
REMARK       I    between atoms: N_16  and  C_14 
REMARK    3  A    between atoms: C_15  and  N_16 
ROOT
ATOM      1  C   UNL d   1      -4.021  -0.056   0.716  0.00  0.00     0.257 C 
ATOM      2  N   UNL d   1      -3.714   0.933  -0.181  0.00  0.00    -0.174 NA
ATOM      3  C   UNL d   1      -3.905   2.216   0.233  0.00  0.00     0.306 C 
ATOM      4  N   UNL d   1      -2.919   2.748   1.022  0.00  0.00    -0.308 N 
ATOM      5  O   UNL d   1      -4.905   2.808  -0.164  0.00  0.00    -0.253 OA
ATOM      6  O   UNL d   1      -5.163  -0.498   0.817  0.00  0.00    -0.272 OA
ATOM      7  H   UNL d   1      -4.460   0.859  -0.864  0.00  0.00     0.141 HD
ATOM      8  H   UNL d   1      -2.399   2.106   1.615  0.00  0.00     0.170 HD
ENDROOT
BRANCH   1   9
ATOM      9  C   UNL d   1      -2.874  -0.719   1.337  0.00  0.00     0.113 A 
ATOM     10  C   UNL d   1      -2.915  -1.980   1.900  0.00  0.00     0.132 A 
ATOM     11  N   UNL d   1      -1.618  -2.315   2.173  0.00  0.00    -0.314 N 
ATOM     12  C   UNL d   1      -0.837  -1.210   1.855  0.00  0.00     0.134 A 
ATOM     13  C   UNL d   1      -1.116  -3.528   2.635  0.00  0.00     0.114 A 
ATOM     14  N   UNL d   1      -1.579  -0.229   1.363  0.00  0.00    -0.335 N 
ATOM     15  C   UNL d   1       0.568  -1.357   2.068  0.00  0.00     0.079 A 
ATOM     16  HN  UNL d   1      -1.263   0.694   1.066  1.00  0.00     0.168 HD
ATOM     17 CL   UNL d   1       1.606  -0.031   1.709  0.00  0.00    -0.080 Cl
ATOM     18  C   UNL d   1       1.071  -2.524   2.525  0.00  0.00     0.045 A 
ATOM     19  C   UNL d   1       0.214  -3.680   2.818  0.00  0.00     0.065 A 
BRANCH  19  20
ATOM     20  C   UNL d   1       0.852  -4.966   3.262  0.00  0.00     0.418 C 
ATOM     21  F   UNL d   1       2.022  -5.205   2.620  0.00  0.00    -0.166 F 
ATOM     22  F   UNL d   1       1.121  -4.952   4.591  0.00  0.00    -0.166 F 
ATOM     23  F   UNL d   1       0.052  -6.039   3.032  0.00  0.00    -0.166 F 
ENDBRANCH  19  20
ENDBRANCH   1   9
BRANCH   4  24
ATOM     24  C   UNL d   1      -2.841   4.131   1.333  0.00  0.00     0.113 A 
ATOM     25  C   UNL d   1      -2.329   4.518   2.572  0.00  0.00     0.146 A 
ATOM     26  F   UNL d   1      -1.929   3.584   3.450  0.00  0.00    -0.204 F 
ATOM     27  C   UNL d   1      -2.261   5.863   2.947  0.00  0.00     0.045 A 
ATOM     28  C   UNL d   1      -2.683   6.855   2.062  0.00  0.00     0.006 A 
ATOM     29  C   UNL d   1      -3.154   6.493   0.803  0.00  0.00     0.045 A 
ATOM     30  C   UNL d   1      -3.225   5.146   0.443  0.00  0.00     0.146 A 
ATOM     31  F   UNL d   1      -3.583   4.865  -0.818  0.00  0.00    -0.204 F 
ENDBRANCH   4  24
TORSDOF 3
