REMARK  5 active torsions:
REMARK  status: ('A' for Active; 'I' for Inactive)
REMARK    1  A    between atoms: S_2  and  C_1 
REMARK    2  A    between atoms: C_5  and  C_1 
REMARK    3  A    between atoms: C_7  and  S_2 
REMARK    4  A    between atoms: C_3  and  C_7 
REMARK    5  A    between atoms: O_8  and  C_3 
ROOT
ATOM      1  C   UNL d   1       0.981  -0.101   0.072  0.00  0.00     0.078 C 
ATOM      2  S   UNL d   1       0.191  -1.593  -0.070  0.00  0.00    -0.072 SA
ENDROOT
BRANCH   1   3
ATOM      3  S   UNL d   1       0.014   1.394  -0.042  0.00  0.00    -0.107 SA
BRANCH   3   4
ATOM      4  C   UNL d   1      -1.216   1.155   1.273  0.00  0.00     0.190 C 
BRANCH   4   5
ATOM      5  C   UNL d   1      -0.618   1.116   2.664  0.00  0.00     0.149 C 
ATOM      6  O   UNL d   1       0.572   1.146   2.940  0.00  0.00    -0.649 OA
BRANCH   5   7
ATOM      7  O   UNL d   1      -1.568   1.043   3.632  0.00  0.00    -0.776 OA
ATOM      8  H   UNL d   1      -2.488   1.017   3.306  0.00  0.00     0.167 HD
ENDBRANCH   5   7
ENDBRANCH   4   5
ENDBRANCH   3   4
ENDBRANCH   1   3
BRANCH   1   9
ATOM      9  C   UNL d   1       2.489   0.050   0.167  0.00  0.00    -0.008 A 
ATOM     10  C   UNL d   1       3.113   1.309   0.231  0.00  0.00     0.013 A 
ATOM     11  C   UNL d   1       4.508   1.428   0.307  0.00  0.00     0.001 A 
ATOM     12  C   UNL d   1       5.309   0.293   0.322  0.00  0.00     0.000 A 
ATOM     13  C   UNL d   1       4.719  -0.964   0.260  0.00  0.00     0.001 A 
ATOM     14  C   UNL d   1       3.326  -1.083   0.182  0.00  0.00     0.013 A 
ENDBRANCH   1   9
TORSDOF 5
