REMARK  1 active torsions:
REMARK  status: ('A' for Active; 'I' for Inactive)
REMARK    1  A    between atoms: C_2  and  C_1 
REMARK       I    between atoms: N_7  and  C_2 
ROOT
ATOM      1  C   UNL d   1      -1.444  -0.110  -0.077  0.00  0.00     0.050 A 
ATOM      2  C   UNL d   1      -0.656  -1.276  -0.076  0.00  0.00     0.022 A 
ATOM      3  C   UNL d   1      -0.805   1.143  -0.027  0.00  0.00     0.042 A 
ATOM      4  C   UNL d   1       0.744  -1.172  -0.033  0.00  0.00     0.021 A 
ATOM      5  C   UNL d   1       0.585   1.229   0.003  0.00  0.00     0.035 A 
ATOM      6  I   UNL d   1      -1.410  -3.233  -0.212  0.00  0.00    -0.043 I 
ATOM      7  C   UNL d   1       1.363   0.078   0.003  0.00  0.00     0.025 A 
ATOM      8 CL   UNL d   1       1.343   2.773   0.045  0.00  0.00    -0.084 Cl
ENDROOT
BRANCH   1   9
ATOM      9  C   UNL d   1      -2.935  -0.125  -0.079  0.00  0.00     0.250 C 
ATOM     10  O   UNL d   1      -3.596  -0.959   0.519  0.00  0.00    -0.268 OA
ATOM     11  N   UNL d   1      -3.563   0.877  -0.772  0.00  0.00    -0.366 N 
ATOM     12  H   UNL d   1      -3.094   1.546  -1.364  0.00  0.00     0.159 HD
ATOM     13  H   UNL d   1      -4.575   0.845  -0.797  0.00  0.00     0.159 HD
ENDBRANCH   1   9
TORSDOF 1
