REMARK  3 active torsions:
REMARK  status: ('A' for Active; 'I' for Inactive)
REMARK    1  A    between atoms: C_6  and  C_1 
REMARK    2  A    between atoms: N_12  and  C_2 
REMARK       I    between atoms: N_14  and  C_6 
REMARK    3  A    between atoms: N_15  and  N_14 
ROOT
ATOM      1  C   UNL d   1       2.503   0.078   0.079  0.00  0.00     0.103 A 
ATOM      2  C   UNL d   1       1.638   1.165   0.072  0.00  0.00     0.062 A 
ATOM      3  C   UNL d   1       0.236   0.786   0.039  0.00  0.00     0.032 A 
ATOM      4  S   UNL d   1       1.643  -1.397   0.062  0.00  0.00    -0.064 SA
ATOM      5  C   UNL d   1       0.146  -0.605   0.035  0.00  0.00     0.088 A 
ATOM      6  N   UNL d   1      -0.965  -1.365   0.014  0.00  0.00    -0.354 N 
ATOM      7  HN  UNL d   1      -0.931  -2.384   0.012  1.00  0.00     0.166 HD
ATOM      8  C   UNL d   1      -1.010   1.484   0.017  0.00  0.00    -0.045 A 
ATOM      9  C   UNL d   1      -2.186   0.701  -0.005  0.00  0.00     0.032 A 
ATOM     10  C   UNL d   1      -2.118  -0.684  -0.003  0.00  0.00     0.006 A 
ATOM     11  C   UNL d   1      -1.220   2.975   0.016  0.00  0.00     0.049 C 
ATOM     12  C   UNL d   1      -3.380  -1.497  -0.013  0.00  0.00     0.068 C 
ENDROOT
BRANCH   1  13
ATOM     13  C   UNL d   1       3.966   0.079   0.077  0.00  0.00     0.275 C 
ATOM     14  O   UNL d   1       4.651   1.101  -0.022  0.00  0.00    -0.266 OA
ATOM     15  N   UNL d   1       4.572  -1.177   0.194  0.00  0.00    -0.289 N 
ATOM     16  H   UNL d   1       3.987  -1.993   0.364  0.00  0.00     0.183 HD
BRANCH  15  17
ATOM     17  N   UNL d   1       5.977  -1.308   0.232  0.00  0.00    -0.247 NA
ATOM     18  H   UNL d   1       6.364  -0.362   0.355  0.00  0.00     0.143 HD
ATOM     19  H   UNL d   1       6.291  -1.590  -0.699  0.00  0.00     0.143 HD
ENDBRANCH  15  17
ENDBRANCH   1  13
BRANCH   2  20
ATOM     20  N   UNL d   1       2.108   2.431   0.100  0.00  0.00    -0.397 N 
ATOM     21  H   UNL d   1       3.117   2.612   0.053  0.00  0.00     0.156 HD
ATOM     22  H   UNL d   1       1.554   3.261  -0.051  0.00  0.00     0.156 HD
ENDBRANCH   2  20
TORSDOF 3
