REMARK  3 active torsions:
REMARK  status: ('A' for Active; 'I' for Inactive)
REMARK    1  A    between atoms: O_11  and  C_2 
REMARK    2  A    between atoms: C_12  and  O_11 
REMARK    3  A    between atoms: C_13  and  C_12 
ROOT
ATOM      1  C   UNL d   1       2.152   1.083  -1.491  0.00  0.00     0.042 A 
ATOM      2  C   UNL d   1       1.121   1.873  -0.950  0.00  0.00     0.156 A 
ATOM      3  C   UNL d   1       1.796   0.376  -2.650  0.00  0.00     0.049 A 
ATOM      4  N   UNL d   1      -0.146   1.842  -1.401  0.00  0.00    -0.332 N 
ATOM      5  HN  UNL d   1      -0.892   2.377  -0.956  1.00  0.00     0.168 HD
ATOM      6  N   UNL d   1       0.548   0.358  -3.130  0.00  0.00    -0.351 N 
ATOM      7  HN  UNL d   1       0.306  -0.175  -3.966  1.00  0.00     0.166 HD
ATOM      8  C   UNL d   1       3.480   0.948  -0.992  0.00  0.00     0.020 A 
ATOM      9  C   UNL d   1       2.773  -0.327  -3.341  0.00  0.00     0.054 A 
ATOM     10  C   UNL d   1      -0.368   1.071  -2.465  0.00  0.00     0.182 A 
ATOM     11  C   UNL d   1       4.093  -0.366  -2.894  0.00  0.00     0.036 A 
ATOM     12  C   UNL d   1       4.448   0.251  -1.704  0.00  0.00     0.025 A 
ATOM     13 CL   UNL d   1       5.288  -1.191  -3.817  0.00  0.00    -0.084 Cl
ENDROOT
BRANCH   2  14
ATOM     14  O   UNL d   1       1.275   2.749   0.095  0.00  0.00    -0.330 OA
BRANCH  14  15
ATOM     15  C   UNL d   1       2.390   3.632  -0.013  0.00  0.00     0.216 C 
BRANCH  15  16
ATOM     16  C   UNL d   1       2.038   5.105   0.016  0.00  0.00    -0.028 A 
ATOM     17  C   UNL d   1       1.389   5.730   1.099  0.00  0.00    -0.054 A 
ATOM     18  C   UNL d   1       0.847   4.982   2.285  0.00  0.00     0.049 C 
ATOM     19  C   UNL d   1       1.212   7.127   1.071  0.00  0.00     0.007 A 
ATOM     20  C   UNL d   1       1.685   7.897   0.008  0.00  0.00     0.001 A 
ATOM     21  C   UNL d   1       2.324   7.282  -1.059  0.00  0.00     0.001 A 
ATOM     22  C   UNL d   1       2.491   5.901  -1.056  0.00  0.00     0.010 A 
ENDBRANCH  15  16
ENDBRANCH  14  15
ENDBRANCH   2  14
TORSDOF 3
