REMARK  3 active torsions:
REMARK  status: ('A' for Active; 'I' for Inactive)
REMARK       I    between atoms: C_7  and  N_16 
REMARK       I    between atoms: N_11  and  C_7 
REMARK    1  A    between atoms: N_16  and  C_10 
REMARK    2  A    between atoms: C_13  and  N_11 
REMARK    3  A    between atoms: N_12  and  C_15 
ROOT
ATOM      1  C   UNL d   1      -6.206   0.975   0.079  0.00  0.00     0.325 C 
ATOM      2  N   UNL d   1      -4.854   0.676  -0.008  0.00  0.00    -0.307 N 
ATOM      3  N   UNL d   1      -6.909  -0.130   0.524  0.00  0.00    -0.309 N 
ATOM      4  O   UNL d   1      -6.706   2.049  -0.226  0.00  0.00    -0.247 OA
ATOM      5  H   UNL d   1      -4.646  -0.238  -0.394  0.00  0.00     0.170 HD
ATOM      6  H   UNL d   1      -6.394  -0.717   1.165  0.00  0.00     0.170 HD
ENDROOT
BRANCH   3   7
ATOM      7  C   UNL d   1      -8.287  -0.376   0.354  0.00  0.00     0.038 A 
ATOM      8  C   UNL d   1      -9.037   0.296  -0.632  0.00  0.00     0.062 A 
ATOM      9  C   UNL d   1     -10.363  -0.161  -0.839  0.00  0.00     0.069 A 
ATOM     10  C   UNL d   1     -10.937  -1.271  -0.001  0.00  0.00     0.067 A 
ATOM     11  N   UNL d   1     -11.219   0.291  -1.769  0.00  0.00    -0.310 N 
ATOM     12  N   UNL d   1     -12.193  -1.599  -0.341  0.00  0.00    -0.310 N 
ATOM     13  C   UNL d   1     -10.171  -1.876   1.021  0.00  0.00     0.035 A 
ATOM     14  S   UNL d   1     -12.606  -0.609  -1.610  0.00  0.00     0.068 SA
ATOM     15  HN  UNL d   1     -12.777  -2.314   0.093  1.00  0.00     0.176 HD
ATOM     16  C   UNL d   1      -8.848  -1.410   1.154  0.00  0.00     0.032 A 
ATOM     17  HN  UNL d   1     -11.050   1.039  -2.441  1.00  0.00     0.176 HD
ENDBRANCH   3   7
BRANCH   2  18
ATOM     18  C   UNL d   1      -3.876   1.639  -0.346  0.00  0.00     0.057 A 
ATOM     19  C   UNL d   1      -2.869   1.277  -1.283  0.00  0.00     0.037 A 
ATOM     20  C   UNL d   1      -1.825   2.191  -1.486  0.00  0.00     0.026 A 
ATOM     21  C   UNL d   1      -1.785   3.415  -0.804  0.00  0.00     0.002 A 
ATOM     22  C   UNL d   1      -2.797   3.755   0.090  0.00  0.00     0.002 A 
ATOM     23  C   UNL d   1      -3.849   2.873   0.311  0.00  0.00     0.031 A 
BRANCH  19  24
ATOM     24  N   UNL d   1      -2.954   0.042  -1.961  0.00  0.00    -0.281 NA
ATOM     25  C   UNL d   1      -1.707  -0.521  -2.508  0.00  0.00     0.096 C 
ATOM     26  C   UNL d   1      -1.930  -2.010  -2.768  0.00  0.00     0.015 C 
ATOM     27  C   UNL d   1      -3.129  -2.251  -3.687  0.00  0.00     0.002 C 
ATOM     28  C   UNL d   1      -4.369  -1.484  -3.224  0.00  0.00     0.015 C 
ATOM     29  C   UNL d   1      -4.053  -0.011  -2.954  0.00  0.00     0.096 C 
ENDBRANCH  19  24
ENDBRANCH   2  18
TORSDOF 3
