REMARK  4 active torsions:
REMARK  status: ('A' for Active; 'I' for Inactive)
REMARK    1  A    between atoms: C_5  and  C_1 
REMARK    2  A    between atoms: N_2  and  C_3 
REMARK       I    between atoms: N_14  and  C_5 
REMARK    3  A    between atoms: C_10  and  N_13 
REMARK    4  A    between atoms: N_13  and  N_14 
ROOT
ATOM      1  C   UNL d   1       6.033   0.555   1.379  0.00  0.00     0.136 C 
ATOM      2  C   UNL d   1       5.202   0.849   2.490  0.00  0.00     0.111 C 
ATOM      3  C   UNL d   1       7.111   1.437   1.077  0.00  0.00     0.111 C 
ATOM      4  N   UNL d   1       4.551   1.087   3.421  0.00  0.00    -0.191 NA
ATOM      5  N   UNL d   1       7.991   2.144   0.802  0.00  0.00    -0.191 NA
ATOM      6  C   UNL d   1       5.838  -0.536   0.623  0.00  0.00     0.114 C 
ENDROOT
BRANCH   6   7
ATOM      7  N   UNL d   1       4.838  -1.494   0.646  0.00  0.00    -0.212 NA
ATOM      8  H   UNL d   1       4.908  -2.139  -0.153  0.00  0.00     0.152 HD
BRANCH   7   9
ATOM      9  N   UNL d   1       3.487  -1.119   0.867  0.00  0.00    -0.283 N 
ATOM     10  C   UNL d   1       2.871  -0.295  -0.072  0.00  0.00     0.268 C 
ATOM     11  O   UNL d   1       3.483   0.414  -0.869  0.00  0.00    -0.266 OA
ATOM     12  H   UNL d   1       2.953  -1.765   1.445  0.00  0.00     0.184 HD
BRANCH  10  13
ATOM     13  C   UNL d   1       1.383  -0.256  -0.076  0.00  0.00     0.060 A 
ATOM     14  C   UNL d   1       0.528  -1.373  -0.013  0.00  0.00     0.054 A 
ATOM     15  C   UNL d   1      -0.864  -1.171   0.064  0.00  0.00     0.031 A 
ATOM     16  C   UNL d   1      -1.402   0.117   0.020  0.00  0.00     0.002 A 
ATOM     17  C   UNL d   1      -0.560   1.219  -0.086  0.00  0.00     0.001 A 
ATOM     18  C   UNL d   1       0.822   1.034  -0.126  0.00  0.00     0.019 A 
BRANCH  14  19
ATOM     19  N   UNL d   1       0.996  -2.712  -0.092  0.00  0.00    -0.332 N 
ATOM     20  C   UNL d   1       0.423  -3.806   0.529  0.00  0.00     0.096 A 
ATOM     21  C   UNL d   1       1.207  -4.915   0.298  0.00  0.00     0.019 A 
ATOM     22  C   UNL d   1       2.261  -4.513  -0.548  0.00  0.00     0.019 A 
ATOM     23  C   UNL d   1       2.082  -3.174  -0.811  0.00  0.00     0.096 A 
ENDBRANCH  14  19
ENDBRANCH  10  13
ENDBRANCH   7   9
ENDBRANCH   6   7
TORSDOF 4
