REMARK  7 active torsions:
REMARK  status: ('A' for Active; 'I' for Inactive)
REMARK    1  A    between atoms: C_8  and  N_1 
REMARK    2  A    between atoms: S_10  and  C_2 
REMARK    3  A    between atoms: O_23  and  C_3 
REMARK    4  A    between atoms: N_9  and  C_13 
REMARK    5  A    between atoms: C_16  and  S_10 
REMARK    6  A    between atoms: C_14  and  C_16 
REMARK    7  A    between atoms: C_15  and  C_14 
ROOT
ATOM      1  C   UNL d   1       3.685  -3.925  -0.045  0.00  0.00     0.169 C 
ATOM      2  O   UNL d   1       2.818  -3.616   0.768  0.00  0.00    -0.291 OA
ENDROOT
BRANCH   1   3
ATOM      3  C   UNL d   1       3.510  -4.995  -1.112  0.00  0.00     0.166 C 
BRANCH   3   4
ATOM      4  S   UNL d   1       1.839  -5.739  -1.202  0.00  0.00    -0.085 SA
BRANCH   4   5
ATOM      5  C   UNL d   1       2.159  -6.952  -2.406  0.00  0.00     0.165 A 
ATOM      6  N   UNL d   1       1.311  -7.919  -2.901  0.00  0.00    -0.286 N 
ATOM      7  C   UNL d   1       2.108  -8.689  -3.727  0.00  0.00     0.240 A 
ATOM      8  N   UNL d   1       3.306  -8.167  -3.813  0.00  0.00    -0.263 N 
ATOM      9  N   UNL d   1       3.342  -7.083  -2.976  0.00  0.00    -0.277 N 
ATOM     10  HN  UNL d   1       4.071  -8.505  -4.397  1.00  0.00     0.190 HD
ATOM     11  HN  UNL d   1       4.149  -6.479  -2.819  1.00  0.00     0.189 HD
BRANCH   6  12
ATOM     12  C   UNL d   1      -0.109  -8.181  -2.729  0.00  0.00     0.096 A 
ATOM     13  C   UNL d   1      -1.164  -7.118  -2.505  0.00  0.00     0.028 A 
ATOM     14  C   UNL d   1      -0.831  -8.067  -1.404  0.00  0.00     0.028 A 
ENDBRANCH   6  12
BRANCH   7  15
ATOM     15  O   UNL d   1       1.764  -9.809  -4.355  0.00  0.00    -0.331 OA
ATOM     16  H   UNL d   1       1.048 -10.236  -3.864  0.00  0.00     0.221 HD
ENDBRANCH   7  15
ENDBRANCH   4   5
ENDBRANCH   3   4
ENDBRANCH   1   3
BRANCH   1  17
ATOM     17  C   UNL d   1       5.018  -3.221   0.006  0.00  0.00     0.011 A 
ATOM     18  C   UNL d   1       6.080  -3.567  -0.834  0.00  0.00     0.017 A 
ATOM     19  C   UNL d   1       7.310  -2.889  -0.756  0.00  0.00     0.030 A 
ATOM     20  C   UNL d   1       7.530  -1.841   0.146  0.00  0.00     0.030 A 
ATOM     21  C   UNL d   1       6.453  -1.508   0.983  0.00  0.00     0.030 A 
ATOM     22  C   UNL d   1       5.220  -2.185   0.924  0.00  0.00     0.017 A 
BRANCH  20  23
ATOM     23  N   UNL d   1       8.747  -1.194   0.256  0.00  0.00    -0.377 N 
ATOM     24  C   UNL d   1      10.021  -1.812  -0.150  0.00  0.00     0.149 C 
ATOM     25  C   UNL d   1      10.558  -1.156  -1.429  0.00  0.00     0.187 C 
ATOM     26  O   UNL d   1      10.713   0.262  -1.253  0.00  0.00    -0.388 OA
ATOM     27  C   UNL d   1       9.445   0.866  -0.943  0.00  0.00     0.187 C 
ATOM     28  C   UNL d   1       8.815   0.279   0.338  0.00  0.00     0.149 C 
ENDBRANCH  20  23
ENDBRANCH   1  17
TORSDOF 7
