REMARK  2 active torsions:
REMARK  status: ('A' for Active; 'I' for Inactive)
REMARK    1  A    between atoms: N_8  and  N_5 
REMARK    2  A    between atoms: C_11  and  N_8 
ROOT
ATOM      1  C   UNL d   1       0.023   0.736   0.011  0.00  0.00     0.006 A 
ATOM      2  C   UNL d   1      -1.299   1.448   0.016  0.00  0.00     0.033 C 
ATOM      3  C   UNL d   1       0.113  -0.664  -0.071  0.00  0.00     0.013 A 
ATOM      4  S   UNL d   1      -1.280  -1.775  -0.140  0.00  0.00    -0.124 SA
ATOM      5  N   UNL d   1      -1.327   2.710   0.347  0.00  0.00    -0.320 N 
ATOM      6  HN  UNL d   1      -0.466   3.213   0.560  1.00  0.00     0.181 HD
ATOM      7  C   UNL d   1      -2.517   0.641  -0.414  0.00  0.00     0.074 C 
ATOM      8  C   UNL d   1       1.198   1.502   0.087  0.00  0.00     0.038 A 
ATOM      9  C   UNL d   1      -2.611  -0.652   0.382  0.00  0.00     0.054 C 
ATOM     10  C   UNL d   1       1.379  -1.271  -0.098  0.00  0.00     0.021 A 
ATOM     11  C   UNL d   1       2.446   0.880   0.065  0.00  0.00     0.035 A 
ATOM     12  C   UNL d   1       2.543  -0.504  -0.031  0.00  0.00     0.025 A 
ATOM     13 CL   UNL d   1       3.879   1.827   0.148  0.00  0.00    -0.084 Cl
ATOM     14  C   UNL d   1      -3.947  -1.353   0.154  0.00  0.00     0.022 C 
ENDROOT
BRANCH   5  15
ATOM     15  N   UNL d   1      -2.533   3.339   0.402  0.00  0.00    -0.206 NA
ATOM     16  H   UNL d   1      -3.273   2.850   0.905  0.00  0.00     0.153 HD
BRANCH  15  17
ATOM     17  C   UNL d   1      -2.527   4.716   0.740  0.00  0.00     0.030 A 
ATOM     18  C   UNL d   1      -1.454   5.559   0.424  0.00  0.00     0.049 A 
ATOM     19  C   UNL d   1      -1.513   6.924   0.723  0.00  0.00     0.037 A 
ATOM     20 CL   UNL d   1      -0.182   7.944   0.330  0.00  0.00    -0.084 Cl
ATOM     21  C   UNL d   1      -2.639   7.473   1.328  0.00  0.00     0.047 A 
ATOM     22  C   UNL d   1      -3.718   6.646   1.617  0.00  0.00     0.037 A 
ATOM     23  C   UNL d   1      -3.675   5.284   1.311  0.00  0.00     0.049 A 
ATOM     24 CL   UNL d   1      -5.125   7.305   2.359  0.00  0.00    -0.084 Cl
ENDBRANCH  15  17
ENDBRANCH   5  15
TORSDOF 2
