REMARK  4 active torsions:
REMARK  status: ('A' for Active; 'I' for Inactive)
REMARK    1  A    between atoms: C_2  and  S_1 
REMARK    2  A    between atoms: N_3  and  S_1 
REMARK    3  A    between atoms: C_10  and  N_4 
REMARK    4  A    between atoms: O_19  and  C_17 
ROOT
ATOM      1  N   UNL d   1       0.820   1.080  -0.175  0.00  0.00    -0.304 N 
ATOM      2  N   UNL d   1      -0.001   3.180  -1.908  0.00  0.00    -0.376 N 
ATOM      3  C   UNL d   1      -0.193   0.833  -1.222  0.00  0.00     0.155 C 
ATOM      4  C   UNL d   1       0.899   2.477   0.302  0.00  0.00     0.155 C 
ATOM      5  C   UNL d   1       0.053   1.785  -2.410  0.00  0.00     0.143 C 
ATOM      6  C   UNL d   1       1.056   3.442  -0.898  0.00  0.00     0.143 C 
ENDROOT
BRANCH   1   7
ATOM      7  S   UNL d   1       1.799  -0.138   0.379  0.00  0.00     0.261 S 
ATOM      8  O   UNL d   1       2.235  -0.893  -0.781  0.00  0.00    -0.200 OA
ATOM      9  O   UNL d   1       2.743   0.396   1.331  0.00  0.00    -0.200 OA
BRANCH   7  10
ATOM     10  C   UNL d   1       0.654  -1.156   1.284  0.00  0.00     0.080 A 
ATOM     11  C   UNL d   1       0.357  -2.452   0.834  0.00  0.00     0.035 A 
ATOM     12  C   UNL d   1      -0.538  -3.247   1.560  0.00  0.00    -0.021 A 
ATOM     13  C   UNL d   1      -0.891  -4.632   1.105  0.00  0.00     0.051 C 
ATOM     14  C   UNL d   1      -1.130  -2.719   2.717  0.00  0.00     0.128 A 
ATOM     15  C   UNL d   1      -0.838  -1.432   3.171  0.00  0.00    -0.021 A 
ATOM     16  F   UNL d   1      -1.994  -3.485   3.406  0.00  0.00    -0.205 F 
ATOM     17  C   UNL d   1       0.070  -0.649   2.449  0.00  0.00     0.035 A 
ATOM     18  C   UNL d   1      -1.465  -0.891   4.421  0.00  0.00     0.051 C 
ENDBRANCH   7  10
ENDBRANCH   1   7
BRANCH   2  19
ATOM     19  C   UNL d   1      -0.320   4.164  -2.853  0.00  0.00     0.064 A 
ATOM     20  C   UNL d   1      -1.554   4.184  -3.550  0.00  0.00     0.094 A 
ATOM     21  C   UNL d   1      -1.862   5.211  -4.457  0.00  0.00     0.039 A 
ATOM     22  C   UNL d   1      -0.965   6.245  -4.693  0.00  0.00     0.003 A 
ATOM     23  C   UNL d   1       0.261   6.242  -4.043  0.00  0.00     0.002 A 
ATOM     24  C   UNL d   1       0.573   5.218  -3.138  0.00  0.00     0.032 A 
BRANCH  20  25
ATOM     25  O   UNL d   1      -2.525   3.212  -3.490  0.00  0.00    -0.354 OA
ATOM     26  C   UNL d   1      -3.014   2.923  -2.188  0.00  0.00     0.210 C 
ENDBRANCH  20  25
ENDBRANCH   2  19
TORSDOF 4
