REMARK  2 active torsions:
REMARK  status: ('A' for Active; 'I' for Inactive)
REMARK    1  A    between atoms: N_8  and  C_1 
REMARK       I    between atoms: C_4  and  N_7 
REMARK       I    between atoms: N_9  and  C_4 
REMARK    2  A    between atoms: C_15  and  N_9 
ROOT
ATOM      1  C   UNL d   1      -3.306   2.052   3.837  0.00  0.00     0.323 C 
ATOM      2  N   UNL d   1      -2.216   2.382   3.021  0.00  0.00    -0.331 N 
ATOM      3  N   UNL d   1       0.064   2.544   1.102  0.00  0.00     0.105 N 
ATOM      4  N   UNL d   1      -4.351   2.947   3.812  0.00  0.00    -0.309 N 
ATOM      5  O   UNL d   1      -3.290   1.029   4.519  0.00  0.00    -0.247 OA
ATOM      6  C   UNL d   1      -1.194   1.339   2.937  0.00  0.00     0.158 C 
ATOM      7  C   UNL d   1      -2.286   3.296   1.874  0.00  0.00     0.158 C 
ATOM      8  C   UNL d   1      -0.931   3.619   1.185  0.00  0.00     0.293 C 
ATOM      9  C   UNL d   1       0.140   1.857   2.402  0.00  0.00     0.293 C 
ATOM     10  H   UNL d   1      -4.241   3.768   3.247  0.00  0.00     0.170 HD
ENDROOT
BRANCH   3  11
ATOM     11  C   UNL d   1       0.034   1.703  -0.115  0.00  0.00     0.290 C 
ATOM     12  C   UNL d   1      -1.257   0.949  -0.423  0.00  0.00    -0.009 C 
ATOM     13  C   UNL d   1      -1.061  -0.441  -0.261  0.00  0.00    -0.017 C 
ATOM     14  C   UNL d   1      -2.474   1.441  -0.871  0.00  0.00     0.010 C 
ATOM     15  C   UNL d   1      -2.126  -1.320  -0.372  0.00  0.00     0.013 C 
ATOM     16  C   UNL d   1       0.345  -0.690  -0.029  0.00  0.00    -0.017 A 
ATOM     17  C   UNL d   1      -3.381  -0.809  -0.713  0.00  0.00     0.001 C 
ATOM     18  C   UNL d   1      -3.546   0.555  -0.994  0.00  0.00     0.001 C 
ATOM     19  C   UNL d   1       1.033   0.544  -0.023  0.00  0.00    -0.009 A 
ATOM     20  C   UNL d   1       1.035  -1.877   0.149  0.00  0.00     0.013 A 
ATOM     21  C   UNL d   1       2.410   0.606   0.142  0.00  0.00     0.010 A 
ATOM     22  C   UNL d   1       3.102  -0.591   0.329  0.00  0.00     0.001 A 
ATOM     23  C   UNL d   1       2.421  -1.821   0.336  0.00  0.00     0.001 A 
ENDBRANCH   3  11
BRANCH   4  24
ATOM     24  C   UNL d   1      -5.570   2.862   4.524  0.00  0.00     0.036 A 
ATOM     25  C   UNL d   1      -5.895   1.829   5.404  0.00  0.00     0.029 A 
ATOM     26  C   UNL d   1      -7.135   1.804   6.051  0.00  0.00     0.002 A 
ATOM     27  C   UNL d   1      -8.061   2.819   5.827  0.00  0.00     0.000 A 
ATOM     28  C   UNL d   1      -7.742   3.864   4.966  0.00  0.00     0.002 A 
ATOM     29  C   UNL d   1      -6.500   3.889   4.323  0.00  0.00     0.029 A 
ENDBRANCH   4  24
TORSDOF 2
