REMARK  2 active torsions:
REMARK  status: ('A' for Active; 'I' for Inactive)
REMARK    1  A    between atoms: C_6  and  N_1 
REMARK    2  A    between atoms: N_9  and  C_6 
ROOT
ATOM      1  N   UNL d   1       1.862   0.058  -0.079  0.00  0.00    -0.252 N 
ATOM      2  C   UNL d   1       1.064   1.156  -0.244  0.00  0.00     0.263 A 
ATOM      3  C   UNL d   1       1.127  -1.092  -0.006  0.00  0.00     0.263 A 
ATOM      4  C   UNL d   1      -0.315   0.686  -0.141  0.00  0.00     0.048 A 
ATOM      5  C   UNL d   1      -0.277  -0.690  -0.019  0.00  0.00     0.048 A 
ATOM      6  O   UNL d   1       1.368   2.315  -0.459  0.00  0.00    -0.267 OA
ATOM      7  O   UNL d   1       1.497  -2.250   0.054  0.00  0.00    -0.267 OA
ATOM      8  C   UNL d   1      -1.505   1.386  -0.148  0.00  0.00     0.018 A 
ATOM      9  C   UNL d   1      -1.426  -1.450   0.077  0.00  0.00     0.018 A 
ATOM     10  C   UNL d   1      -2.645  -0.765   0.066  0.00  0.00     0.001 A 
ATOM     11  C   UNL d   1      -2.684   0.642  -0.037  0.00  0.00     0.001 A 
ENDROOT
BRANCH   1  12
ATOM     12  C   UNL d   1       3.304   0.085  -0.124  0.00  0.00     0.407 C 
BRANCH  12  13
ATOM     13  N   UNL d   1       3.920   0.326   1.187  0.00  0.00     0.097 N 
ATOM     14  C   UNL d   1       3.630   1.649   1.728  0.00  0.00     0.311 C 
ATOM     15  C   UNL d   1       3.635  -0.722   2.161  0.00  0.00     0.311 C 
ENDBRANCH  12  13
ENDBRANCH   1  12
TORSDOF 2
