REMARK  4 active torsions:
REMARK  status: ('A' for Active; 'I' for Inactive)
REMARK    1  A    between atoms: S_10  and  C_3 
REMARK    2  A    between atoms: C_8  and  C_9 
REMARK    3  A    between atoms: C_9  and  C_13 
REMARK    4  A    between atoms: C_13  and  S_10 
ROOT
ATOM      1  N   UNL d   1       0.517   0.692   0.011  0.00  0.00    -0.159 N 
ATOM      2  C   UNL d   1       0.286  -0.656   0.103  0.00  0.00     0.697 A 
ATOM      3  C   UNL d   1       1.868   0.835  -0.066  0.00  0.00     0.177 A 
ATOM      4  N   UNL d   1       1.435  -1.290   0.118  0.00  0.00    -0.130 N 
ATOM      5  HN  UNL d   1       1.564  -2.299   0.196  1.00  0.00     0.205 HD
ATOM      6  N   UNL d   1       2.440  -0.347   0.009  0.00  0.00    -0.265 N 
ATOM      7  HN  UNL d   1       3.442  -0.533  -0.010  1.00  0.00     0.189 HD
ATOM      8  N   UNL d   1      -0.974  -1.137   0.159  0.00  0.00    -0.225 N 
ATOM      9  C   UNL d   1      -0.531   1.681  -0.083  0.00  0.00     0.151 C 
ATOM     10  C   UNL d   1      -1.897   1.108   0.301  0.00  0.00     0.041 C 
ATOM     11  C   UNL d   1      -2.067  -0.292  -0.286  0.00  0.00     0.139 C 
ATOM     12  H   UNL d   1      -1.078  -2.136  -0.004  0.00  0.00     0.177 HD
ENDROOT
BRANCH   3  13
ATOM     13  S   UNL d   1       2.659   2.356  -0.270  0.00  0.00    -0.084 SA
BRANCH  13  14
ATOM     14  C   UNL d   1       4.398   1.812  -0.321  0.00  0.00     0.166 C 
BRANCH  14  15
ATOM     15  C   UNL d   1       5.371   2.974  -0.526  0.00  0.00     0.175 C 
ATOM     16  O   UNL d   1       4.983   4.138  -0.638  0.00  0.00    -0.291 OA
BRANCH  15  17
ATOM     17  C   UNL d   1       6.802   2.659  -0.596  0.00  0.00     0.051 A 
ATOM     18  S   UNL d   1       7.412   1.066  -0.427  0.00  0.00    -0.098 SA
ATOM     19  C   UNL d   1       9.026   1.577  -0.654  0.00  0.00     0.050 A 
ATOM     20  C   UNL d   1       9.113   2.937  -0.842  0.00  0.00     0.009 A 
ATOM     21  C   UNL d   1       7.833   3.561  -0.801  0.00  0.00     0.023 A 
ENDBRANCH  15  17
ENDBRANCH  14  15
ENDBRANCH  13  14
ENDBRANCH   3  13
TORSDOF 4
