REMARK  0 active torsions:
REMARK  status: ('A' for Active; 'I' for Inactive)
REMARK       I    between atoms: C_4  and  N_1 
ROOT
ATOM      1  N   UNL d   1      -0.025  -0.719   1.258  0.00  0.00    -0.281 N 
ATOM      2  C   UNL d   1       1.182  -0.471   0.526  0.00  0.00     0.052 A 
ATOM      3  C   UNL d   1      -1.223  -0.429   0.529  0.00  0.00     0.052 A 
ATOM      4  C   UNL d   1      -0.024  -1.512   2.411  0.00  0.00     0.225 C 
ATOM      5  C   UNL d   1       0.679   2.004   0.331  0.00  0.00     0.014 C 
ATOM      6  C   UNL d   1      -0.660   2.026   0.327  0.00  0.00     0.014 C 
ATOM      7  C   UNL d   1       1.505   0.820   0.060  0.00  0.00    -0.009 A 
ATOM      8  C   UNL d   1      -1.516   0.865   0.059  0.00  0.00    -0.009 A 
ATOM      9  O   UNL d   1       0.942  -2.151   2.837  0.00  0.00    -0.273 OA
ATOM     10  C   UNL d   1      -2.133  -1.474   0.277  0.00  0.00     0.031 A 
ATOM     11  C   UNL d   1       2.083  -1.524   0.278  0.00  0.00     0.031 A 
ATOM     12  C   UNL d   1      -1.279  -1.461   3.261  0.00  0.00     0.118 C 
ATOM     13  C   UNL d   1      -2.732   1.092  -0.608  0.00  0.00     0.014 A 
ATOM     14  C   UNL d   1       2.726   1.030  -0.605  0.00  0.00     0.014 A 
ATOM     15  C   UNL d   1       3.277  -1.307  -0.412  0.00  0.00     0.002 A 
ATOM     16  C   UNL d   1      -3.325  -1.238  -0.406  0.00  0.00     0.002 A 
ATOM     17  C   UNL d   1       3.602  -0.028  -0.847  0.00  0.00     0.001 A 
ATOM     18  C   UNL d   1      -3.629   0.047  -0.842  0.00  0.00     0.001 A 
ENDROOT
TORSDOF 0
