REMARK  5 active torsions:
REMARK  status: ('A' for Active; 'I' for Inactive)
REMARK    1  A    between atoms: N_10  and  C_1 
REMARK    2  A    between atoms: C_24  and  C_2 
REMARK    3  A    between atoms: C_5  and  O_12 
REMARK       I    between atoms: C_9  and  N_10 
REMARK       I    between atoms: N_22  and  C_9 
REMARK    4  A    between atoms: O_12  and  C_17 
REMARK    5  A    between atoms: C_27  and  N_22 
ROOT
ATOM      1  N   UNL d   1       1.758   1.622   0.814  0.00  0.00    -0.344 N 
ATOM      2  HN  UNL d   1       0.944   2.182   1.068  1.00  0.00     0.167 HD
ATOM      3  C   UNL d   1       2.930   2.192   0.462  0.00  0.00     0.149 A 
ATOM      4  C   UNL d   1       2.779  -0.556   0.419  0.00  0.00     0.051 A 
ATOM      5  C   UNL d   1       1.718   0.261   0.811  0.00  0.00     0.119 A 
ATOM      6  C   UNL d   1       4.061   1.466   0.117  0.00  0.00     0.059 A 
ATOM      7  C   UNL d   1       3.985   0.074   0.105  0.00  0.00     0.035 A 
ENDROOT
BRANCH   4   8
ATOM      8  N   UNL d   1       2.695  -1.949   0.195  0.00  0.00    -0.307 N 
ATOM      9  C   UNL d   1       1.563  -2.735   0.320  0.00  0.00     0.325 C 
ATOM     10  N   UNL d   1       1.667  -3.853  -0.491  0.00  0.00    -0.304 N 
ATOM     11  O   UNL d   1       0.568  -2.439   0.974  0.00  0.00    -0.247 OA
ATOM     12  H   UNL d   1       2.244  -3.721  -1.311  0.00  0.00     0.171 HD
ATOM     13  H   UNL d   1       3.534  -2.415  -0.116  0.00  0.00     0.170 HD
BRANCH  10  14
ATOM     14  C   UNL d   1       0.669  -4.816  -0.637  0.00  0.00     0.097 C 
ATOM     15  C   UNL d   1       0.272  -5.433  -1.871  0.00  0.00     0.094 C 
ATOM     16  N   UNL d   1      -0.592  -6.432  -1.642  0.00  0.00    -0.258 N 
ATOM     17  O   UNL d   1      -0.888  -6.374  -0.299  0.00  0.00    -0.240 OA
ATOM     18  HN  UNL d   1      -0.954  -7.099  -2.323  1.00  0.00     0.195 HD
ATOM     19  C   UNL d   1      -0.178  -5.374   0.295  0.00  0.00     0.101 C 
ATOM     20  C   UNL d   1      -0.493  -5.178   1.722  0.00  0.00     0.081 C 
BRANCH  15  21
ATOM     21  C   UNL d   1       0.548  -4.989  -3.237  0.00  0.00    -0.005 A 
ATOM     22  C   UNL d   1       0.694  -5.901  -4.289  0.00  0.00     0.014 A 
ATOM     23  C   UNL d   1       0.805  -5.446  -5.606  0.00  0.00     0.001 A 
ATOM     24  C   UNL d   1       0.772  -4.078  -5.883  0.00  0.00     0.000 A 
ATOM     25  C   UNL d   1       0.636  -3.161  -4.845  0.00  0.00     0.001 A 
ATOM     26  C   UNL d   1       0.522  -3.614  -3.530  0.00  0.00     0.014 A 
ENDBRANCH  15  21
ENDBRANCH  10  14
ENDBRANCH   4   8
BRANCH   3  27
ATOM     27  O   UNL d   1       2.985   3.549   0.183  0.00  0.00    -0.276 OA
BRANCH  27  28
ATOM     28  C   UNL d   1       2.241   4.392   0.992  0.00  0.00     0.163 A 
ATOM     29  C   UNL d   1       1.496   5.398   0.361  0.00  0.00     0.042 A 
ATOM     30  C   UNL d   1       0.961   6.357   1.230  0.00  0.00     0.049 A 
ATOM     31  C   UNL d   1       1.280   5.507  -1.034  0.00  0.00     0.020 A 
ATOM     32  C   UNL d   1       0.240   7.416   0.690  0.00  0.00     0.054 A 
ATOM     33  N   UNL d   1       1.140   6.303   2.554  0.00  0.00    -0.351 N 
ATOM     34  C   UNL d   1       0.036   7.527  -0.686  0.00  0.00     0.036 A 
ATOM     35  C   UNL d   1       0.549   6.572  -1.554  0.00  0.00     0.025 A 
ATOM     36 CL   UNL d   1      -0.851   8.863  -1.315  0.00  0.00    -0.084 Cl
ATOM     37  C   UNL d   1       1.879   5.289   3.034  0.00  0.00     0.182 A 
ATOM     38  HN  UNL d   1       0.732   7.002   3.175  1.00  0.00     0.166 HD
ATOM     39  N   UNL d   1       2.476   4.335   2.316  0.00  0.00    -0.332 N 
ATOM     40  HN  UNL d   1       3.064   3.617   2.739  1.00  0.00     0.168 HD
ENDBRANCH  27  28
ENDBRANCH   3  27
TORSDOF 5
