REMARK  6 active torsions:
REMARK  status: ('A' for Active; 'I' for Inactive)
REMARK    1  A    between atoms: C_12  and  N_1 
REMARK    2  A    between atoms: N_7  and  N_2 
REMARK    3  A    between atoms: O_21  and  C_9 
REMARK    4  A    between atoms: O_23  and  C_10 
REMARK    5  A    between atoms: O_24  and  C_11 
REMARK    6  A    between atoms: C_16  and  C_15 
ROOT
ATOM      1  N   UNL d   1      -0.277  -1.391   0.275  0.00  0.00    -0.308 N 
ATOM      2  N   UNL d   1       0.828   1.082   0.338  0.00  0.00    -0.251 N 
ATOM      3  C   UNL d   1      -1.101  -0.364   0.773  0.00  0.00     0.244 C 
ATOM      4  C   UNL d   1       1.501   0.157  -0.474  0.00  0.00     0.257 C 
ATOM      5  C   UNL d   1      -0.634   1.031   0.362  0.00  0.00     0.255 C 
ATOM      6  C   UNL d   1       0.622  -1.034  -0.832  0.00  0.00     0.236 C 
ATOM      7  O   UNL d   1       2.615   0.293  -0.973  0.00  0.00    -0.270 OA
ATOM      8  O   UNL d   1      -2.133  -0.500   1.418  0.00  0.00    -0.271 OA
ENDROOT
BRANCH   2   9
ATOM      9  N   UNL d   1       1.364   2.268   0.769  0.00  0.00    -0.306 N 
ATOM     10  C   UNL d   1       2.645   2.417   0.873  0.00  0.00     0.119 C 
ATOM     11  HN  UNL d   1       0.746   3.043   1.011  1.00  0.00     0.186 HD
BRANCH  10  12
ATOM     12  C   UNL d   1       3.186   3.707   1.339  0.00  0.00    -0.014 A 
ATOM     13  C   UNL d   1       2.369   4.566   2.069  0.00  0.00     0.052 A 
ATOM     14  C   UNL d   1       2.853   5.795   2.534  0.00  0.00     0.105 A 
ATOM     15  C   UNL d   1       4.171   6.193   2.216  0.00  0.00     0.135 A 
ATOM     16  C   UNL d   1       4.976   5.313   1.450  0.00  0.00     0.105 A 
ATOM     17  C   UNL d   1       4.492   4.063   1.044  0.00  0.00     0.052 A 
BRANCH  14  18
ATOM     18  O   UNL d   1       2.023   6.628   3.247  0.00  0.00    -0.353 OA
ATOM     19  C   UNL d   1       1.118   5.973   4.140  0.00  0.00     0.210 C 
ENDBRANCH  14  18
BRANCH  15  20
ATOM     20  O   UNL d   1       4.790   7.352   2.607  0.00  0.00    -0.351 OA
ATOM     21  C   UNL d   1       4.152   8.220   3.531  0.00  0.00     0.210 C 
ENDBRANCH  15  20
BRANCH  16  22
ATOM     22  O   UNL d   1       6.290   5.507   1.100  0.00  0.00    -0.353 OA
ATOM     23  C   UNL d   1       6.644   6.807   0.641  0.00  0.00     0.210 C 
ENDBRANCH  16  22
ENDBRANCH  10  12
ENDBRANCH   2   9
BRANCH   1  24
ATOM     24  C   UNL d   1      -0.476  -2.775   0.571  0.00  0.00     0.037 A 
ATOM     25  C   UNL d   1      -1.726  -3.287   0.946  0.00  0.00     0.031 A 
ATOM     26  C   UNL d   1      -1.903  -4.653   1.197  0.00  0.00     0.026 A 
ATOM     27  C   UNL d   1      -0.823  -5.521   1.099  0.00  0.00     0.034 A 
ATOM     28  C   UNL d   1       0.434  -5.036   0.764  0.00  0.00     0.026 A 
ATOM     29 CL   UNL d   1      -1.041  -7.202   1.390  0.00  0.00    -0.084 Cl
ATOM     30  C   UNL d   1       0.605  -3.671   0.504  0.00  0.00     0.031 A 
ENDBRANCH   1  24
TORSDOF 6
