REMARK  4 active torsions:
REMARK  status: ('A' for Active; 'I' for Inactive)
REMARK    1  A    between atoms: C_3  and  C_1 
REMARK    2  A    between atoms: N_10  and  C_3 
REMARK    3  A    between atoms: O_12  and  N_8 
REMARK    4  A    between atoms: C_13  and  O_12 
ROOT
ATOM      1  C   UNL d   1      -1.025  -2.563  -0.097  0.00  0.00     0.128 C 
ATOM      2  N   UNL d   1      -1.891  -3.536  -0.024  0.00  0.00    -0.254 N 
ATOM      3  HN  UNL d   1      -1.632  -4.523  -0.011  1.00  0.00     0.195 HD
ENDROOT
BRANCH   1   4
ATOM      4  C   UNL d   1      -1.315  -1.112  -0.045  0.00  0.00     0.106 A 
ATOM      5  C   UNL d   1      -0.604  -0.026  -0.631  0.00  0.00     0.059 A 
ATOM      6  C   UNL d   1      -1.279   1.118  -0.294  0.00  0.00     0.128 A 
ATOM      7 BR   UNL d   1       0.939  -0.084  -1.694  0.00  0.00    -0.047 Br
ATOM      8  N   UNL d   1      -2.331   0.703   0.459  0.00  0.00    -0.310 N 
ATOM      9  N   UNL d   1      -2.345  -0.618   0.677  0.00  0.00    -0.297 N 
ATOM     10  H   UNL d   1      -3.069   1.263   0.873  0.00  0.00     0.186 HD
ATOM     11  HN  UNL d   1      -2.996  -1.140   1.264  1.00  0.00     0.187 HD
ENDBRANCH   1   4
BRANCH   1  12
ATOM     12  N   UNL d   1       0.305  -2.877  -0.211  0.00  0.00    -0.285 NA
ATOM     13  H   UNL d   1       0.965  -2.208   0.165  0.00  0.00     0.125 HD
ATOM     14  H   UNL d   1       0.493  -3.836   0.054  0.00  0.00     0.125 HD
ENDBRANCH   1  12
BRANCH   2  15
ATOM     15  O   UNL d   1      -3.214  -3.080   0.034  0.00  0.00    -0.279 OA
BRANCH  15  16
ATOM     16  C   UNL d   1      -4.089  -4.199   0.126  0.00  0.00     0.196 C 
ATOM     17  C   UNL d   1      -5.510  -3.673   0.201  0.00  0.00     0.036 C 
ENDBRANCH  15  16
ENDBRANCH   2  15
TORSDOF 4
