REMARK  1 active torsions:
REMARK  status: ('A' for Active; 'I' for Inactive)
REMARK    1  A    between atoms: C_6  and  N_1 
ROOT
ATOM      1  N   UNL d   1       2.422  -0.592   0.019  0.00  0.00    -0.254 N 
ATOM      2  C   UNL d   1       2.378   0.814   0.001  0.00  0.00     0.186 C 
ATOM      3  C   UNL d   1       1.275  -1.397   0.184  0.00  0.00     0.267 C 
ATOM      4  C   UNL d   1      -0.032  -0.705   0.133  0.00  0.00     0.059 A 
ATOM      5  N   UNL d   1       1.139   1.393   0.100  0.00  0.00    -0.332 N 
ATOM      6  C   UNL d   1      -0.054   0.680   0.096  0.00  0.00     0.050 A 
ATOM      7  S   UNL d   1       3.639   1.911  -0.223  0.00  0.00    -0.040 SA
ATOM      8  O   UNL d   1       1.281  -2.615   0.369  0.00  0.00    -0.267 OA
ATOM      9  C   UNL d   1      -1.231  -1.424   0.083  0.00  0.00     0.019 A 
ATOM     10  C   UNL d   1      -1.265   1.370   0.018  0.00  0.00     0.030 A 
ATOM     11  C   UNL d   1      -2.445  -0.740  -0.017  0.00  0.00     0.001 A 
ATOM     12  C   UNL d   1      -2.461   0.655  -0.051  0.00  0.00     0.002 A 
ATOM     13  H   UNL d   1       1.117   2.405   0.051  0.00  0.00     0.168 HD
ENDROOT
BRANCH   1  14
ATOM     14  C   UNL d   1       3.676  -1.283  -0.126  0.00  0.00     0.051 A 
ATOM     15  C   UNL d   1       3.909  -2.174  -1.199  0.00  0.00    -0.032 A 
ATOM     16  C   UNL d   1       5.180  -2.767  -1.327  0.00  0.00     0.051 A 
ATOM     17  C   UNL d   1       2.896  -2.509  -2.261  0.00  0.00     0.050 C 
ATOM     18  C   UNL d   1       6.197  -2.464  -0.430  0.00  0.00     0.117 A 
ATOM     19  C   UNL d   1       5.975  -1.603   0.632  0.00  0.00     0.044 A 
ATOM     20  F   UNL d   1       7.410  -3.005  -0.601  0.00  0.00    -0.206 F 
ATOM     21  C   UNL d   1       4.714  -1.028   0.793  0.00  0.00     0.034 A 
ENDBRANCH   1  14
TORSDOF 1
