REMARK  5 active torsions:
REMARK  status: ('A' for Active; 'I' for Inactive)
REMARK    1  A    between atoms: S_2  and  C_1 
REMARK    2  A    between atoms: N_15  and  S_2 
REMARK    3  A    between atoms: C_19  and  N_3 
REMARK    4  A    between atoms: C_10  and  C_16 
REMARK    5  A    between atoms: C_16  and  N_15 
ROOT
ATOM      1  N   UNL d   1       5.411  -1.311   5.348  0.00  0.00    -0.197 N 
ATOM      2  N   UNL d   1       5.394  -0.699   4.128  0.00  0.00    -0.280 N 
ATOM      3  HN  UNL d   1       6.181  -0.457   3.526  1.00  0.00     0.189 HD
ATOM      4  N   UNL d   1       4.192  -1.520   5.920  0.00  0.00    -0.282 N 
ATOM      5  HN  UNL d   1       3.972  -1.985   6.801  1.00  0.00     0.189 HD
ATOM      6  C   UNL d   1       4.085  -0.495   3.922  0.00  0.00     0.065 A 
ATOM      7  C   UNL d   1       3.356  -0.962   5.035  0.00  0.00     0.049 A 
ATOM      8  C   UNL d   1       1.901  -0.856   5.287  0.00  0.00     0.072 C 
ENDROOT
BRANCH   6   9
ATOM      9  C   UNL d   1       3.583   0.187   2.692  0.00  0.00     0.165 C 
BRANCH   9  10
ATOM     10  N   UNL d   1       4.069  -0.543   1.511  0.00  0.00    -0.209 NA
ATOM     11  H   UNL d   1       5.081  -0.681   1.536  0.00  0.00     0.140 HD
BRANCH  10  12
ATOM     12  S   UNL d   1       3.576   0.109   0.042  0.00  0.00     0.259 S 
ATOM     13  O   UNL d   1       4.183  -0.673  -1.015  0.00  0.00    -0.204 OA
ATOM     14  O   UNL d   1       3.737   1.544   0.113  0.00  0.00    -0.204 OA
BRANCH  12  15
ATOM     15  C   UNL d   1       1.858  -0.122  -0.165  0.00  0.00     0.161 A 
ATOM     16  N   UNL d   1       1.057  -0.792   0.748  0.00  0.00    -0.335 N 
ATOM     17  C   UNL d   1      -0.163  -0.751   0.247  0.00  0.00     0.079 A 
ATOM     18  HN  UNL d   1       1.350  -1.226   1.623  1.00  0.00     0.168 HD
ATOM     19  C   UNL d   1      -1.368  -1.385   0.840  0.00  0.00     0.089 C 
ATOM     20  N   UNL d   1      -0.182  -0.033  -0.927  0.00  0.00    -0.348 N 
ATOM     21  C   UNL d   1       1.096   0.356  -1.210  0.00  0.00     0.135 A 
ATOM     22  C   UNL d   1      -1.349   0.273  -1.720  0.00  0.00     0.156 C 
ENDBRANCH  12  15
ENDBRANCH  10  12
ENDBRANCH   9  10
ENDBRANCH   6   9
BRANCH   1  23
ATOM     23  C   UNL d   1       6.631  -1.648   5.992  0.00  0.00     0.074 A 
ATOM     24  C   UNL d   1       7.847  -1.227   5.430  0.00  0.00     0.033 A 
ATOM     25  C   UNL d   1       9.053  -1.528   6.063  0.00  0.00     0.002 A 
ATOM     26  C   UNL d   1       9.055  -2.265   7.246  0.00  0.00     0.000 A 
ATOM     27  C   UNL d   1       7.851  -2.694   7.806  0.00  0.00     0.002 A 
ATOM     28  C   UNL d   1       6.634  -2.379   7.187  0.00  0.00     0.033 A 
ENDBRANCH   1  23
TORSDOF 5
