REMARK  6 active torsions:
REMARK  status: ('A' for Active; 'I' for Inactive)
REMARK    1  A    between atoms: C_8  and  C_1 
REMARK    2  A    between atoms: N_5  and  C_4 
REMARK       I    between atoms: C_9  and  N_5 
REMARK    3  A    between atoms: O_19  and  C_8 
REMARK    4  A    between atoms: C_12  and  C_9 
REMARK    5  A    between atoms: N_10  and  C_12 
REMARK    6  A    between atoms: C_21  and  O_19 
ROOT
ATOM      1  N   UNL d   1      -0.011  -2.354  -1.069  0.00  0.00    -0.306 N 
ATOM      2  C   UNL d   1       0.450  -3.469  -0.401  0.00  0.00     0.252 C 
ATOM      3  O   UNL d   1      -0.179  -4.481  -0.121  0.00  0.00    -0.271 OA
ATOM      4  H   UNL d   1       0.654  -1.599  -1.186  0.00  0.00     0.171 HD
ENDROOT
BRANCH   1   5
ATOM      5  C   UNL d   1      -1.298  -2.138  -1.454  0.00  0.00     0.151 A 
ATOM      6  N   UNL d   1      -2.360  -2.892  -1.349  0.00  0.00    -0.331 N 
ATOM      7  C   UNL d   1      -3.466  -2.222  -1.889  0.00  0.00     0.117 A 
ATOM      8  HN  UNL d   1      -2.381  -3.825  -0.937  1.00  0.00     0.168 HD
ATOM      9  C   UNL d   1      -3.174  -0.966  -2.399  0.00  0.00     0.089 A 
ATOM     10  S   UNL d   1      -1.514  -0.609  -2.186  0.00  0.00    -0.063 SA
BRANCH   7  11
ATOM     11  C   UNL d   1      -4.822  -2.780  -1.919  0.00  0.00     0.310 C 
ATOM     12  O   UNL d   1      -5.792  -2.141  -2.316  0.00  0.00    -0.258 OA
BRANCH  11  13
ATOM     13  O   UNL d   1      -4.884  -4.067  -1.473  0.00  0.00    -0.317 OA
BRANCH  13  14
ATOM     14  C   UNL d   1      -6.189  -4.662  -1.467  0.00  0.00     0.175 C 
ATOM     15  C   UNL d   1      -6.559  -5.167  -2.851  0.00  0.00     0.034 C 
ENDBRANCH  13  14
ENDBRANCH  11  13
ENDBRANCH   7  11
ENDBRANCH   1   5
BRANCH   2  16
ATOM     16  C   UNL d   1       1.959  -3.335  -0.079  0.00  0.00     0.375 C 
BRANCH  16  17
ATOM     17  N   UNL d   1       2.317  -1.905   0.027  0.00  0.00     0.100 N 
ATOM     18  C   UNL d   1       1.897  -1.313   1.313  0.00  0.00     0.303 C 
ATOM     19  C   UNL d   1       2.035   0.222   1.224  0.00  0.00     0.302 C 
ATOM     20  N   UNL d   1       3.373   0.720   0.850  0.00  0.00     0.087 N 
ATOM     21  C   UNL d   1       3.991  -0.102  -0.212  0.00  0.00     0.302 C 
ATOM     22  C   UNL d   1       4.239   0.870   2.011  0.00  0.00     0.310 C 
ATOM     23  C   UNL d   1       3.753  -1.635  -0.140  0.00  0.00     0.303 C 
ENDBRANCH  16  17
ENDBRANCH   2  16
TORSDOF 6
