REMARK  3 active torsions:
REMARK  status: ('A' for Active; 'I' for Inactive)
REMARK       I    between atoms: N_3  and  C_1 
REMARK       I    between atoms: N_9  and  C_1 
REMARK    1  A    between atoms: C_2  and  C_4 
REMARK    2  A    between atoms: C_6  and  N_5 
REMARK    3  A    between atoms: C_16  and  N_9 
ROOT
ATOM      1  C   UNL d   1       0.794   0.154   0.015  0.00  0.00     0.319 C 
ATOM      2  N   UNL d   1       0.221   0.926   1.027  0.00  0.00    -0.333 N 
ATOM      3  N   UNL d   1      -2.015   2.390   2.249  0.00  0.00    -0.366 N 
ATOM      4  N   UNL d   1       1.714   0.816  -0.755  0.00  0.00    -0.335 N 
ATOM      5  O   UNL d   1       0.505  -1.028  -0.154  0.00  0.00    -0.247 OA
ATOM      6  C   UNL d   1      -0.770   0.299   1.919  0.00  0.00     0.147 C 
ATOM      7  C   UNL d   1      -2.155   0.973   1.885  0.00  0.00     0.144 C 
ATOM      8  C   UNL d   1      -0.202   3.392   0.873  0.00  0.00     0.040 C 
ATOM      9  C   UNL d   1       0.665   2.262   1.421  0.00  0.00     0.129 C 
ATOM     10  C   UNL d   1      -1.705   3.311   1.160  0.00  0.00     0.126 C 
ATOM     11  H   UNL d   1       1.449   1.769  -0.932  0.00  0.00     0.165 HD
ENDROOT
BRANCH   3  12
ATOM     12  C   UNL d   1      -2.746   2.864   3.327  0.00  0.00     0.102 A 
ATOM     13  N   UNL d   1      -3.882   2.240   3.705  0.00  0.00    -0.352 N 
ATOM     14  C   UNL d   1      -4.532   2.682   4.808  0.00  0.00     0.106 A 
ATOM     15  HN  UNL d   1      -4.244   1.451   3.170  1.00  0.00     0.166 HD
ATOM     16  C   UNL d   1      -4.092   3.727   5.602  0.00  0.00     0.063 A 
ATOM     17  C   UNL d   1      -2.917   4.365   5.213  0.00  0.00     0.021 A 
ATOM     18  C   UNL d   1      -2.251   3.938   4.065  0.00  0.00     0.049 A 
BRANCH  16  19
ATOM     19  C   UNL d   1      -4.835   4.137   6.833  0.00  0.00     0.418 C 
ATOM     20  F   UNL d   1      -5.965   3.414   7.060  0.00  0.00    -0.166 F 
ATOM     21  F   UNL d   1      -4.080   4.011   7.960  0.00  0.00    -0.166 F 
ATOM     22  F   UNL d   1      -5.227   5.441   6.793  0.00  0.00    -0.166 F 
ENDBRANCH  16  19
ENDBRANCH   3  12
BRANCH   4  23
ATOM     23  C   UNL d   1       2.528   0.193  -1.825  0.00  0.00     0.023 C 
ATOM     24  C   UNL d   1       1.657  -0.259  -3.006  0.00  0.00     0.037 C 
ATOM     25  C   UNL d   1       3.550   1.250  -2.299  0.00  0.00     0.037 C 
ATOM     26  C   UNL d   1       3.331  -1.016  -1.315  0.00  0.00     0.037 C 
ENDBRANCH   4  23
TORSDOF 3
