REMARK  3 active torsions:
REMARK  status: ('A' for Active; 'I' for Inactive)
REMARK    1  A    between atoms: C_10  and  N_1 
REMARK    2  A    between atoms: C_7  and  C_2 
REMARK    3  A    between atoms: N_9  and  C_8 
ROOT
ATOM      1  N   UNL d   1       0.084  -0.856   1.066  0.00  0.00    -0.225 N 
ATOM      2  C   UNL d   1       1.115  -0.733   0.133  0.00  0.00     0.139 C 
ATOM      3  N   UNL d   1      -0.685   0.124  -0.682  0.00  0.00    -0.007 NA
ATOM      4  N   UNL d   1      -1.054  -0.403   0.473  0.00  0.00     0.001 NA
ATOM      5  N   UNL d   1       0.645  -0.080  -0.912  0.00  0.00    -0.270 N 
ATOM      6  HN  UNL d   1       1.173   0.215  -1.734  1.00  0.00     0.185 HD
ENDROOT
BRANCH   2   7
ATOM      7  C   UNL d   1       2.384  -1.341   0.298  0.00  0.00     0.068 C 
ATOM      8  C   UNL d   1       2.584  -2.600  -0.134  0.00  0.00     0.089 C 
BRANCH   8   9
ATOM      9  N   UNL d   1       3.732  -3.387  -0.095  0.00  0.00    -0.390 N 
ATOM     10  C   UNL d   1       3.732  -4.711  -0.737  0.00  0.00     0.122 C 
ATOM     11  C   UNL d   1       3.427  -5.789   0.300  0.00  0.00     0.020 C 
ATOM     12  C   UNL d   1       4.635  -6.184   1.147  0.00  0.00     0.002 C 
ATOM     13  C   UNL d   1       5.306  -5.029   1.891  0.00  0.00     0.002 C 
ATOM     14  C   UNL d   1       5.955  -4.007   0.958  0.00  0.00     0.020 C 
ATOM     15  C   UNL d   1       5.005  -2.910   0.468  0.00  0.00     0.122 C 
ENDBRANCH   8   9
ENDBRANCH   2   7
BRANCH   1  16
ATOM     16  C   UNL d   1       0.063  -1.246   2.432  0.00  0.00     0.056 A 
ATOM     17  C   UNL d   1       1.209  -1.165   3.231  0.00  0.00     0.032 A 
ATOM     18  C   UNL d   1       1.120  -1.409   4.606  0.00  0.00     0.009 A 
ATOM     19  C   UNL d   1      -0.100  -1.758   5.196  0.00  0.00    -0.062 A 
ATOM     20  C   UNL d   1      -1.232  -1.890   4.387  0.00  0.00     0.009 A 
ATOM     21  C   UNL d   1      -0.187  -1.934   6.683  0.00  0.00     0.048 C 
ATOM     22  C   UNL d   1      -1.156  -1.623   3.017  0.00  0.00     0.032 A 
ENDBRANCH   1  16
TORSDOF 3
