REMARK  6 active torsions:
REMARK  status: ('A' for Active; 'I' for Inactive)
REMARK    1  A    between atoms: N_9  and  C_1 
REMARK    2  A    between atoms: C_2  and  N_10 
REMARK    3  A    between atoms: N_5  and  C_2 
REMARK    4  A    between atoms: C_4  and  N_3 
REMARK    5  A    between atoms: C_6  and  N_5 
REMARK    6  A    between atoms: N_10  and  N_9 
ROOT
ATOM      1  N   UNL d   1      -1.151  -0.516  -1.109  0.00  0.00    -0.274 N 
ATOM      2  H   UNL d   1      -1.777  -0.169  -0.382  0.00  0.00     0.189 HD
ENDROOT
BRANCH   1   3
ATOM      3  C   UNL d   1      -1.763  -1.256  -2.100  0.00  0.00     0.191 C 
ATOM      4  S   UNL d   1      -3.403  -1.547  -1.984  0.00  0.00    -0.039 SA
BRANCH   3   5
ATOM      5  N   UNL d   1      -0.893  -1.718  -3.064  0.00  0.00    -0.332 N 
ATOM      6  H   UNL d   1      -0.006  -2.028  -2.687  0.00  0.00     0.168 HD
BRANCH   5   7
ATOM      7  C   UNL d   1      -1.169  -2.018  -4.414  0.00  0.00     0.040 A 
ATOM      8  C   UNL d   1      -0.457  -3.029  -5.083  0.00  0.00    -0.035 A 
ATOM      9  C   UNL d   1      -0.604  -3.152  -6.479  0.00  0.00     0.015 A 
ATOM     10  C   UNL d   1       0.442  -4.015  -4.390  0.00  0.00     0.050 C 
ATOM     11  C   UNL d   1      -1.457  -2.309  -7.201  0.00  0.00    -0.061 A 
ATOM     12  C   UNL d   1      -2.200  -1.350  -6.513  0.00  0.00     0.009 A 
ATOM     13  C   UNL d   1      -1.541  -2.418  -8.693  0.00  0.00     0.048 C 
ATOM     14  C   UNL d   1      -2.056  -1.207  -5.133  0.00  0.00     0.030 A 
ENDBRANCH   5   7
ENDBRANCH   3   5
ENDBRANCH   1   3
BRANCH   1  15
ATOM     15  N   UNL d   1      -0.117   0.372  -1.460  0.00  0.00    -0.274 N 
ATOM     16  H   UNL d   1      -0.144   0.767  -2.394  0.00  0.00     0.189 HD
BRANCH  15  17
ATOM     17  C   UNL d   1       0.868   0.701  -0.571  0.00  0.00     0.186 C 
ATOM     18  N   UNL d   1       1.501   1.895  -0.772  0.00  0.00    -0.361 N 
ATOM     19  H   UNL d   1       2.177   2.085  -0.039  0.00  0.00     0.162 HD
ATOM     20  S   UNL d   1       1.311  -0.204   0.760  0.00  0.00    -0.040 SA
BRANCH  18  21
ATOM     21  C   UNL d   1       0.958   3.070  -1.446  0.00  0.00     0.088 C 
ATOM     22  C   UNL d   1      -0.240   3.727  -0.702  0.00  0.00     0.009 C 
ATOM     23  C   UNL d   1      -0.192   5.162  -1.237  0.00  0.00     0.011 C 
ATOM     24  C   UNL d   1       0.095   3.970   0.781  0.00  0.00     0.007 C 
ATOM     25  C   UNL d   1       1.252   5.378  -0.789  0.00  0.00    -0.012 C 
ATOM     26  C   UNL d   1       1.975   4.229  -1.518  0.00  0.00     0.030 C 
ATOM     27  C   UNL d   1       1.178   5.055   0.714  0.00  0.00     0.005 C 
ENDBRANCH  18  21
ENDBRANCH  15  17
ENDBRANCH   1  15
TORSDOF 6
