REMARK  6 active torsions:
REMARK  status: ('A' for Active; 'I' for Inactive)
REMARK    1  A    between atoms: N_2  and  CA_1 
REMARK    2  A    between atoms: C_4  and  CA_1 
REMARK       I    between atoms: C_3  and  N_2 
REMARK    3  A    between atoms: C_7  and  C_3 
REMARK    4  A    between atoms: OXT_10  and  C_4 
REMARK    5  A    between atoms: C_9  and  C_5 
REMARK    6  A    between atoms: O_16  and  C_11 
ROOT
ATOM      1  CA  UNL d   1       1.051   0.218   0.009  0.00  0.00     0.110 C 
ATOM      2  C   UNL d   1       2.378  -0.014  -0.018  0.00  0.00     0.048 C 
ENDROOT
BRANCH   1   3
ATOM      3  N   UNL d   1       0.424   1.107  -0.866  0.00  0.00    -0.317 N 
ATOM      4  C   UNL d   1       0.906   1.500  -2.104  0.00  0.00     0.256 C 
ATOM      5  O   UNL d   1       1.889   1.002  -2.652  0.00  0.00    -0.267 OA
ATOM      6  H   UNL d   1      -0.497   1.432  -0.588  0.00  0.00     0.169 HD
BRANCH   4   7
ATOM      7  C   UNL d   1       0.132   2.519  -2.862  0.00  0.00     0.032 A 
ATOM      8  C   UNL d   1      -0.668   3.485  -2.244  0.00  0.00     0.017 A 
ATOM      9  C   UNL d   1      -1.324   4.445  -3.024  0.00  0.00     0.001 A 
ATOM     10  C   UNL d   1      -1.180   4.446  -4.412  0.00  0.00     0.000 A 
ATOM     11  C   UNL d   1      -0.383   3.488  -5.032  0.00  0.00     0.001 A 
ATOM     12  C   UNL d   1       0.272   2.529  -4.260  0.00  0.00     0.017 A 
ENDBRANCH   4   7
ENDBRANCH   1   3
BRANCH   1  13
ATOM     13  C   UNL d   1       0.165  -0.471   1.005  0.00  0.00     0.193 C 
ATOM     14  O   UNL d   1       0.469  -0.834   2.123  0.00  0.00    -0.645 OA
BRANCH  13  15
ATOM     15  OXT UNL d   1      -1.100  -0.589   0.516  0.00  0.00    -0.772 OA
ATOM     16  HXT UNL d   1      -1.114  -0.535  -0.457  0.00  0.00     0.167 HD
ENDBRANCH  13  15
ENDBRANCH   1  13
BRANCH   2  17
ATOM     17  C   UNL d   1       3.171  -0.953   0.780  0.00  0.00    -0.034 A 
ATOM     18  C   UNL d   1       3.446  -2.229   0.276  0.00  0.00     0.014 A 
ATOM     19  C   UNL d   1       4.295  -3.098   0.970  0.00  0.00     0.037 A 
ATOM     20  C   UNL d   1       4.872  -2.697   2.175  0.00  0.00     0.068 A 
ATOM     21  C   UNL d   1       4.610  -1.419   2.670  0.00  0.00     0.037 A 
ATOM     22  C   UNL d   1       3.757  -0.551   1.983  0.00  0.00     0.014 A 
BRANCH  20  23
ATOM     23  O   UNL d   1       5.744  -3.448   2.916  0.00  0.00    -0.356 OA
ATOM     24  C   UNL d   1       5.553  -4.856   2.838  0.00  0.00     0.210 C 
ENDBRANCH  20  23
ENDBRANCH   2  17
TORSDOF 6
