REMARK  2 active torsions:
REMARK  status: ('A' for Active; 'I' for Inactive)
REMARK    1  A    between atoms: C_9  and  N_3 
REMARK    2  A    between atoms: O_8  and  C_4 
ROOT
ATOM      1  C   UNL d   1       2.476  -0.600  -0.040  0.00  0.00     0.250 A 
ATOM      2  C   UNL d   1       2.385   0.876  -0.008  0.00  0.00     0.112 A 
ATOM      3  N   UNL d   1       1.288  -1.322   0.004  0.00  0.00    -0.314 N 
ATOM      4  C   UNL d   1       1.209   1.505   0.011  0.00  0.00     0.083 A 
ATOM      5  C   UNL d   1       0.012  -0.670  -0.011  0.00  0.00     0.050 A 
ATOM      6  C   UNL d   1      -0.042   0.738  -0.012  0.00  0.00     0.024 A 
ATOM      7  O   UNL d   1       3.596  -1.104  -0.087  0.00  0.00    -0.268 OA
ATOM      8  C   UNL d   1      -1.286   1.390  -0.032  0.00  0.00     0.016 A 
ATOM      9  C   UNL d   1      -1.196  -1.387  -0.028  0.00  0.00     0.031 A 
ATOM     10  C   UNL d   1      -2.474   0.662  -0.049  0.00  0.00     0.001 A 
ATOM     11  C   UNL d   1      -2.427  -0.727  -0.046  0.00  0.00     0.002 A 
ENDROOT
BRANCH   3  12
ATOM     12  C   UNL d   1       1.392  -2.780   0.032  0.00  0.00     0.128 C 
ATOM     13  C   UNL d   1       1.330  -3.403  -1.355  0.00  0.00     0.027 C 
ENDBRANCH   3  12
BRANCH   4  14
ATOM     14  O   UNL d   1       1.096   2.879   0.054  0.00  0.00    -0.360 OA
ATOM     15  H   UNL d   1       1.988   3.266   0.083  0.00  0.00     0.217 HD
ENDBRANCH   4  14
TORSDOF 2
