REMARK  6 active torsions:
REMARK  status: ('A' for Active; 'I' for Inactive)
REMARK    1  A    between atoms: N_6  and  C_1 
REMARK    2  A    between atoms: C_11  and  N_2 
REMARK       I    between atoms: C_8  and  N_6 
REMARK    3  A    between atoms: C_13  and  C_8 
REMARK    4  A    between atoms: N_14  and  C_13 
REMARK    5  A    between atoms: C_17  and  N_14 
REMARK    6  A    between atoms: C_18  and  N_14 
ROOT
ATOM      1  C   UNL d   1       0.895  -0.827   0.011  0.00  0.00     0.152 C 
ATOM      2  N   UNL d   1       0.327  -0.238  -1.120  0.00  0.00    -0.239 N 
ATOM      3  N   UNL d   1      -0.634   0.668  -0.776  0.00  0.00    -0.302 N 
ATOM      4  HN  UNL d   1      -1.118   1.327  -1.385  1.00  0.00     0.186 HD
ATOM      5  C   UNL d   1       0.123  -0.409   1.081  0.00  0.00     0.107 C 
ATOM      6  C   UNL d   1      -0.797   0.497   0.535  0.00  0.00     0.134 C 
ATOM      7  C   UNL d   1       0.320  -0.667   2.467  0.00  0.00     0.105 C 
ATOM      8  N   UNL d   1       0.486  -0.801   3.611  0.00  0.00    -0.191 NA
ENDROOT
BRANCH   1   9
ATOM      9  N   UNL d   1       2.056  -1.590  -0.004  0.00  0.00    -0.309 N 
ATOM     10  C   UNL d   1       2.061  -2.852   0.574  0.00  0.00     0.251 C 
ATOM     11  O   UNL d   1       1.090  -3.377   1.113  0.00  0.00    -0.271 OA
ATOM     12  H   UNL d   1       2.767  -1.408  -0.707  0.00  0.00     0.170 HD
BRANCH  10  13
ATOM     13  C   UNL d   1       3.393  -3.590   0.399  0.00  0.00     0.374 C 
BRANCH  13  14
ATOM     14  N   UNL d   1       4.498  -2.884   1.090  0.00  0.00     0.096 N 
BRANCH  14  15
ATOM     15  C   UNL d   1       4.224  -2.718   2.535  0.00  0.00     0.268 C 
ATOM     16  C   UNL d   1       4.110  -3.998   3.358  0.00  0.00     0.037 C 
ENDBRANCH  14  15
BRANCH  14  17
ATOM     17  C   UNL d   1       5.770  -3.574   0.809  0.00  0.00     0.268 C 
ATOM     18  C   UNL d   1       6.995  -2.905   1.427  0.00  0.00     0.037 C 
ENDBRANCH  14  17
ENDBRANCH  13  14
ENDBRANCH  10  13
ENDBRANCH   1   9
BRANCH   2  19
ATOM     19  C   UNL d   1       0.557  -0.524  -2.498  0.00  0.00     0.058 A 
ATOM     20  C   UNL d   1       1.098  -1.747  -2.917  0.00  0.00     0.031 A 
ATOM     21  C   UNL d   1       1.270  -2.010  -4.279  0.00  0.00     0.002 A 
ATOM     22  C   UNL d   1       0.905  -1.057  -5.228  0.00  0.00     0.000 A 
ATOM     23  C   UNL d   1       0.351   0.154  -4.821  0.00  0.00     0.002 A 
ATOM     24  C   UNL d   1       0.166   0.418  -3.462  0.00  0.00     0.031 A 
ENDBRANCH   2  19
TORSDOF 6
