REMARK  3 active torsions:
REMARK  status: ('A' for Active; 'I' for Inactive)
REMARK       I    between atoms: C_9  and  N_12 
REMARK       I    between atoms: N_14  and  C_9 
REMARK    1  A    between atoms: N_12  and  C_10 
REMARK    2  A    between atoms: C_16  and  N_14 
REMARK    3  A    between atoms: S_18  and  C_17 
ROOT
ATOM      1  C   UNL d   1      -4.816  -0.524  -0.472  0.00  0.00     0.325 C 
ATOM      2  N   UNL d   1      -5.971  -1.191  -0.091  0.00  0.00    -0.309 N 
ATOM      3  N   UNL d   1      -4.927   0.855  -0.336  0.00  0.00    -0.309 N 
ATOM      4  O   UNL d   1      -3.799  -1.091  -0.852  0.00  0.00    -0.247 OA
ATOM      5  H   UNL d   1      -6.772  -0.628   0.149  0.00  0.00     0.170 HD
ATOM      6  H   UNL d   1      -5.809   1.224  -0.018  0.00  0.00     0.170 HD
ENDROOT
BRANCH   2   7
ATOM      7  C   UNL d   1      -6.102  -2.599   0.076  0.00  0.00     0.038 A 
ATOM      8  C   UNL d   1      -5.046  -3.494  -0.198  0.00  0.00     0.062 A 
ATOM      9  C   UNL d   1      -5.249  -4.860   0.115  0.00  0.00     0.069 A 
ATOM     10  C   UNL d   1      -6.552  -5.330   0.683  0.00  0.00     0.067 A 
ATOM     11  N   UNL d   1      -4.349  -5.844  -0.038  0.00  0.00    -0.310 N 
ATOM     12  N   UNL d   1      -6.572  -6.647   0.943  0.00  0.00    -0.310 N 
ATOM     13  C   UNL d   1      -7.611  -4.419   0.901  0.00  0.00     0.035 A 
ATOM     14  S   UNL d   1      -5.075  -7.231   0.514  0.00  0.00     0.068 SA
ATOM     15  HN  UNL d   1      -7.351  -7.182   1.328  1.00  0.00     0.176 HD
ATOM     16  C   UNL d   1      -7.345  -3.067   0.588  0.00  0.00     0.032 A 
ATOM     17  HN  UNL d   1      -3.407  -5.757  -0.418  1.00  0.00     0.176 HD
ENDBRANCH   2   7
BRANCH   3  18
ATOM     18  C   UNL d   1      -3.861   1.780  -0.465  0.00  0.00     0.036 A 
ATOM     19  C   UNL d   1      -2.571   1.427  -0.869  0.00  0.00     0.031 A 
ATOM     20  C   UNL d   1      -1.529   2.359  -0.870  0.00  0.00     0.021 A 
ATOM     21  C   UNL d   1      -1.750   3.671  -0.464  0.00  0.00    -0.000 A 
ATOM     22  C   UNL d   1      -3.054   4.052  -0.129  0.00  0.00     0.021 A 
ATOM     23  C   UNL d   1      -4.102   3.116  -0.129  0.00  0.00     0.031 A 
BRANCH  21  24
ATOM     24  S   UNL d   1      -0.441   4.880  -0.363  0.00  0.00    -0.134 SA
ATOM     25  C   UNL d   1       0.958   3.851   0.177  0.00  0.00     0.095 C 
ENDBRANCH  21  24
ENDBRANCH   3  18
TORSDOF 3
