REMARK  2 active torsions:
REMARK  status: ('A' for Active; 'I' for Inactive)
REMARK    1  A    between atoms: C_7  and  N_1 
REMARK    2  A    between atoms: C_6  and  C_14 
ROOT
ATOM      1  N   UNL d   1      -2.385  -0.760   0.051  0.00  0.00    -0.241 N 
ATOM      2  C   UNL d   1      -1.885   0.299  -0.684  0.00  0.00     0.284 A 
ATOM      3  C   UNL d   1      -1.375  -1.360   0.787  0.00  0.00     0.284 A 
ATOM      4  C   UNL d   1      -0.459   0.388  -0.365  0.00  0.00     0.134 A 
ATOM      5  C   UNL d   1      -0.157  -0.613   0.511  0.00  0.00     0.134 A 
ATOM      6  N   UNL d   1       1.076  -0.857   1.000  0.00  0.00    -0.358 N 
ATOM      7  HN  UNL d   1       1.286  -1.615   1.649  1.00  0.00     0.165 HD
ATOM      8  N   UNL d   1       0.445   1.272  -0.834  0.00  0.00    -0.358 N 
ATOM      9  HN  UNL d   1       0.213   2.024  -1.483  1.00  0.00     0.165 HD
ATOM     10  O   UNL d   1      -1.392  -2.346   1.502  0.00  0.00    -0.265 OA
ATOM     11  O   UNL d   1      -2.449   1.069  -1.442  0.00  0.00    -0.265 OA
ATOM     12  C   UNL d   1       1.698   1.055  -0.349  0.00  0.00     0.105 A 
ATOM     13  C   UNL d   1       2.007   0.016   0.537  0.00  0.00     0.105 A 
ENDROOT
BRANCH   1  14
ATOM     14  C   UNL d   1      -3.730  -1.227   0.024  0.00  0.00     0.046 A 
ATOM     15  C   UNL d   1      -4.232  -2.030   1.061  0.00  0.00     0.031 A 
ATOM     16  C   UNL d   1      -5.524  -2.564   1.018  0.00  0.00     0.018 A 
ATOM     17  C   UNL d   1      -6.359  -2.316  -0.074  0.00  0.00     0.048 A 
ATOM     18  C   UNL d   1      -5.886  -1.484  -1.098  0.00  0.00     0.018 A 
ATOM     19  C   UNL d   1      -4.594  -0.937  -1.042  0.00  0.00     0.031 A 
BRANCH  17  20
ATOM     20  C   UNL d   1      -7.728  -2.944  -0.163  0.00  0.00     0.417 C 
ATOM     21  F   UNL d   1      -8.049  -3.704   0.921  0.00  0.00    -0.166 F 
ATOM     22  F   UNL d   1      -8.722  -2.021  -0.278  0.00  0.00    -0.166 F 
ATOM     23  F   UNL d   1      -7.852  -3.766  -1.242  0.00  0.00    -0.166 F 
ENDBRANCH  17  20
ENDBRANCH   1  14
TORSDOF 2
