REMARK  3 active torsions:
REMARK  status: ('A' for Active; 'I' for Inactive)
REMARK       I    between atoms: N_2  and  C_1 
REMARK       I    between atoms: N_4  and  C_1 
REMARK    1  A    between atoms: C_3  and  N_2 
REMARK    2  A    between atoms: C_14  and  N_4 
REMARK    3  A    between atoms: N_7  and  C_5 
ROOT
ATOM      1  C   UNL d   1       1.072   0.054  -0.006  0.00  0.00     0.325 C 
ATOM      2  N   UNL d   1       0.452   0.873   0.922  0.00  0.00    -0.309 N 
ATOM      3  N   UNL d   1       0.191  -0.849  -0.576  0.00  0.00    -0.309 N 
ATOM      4  O   UNL d   1       2.263   0.107  -0.284  0.00  0.00    -0.247 OA
ATOM      5  H   UNL d   1      -0.428   0.535   1.295  0.00  0.00     0.170 HD
ATOM      6  H   UNL d   1      -0.781  -0.580  -0.598  0.00  0.00     0.170 HD
ENDROOT
BRANCH   2   7
ATOM      7  C   UNL d   1       1.084   1.919   1.639  0.00  0.00     0.037 A 
ATOM      8  C   UNL d   1       2.313   2.466   1.251  0.00  0.00     0.036 A 
ATOM      9  C   UNL d   1       2.946   3.457   2.011  0.00  0.00    -0.059 A 
ATOM     10  C   UNL d   1       4.287   3.988   1.595  0.00  0.00     0.048 C 
ATOM     11  C   UNL d   1       2.318   3.932   3.163  0.00  0.00     0.013 A 
ATOM     12  C   UNL d   1       1.072   3.427   3.556  0.00  0.00    -0.059 A 
ATOM     13  C   UNL d   1       0.459   2.423   2.784  0.00  0.00     0.036 A 
ATOM     14  C   UNL d   1       0.422   3.964   4.798  0.00  0.00     0.048 C 
ENDBRANCH   2   7
BRANCH   3  15
ATOM     15  C   UNL d   1       0.576  -1.941  -1.393  0.00  0.00     0.036 A 
ATOM     16  C   UNL d   1       1.873  -2.450  -1.417  0.00  0.00     0.032 A 
ATOM     17  C   UNL d   1       2.206  -3.548  -2.222  0.00  0.00     0.031 A 
ATOM     18  C   UNL d   1       1.261  -4.201  -3.021  0.00  0.00     0.029 A 
ATOM     19  C   UNL d   1      -0.042  -3.674  -2.979  0.00  0.00     0.031 A 
ATOM     20  C   UNL d   1      -0.386  -2.568  -2.179  0.00  0.00     0.032 A 
BRANCH  18  21
ATOM     21  N   UNL d   1       1.559  -5.350  -3.746  0.00  0.00    -0.390 N 
ATOM     22  C   UNL d   1       0.983  -5.542  -5.075  0.00  0.00     0.149 C 
ATOM     23  C   UNL d   1       2.812  -6.068  -3.518  0.00  0.00     0.149 C 
ENDBRANCH  18  21
ENDBRANCH   3  15
TORSDOF 3
