REMARK  4 active torsions:
REMARK  status: ('A' for Active; 'I' for Inactive)
REMARK    1  A    between atoms: N_2  and  C_1 
REMARK       I    between atoms: C_3  and  N_2 
REMARK    2  A    between atoms: C_10  and  C_3 
REMARK    3  A    between atoms: C_16  and  C_10 
REMARK    4  A    between atoms: O_15  and  C_16 
ROOT
ATOM      1  C   UNL d   1       0.892   0.653   1.224  0.00  0.00     0.034 C 
ATOM      2  C   UNL d   1       0.665   0.102  -1.255  0.00  0.00    -0.012 C 
ATOM      3  C   UNL d   1      -1.346  -0.064   0.251  0.00  0.00    -0.012 C 
ATOM      4  C   UNL d   1       0.523  -1.743   0.447  0.00  0.00    -0.012 C 
ATOM      5  C   UNL d   1      -0.647   0.830   1.289  0.00  0.00     0.035 C 
ATOM      6  C   UNL d   1       1.226  -0.840   1.484  0.00  0.00     0.035 C 
ATOM      7  C   UNL d   1       1.366   0.991  -0.215  0.00  0.00     0.035 C 
ATOM      8  C   UNL d   1      -0.854   0.316  -1.155  0.00  0.00     0.009 C 
ATOM      9  C   UNL d   1       0.997  -1.369  -0.966  0.00  0.00     0.009 C 
ATOM     10  C   UNL d   1      -1.000  -1.535   0.531  0.00  0.00     0.009 C 
ENDROOT
BRANCH   1  11
ATOM     11  N   UNL d   1       1.553   1.585   2.155  0.00  0.00    -0.352 N 
ATOM     12  C   UNL d   1       1.415   1.548   3.522  0.00  0.00     0.220 C 
ATOM     13  O   UNL d   1       0.907   0.618   4.138  0.00  0.00    -0.274 OA
ATOM     14  H   UNL d   1       1.872   2.473   1.773  0.00  0.00     0.163 HD
BRANCH  12  15
ATOM     15  C   UNL d   1       1.826   2.821   4.243  0.00  0.00     0.129 C 
BRANCH  15  16
ATOM     16  C   UNL d   1       3.216   3.327   3.897  0.00  0.00     0.176 C 
BRANCH  16  17
ATOM     17  O   UNL d   1       3.157   4.091   2.686  0.00  0.00    -0.395 OA
ATOM     18  C   UNL d   1       4.350   4.853   2.502  0.00  0.00     0.201 C 
ENDBRANCH  16  17
ENDBRANCH  15  16
ENDBRANCH  12  15
ENDBRANCH   1  11
TORSDOF 4
