REMARK  6 active torsions:
REMARK  status: ('A' for Active; 'I' for Inactive)
REMARK    1  A    between atoms: C_8  and  N_1 
REMARK    2  A    between atoms: S_11  and  C_2 
REMARK    3  A    between atoms: O_17  and  C_3 
REMARK    4  A    between atoms: C_14  and  S_11 
REMARK    5  A    between atoms: C_16  and  C_14 
REMARK    6  A    between atoms: C_21  and  C_18 
ROOT
ATOM      1  N   UNL d   1      -0.341  -1.386  -0.213  0.00  0.00    -0.254 N 
ATOM      2  C   UNL d   1       0.733  -0.908  -0.960  0.00  0.00     0.169 A 
ATOM      3  C   UNL d   1      -0.867  -0.232   0.349  0.00  0.00     0.245 A 
ATOM      4  N   UNL d   1       0.865   0.386  -0.801  0.00  0.00    -0.276 N 
ATOM      5  HN  UNL d   1       1.592   0.970  -1.213  1.00  0.00     0.189 HD
ATOM      6  N   UNL d   1      -0.151   0.814   0.020  0.00  0.00    -0.263 N 
ATOM      7  HN  UNL d   1      -0.317   1.775   0.319  1.00  0.00     0.190 HD
ENDROOT
BRANCH   2   8
ATOM      8  S   UNL d   1       1.653  -1.875  -2.068  0.00  0.00    -0.087 SA
BRANCH   8   9
ATOM      9  C   UNL d   1       2.694  -0.639  -2.892  0.00  0.00     0.121 C 
BRANCH   9  10
ATOM     10  C   UNL d   1       3.560  -1.286  -3.957  0.00  0.00    -0.042 A 
ATOM     11  C   UNL d   1       4.965  -1.416  -3.885  0.00  0.00    -0.051 A 
ATOM     12  C   UNL d   1       5.646  -1.997  -4.978  0.00  0.00     0.007 A 
ATOM     13  C   UNL d   1       4.966  -2.467  -6.100  0.00  0.00     0.001 A 
ATOM     14  C   UNL d   1       3.584  -2.384  -6.152  0.00  0.00     0.001 A 
ATOM     15  C   UNL d   1       2.892  -1.792  -5.099  0.00  0.00     0.008 A 
BRANCH  11  16
ATOM     16  C   UNL d   1       5.795  -1.033  -2.676  0.00  0.00     0.034 C 
ATOM     17  C   UNL d   1       6.850   0.029  -2.967  0.00  0.00     0.010 C 
ENDBRANCH  11  16
ENDBRANCH   9  10
ENDBRANCH   8   9
ENDBRANCH   2   8
BRANCH   1  18
ATOM     18  C   UNL d   1      -0.815  -2.730  -0.115  0.00  0.00     0.057 A 
ATOM     19  C   UNL d   1       0.097  -3.773   0.203  0.00  0.00    -0.034 A 
ATOM     20  C   UNL d   1      -0.310  -5.110   0.049  0.00  0.00     0.015 A 
ATOM     21  C   UNL d   1       1.503  -3.584   0.721  0.00  0.00     0.050 C 
ATOM     22  C   UNL d   1      -1.608  -5.435  -0.337  0.00  0.00    -0.061 A 
ATOM     23  C   UNL d   1      -2.530  -4.407  -0.529  0.00  0.00     0.015 A 
ATOM     24  C   UNL d   1      -1.972  -6.863  -0.615  0.00  0.00     0.048 C 
ATOM     25  C   UNL d   1      -2.155  -3.049  -0.454  0.00  0.00    -0.034 A 
ATOM     26  C   UNL d   1      -3.244  -2.069  -0.815  0.00  0.00     0.050 C 
ENDBRANCH   1  18
BRANCH   3  27
ATOM     27  O   UNL d   1      -1.918  -0.147   1.165  0.00  0.00    -0.331 OA
ATOM     28  H   UNL d   1      -2.232  -1.038   1.365  0.00  0.00     0.221 HD
ENDBRANCH   3  27
TORSDOF 6
