REMARK  6 active torsions:
REMARK  status: ('A' for Active; 'I' for Inactive)
REMARK    1  A    between atoms: C_15  and  C_1 
REMARK    2  A    between atoms: N_20  and  C_3 
REMARK    3  A    between atoms: C_4  and  C_6 
REMARK    4  A    between atoms: C_19  and  N_8 
REMARK    5  A    between atoms: C_22  and  C_15 
REMARK    6  A    between atoms: C_18  and  C_16 
ROOT
ATOM      1  C   UNL d   1       2.346   0.072   0.119  0.00  0.00     0.155 A 
ATOM      2  C   UNL d   1       0.222   0.864   0.082  0.00  0.00     0.056 A 
ATOM      3  C   UNL d   1       1.599   1.230   0.201  0.00  0.00     0.080 A 
ATOM      4  C   UNL d   1       0.231  -0.532   0.060  0.00  0.00     0.162 A 
ATOM      5  C   UNL d   1      -1.045   1.484  -0.017  0.00  0.00    -0.004 A 
ATOM      6  O   UNL d   1       1.509  -1.005   0.059  0.00  0.00    -0.286 OA
ATOM      7  N   UNL d   1      -0.827  -1.360   0.011  0.00  0.00    -0.335 N 
ATOM      8  HN  UNL d   1      -0.732  -2.376   0.019  1.00  0.00     0.168 HD
ATOM      9  C   UNL d   1      -2.024  -0.740  -0.051  0.00  0.00     0.045 A 
ATOM     10  C   UNL d   1      -2.167   0.649  -0.059  0.00  0.00     0.043 A 
ENDROOT
BRANCH   5  11
ATOM     11  C   UNL d   1      -1.185   2.922  -0.147  0.00  0.00     0.016 C 
ATOM     12  C   UNL d   1      -0.350   3.687  -0.930  0.00  0.00     0.131 C 
ATOM     13  N   UNL d   1      -0.671   5.003  -0.713  0.00  0.00    -0.267 N 
ATOM     14  N   UNL d   1      -1.856   5.107  -0.064  0.00  0.00    -0.298 N 
ATOM     15  C   UNL d   1      -2.175   3.852   0.280  0.00  0.00     0.035 C 
ATOM     16  HN  UNL d   1      -2.390   5.956   0.123  1.00  0.00     0.187 HD
ATOM     17  C   UNL d   1      -3.445   3.608   1.011  0.00  0.00     0.070 C 
BRANCH  13  18
ATOM     18  C   UNL d   1       0.110   6.147  -1.035  0.00  0.00     0.056 A 
ATOM     19  C   UNL d   1       1.378   6.013  -1.622  0.00  0.00     0.031 A 
ATOM     20  C   UNL d   1       2.157   7.142  -1.872  0.00  0.00     0.002 A 
ATOM     21  C   UNL d   1       1.680   8.409  -1.544  0.00  0.00     0.000 A 
ATOM     22  C   UNL d   1       0.419   8.550  -0.963  0.00  0.00     0.002 A 
ATOM     23  C   UNL d   1      -0.365   7.424  -0.709  0.00  0.00     0.031 A 
ENDBRANCH  13  18
ENDBRANCH   5  11
BRANCH   3  24
ATOM     24  N   UNL d   1       2.130   2.466   0.341  0.00  0.00    -0.396 N 
ATOM     25  H   UNL d   1       1.578   3.217   0.748  0.00  0.00     0.156 HD
ATOM     26  H   UNL d   1       3.119   2.549   0.596  0.00  0.00     0.156 HD
ENDBRANCH   3  24
BRANCH   9  27
ATOM     27  C   UNL d   1      -3.201  -1.632  -0.156  0.00  0.00    -0.009 A 
ATOM     28  C   UNL d   1      -3.241  -2.870   0.512  0.00  0.00     0.015 A 
ATOM     29  C   UNL d   1      -4.356  -3.713   0.416  0.00  0.00     0.024 A 
ATOM     30  C   UNL d   1      -5.449  -3.331  -0.357  0.00  0.00     0.034 A 
ATOM     31  C   UNL d   1      -5.436  -2.119  -1.035  0.00  0.00     0.024 A 
ATOM     32 CL   UNL d   1      -6.818  -4.364  -0.483  0.00  0.00    -0.084 Cl
ATOM     33  C   UNL d   1      -4.321  -1.281  -0.938  0.00  0.00     0.015 A 
ENDBRANCH   9  27
BRANCH   1  34
ATOM     34  C   UNL d   1       3.780  -0.125   0.140  0.00  0.00     0.218 C 
ATOM     35  O   UNL d   1       4.548   0.654   0.709  0.00  0.00    -0.284 OA
BRANCH  34  36
ATOM     36  C   UNL d   1       4.380  -1.268  -0.603  0.00  0.00     0.017 A 
ATOM     37  C   UNL d   1       5.590  -1.806  -0.145  0.00  0.00     0.015 A 
ATOM     38  C   UNL d   1       6.215  -2.834  -0.854  0.00  0.00     0.001 A 
ATOM     39  C   UNL d   1       5.643  -3.318  -2.030  0.00  0.00     0.000 A 
ATOM     40  C   UNL d   1       4.446  -2.778  -2.499  0.00  0.00     0.001 A 
ATOM     41  C   UNL d   1       3.814  -1.754  -1.790  0.00  0.00     0.015 A 
ENDBRANCH  34  36
ENDBRANCH   1  34
TORSDOF 6
