REMARK  3 active torsions:
REMARK  status: ('A' for Active; 'I' for Inactive)
REMARK    1  A    between atoms: C_3  and  C_1 
REMARK    2  A    between atoms: C_2  and  C_3 
REMARK    3  A    between atoms: C_12  and  C_7 
ROOT
ATOM      1  C   UNL d   1       2.296  -3.858   0.009  0.00  0.00     0.096 C 
ATOM      2  C   UNL d   1       2.356  -5.207  -0.014  0.00  0.00     0.038 C 
ATOM      3  C   UNL d   1       1.059  -3.159  -0.045  0.00  0.00     0.103 C 
ATOM      4  N   UNL d   1       0.047  -2.591  -0.064  0.00  0.00    -0.191 NA
ENDROOT
BRANCH   1   5
ATOM      5  C   UNL d   1       3.608  -3.130   0.013  0.00  0.00     0.204 C 
ATOM      6  O   UNL d   1       4.631  -3.701  -0.366  0.00  0.00    -0.286 OA
BRANCH   5   7
ATOM      7  C   UNL d   1       3.633  -1.730   0.460  0.00  0.00     0.034 A 
ATOM      8  C   UNL d   1       2.826  -1.193   1.447  0.00  0.00     0.067 A 
ATOM      9  S   UNL d   1       3.109   0.463   1.729  0.00  0.00    -0.100 SA
ATOM     10  C   UNL d   1       4.394   0.512   0.593  0.00  0.00     0.016 A 
ATOM     11  C   UNL d   1       4.587  -0.732  -0.018  0.00  0.00    -0.004 A 
ATOM     12  C   UNL d   1       5.194   1.631   0.280  0.00  0.00     0.019 A 
ATOM     13  C   UNL d   1       5.635  -0.827  -0.974  0.00  0.00     0.014 A 
ATOM     14  C   UNL d   1       6.437   0.278  -1.281  0.00  0.00     0.001 A 
ATOM     15  C   UNL d   1       6.216   1.497  -0.659  0.00  0.00     0.001 A 
ENDBRANCH   5   7
ENDBRANCH   1   5
BRANCH   2  16
ATOM     16  C   UNL d   1       1.189  -6.093  -0.061  0.00  0.00    -0.032 A 
ATOM     17  C   UNL d   1       0.603  -6.551   1.121  0.00  0.00     0.053 A 
ATOM     18  C   UNL d   1      -0.514  -7.380   1.057  0.00  0.00     0.117 A 
ATOM     19  F   UNL d   1      -1.073  -7.817   2.193  0.00  0.00    -0.206 F 
ATOM     20  C   UNL d   1      -1.058  -7.763  -0.164  0.00  0.00     0.042 A 
ATOM     21  C   UNL d   1      -0.474  -7.311  -1.346  0.00  0.00     0.004 A 
ATOM     22  C   UNL d   1       0.647  -6.478  -1.296  0.00  0.00     0.011 A 
ENDBRANCH   2  16
TORSDOF 3
