REMARK  2 active torsions:
REMARK  status: ('A' for Active; 'I' for Inactive)
REMARK    1  A    between atoms: N_4  and  N_1 
REMARK       I    between atoms: C_3  and  N_4 
REMARK       I    between atoms: N_8  and  C_3 
REMARK    2  A    between atoms: C_7  and  C_5 
ROOT
ATOM      1  N   UNL d   1       0.912  -0.057  -0.037  0.00  0.00    -0.300 N 
ATOM      2  HN  UNL d   1       0.467  -0.523   0.754  1.00  0.00     0.186 HD
ATOM      3  C   UNL d   1       2.212  -0.016  -0.118  0.00  0.00     0.032 C 
ATOM      4  C   UNL d   1       3.002   0.650  -1.231  0.00  0.00     0.070 C 
ENDROOT
BRANCH   1   5
ATOM      5  N   UNL d   1       0.144   0.521  -1.004  0.00  0.00    -0.252 N 
ATOM      6  C   UNL d   1      -1.228   0.450  -0.985  0.00  0.00     0.332 C 
ATOM      7  O   UNL d   1      -1.934   0.973  -1.834  0.00  0.00    -0.246 OA
ATOM      8  N   UNL d   1      -1.735  -0.258   0.053  0.00  0.00    -0.351 N 
ATOM      9  H   UNL d   1      -1.082  -0.506   0.782  0.00  0.00     0.160 HD
ATOM     10  H   UNL d   1      -2.730  -0.263   0.208  0.00  0.00     0.160 HD
ATOM     11  H   UNL d   1       0.539   1.023  -1.787  0.00  0.00     0.191 HD
ENDBRANCH   1   5
BRANCH   3  12
ATOM     12  C   UNL d   1       3.009  -0.707   0.961  0.00  0.00    -0.013 A 
ATOM     13  C   UNL d   1       2.337  -1.380   1.992  0.00  0.00     0.013 A 
ATOM     14  C   UNL d   1       3.050  -2.103   2.952  0.00  0.00     0.001 A 
ATOM     15  C   UNL d   1       4.441  -2.156   2.894  0.00  0.00     0.000 A 
ATOM     16  C   UNL d   1       5.121  -1.466   1.895  0.00  0.00     0.001 A 
ATOM     17  C   UNL d   1       4.410  -0.738   0.936  0.00  0.00     0.013 A 
ENDBRANCH   3  12
TORSDOF 2
