REMARK  2 active torsions:
REMARK  status: ('A' for Active; 'I' for Inactive)
REMARK    1  A    between atoms: C_3  and  S_1 
REMARK    2  A    between atoms: N_2  and  C_4 
ROOT
ATOM      1  C   UNL d   1       0.403   0.925  -1.483  0.00  0.00     0.059 A 
ATOM      2  C   UNL d   1      -0.425   2.403  -3.690  0.00  0.00     0.102 A 
ATOM      3  C   UNL d   1      -0.347   0.303  -2.488  0.00  0.00     0.026 A 
ATOM      4  C   UNL d   1       0.723   2.285  -1.562  0.00  0.00     0.026 A 
ATOM      5  C   UNL d   1      -0.760   1.044  -3.599  0.00  0.00     0.037 A 
ATOM      6  C   UNL d   1       0.312   3.027  -2.673  0.00  0.00     0.037 A 
ENDROOT
BRANCH   1   7
ATOM      7  S   UNL d   1       0.891  -0.008  -0.046  0.00  0.00     0.171 S 
ATOM      8  O   UNL d   1      -0.048  -1.105   0.093  0.00  0.00    -0.223 OA
ATOM      9  O   UNL d   1       1.096   0.939   1.033  0.00  0.00    -0.223 OA
ATOM     10  C   UNL d   1       2.467  -0.681  -0.500  0.00  0.00     0.167 C 
ENDBRANCH   1   7
BRANCH   2  11
ATOM     11  N   UNL d   1      -0.853   3.182  -4.860  0.00  0.00    -0.116 N 
ATOM     12  O   UNL d   1      -1.494   2.592  -5.741  0.00  0.00    -0.532 OA
ATOM     13  O   UNL d   1      -0.539   4.380  -4.900  0.00  0.00    -0.532 OA
ENDBRANCH   2  11
TORSDOF 2
