REMARK  3 active torsions:
REMARK  status: ('A' for Active; 'I' for Inactive)
REMARK    1  A    between atoms: C_9  and  N_1 
REMARK    2  A    between atoms: N_7  and  N_2 
REMARK    3  A    between atoms: C_11  and  C_10 
ROOT
ATOM      1  N   UNL d   1      -0.704  -1.121   0.228  0.00  0.00    -0.305 N 
ATOM      2  N   UNL d   1       0.826   1.100   0.137  0.00  0.00    -0.251 N 
ATOM      3  C   UNL d   1      -1.384   0.104   0.186  0.00  0.00     0.244 C 
ATOM      4  C   UNL d   1       1.502  -0.108  -0.103  0.00  0.00     0.257 C 
ATOM      5  C   UNL d   1      -0.538   1.240  -0.364  0.00  0.00     0.255 C 
ATOM      6  C   UNL d   1       0.553  -1.245  -0.515  0.00  0.00     0.237 C 
ATOM      7  O   UNL d   1       2.719  -0.269  -0.094  0.00  0.00    -0.270 OA
ATOM      8  O   UNL d   1      -2.581   0.252   0.426  0.00  0.00    -0.271 OA
ENDROOT
BRANCH   2   9
ATOM      9  N   UNL d   1       1.383   2.268   0.624  0.00  0.00    -0.305 N 
ATOM     10  C   UNL d   1       2.568   2.292   1.140  0.00  0.00     0.126 C 
ATOM     11  HN  UNL d   1       0.846   3.133   0.574  1.00  0.00     0.186 HD
BRANCH  10  12
ATOM     12  C   UNL d   1       3.065   3.523   1.717  0.00  0.00     0.021 A 
ATOM     13  S   UNL d   1       4.676   3.590   2.289  0.00  0.00    -0.101 SA
ATOM     14  C   UNL d   1       4.491   5.208   2.815  0.00  0.00     0.050 A 
ATOM     15  C   UNL d   1       3.227   5.692   2.560  0.00  0.00     0.008 A 
ATOM     16  C   UNL d   1       2.405   4.721   1.917  0.00  0.00     0.021 A 
ENDBRANCH  10  12
ENDBRANCH   2   9
BRANCH   1  17
ATOM     17  C   UNL d   1      -1.353  -2.286   0.725  0.00  0.00     0.076 A 
ATOM     18  C   UNL d   1      -1.326  -3.510   0.046  0.00  0.00     0.143 A 
ATOM     19  F   UNL d   1      -0.731  -3.611  -1.153  0.00  0.00    -0.204 F 
ATOM     20  C   UNL d   1      -1.971  -4.635   0.559  0.00  0.00     0.044 A 
ATOM     21  C   UNL d   1      -2.624  -4.559   1.788  0.00  0.00     0.003 A 
ATOM     22  C   UNL d   1      -2.645  -3.354   2.488  0.00  0.00     0.002 A 
ATOM     23  C   UNL d   1      -2.029  -2.221   1.952  0.00  0.00     0.033 A 
ENDBRANCH   1  17
TORSDOF 3
