REMARK  3 active torsions:
REMARK  status: ('A' for Active; 'I' for Inactive)
REMARK    1  A    between atoms: C_4  and  N_1 
REMARK    2  A    between atoms: C_10  and  C_3 
REMARK    3  A    between atoms: N_13  and  C_4 
ROOT
ATOM      1  N   UNL d   1      -2.572   0.309  -0.389  0.00  0.00    -0.345 N 
ATOM      2  C   UNL d   1      -0.205   0.803   0.058  0.00  0.00    -0.017 A 
ATOM      3  C   UNL d   1      -1.615   1.333   0.114  0.00  0.00     0.154 C 
ATOM      4  C   UNL d   1       0.082  -0.543  -0.080  0.00  0.00    -0.007 A 
ATOM      5  C   UNL d   1      -2.349  -1.071   0.111  0.00  0.00     0.131 C 
ATOM      6  S   UNL d   1       1.749  -0.871  -0.100  0.00  0.00    -0.106 SA
ATOM      7  C   UNL d   1      -0.949  -1.612  -0.234  0.00  0.00     0.067 C 
ATOM      8  C   UNL d   1       1.000   1.578   0.102  0.00  0.00     0.018 A 
ATOM      9  C   UNL d   1       2.130   0.792   0.035  0.00  0.00     0.051 A 
ENDROOT
BRANCH   3  10
ATOM     10  C   UNL d   1      -1.931   1.724   1.561  0.00  0.00    -0.031 A 
ATOM     11  C   UNL d   1      -2.861   2.760   1.781  0.00  0.00     0.011 A 
ATOM     12  C   UNL d   1      -3.232   3.135   3.076  0.00  0.00     0.024 A 
ATOM     13  C   UNL d   1      -2.685   2.478   4.172  0.00  0.00     0.034 A 
ATOM     14  C   UNL d   1      -1.767   1.450   3.987  0.00  0.00     0.024 A 
ATOM     15 CL   UNL d   1      -3.150   2.929   5.766  0.00  0.00    -0.084 Cl
ATOM     16  C   UNL d   1      -1.397   1.074   2.691  0.00  0.00     0.011 A 
ENDBRANCH   3  10
BRANCH   1  17
ATOM     17  C   UNL d   1      -3.572   0.633  -1.317  0.00  0.00     0.170 C 
ATOM     18  S   UNL d   1      -3.479   1.927  -2.387  0.00  0.00    -0.041 SA
BRANCH  17  19
ATOM     19  N   UNL d   1      -4.653  -0.225  -1.277  0.00  0.00    -0.371 N 
ATOM     20  C   UNL d   1      -5.866  -0.163  -2.080  0.00  0.00     0.148 C 
ATOM     21  H   UNL d   1      -4.762  -0.733  -0.411  0.00  0.00     0.161 HD
ENDBRANCH  17  19
ENDBRANCH   1  17
TORSDOF 3
