REMARK  2 active torsions:
REMARK  status: ('A' for Active; 'I' for Inactive)
REMARK    1  A    between atoms: C_8  and  C_4 
REMARK    2  A    between atoms: C_10  and  C_7 
ROOT
ATOM      1  N   UNL d   1       1.494   0.364  -0.058  0.00  0.00    -0.337 N 
ATOM      2  HN  UNL d   1       2.321   0.959  -0.091  1.00  0.00     0.167 HD
ATOM      3  N   UNL d   1       0.201  -1.471  -0.008  0.00  0.00    -0.307 N 
ATOM      4  C   UNL d   1       1.446  -0.935  -0.046  0.00  0.00     0.119 A 
ATOM      5  C   UNL d   1       0.170   0.757  -0.015  0.00  0.00     0.103 A 
ATOM      6  C   UNL d   1      -0.702  -0.455  -0.005  0.00  0.00     0.273 A 
ATOM      7  C   UNL d   1      -0.222   2.036   0.012  0.00  0.00     0.046 C 
ATOM      8  O   UNL d   1      -1.911  -0.550  -0.015  0.00  0.00    -0.266 OA
ATOM      9  H   UNL d   1      -0.066  -2.438  -0.061  0.00  0.00     0.170 HD
ENDROOT
BRANCH   7  10
ATOM     10  C   UNL d   1      -1.604   2.502   0.082  0.00  0.00    -0.034 A 
ATOM     11  C   UNL d   1      -2.202   2.725   1.329  0.00  0.00     0.014 A 
ATOM     12  C   UNL d   1      -3.526   3.163   1.403  0.00  0.00     0.043 A 
ATOM     13  C   UNL d   1      -4.240   3.383   0.231  0.00  0.00     0.116 A 
ATOM     14  C   UNL d   1      -3.657   3.176  -1.014  0.00  0.00     0.043 A 
ATOM     15  F   UNL d   1      -5.510   3.804   0.303  0.00  0.00    -0.206 F 
ATOM     16  C   UNL d   1      -2.335   2.732  -1.090  0.00  0.00     0.014 A 
ENDBRANCH   7  10
BRANCH   4  17
ATOM     17  C   UNL d   1       2.620  -1.817  -0.082  0.00  0.00     0.008 A 
ATOM     18  C   UNL d   1       3.796  -1.355  -0.681  0.00  0.00     0.015 A 
ATOM     19  C   UNL d   1       4.934  -2.159  -0.685  0.00  0.00     0.001 A 
ATOM     20  C   UNL d   1       4.900  -3.419  -0.086  0.00  0.00     0.000 A 
ATOM     21  C   UNL d   1       3.726  -3.884   0.507  0.00  0.00     0.001 A 
ATOM     22  C   UNL d   1       2.582  -3.086   0.508  0.00  0.00     0.015 A 
ENDBRANCH   4  17
TORSDOF 2
