REMARK  8 active torsions:
REMARK  status: ('A' for Active; 'I' for Inactive)
REMARK    1  A    between atoms: S_12  and  C_3 
REMARK    2  A    between atoms: C_9  and  N_8 
REMARK    3  A    between atoms: O_13  and  N_10 
REMARK    4  A    between atoms: C_14  and  S_12 
REMARK    5  A    between atoms: C_15  and  C_14 
REMARK    6  A    between atoms: C_18  and  C_15 
REMARK    7  A    between atoms: C_16  and  C_17 
REMARK    8  A    between atoms: C_17  and  C_18 
ROOT
ATOM      1  S   UNL d   1      -1.285  -0.360   0.688  0.00  0.00    -0.026 SA
ATOM      2  C   UNL d   1      -0.535   1.119   0.193  0.00  0.00     0.166 A 
ATOM      3  C   UNL d   1       0.036  -1.201  -0.002  0.00  0.00     0.130 A 
ATOM      4  N   UNL d   1       0.603   0.915  -0.444  0.00  0.00    -0.278 N 
ATOM      5  HN  UNL d   1       1.180   1.669  -0.815  1.00  0.00     0.189 HD
ATOM      6  N   UNL d   1       0.935  -0.423  -0.560  0.00  0.00    -0.286 N 
ATOM      7  HN  UNL d   1       1.777  -0.765  -1.023  1.00  0.00     0.188 HD
ATOM      8  N   UNL d   1      -1.037   2.355   0.428  0.00  0.00    -0.330 N 
ATOM      9  H   UNL d   1      -0.482   3.131   0.077  0.00  0.00     0.168 HD
ENDROOT
BRANCH   8  10
ATOM     10  C   UNL d   1      -2.172   2.735   1.073  0.00  0.00     0.206 C 
ATOM     11  N   UNL d   1      -2.549   3.961   1.244  0.00  0.00    -0.265 N 
ATOM     12  HN  UNL d   1      -2.049   4.789   0.919  1.00  0.00     0.194 HD
BRANCH  11  13
ATOM     13  O   UNL d   1      -3.760   3.960   1.950  0.00  0.00    -0.289 OA
ATOM     14  H   UNL d   1      -3.964   4.911   2.030  0.00  0.00     0.244 HD
ENDBRANCH  11  13
ENDBRANCH   8  10
BRANCH   3  15
ATOM     15  S   UNL d   1       0.158  -2.947   0.007  0.00  0.00    -0.103 SA
BRANCH  15  16
ATOM     16  C   UNL d   1       1.964  -3.191  -0.029  0.00  0.00     0.081 C 
BRANCH  16  17
ATOM     17  C   UNL d   1       2.282  -4.690  -0.043  0.00  0.00     0.010 C 
BRANCH  17  18
ATOM     18  C   UNL d   1       3.793  -4.951  -0.049  0.00  0.00     0.001 C 
BRANCH  18  19
ATOM     19  C   UNL d   1       4.098  -6.452  -0.066  0.00  0.00    -0.000 C 
BRANCH  19  20
ATOM     20  C   UNL d   1       5.603  -6.723  -0.070  0.00  0.00    -0.005 C 
ATOM     21  C   UNL d   1       5.898  -8.215  -0.088  0.00  0.00     0.005 C 
ENDBRANCH  19  20
ENDBRANCH  18  19
ENDBRANCH  17  18
ENDBRANCH  16  17
ENDBRANCH  15  16
ENDBRANCH   3  15
TORSDOF 8
