REMARK  3 active torsions:
REMARK  status: ('A' for Active; 'I' for Inactive)
REMARK    1  A    between atoms: C_4  and  C_3 
REMARK       I    between atoms: N_5  and  C_4 
REMARK    2  A    between atoms: C_8  and  N_5 
REMARK    3  A    between atoms: N_7  and  C_9 
ROOT
ATOM      1  C   UNL d   1       3.273   0.292  -0.729  0.00  0.00     0.270 C 
ATOM      2  N   UNL d   1       3.944   1.250   0.009  0.00  0.00    -0.320 N 
ATOM      3  O   UNL d   1       2.123   0.310  -1.137  0.00  0.00    -0.266 OA
ATOM      4  H   UNL d   1       4.950   1.239  -0.113  0.00  0.00     0.169 HD
ENDROOT
BRANCH   2   5
ATOM      5  C   UNL d   1       3.326   2.462   0.374  0.00  0.00     0.061 A 
ATOM      6  C   UNL d   1       2.202   2.510   1.239  0.00  0.00     0.057 A 
ATOM      7  C   UNL d   1       1.598   3.768   1.409  0.00  0.00     0.031 A 
ATOM      8  C   UNL d   1       2.088   4.918   0.776  0.00  0.00     0.002 A 
ATOM      9  C   UNL d   1       3.220   4.844  -0.028  0.00  0.00     0.002 A 
ATOM     10  C   UNL d   1       3.854   3.621  -0.211  0.00  0.00     0.032 A 
BRANCH   6  11
ATOM     11  N   UNL d   1       1.719   1.384   1.892  0.00  0.00    -0.375 N 
ATOM     12  C   UNL d   1       0.325   1.282   2.347  0.00  0.00     0.149 C 
ATOM     13  C   UNL d   1      -0.088  -0.202   2.304  0.00  0.00     0.187 C 
ATOM     14  O   UNL d   1       0.791  -1.029   3.091  0.00  0.00    -0.388 OA
ATOM     15  C   UNL d   1       2.150  -0.899   2.627  0.00  0.00     0.187 C 
ATOM     16  C   UNL d   1       2.629   0.559   2.710  0.00  0.00     0.149 C 
ENDBRANCH   6  11
ENDBRANCH   2   5
BRANCH   1  17
ATOM     17  C   UNL d   1       4.170  -0.880  -1.127  0.00  0.00     0.094 C 
ATOM     18  N   UNL d   1       5.291  -1.036  -0.488  0.00  0.00    -0.297 N 
ATOM     19  N   UNL d   1       6.049  -2.124  -0.785  0.00  0.00    -0.270 N 
ATOM     20  HN  UNL d   1       5.594  -0.362   0.215  1.00  0.00     0.187 HD
ATOM     21  C   UNL d   1       5.810  -3.050  -1.759  0.00  0.00     0.236 C 
ATOM     22  H   UNL d   1       6.848  -2.306  -0.191  0.00  0.00     0.190 HD
ATOM     23  O   UNL d   1       6.533  -4.037  -1.892  0.00  0.00    -0.272 OA
ATOM     24  C   UNL d   1       4.691  -2.756  -2.720  0.00  0.00     0.111 C 
ATOM     25  C   UNL d   1       3.644  -1.808  -2.180  0.00  0.00     0.073 C 
ENDBRANCH   1  17
TORSDOF 3
