REMARK  2 active torsions:
REMARK  status: ('A' for Active; 'I' for Inactive)
REMARK    1  A    between atoms: C_7  and  N_1 
REMARK    2  A    between atoms: N_11  and  C_10 
ROOT
ATOM      1  C   UNL d   1       2.069  -1.495  -0.017  0.00  0.00     0.056 A 
ATOM      2  C   UNL d   1       3.192  -1.049   0.693  0.00  0.00     0.033 A 
ATOM      3  C   UNL d   1       2.151  -2.682  -0.752  0.00  0.00     0.033 A 
ATOM      4  C   UNL d   1       4.449  -3.004  -0.022  0.00  0.00     0.005 A 
ATOM      5  C   UNL d   1       4.356  -1.824   0.719  0.00  0.00     0.025 A 
ATOM      6  C   UNL d   1       3.330  -3.436  -0.735  0.00  0.00     0.025 A 
ENDROOT
BRANCH   1   7
ATOM      7  N   UNL d   1       0.868  -0.735   0.031  0.00  0.00    -0.261 N 
ATOM      8  N   UNL d   1       0.932   0.610   0.230  0.00  0.00    -0.298 N 
ATOM      9  C   UNL d   1      -0.314   1.053   0.038  0.00  0.00     0.024 C 
ATOM     10  HN  UNL d   1       1.755   1.162   0.472  1.00  0.00     0.187 HD
ATOM     11  C   UNL d   1      -0.623   2.501   0.087  0.00  0.00     0.070 C 
ATOM     12  C   UNL d   1      -1.216  -0.010  -0.150  0.00  0.00     0.052 C 
ATOM     13  C   UNL d   1      -0.452  -1.157  -0.083  0.00  0.00     0.032 C 
ATOM     14  C   UNL d   1      -0.928  -2.564  -0.029  0.00  0.00     0.070 C 
ENDBRANCH   1   7
BRANCH   4  15
ATOM     15  N   UNL d   1       5.554  -3.851   0.131  0.00  0.00    -0.303 NA
ATOM     16  H   UNL d   1       5.695  -4.490  -0.645  0.00  0.00     0.124 HD
ATOM     17  H   UNL d   1       6.409  -3.368   0.394  0.00  0.00     0.124 HD
ENDBRANCH   4  15
TORSDOF 2
