REMARK  5 active torsions:
REMARK  status: ('A' for Active; 'I' for Inactive)
REMARK    1  A    between atoms: N_2  and  S_1 
REMARK    2  A    between atoms: C_8  and  S_1 
REMARK       I    between atoms: C_7  and  N_2 
REMARK    3  A    between atoms: C_11  and  N_2 
REMARK    4  A    between atoms: N_3  and  C_12 
REMARK    5  A    between atoms: C_4  and  C_13 
ROOT
ATOM      1  S   UNL d   1       0.848  -0.077   0.122  0.00  0.00     0.271 S 
ATOM      2  O   UNL d   1       0.148  -1.049  -0.694  0.00  0.00    -0.200 OA
ATOM      3  O   UNL d   1       2.299  -0.031   0.100  0.00  0.00    -0.200 OA
ENDROOT
BRANCH   1   4
ATOM      4  N   UNL d   1       0.317  -0.218   1.715  0.00  0.00    -0.205 N 
ATOM      5  C   UNL d   1      -1.052  -0.217   2.094  0.00  0.00     0.234 C 
ATOM      6  O   UNL d   1      -1.946   0.051   1.294  0.00  0.00    -0.272 OA
ATOM      7  C   UNL d   1      -1.404  -0.503   3.536  0.00  0.00     0.119 C 
BRANCH   4   8
ATOM      8  C   UNL d   1       1.305  -0.483   2.708  0.00  0.00     0.053 A 
ATOM      9  C   UNL d   1       1.811   0.579   3.457  0.00  0.00     0.031 A 
ATOM     10  C   UNL d   1       2.682   0.330   4.518  0.00  0.00     0.018 A 
ATOM     11  C   UNL d   1       3.054  -0.985   4.842  0.00  0.00     0.048 A 
ATOM     12  C   UNL d   1       2.567  -2.043   4.058  0.00  0.00     0.018 A 
ATOM     13  C   UNL d   1       1.700  -1.795   2.988  0.00  0.00     0.031 A 
BRANCH  11  14
ATOM     14  C   UNL d   1       3.944  -1.265   6.031  0.00  0.00     0.417 C 
ATOM     15  F   UNL d   1       4.332  -0.140   6.694  0.00  0.00    -0.166 F 
ATOM     16  F   UNL d   1       3.327  -2.047   6.961  0.00  0.00    -0.166 F 
ATOM     17  F   UNL d   1       5.089  -1.916   5.691  0.00  0.00    -0.166 F 
ENDBRANCH  11  14
ENDBRANCH   4   8
ENDBRANCH   1   4
BRANCH   1  18
ATOM     18  C   UNL d   1       0.300   1.552  -0.372  0.00  0.00     0.080 A 
ATOM     19  C   UNL d   1       1.119   2.657  -0.144  0.00  0.00     0.027 A 
ATOM     20  C   UNL d   1       0.766   3.910  -0.673  0.00  0.00     0.032 A 
ATOM     21  C   UNL d   1      -0.401   4.090  -1.438  0.00  0.00     0.045 A 
ATOM     22  C   UNL d   1      -1.216   2.961  -1.632  0.00  0.00     0.032 A 
ATOM     23  C   UNL d   1      -0.865   1.701  -1.120  0.00  0.00     0.027 A 
BRANCH  21  24
ATOM     24  N   UNL d   1      -0.732   5.360  -2.014  0.00  0.00    -0.252 N 
ATOM     25  C   UNL d   1      -1.988   5.713  -2.460  0.00  0.00     0.231 A 
ATOM     26  C   UNL d   1      -1.958   7.117  -2.986  0.00  0.00     0.113 A 
ATOM     27  O   UNL d   1      -3.031   5.072  -2.427  0.00  0.00    -0.273 OA
ATOM     28  C   UNL d   1      -0.518   7.539  -2.876  0.00  0.00     0.113 A 
ATOM     29  C   UNL d   1       0.172   6.381  -2.220  0.00  0.00     0.231 A 
ATOM     30  O   UNL d   1       1.373   6.411  -1.986  0.00  0.00    -0.273 OA
ENDBRANCH  21  24
ENDBRANCH   1  18
TORSDOF 5
