REMARK  3 active torsions:
REMARK  status: ('A' for Active; 'I' for Inactive)
REMARK    1  A    between atoms: C_5  and  C_3 
REMARK    2  A    between atoms: N_11  and  N_8 
REMARK    3  A    between atoms: C_12  and  N_11 
ROOT
ATOM      1  C   UNL d   1      -3.432  -1.319  -0.086  0.00  0.00     0.144 C 
ATOM      2  N   UNL d   1      -4.459  -0.532  -0.184  0.00  0.00    -0.309 N 
ATOM      3  HN  UNL d   1      -4.357   0.482  -0.219  1.00  0.00     0.186 HD
ENDROOT
BRANCH   1   4
ATOM      4  C   UNL d   1      -2.082  -0.810  -0.044  0.00  0.00     0.092 A 
ATOM      5  N   UNL d   1      -1.040  -1.607   0.056  0.00  0.00    -0.348 N 
ATOM      6  C   UNL d   1       0.122  -0.849   0.048  0.00  0.00     0.050 A 
ATOM      7  HN  UNL d   1      -1.080  -2.624   0.129  1.00  0.00     0.166 HD
ATOM      8  C   UNL d   1      -0.063   0.532  -0.054  0.00  0.00     0.033 A 
ATOM      9  C   UNL d   1       1.438  -1.348   0.130  0.00  0.00     0.031 A 
ATOM     10  C   UNL d   1       1.016   1.430  -0.078  0.00  0.00     0.021 A 
ATOM     11  S   UNL d   1      -1.748   0.866  -0.138  0.00  0.00    -0.069 SA
ATOM     12  C   UNL d   1       2.310   0.909   0.003  0.00  0.00     0.002 A 
ATOM     13  C   UNL d   1       2.522  -0.462   0.106  0.00  0.00     0.002 A 
ENDBRANCH   1   4
BRANCH   2  14
ATOM     14  N   UNL d   1      -5.678  -1.132  -0.239  0.00  0.00    -0.301 N 
ATOM     15  H   UNL d   1      -5.838  -2.006   0.260  0.00  0.00     0.187 HD
BRANCH  14  16
ATOM     16  C   UNL d   1      -6.810  -0.288  -0.292  0.00  0.00     0.051 A 
ATOM     17  C   UNL d   1      -8.092  -0.848  -0.256  0.00  0.00     0.073 A 
ATOM     18  C   UNL d   1      -9.215  -0.034  -0.384  0.00  0.00     0.118 A 
ATOM     19  F   UNL d   1     -10.435  -0.587  -0.342  0.00  0.00    -0.206 F 
ATOM     20  C   UNL d   1      -9.096   1.339  -0.567  0.00  0.00     0.042 A 
ATOM     21  C   UNL d   1      -7.829   1.908  -0.633  0.00  0.00     0.005 A 
ATOM     22  C   UNL d   1      -6.698   1.096  -0.510  0.00  0.00     0.031 A 
ENDBRANCH  14  16
ENDBRANCH   2  14
TORSDOF 3
