REMARK  4 active torsions:
REMARK  status: ('A' for Active; 'I' for Inactive)
REMARK    1  A    between atoms: C_2  and  C_1 
REMARK       I    between atoms: N_5  and  C_1 
REMARK    2  A    between atoms: C_3  and  C_4 
REMARK    3  A    between atoms: O_11  and  C_3 
REMARK    4  A    between atoms: C_6  and  N_5 
ROOT
ATOM      1  C   UNL d   1       1.080  -0.100   0.072  0.00  0.00     0.245 C 
ATOM      2  N   UNL d   1       0.333   1.028   0.328  0.00  0.00    -0.324 N 
ATOM      3  O   UNL d   1       0.666  -1.227  -0.170  0.00  0.00    -0.268 OA
ATOM      4  H   UNL d   1       0.816   1.915   0.378  0.00  0.00     0.169 HD
ENDROOT
BRANCH   2   5
ATOM      5  C   UNL d   1      -1.077   1.088   0.429  0.00  0.00     0.036 A 
ATOM      6  C   UNL d   1      -1.890  -0.043   0.538  0.00  0.00     0.048 A 
ATOM      7  C   UNL d   1      -3.277   0.094   0.599  0.00  0.00     0.013 A 
ATOM      8 BR   UNL d   1      -4.365  -1.447   0.745  0.00  0.00    -0.051 Br
ATOM      9  C   UNL d   1      -3.870   1.353   0.552  0.00  0.00     0.019 A 
ATOM     10  C   UNL d   1      -3.065   2.487   0.470  0.00  0.00     0.004 A 
ATOM     11  C   UNL d   1      -1.674   2.355   0.421  0.00  0.00     0.029 A 
ENDBRANCH   2   5
BRANCH   1  12
ATOM     12  C   UNL d   1       2.541   0.171   0.078  0.00  0.00     0.081 C 
ATOM     13  C   UNL d   1       3.380  -0.844  -0.173  0.00  0.00     0.086 C 
BRANCH  13  14
ATOM     14  C   UNL d   1       4.828  -0.592  -0.146  0.00  0.00     0.165 C 
ATOM     15  O   UNL d   1       5.327   0.499   0.064  0.00  0.00    -0.647 OA
BRANCH  14  16
ATOM     16  O   UNL d   1       5.548  -1.707  -0.373  0.00  0.00    -0.773 OA
ATOM     17  H   UNL d   1       5.031  -2.521  -0.519  0.00  0.00     0.167 HD
ENDBRANCH  14  16
ENDBRANCH  13  14
ENDBRANCH   1  12
TORSDOF 4
