REMARK  2 active torsions:
REMARK  status: ('A' for Active; 'I' for Inactive)
REMARK    1  A    between atoms: C_7  and  C_1 
REMARK    2  A    between atoms: O_10  and  C_7 
ROOT
ATOM      1  C   UNL d   1      -0.672   1.173  -0.005  0.00  0.00     0.152 A 
ATOM      2  C   UNL d   1       0.776  -1.227  -0.001  0.00  0.00     0.018 A 
ATOM      3  C   UNL d   1      -1.408   0.058  -0.002  0.00  0.00     0.099 A 
ATOM      4  O   UNL d   1       0.711   1.177  -0.007  0.00  0.00    -0.308 OA
ATOM      5  C   UNL d   1       1.398  -0.031  -0.006  0.00  0.00     0.060 A 
ATOM      6  C   UNL d   1      -0.717  -1.238   0.000  0.00  0.00     0.183 A 
ATOM      7  O   UNL d   1      -1.362  -2.280   0.004  0.00  0.00    -0.288 OA
ATOM      8  C   UNL d   1       1.408  -2.587   0.003  0.00  0.00     0.055 C 
ATOM      9  C   UNL d   1       2.883   0.181  -0.009  0.00  0.00     0.077 C 
ENDROOT
BRANCH   1  10
ATOM     10  C   UNL d   1      -1.375   2.481  -0.006  0.00  0.00     0.201 C 
ATOM     11  O   UNL d   1      -2.586   2.618  -0.005  0.00  0.00    -0.645 OA
BRANCH  10  12
ATOM     12  O   UNL d   1      -0.514   3.521  -0.007  0.00  0.00    -0.771 OA
ATOM     13  H   UNL d   1       0.422   3.238  -0.007  0.00  0.00     0.167 HD
ENDBRANCH  10  12
ENDBRANCH   1  10
TORSDOF 2
