REMARK  7 active torsions:
REMARK  status: ('A' for Active; 'I' for Inactive)
REMARK    1  A    between atoms: C_2  and  C_1 
REMARK       I    between atoms: N_3  and  C_1 
REMARK    2  A    between atoms: C_8  and  N_3 
REMARK    3  A    between atoms: C_9  and  N_3 
REMARK    4  A    between atoms: O_5  and  C_4 
REMARK    5  A    between atoms: C_17  and  O_5 
REMARK    6  A    between atoms: C_15  and  C_8 
REMARK    7  A    between atoms: C_16  and  C_9 
ROOT
ATOM      1  C   UNL d   1       0.689  -0.165  -0.025  0.00  0.00     0.258 C 
ATOM      2  N   UNL d   1       0.089  -0.799   1.067  0.00  0.00    -0.337 N 
ATOM      3  O   UNL d   1       1.911  -0.006  -0.097  0.00  0.00    -0.267 OA
ENDROOT
BRANCH   1   4
ATOM      4  C   UNL d   1      -0.065   0.254  -1.232  0.00  0.00     0.083 A 
ATOM      5  C   UNL d   1      -1.202   1.055  -1.260  0.00  0.00     0.163 A 
ATOM      6  N   UNL d   1      -1.857   1.374  -2.411  0.00  0.00    -0.346 N 
ATOM      7  C   UNL d   1      -1.304   0.977  -3.577  0.00  0.00     0.090 A 
ATOM      8  HN  UNL d   1      -2.734   1.895  -2.393  1.00  0.00     0.167 HD
ATOM      9  C   UNL d   1      -0.127   0.258  -3.658  0.00  0.00     0.018 A 
ATOM     10  C   UNL d   1       0.491  -0.114  -2.468  0.00  0.00     0.023 A 
BRANCH   5  11
ATOM     11  O   UNL d   1      -1.712   1.530  -0.059  0.00  0.00    -0.293 OA
BRANCH  11  12
ATOM     12  C   UNL d   1      -2.543   2.627  -0.060  0.00  0.00     0.077 A 
ATOM     13  C   UNL d   1      -3.582   2.620   0.875  0.00  0.00     0.039 A 
ATOM     14  C   UNL d   1      -4.405   3.741   1.020  0.00  0.00     0.026 A 
ATOM     15  C   UNL d   1      -4.183   4.868   0.230  0.00  0.00     0.034 A 
ATOM     16  C   UNL d   1      -3.153   4.880  -0.708  0.00  0.00     0.026 A 
ATOM     17 CL   UNL d   1      -5.170   6.263   0.431  0.00  0.00    -0.084 Cl
ATOM     18  C   UNL d   1      -2.323   3.764  -0.842  0.00  0.00     0.039 A 
ENDBRANCH  11  12
ENDBRANCH   5  11
ENDBRANCH   1   4
BRANCH   2  19
ATOM     19  C   UNL d   1       1.000  -1.358   2.079  0.00  0.00     0.183 C 
BRANCH  19  20
ATOM     20  C   UNL d   1       0.624  -1.192   3.544  0.00  0.00     0.027 A 
ATOM     21  N   UNL d   1      -0.027  -0.068   3.941  0.00  0.00    -0.368 N 
ATOM     22  C   UNL d   1      -0.228   0.096   5.269  0.00  0.00     0.088 A 
ATOM     23  HN  UNL d   1      -0.352   0.623   3.265  1.00  0.00     0.165 HD
ATOM     24  C   UNL d   1       0.179  -0.810   6.236  0.00  0.00     0.017 A 
ATOM     25  C   UNL d   1       0.836  -1.959   5.817  0.00  0.00     0.003 A 
ATOM     26  C   UNL d   1       1.071  -2.150   4.458  0.00  0.00     0.027 A 
ENDBRANCH  19  20
ENDBRANCH   2  19
BRANCH   2  27
ATOM     27  C   UNL d   1      -1.349  -1.059   1.208  0.00  0.00     0.183 C 
BRANCH  27  28
ATOM     28  C   UNL d   1      -1.765  -2.452   1.627  0.00  0.00     0.027 A 
ATOM     29  N   UNL d   1      -1.397  -3.488   0.830  0.00  0.00    -0.368 N 
ATOM     30  C   UNL d   1      -1.913  -4.704   1.117  0.00  0.00     0.088 A 
ATOM     31  HN  UNL d   1      -0.757  -3.354   0.047  1.00  0.00     0.165 HD
ATOM     32  C   UNL d   1      -2.785  -4.945   2.165  0.00  0.00     0.017 A 
ATOM     33  C   UNL d   1      -3.137  -3.881   2.985  0.00  0.00     0.003 A 
ATOM     34  C   UNL d   1      -2.622  -2.613   2.716  0.00  0.00     0.027 A 
ENDBRANCH  27  28
ENDBRANCH   2  27
TORSDOF 7
