REMARK  6 active torsions:
REMARK  status: ('A' for Active; 'I' for Inactive)
REMARK       I    between atoms: N_3  and  C_1 
REMARK    1  A    between atoms: C_10  and  C_1 
REMARK    2  A    between atoms: C_2  and  C_5 
REMARK    3  A    between atoms: C_5  and  N_3 
REMARK    4  A    between atoms: O_4  and  C_10 
REMARK    5  A    between atoms: C_6  and  O_4 
REMARK    6  A    between atoms: O_12  and  C_9 
ROOT
ATOM      1  C   UNL d   1       0.894   0.144   0.179  0.00  0.00     0.242 C 
ATOM      2  N   UNL d   1       0.187  -0.414   1.224  0.00  0.00    -0.355 N 
ATOM      3  O   UNL d   1       0.343   0.743  -0.740  0.00  0.00    -0.271 OA
ATOM      4  H   UNL d   1       0.694  -0.562   2.099  0.00  0.00     0.162 HD
ENDROOT
BRANCH   1   5
ATOM      5  C   UNL d   1       2.394  -0.115   0.204  0.00  0.00     0.278 C 
BRANCH   5   6
ATOM      6  O   UNL d   1       3.118   0.880   0.907  0.00  0.00    -0.339 OA
BRANCH   6   7
ATOM      7  C   UNL d   1       4.482   0.721   0.981  0.00  0.00     0.102 A 
ATOM      8  C   UNL d   1       5.259  -0.328   0.468  0.00  0.00     0.099 A 
ATOM      9  C   UNL d   1       6.647  -0.348   0.646  0.00  0.00     0.039 A 
ATOM     10  C   UNL d   1       7.275   0.668   1.362  0.00  0.00     0.003 A 
ATOM     11  C   UNL d   1       6.518   1.713   1.885  0.00  0.00     0.003 A 
ATOM     12  C   UNL d   1       5.134   1.743   1.686  0.00  0.00     0.039 A 
BRANCH   8  13
ATOM     13  O   UNL d   1       4.695  -1.379  -0.203  0.00  0.00    -0.358 OA
ATOM     14  H   UNL d   1       5.276  -2.152  -0.102  0.00  0.00     0.217 HD
ENDBRANCH   8  13
ENDBRANCH   6   7
ENDBRANCH   5   6
ENDBRANCH   1   5
BRANCH   2  15
ATOM     15  C   UNL d   1      -1.247  -0.268   1.281  0.00  0.00     0.162 C 
BRANCH  15  16
ATOM     16  C   UNL d   1      -1.876  -1.040   2.409  0.00  0.00    -0.019 A 
ATOM     17  C   UNL d   1      -1.811  -0.611   3.745  0.00  0.00     0.042 A 
ATOM     18 CL   UNL d   1      -0.938   0.809   4.202  0.00  0.00    -0.084 Cl
ATOM     19  C   UNL d   1      -2.459  -1.325   4.758  0.00  0.00     0.024 A 
ATOM     20  C   UNL d   1      -3.176  -2.482   4.454  0.00  0.00     0.002 A 
ATOM     21  C   UNL d   1      -3.230  -2.935   3.141  0.00  0.00     0.001 A 
ATOM     22  C   UNL d   1      -2.585  -2.223   2.126  0.00  0.00     0.010 A 
ENDBRANCH  15  16
ENDBRANCH   2  15
TORSDOF 6
