REMARK  3 active torsions:
REMARK  status: ('A' for Active; 'I' for Inactive)
REMARK    1  A    between atoms: C_9  and  C_3 
REMARK    2  A    between atoms: C_8  and  C_7 
REMARK    3  A    between atoms: C_12  and  C_11 
ROOT
ATOM      1  N   UNL d   1       1.561  -0.099  -0.024  0.00  0.00    -0.331 N 
ATOM      2  HN  UNL d   1       2.502  -0.489  -0.060  1.00  0.00     0.168 HD
ATOM      3  C   UNL d   1       1.203   1.145  -0.015  0.00  0.00     0.162 A 
ATOM      4  O   UNL d   1      -0.119   1.420   0.037  0.00  0.00    -0.256 OA
ATOM      5  C   UNL d   1      -0.764   0.224   0.060  0.00  0.00     0.316 A 
ATOM      6  C   UNL d   1       0.359  -0.762   0.025  0.00  0.00     0.110 A 
ATOM      7  C   UNL d   1       0.252  -2.098   0.034  0.00  0.00     0.036 C 
ATOM      8  O   UNL d   1      -1.965   0.059   0.094  0.00  0.00    -0.257 OA
ENDROOT
BRANCH   7   9
ATOM      9  C   UNL d   1      -0.981  -2.852   0.066  0.00  0.00     0.003 C 
ATOM     10  C   UNL d   1      -1.043  -4.193   0.061  0.00  0.00     0.011 C 
BRANCH  10  11
ATOM     11  C   UNL d   1      -2.318  -4.931   0.027  0.00  0.00    -0.036 A 
ATOM     12  C   UNL d   1      -3.446  -4.431  -0.640  0.00  0.00     0.011 A 
ATOM     13  C   UNL d   1      -4.633  -5.162  -0.691  0.00  0.00     0.001 A 
ATOM     14  C   UNL d   1      -4.704  -6.414  -0.087  0.00  0.00     0.000 A 
ATOM     15  C   UNL d   1      -3.586  -6.933   0.565  0.00  0.00     0.001 A 
ATOM     16  C   UNL d   1      -2.398  -6.198   0.620  0.00  0.00     0.011 A 
ENDBRANCH  10  11
ENDBRANCH   7   9
BRANCH   3  17
ATOM     17  C   UNL d   1       2.074   2.328  -0.070  0.00  0.00     0.015 A 
ATOM     18  C   UNL d   1       3.457   2.151  -0.183  0.00  0.00     0.016 A 
ATOM     19  C   UNL d   1       4.298   3.263  -0.269  0.00  0.00     0.001 A 
ATOM     20  C   UNL d   1       3.760   4.550  -0.239  0.00  0.00     0.000 A 
ATOM     21  C   UNL d   1       2.384   4.730  -0.115  0.00  0.00     0.001 A 
ATOM     22  C   UNL d   1       1.539   3.623  -0.029  0.00  0.00     0.016 A 
ENDBRANCH   3  17
TORSDOF 3
