REMARK  7 active torsions:
REMARK  status: ('A' for Active; 'I' for Inactive)
REMARK    1  A    between atoms: N_2  and  C_1 
REMARK    2  A    between atoms: N_4  and  C_3 
REMARK       I    between atoms: N_5  and  C_6 
REMARK    3  A    between atoms: C_11  and  N_5 
REMARK    4  A    between atoms: C_6  and  C_10 
REMARK    5  A    between atoms: C_12  and  C_17 
REMARK    6  A    between atoms: C_14  and  C_21 
REMARK    7  A    between atoms: O_25  and  C_18 
ROOT
ATOM      1  C   UNL d   1       1.133  -0.148   0.314  0.00  0.00     0.125 A 
ATOM      2  C   UNL d   1       0.365  -1.312   0.078  0.00  0.00     0.044 A 
ATOM      3  C   UNL d   1       0.561   1.107   0.619  0.00  0.00     0.049 A 
ATOM      4  C   UNL d   1      -1.027  -1.099   0.037  0.00  0.00     0.027 A 
ATOM      5  C   UNL d   1      -0.823   1.242   0.669  0.00  0.00    -0.034 A 
ATOM      6  C   UNL d   1      -1.608   0.146   0.322  0.00  0.00     0.013 A 
ENDROOT
BRANCH   2   7
ATOM      7  N   UNL d   1       0.912  -2.623  -0.049  0.00  0.00    -0.281 NA
ATOM      8  C   UNL d   1       0.023  -3.627  -0.664  0.00  0.00     0.096 C 
ATOM      9  C   UNL d   1       0.689  -4.986  -0.790  0.00  0.00     0.024 C 
ATOM     10  C   UNL d   1       1.174  -5.521   0.559  0.00  0.00     0.024 C 
ATOM     11  C   UNL d   1       2.092  -4.489   1.215  0.00  0.00     0.024 C 
ATOM     12  C   UNL d   1       1.640  -3.032   1.177  0.00  0.00     0.096 C 
BRANCH  10  13
ATOM     13  C   UNL d   1       0.054  -6.091   1.428  0.00  0.00    -0.021 A 
ATOM     14  C   UNL d   1      -0.178  -7.477   1.562  0.00  0.00     0.074 A 
ATOM     15  C   UNL d   1      -1.210  -7.952   2.388  0.00  0.00     0.037 A 
ATOM     16  C   UNL d   1      -2.038  -7.073   3.079  0.00  0.00     0.003 A 
ATOM     17  C   UNL d   1      -1.827  -5.708   2.967  0.00  0.00     0.001 A 
ATOM     18  C   UNL d   1      -0.794  -5.228   2.155  0.00  0.00     0.010 A 
BRANCH  14  19
ATOM     19  O   UNL d   1       0.635  -8.469   1.075  0.00  0.00    -0.355 OA
ATOM     20  C   UNL d   1       0.795  -8.521  -0.338  0.00  0.00     0.210 C 
ENDBRANCH  14  19
ENDBRANCH  10  13
ENDBRANCH   2   7
BRANCH   1  21
ATOM     21  N   UNL d   1       2.580  -0.164   0.193  0.00  0.00    -0.114 N 
ATOM     22  O   UNL d   1       3.070  -0.497  -0.893  0.00  0.00    -0.532 OA
ATOM     23  O   UNL d   1       3.225   0.211   1.186  0.00  0.00    -0.532 OA
ENDBRANCH   1  21
BRANCH   5  24
ATOM     24  C   UNL d   1      -1.443   2.532   0.983  0.00  0.00     0.017 C 
ATOM     25  C   UNL d   1      -2.554   2.642   1.730  0.00  0.00     0.075 C 
BRANCH  25  26
ATOM     26  C   UNL d   1      -3.228   3.960   1.834  0.00  0.00     0.245 C 
ATOM     27  N   UNL d   1      -4.153   4.008   2.853  0.00  0.00    -0.323 N 
ATOM     28  H   UNL d   1      -4.101   3.303   3.577  0.00  0.00     0.169 HD
ATOM     29  O   UNL d   1      -2.939   4.876   1.071  0.00  0.00    -0.268 OA
BRANCH  27  30
ATOM     30  C   UNL d   1      -5.069   5.062   3.040  0.00  0.00     0.041 A 
ATOM     31  C   UNL d   1      -5.529   5.402   4.327  0.00  0.00    -0.035 A 
ATOM     32  C   UNL d   1      -4.981   4.811   5.598  0.00  0.00     0.050 C 
ATOM     33  C   UNL d   1      -6.482   6.429   4.458  0.00  0.00     0.009 A 
ATOM     34  C   UNL d   1      -6.982   7.099   3.337  0.00  0.00     0.001 A 
ATOM     35  C   UNL d   1      -6.533   6.753   2.072  0.00  0.00     0.002 A 
ATOM     36  C   UNL d   1      -5.585   5.748   1.923  0.00  0.00     0.030 A 
ENDBRANCH  27  30
ENDBRANCH  25  26
ENDBRANCH   5  24
TORSDOF 7
