REMARK  7 active torsions:
REMARK  status: ('A' for Active; 'I' for Inactive)
REMARK    1  A    between atoms: C_14  and  C_3 
REMARK    2  A    between atoms: C_7  and  C_4 
REMARK    3  A    between atoms: C_10  and  C_7 
REMARK    4  A    between atoms: C_8  and  O_15 
REMARK       I    between atoms: C_9  and  N_11 
REMARK       I    between atoms: N_12  and  C_9 
REMARK       I    between atoms: N_13  and  C_10 
REMARK    5  A    between atoms: N_11  and  N_13 
REMARK    6  A    between atoms: C_21  and  N_12 
REMARK    7  A    between atoms: O_15  and  C_22 
ROOT
ATOM      1  C   UNL d   1       1.791  -2.919  -0.502  0.00  0.00     0.241 C 
ATOM      2  N   UNL d   1       2.450  -1.852  -1.070  0.00  0.00    -0.266 N 
ATOM      3  O   UNL d   1       2.359  -3.980  -0.234  0.00  0.00    -0.271 OA
ATOM      4  H   UNL d   1       2.010  -0.924  -1.045  0.00  0.00     0.190 HD
ENDROOT
BRANCH   2   5
ATOM      5  N   UNL d   1       3.861  -1.859  -1.111  0.00  0.00    -0.249 N 
ATOM      6  C   UNL d   1       4.489  -0.625  -1.085  0.00  0.00     0.339 C 
ATOM      7  N   UNL d   1       5.849  -0.706  -1.286  0.00  0.00    -0.308 N 
ATOM      8  O   UNL d   1       3.839   0.401  -0.903  0.00  0.00    -0.245 OA
ATOM      9  H   UNL d   1       6.235  -1.633  -1.408  0.00  0.00     0.170 HD
ATOM     10  H   UNL d   1       4.286  -2.682  -1.520  0.00  0.00     0.192 HD
BRANCH   7  11
ATOM     11  C   UNL d   1       6.753   0.377  -1.380  0.00  0.00     0.036 A 
ATOM     12  C   UNL d   1       6.388   1.711  -1.178  0.00  0.00     0.032 A 
ATOM     13  C   UNL d   1       7.314   2.754  -1.334  0.00  0.00     0.039 A 
ATOM     14  C   UNL d   1       8.636   2.475  -1.659  0.00  0.00     0.078 A 
ATOM     15  C   UNL d   1       9.008   1.142  -1.861  0.00  0.00     0.039 A 
ATOM     16  C   UNL d   1       8.081   0.101  -1.715  0.00  0.00     0.032 A 
BRANCH  14  17
ATOM     17  O   UNL d   1       9.652   3.372  -1.800  0.00  0.00    -0.255 OA
BRANCH  17  18
ATOM     18  C   UNL d   1       9.443   4.726  -1.428  0.00  0.00     0.530 C 
ATOM     19  F   UNL d   1       8.708   4.853  -0.303  0.00  0.00    -0.144 F 
ATOM     20  F   UNL d   1      10.649   5.292  -1.192  0.00  0.00    -0.144 F 
ATOM     21  F   UNL d   1       8.850   5.404  -2.433  0.00  0.00    -0.144 F 
ENDBRANCH  17  18
ENDBRANCH  14  17
ENDBRANCH   7  11
ENDBRANCH   2   5
BRANCH   1  22
ATOM     22  C   UNL d   1       0.323  -2.695  -0.157  0.00  0.00     0.162 C 
BRANCH  22  23
ATOM     23  C   UNL d   1      -0.392  -1.723  -1.046  0.00  0.00     0.031 A 
ATOM     24  N   UNL d   1       0.086  -0.418  -1.088  0.00  0.00    -0.352 N 
ATOM     25  C   UNL d   1      -0.639   0.329  -1.899  0.00  0.00     0.085 A 
ATOM     26  HN  UNL d   1       0.893  -0.082  -0.562  1.00  0.00     0.166 HD
ATOM     27  S   UNL d   1      -1.974  -0.489  -2.610  0.00  0.00    -0.075 SA
ATOM     28  C   UNL d   1      -1.500  -1.950  -1.846  0.00  0.00     0.004 A 
ATOM     29  C   UNL d   1      -2.271  -3.199  -2.095  0.00  0.00     0.058 C 
BRANCH  25  30
ATOM     30  C   UNL d   1      -0.295   1.706  -2.282  0.00  0.00    -0.002 A 
ATOM     31  C   UNL d   1       1.057   2.067  -2.355  0.00  0.00     0.014 A 
ATOM     32  C   UNL d   1       1.450   3.335  -2.775  0.00  0.00     0.001 A 
ATOM     33  C   UNL d   1       0.482   4.280  -3.119  0.00  0.00     0.000 A 
ATOM     34  C   UNL d   1      -0.869   3.952  -3.025  0.00  0.00     0.001 A 
ATOM     35  C   UNL d   1      -1.258   2.675  -2.606  0.00  0.00     0.014 A 
ENDBRANCH  25  30
ENDBRANCH  22  23
ENDBRANCH   1  22
TORSDOF 7
