REMARK  5 active torsions:
REMARK  status: ('A' for Active; 'I' for Inactive)
REMARK    1  A    between atoms: N_11  and  C_1 
REMARK    2  A    between atoms: C_2  and  C_3 
REMARK    3  A    between atoms: C_6  and  C_14 
REMARK    4  A    between atoms: N_9  and  N_11 
REMARK    5  A    between atoms: O_24  and  C_12 
ROOT
ATOM      1  N   UNL d   1      -0.064   2.177   0.145  0.00  0.00    -0.298 N 
ATOM      2  H   UNL d   1      -0.102   1.372   0.773  0.00  0.00     0.187 HD
ENDROOT
BRANCH   1   3
ATOM      3  N   UNL d   1      -1.218   2.809  -0.163  0.00  0.00    -0.310 N 
ATOM      4  C   UNL d   1      -1.383   3.968   0.406  0.00  0.00     0.121 C 
ATOM      5  HN  UNL d   1      -1.910   2.407  -0.795  1.00  0.00     0.186 HD
BRANCH   4   6
ATOM      6  C   UNL d   1      -2.547   4.825   0.124  0.00  0.00     0.015 A 
ATOM      7  C   UNL d   1      -2.806   6.010   0.828  0.00  0.00     0.080 A 
ATOM      8  C   UNL d   1      -3.984   6.721   0.553  0.00  0.00     0.039 A 
ATOM      9  C   UNL d   1      -4.881   6.277  -0.422  0.00  0.00     0.022 A 
ATOM     10  C   UNL d   1      -4.605   5.112  -1.129  0.00  0.00     0.011 A 
ATOM     11  C   UNL d   1      -3.445   4.389  -0.867  0.00  0.00     0.034 A 
ATOM     12 BR   UNL d   1      -5.831   4.480  -2.422  0.00  0.00    -0.051 Br
BRANCH   7  13
ATOM     13  O   UNL d   1      -2.098   6.489   1.898  0.00  0.00    -0.355 OA
ATOM     14  C   UNL d   1      -0.723   6.784   1.670  0.00  0.00     0.210 C 
ENDBRANCH   7  13
ENDBRANCH   4   6
ENDBRANCH   1   3
BRANCH   1  15
ATOM     15  C   UNL d   1       1.222   2.685  -0.153  0.00  0.00     0.091 A 
ATOM     16  C   UNL d   1       2.296   2.318   0.690  0.00  0.00     0.064 A 
ATOM     17  C   UNL d   1       3.582   2.847   0.527  0.00  0.00     0.042 A 
ATOM     18 CL   UNL d   1       2.057   1.198   1.992  0.00  0.00    -0.082 Cl
ATOM     19  C   UNL d   1       3.842   3.775  -0.485  0.00  0.00     0.051 A 
ATOM     20  C   UNL d   1       2.797   4.139  -1.342  0.00  0.00     0.042 A 
ATOM     21  C   UNL d   1       1.509   3.600  -1.188  0.00  0.00     0.064 A 
ATOM     22 CL   UNL d   1       0.360   4.087  -2.389  0.00  0.00    -0.082 Cl
BRANCH  19  23
ATOM     23  C   UNL d   1       5.229   4.351  -0.652  0.00  0.00     0.417 C 
ATOM     24  F   UNL d   1       5.309   5.285  -1.637  0.00  0.00    -0.166 F 
ATOM     25  F   UNL d   1       5.666   4.965   0.481  0.00  0.00    -0.166 F 
ATOM     26  F   UNL d   1       6.147   3.401  -0.950  0.00  0.00    -0.166 F 
ENDBRANCH  19  23
ENDBRANCH   1  15
TORSDOF 5
