REMARK  4 active torsions:
REMARK  status: ('A' for Active; 'I' for Inactive)
REMARK    1  A    between atoms: C_11  and  C_2 
REMARK    2  A    between atoms: C_8  and  C_17 
REMARK       I    between atoms: N_15  and  C_11 
REMARK       I    between atoms: C_14  and  N_16 
REMARK    3  A    between atoms: C_18  and  C_14 
REMARK    4  A    between atoms: N_16  and  N_15 
ROOT
ATOM      1  C   UNL d   1      -3.839  -1.561  -0.177  0.00  0.00     0.270 C 
ATOM      2  N   UNL d   1      -3.907  -2.918   0.069  0.00  0.00    -0.263 N 
ATOM      3  O   UNL d   1      -2.958  -1.080  -0.889  0.00  0.00    -0.266 OA
ATOM      4  H   UNL d   1      -4.640  -3.400   0.585  0.00  0.00     0.190 HD
ENDROOT
BRANCH   2   5
ATOM      5  N   UNL d   1      -2.928  -3.745  -0.502  0.00  0.00    -0.263 N 
ATOM      6  C   UNL d   1      -2.934  -5.084  -0.169  0.00  0.00     0.270 C 
ATOM      7  O   UNL d   1      -3.778  -5.575   0.581  0.00  0.00    -0.266 OA
ATOM      8  H   UNL d   1      -2.140  -3.270  -0.941  0.00  0.00     0.190 HD
BRANCH   6   9
ATOM      9  C   UNL d   1      -1.854  -5.928  -0.750  0.00  0.00     0.033 A 
ATOM     10  C   UNL d   1      -1.446  -7.071  -0.049  0.00  0.00     0.018 A 
ATOM     11  C   UNL d   1      -0.463  -7.913  -0.579  0.00  0.00     0.017 A 
ATOM     12  C   UNL d   1       0.118  -7.634  -1.823  0.00  0.00     0.048 A 
ATOM     13  C   UNL d   1      -0.301  -6.492  -2.526  0.00  0.00     0.017 A 
ATOM     14  C   UNL d   1      -1.280  -5.642  -1.994  0.00  0.00     0.018 A 
BRANCH  12  15
ATOM     15  C   UNL d   1       1.168  -8.545  -2.421  0.00  0.00     0.417 C 
ATOM     16  F   UNL d   1       1.492  -9.600  -1.624  0.00  0.00    -0.166 F 
ATOM     17  F   UNL d   1       0.773  -9.081  -3.609  0.00  0.00    -0.166 F 
ATOM     18  F   UNL d   1       2.336  -7.893  -2.673  0.00  0.00    -0.166 F 
ENDBRANCH  12  15
ENDBRANCH   6   9
ENDBRANCH   2   5
BRANCH   1  19
ATOM     19  C   UNL d   1      -4.865  -0.671   0.460  0.00  0.00     0.035 A 
ATOM     20  C   UNL d   1      -5.743  -1.148   1.457  0.00  0.00     0.049 A 
ATOM     21  C   UNL d   1      -6.611  -0.189   2.041  0.00  0.00     0.067 A 
ATOM     22  C   UNL d   1      -6.597   1.250   1.600  0.00  0.00     0.067 A 
ATOM     23  N   UNL d   1      -7.500  -0.431   3.016  0.00  0.00    -0.310 N 
ATOM     24  N   UNL d   1      -7.472   2.018   2.268  0.00  0.00    -0.310 N 
ATOM     25  C   UNL d   1      -5.719   1.684   0.583  0.00  0.00     0.033 A 
ATOM     26  S   UNL d   1      -8.236   1.020   3.355  0.00  0.00     0.068 SA
ATOM     27  HN  UNL d   1      -7.635   3.016   2.135  1.00  0.00     0.176 HD
ATOM     28  C   UNL d   1      -4.871   0.695   0.044  0.00  0.00     0.019 A 
ATOM     29  HN  UNL d   1      -7.688  -1.329   3.462  1.00  0.00     0.176 HD
ENDBRANCH   1  19
TORSDOF 4
