REMARK  4 active torsions:
REMARK  status: ('A' for Active; 'I' for Inactive)
REMARK    1  A    between atoms: N_6  and  C_1 
REMARK    2  A    between atoms: N_2  and  C_3 
REMARK    3  A    between atoms: C_5  and  C_4 
REMARK    4  A    between atoms: O_12  and  C_5 
REMARK       I    between atoms: C_7  and  N_6 
ROOT
ATOM      1  C   UNL d   1       1.444  -0.318   0.076  0.00  0.00     0.085 A 
ATOM      2  C   UNL d   1       0.485  -1.344  -0.018  0.00  0.00     0.130 A 
ATOM      3  C   UNL d   1       0.978   1.014   0.064  0.00  0.00     0.067 A 
ATOM      4  C   UNL d   1      -0.892  -1.070  -0.052  0.00  0.00     0.038 A 
ATOM      5  C   UNL d   1      -0.401   1.292   0.008  0.00  0.00     0.021 A 
ATOM      6  C   UNL d   1      -1.331   0.251  -0.025  0.00  0.00     0.004 A 
ENDROOT
BRANCH   1   7
ATOM      7  N   UNL d   1       2.839  -0.555   0.218  0.00  0.00    -0.324 N 
ATOM      8  C   UNL d   1       3.333  -1.425   1.172  0.00  0.00     0.218 C 
ATOM      9  O   UNL d   1       2.626  -2.066   1.945  0.00  0.00    -0.274 OA
ATOM     10  C   UNL d   1       4.834  -1.508   1.214  0.00  0.00     0.117 C 
ATOM     11  H   UNL d   1       3.459   0.218  -0.042  0.00  0.00     0.169 HD
ENDBRANCH   1   7
BRANCH   2  12
ATOM     12  N   UNL d   1       0.879  -2.721  -0.298  0.00  0.00    -0.113 N 
ATOM     13  O   UNL d   1       1.645  -2.903  -1.252  0.00  0.00    -0.532 OA
ATOM     14  O   UNL d   1       0.330  -3.613   0.364  0.00  0.00    -0.532 OA
ENDBRANCH   2  12
BRANCH   3  15
ATOM     15  C   UNL d   1       1.956   2.130   0.123  0.00  0.00     0.178 C 
ATOM     16  O   UNL d   1       3.053   2.061  -0.405  0.00  0.00    -0.646 OA
BRANCH  15  17
ATOM     17  O   UNL d   1       1.560   3.177   0.874  0.00  0.00    -0.773 OA
ATOM     18  H   UNL d   1       0.764   3.032   1.421  0.00  0.00     0.167 HD
ENDBRANCH  15  17
ENDBRANCH   3  15
TORSDOF 4
