REMARK  2 active torsions:
REMARK  status: ('A' for Active; 'I' for Inactive)
REMARK       I    between atoms: C_8  and  N_1 
REMARK    1  A    between atoms: C_12  and  C_8 
REMARK    2  A    between atoms: O_24  and  C_19 
ROOT
ATOM      1  N   UNL d   1      -3.014  -1.075  -0.001  0.00  0.00    -0.230 N 
ATOM      2  N   UNL d   1      -1.721  -1.499  -0.021  0.00  0.00    -0.290 N 
ATOM      3  HN  UNL d   1      -1.386  -2.462  -0.048  1.00  0.00     0.187 HD
ATOM      4  C   UNL d   1      -0.981  -0.379   0.001  0.00  0.00     0.069 A 
ATOM      5  C   UNL d   1      -1.794   0.777   0.026  0.00  0.00    -0.002 A 
ATOM      6  C   UNL d   1      -3.083   0.301   0.026  0.00  0.00     0.130 A 
ATOM      7  C   UNL d   1       0.476  -0.366   0.002  0.00  0.00     0.011 A 
ATOM      8  C   UNL d   1      -4.112  -1.964  -0.045  0.00  0.00     0.276 C 
ATOM      9  S   UNL d   1       0.422   2.484  -0.101  0.00  0.00    -0.124 SA
ATOM     10  C   UNL d   1       1.171   0.858  -0.022  0.00  0.00     0.013 A 
ATOM     11  C   UNL d   1      -1.361   2.187   0.059  0.00  0.00     0.121 C 
ATOM     12  C   UNL d   1       1.201  -1.571   0.024  0.00  0.00     0.039 A 
ATOM     13  O   UNL d   1      -5.231  -1.445  -0.080  0.00  0.00    -0.265 OA
ATOM     14  C   UNL d   1       2.577   0.850  -0.015  0.00  0.00     0.021 A 
ATOM     15  C   UNL d   1       2.595  -1.556   0.026  0.00  0.00     0.035 A 
ATOM     16  C   UNL d   1       3.288  -0.350   0.010  0.00  0.00     0.025 A 
ATOM     17 CL   UNL d   1       3.472  -3.036   0.044  0.00  0.00    -0.084 Cl
ENDROOT
BRANCH   8  18
ATOM     18  C   UNL d   1      -4.039  -3.448  -0.090  0.00  0.00     0.034 A 
ATOM     19  C   UNL d   1      -3.004  -4.177   0.497  0.00  0.00     0.020 A 
ATOM     20  C   UNL d   1      -2.987  -5.572   0.391  0.00  0.00     0.038 A 
ATOM     21  C   UNL d   1      -4.001  -6.255  -0.287  0.00  0.00     0.068 A 
ATOM     22  C   UNL d   1      -5.061  -5.533  -0.832  0.00  0.00     0.038 A 
ATOM     23  C   UNL d   1      -5.080  -4.137  -0.732  0.00  0.00     0.020 A 
BRANCH  21  24
ATOM     24  O   UNL d   1      -3.837  -7.610  -0.347  0.00  0.00    -0.356 OA
ATOM     25  C   UNL d   1      -4.796  -8.343  -1.100  0.00  0.00     0.210 C 
ENDBRANCH  21  24
ENDBRANCH   8  18
TORSDOF 2
