REMARK  2 active torsions:
REMARK  status: ('A' for Active; 'I' for Inactive)
REMARK    1  A    between atoms: N_7  and  N_2 
REMARK    2  A    between atoms: C_13  and  N_7 
ROOT
ATOM      1  N   UNL d   1      -6.238   2.842   0.706  0.00  0.00    -0.191 NA
ATOM      2  C   UNL d   1      -5.308   3.527   0.603  0.00  0.00     0.102 C 
ATOM      3  C   UNL d   1      -4.184   4.410   0.472  0.00  0.00     0.072 A 
ATOM      4  C   UNL d   1      -2.875   3.924   0.292  0.00  0.00     0.068 A 
ATOM      5  C   UNL d   1      -4.430   5.795   0.532  0.00  0.00     0.025 A 
ATOM      6  C   UNL d   1      -1.837   4.874   0.206  0.00  0.00     0.032 A 
ATOM      7  C   UNL d   1      -3.384   6.710   0.420  0.00  0.00     0.002 A 
ATOM      8  C   UNL d   1      -2.086   6.248   0.258  0.00  0.00     0.002 A 
ENDROOT
BRANCH   4   9
ATOM      9  N   UNL d   1      -2.577   2.545   0.281  0.00  0.00    -0.299 N 
ATOM     10  H   UNL d   1      -3.344   1.871   0.158  0.00  0.00     0.187 HD
BRANCH   9  11
ATOM     11  N   UNL d   1      -1.286   2.153   0.158  0.00  0.00    -0.296 N 
ATOM     12  C   UNL d   1      -1.008   0.884   0.043  0.00  0.00     0.109 A 
ATOM     13  C   UNL d   1       0.418   0.466  -0.019  0.00  0.00     0.006 A 
ATOM     14  C   UNL d   1      -2.061  -0.219  -0.003  0.00  0.00     0.200 A 
ATOM     15  C   UNL d   1       0.741  -0.897   0.016  0.00  0.00    -0.023 A 
ATOM     16  C   UNL d   1       1.433   1.433  -0.067  0.00  0.00     0.015 A 
ATOM     17  C   UNL d   1       2.092  -1.274   0.034  0.00  0.00     0.012 A 
ATOM     18  C   UNL d   1      -0.298  -1.926   0.035  0.00  0.00     0.016 A 
ATOM     19  C   UNL d   1       3.100  -0.308   0.002  0.00  0.00     0.001 A 
ATOM     20  C   UNL d   1       2.772   1.044  -0.058  0.00  0.00     0.001 A 
ATOM     21  C   UNL d   1      -1.599  -1.622   0.018  0.00  0.00     0.058 A 
ATOM     22  O   UNL d   1      -3.256   0.041  -0.060  0.00  0.00    -0.286 OA
ATOM     23  HN  UNL d   1      -0.536   2.845   0.154  1.00  0.00     0.187 HD
ENDBRANCH   9  11
ENDBRANCH   4   9
TORSDOF 2
