REMARK  6 active torsions:
REMARK  status: ('A' for Active; 'I' for Inactive)
REMARK    1  A    between atoms: C_5  and  N_1 
REMARK    2  A    between atoms: N_2  and  C_3 
REMARK       I    between atoms: C_4  and  N_2 
REMARK    3  A    between atoms: C_11  and  C_4 
REMARK    4  A    between atoms: O_14  and  C_6 
REMARK    5  A    between atoms: O_15  and  C_7 
REMARK    6  A    between atoms: C_10  and  C_11 
ROOT
ATOM      1  N   UNL d   1       3.640  -1.326  -0.637  0.00  0.00    -0.325 N 
ATOM      2  C   UNL d   1       2.827  -1.260  -1.755  0.00  0.00     0.226 C 
ATOM      3  O   UNL d   1       1.856  -0.520  -1.894  0.00  0.00    -0.273 OA
ATOM      4  H   UNL d   1       4.546  -1.774  -0.715  0.00  0.00     0.169 HD
ENDROOT
BRANCH   1   5
ATOM      5  C   UNL d   1       3.502  -0.550   0.537  0.00  0.00     0.056 A 
ATOM      6  C   UNL d   1       4.673  -0.286   1.301  0.00  0.00     0.037 A 
ATOM      7  C   UNL d   1       4.512   0.444   2.492  0.00  0.00     0.026 A 
ATOM      8  C   UNL d   1       3.253   0.874   2.925  0.00  0.00     0.002 A 
ATOM      9  C   UNL d   1       2.121   0.587   2.173  0.00  0.00     0.002 A 
ATOM     10  C   UNL d   1       2.245  -0.115   0.976  0.00  0.00     0.031 A 
BRANCH   6  11
ATOM     11  N   UNL d   1       5.932  -0.765   0.870  0.00  0.00    -0.281 NA
ATOM     12  C   UNL d   1       6.983  -0.916   1.892  0.00  0.00     0.096 C 
ATOM     13  C   UNL d   1       8.067  -1.853   1.359  0.00  0.00     0.015 C 
ATOM     14  C   UNL d   1       8.594  -1.412  -0.007  0.00  0.00     0.002 C 
ATOM     15  C   UNL d   1       7.454  -1.115  -0.983  0.00  0.00     0.015 C 
ATOM     16  C   UNL d   1       6.449  -0.139  -0.365  0.00  0.00     0.096 C 
ENDBRANCH   6  11
ENDBRANCH   1   5
BRANCH   2  17
ATOM     17  C   UNL d   1       3.265  -2.193  -2.872  0.00  0.00     0.141 C 
BRANCH  17  18
ATOM     18  C   UNL d   1       4.039  -1.526  -3.990  0.00  0.00    -0.047 A 
ATOM     19  C   UNL d   1       3.506  -0.435  -4.704  0.00  0.00     0.047 A 
ATOM     20  C   UNL d   1       4.173   0.122  -5.812  0.00  0.00     0.102 A 
ATOM     21  C   UNL d   1       5.411  -0.420  -6.198  0.00  0.00     0.101 A 
ATOM     22  C   UNL d   1       5.936  -1.512  -5.496  0.00  0.00     0.040 A 
ATOM     23  C   UNL d   1       5.263  -2.059  -4.403  0.00  0.00     0.010 A 
BRANCH  20  24
ATOM     24  O   UNL d   1       3.664   1.143  -6.569  0.00  0.00    -0.353 OA
ATOM     25  C   UNL d   1       2.376   1.647  -6.239  0.00  0.00     0.210 C 
ENDBRANCH  20  24
BRANCH  21  26
ATOM     26  O   UNL d   1       6.195  -0.049  -7.261  0.00  0.00    -0.353 OA
ATOM     27  C   UNL d   1       6.135   1.310  -7.671  0.00  0.00     0.210 C 
ENDBRANCH  21  26
ENDBRANCH  17  18
ENDBRANCH   2  17
TORSDOF 6
