REMARK  5 active torsions:
REMARK  status: ('A' for Active; 'I' for Inactive)
REMARK    1  A    between atoms: C_2  and  C_1 
REMARK       I    between atoms: N_4  and  C_2 
REMARK    2  A    between atoms: C_5  and  C_3 
REMARK    3  A    between atoms: C_6  and  N_4 
REMARK    4  A    between atoms: N_12  and  C_10 
REMARK    5  A    between atoms: C_19  and  N_12 
ROOT
ATOM      1  C   UNL d   1       0.752   1.199  -0.487  0.00  0.00     0.062 A 
ATOM      2  C   UNL d   1       1.579   0.079  -0.369  0.00  0.00     0.068 A 
ATOM      3  C   UNL d   1      -0.591   0.962  -0.762  0.00  0.00     0.107 A 
ATOM      4  N   UNL d   1      -1.144  -0.268  -0.944  0.00  0.00    -0.356 N 
ATOM      5  HN  UNL d   1      -2.132  -0.365  -1.180  1.00  0.00     0.166 HD
ATOM      6  C   UNL d   1      -0.364  -1.352  -0.807  0.00  0.00     0.081 A 
ATOM      7  C   UNL d   1       0.990  -1.202  -0.528  0.00  0.00     0.059 A 
ENDROOT
BRANCH   1   8
ATOM      8  C   UNL d   1       1.121   2.608  -0.192  0.00  0.00     0.258 C 
ATOM      9  N   UNL d   1       2.262   3.104  -0.792  0.00  0.00    -0.322 N 
ATOM     10  H   UNL d   1       2.567   2.659  -1.646  0.00  0.00     0.169 HD
ATOM     11  O   UNL d   1       0.349   3.256   0.506  0.00  0.00    -0.267 OA
BRANCH   9  12
ATOM     12  C   UNL d   1       2.904   4.333  -0.460  0.00  0.00     0.046 A 
ATOM     13  C   UNL d   1       3.080   4.773   0.875  0.00  0.00    -0.035 A 
ATOM     14  C   UNL d   1       3.791   5.968   1.120  0.00  0.00     0.009 A 
ATOM     15  C   UNL d   1       2.635   4.042   2.114  0.00  0.00     0.050 C 
ATOM     16  C   UNL d   1       4.356   6.704   0.086  0.00  0.00     0.001 A 
ATOM     17  C   UNL d   1       4.195   6.267  -1.220  0.00  0.00     0.009 A 
ATOM     18  C   UNL d   1       3.469   5.097  -1.512  0.00  0.00    -0.035 A 
ATOM     19  C   UNL d   1       3.298   4.780  -2.979  0.00  0.00     0.050 C 
ENDBRANCH   9  12
ENDBRANCH   1   8
BRANCH   2  20
ATOM     20  C   UNL d   1       3.046   0.102  -0.052  0.00  0.00     0.418 C 
ATOM     21  F   UNL d   1       3.540   1.267   0.423  0.00  0.00    -0.166 F 
ATOM     22  F   UNL d   1       3.389  -0.837   0.875  0.00  0.00    -0.166 F 
ATOM     23  F   UNL d   1       3.787  -0.193  -1.159  0.00  0.00    -0.166 F 
ENDBRANCH   2  20
BRANCH   6  24
ATOM     24  N   UNL d   1      -0.912  -2.644  -0.799  0.00  0.00    -0.274 NA
ATOM     25  H   UNL d   1      -0.271  -3.324  -1.192  0.00  0.00     0.129 HD
BRANCH  24  26
ATOM     26  C   UNL d   1      -2.279  -2.790  -1.323  0.00  0.00     0.061 C 
ATOM     27  C   UNL d   1      -3.025  -3.899  -0.558  0.00  0.00     0.020 C 
ATOM     28  C   UNL d   1      -2.658  -5.325  -0.966  0.00  0.00     0.002 C 
ATOM     29  C   UNL d   1      -2.708  -5.516  -2.476  0.00  0.00     0.000 C 
ATOM     30  C   UNL d   1      -1.827  -4.497  -3.184  0.00  0.00     0.002 C 
ATOM     31  C   UNL d   1      -2.240  -3.065  -2.835  0.00  0.00     0.020 C 
ENDBRANCH  24  26
ENDBRANCH   6  24
TORSDOF 5
