REMARK  4 active torsions:
REMARK  status: ('A' for Active; 'I' for Inactive)
REMARK    1  A    between atoms: C_2  and  C_1 
REMARK    2  A    between atoms: C_10  and  C_3 
REMARK    3  A    between atoms: C_6  and  C_5 
REMARK    4  A    between atoms: O_19  and  C_10 
ROOT
ATOM      1  C   UNL d   1       2.663   1.555   0.015  0.00  0.00     0.088 A 
ATOM      2  O   UNL d   1       3.605   1.577  -0.972  0.00  0.00    -0.308 OA
ATOM      3  C   UNL d   1       4.626   2.391  -0.571  0.00  0.00     0.104 A 
ATOM      4  C   UNL d   1       3.072   2.388   1.042  0.00  0.00     0.041 A 
ATOM      5  C   UNL d   1       4.328   2.919   0.667  0.00  0.00     0.042 A 
ENDROOT
BRANCH   1   6
ATOM      6  C   UNL d   1       1.381   0.777  -0.030  0.00  0.00     0.021 A 
ATOM      7  C   UNL d   1       0.991  -0.060  -1.067  0.00  0.00     0.093 A 
ATOM      8  S   UNL d   1      -0.583  -0.711  -0.765  0.00  0.00    -0.095 SA
ATOM      9  C   UNL d   1      -0.725   0.097   0.725  0.00  0.00     0.051 A 
ATOM     10  C   UNL d   1       0.391   0.848   1.006  0.00  0.00     0.023 A 
BRANCH   7  11
ATOM     11  C   UNL d   1       1.700  -0.472  -2.270  0.00  0.00     0.300 C 
ATOM     12  O   UNL d   1       2.908  -0.632  -2.387  0.00  0.00    -0.259 OA
BRANCH  11  13
ATOM     13  O   UNL d   1       0.814  -0.681  -3.293  0.00  0.00    -0.322 OA
ATOM     14  C   UNL d   1       1.404  -1.117  -4.517  0.00  0.00     0.213 C 
ENDBRANCH  11  13
ENDBRANCH   7  11
ENDBRANCH   1   6
BRANCH   3  15
ATOM     15  C   UNL d   1       5.862   2.656  -1.359  0.00  0.00     0.083 A 
ATOM     16  N   UNL d   1       6.850   3.449  -0.918  0.00  0.00    -0.298 N 
ATOM     17  N   UNL d   1       7.761   3.402  -1.904  0.00  0.00    -0.311 N 
ATOM     18  HN  UNL d   1       6.899   3.966  -0.041  1.00  0.00     0.187 HD
ATOM     19  C   UNL d   1       7.381   2.630  -2.962  0.00  0.00     0.109 A 
ATOM     20  H   UNL d   1       8.623   3.924  -1.786  0.00  0.00     0.186 HD
ATOM     21  C   UNL d   1       6.147   2.121  -2.634  0.00  0.00     0.052 A 
ENDBRANCH   3  15
TORSDOF 4
