REMARK  3 active torsions:
REMARK  status: ('A' for Active; 'I' for Inactive)
REMARK    1  A    between atoms: C_2  and  C_1 
REMARK    2  A    between atoms: N_3  and  C_11 
REMARK    3  A    between atoms: C_14  and  C_4 
ROOT
ATOM      1  C   UNL d   1       0.122  -2.705  -0.131  0.00  0.00     0.036 C 
ATOM      2  C   UNL d   1       0.368  -3.508   0.934  0.00  0.00     0.055 C 
ATOM      3  C   UNL d   1       0.547  -2.945   2.245  0.00  0.00     0.100 C 
ATOM      4  N   UNL d   1       0.688  -2.529   3.317  0.00  0.00    -0.191 NA
ENDROOT
BRANCH   2   5
ATOM      5  C   UNL d   1       0.413  -5.002   0.789  0.00  0.00    -0.015 A 
ATOM      6  C   UNL d   1       0.975  -5.620  -0.344  0.00  0.00     0.015 A 
ATOM      7  C   UNL d   1       1.027  -7.020  -0.468  0.00  0.00     0.037 A 
ATOM      8  C   UNL d   1       0.522  -7.832   0.555  0.00  0.00     0.102 A 
ATOM      9  C   UNL d   1      -0.029  -7.249   1.697  0.00  0.00     0.037 A 
ATOM     10  C   UNL d   1      -0.080  -5.847   1.808  0.00  0.00     0.015 A 
BRANCH   8  11
ATOM     11  N   UNL d   1       0.579  -9.293   0.425  0.00  0.00    -0.116 N 
ATOM     12  O   UNL d   1       0.124  -9.976   1.358  0.00  0.00    -0.532 OA
ATOM     13  O   UNL d   1       1.073  -9.765  -0.612  0.00  0.00    -0.532 OA
ENDBRANCH   8  11
ENDBRANCH   2   5
BRANCH   1  14
ATOM     14  C   UNL d   1      -0.040  -1.217  -0.071  0.00  0.00    -0.013 C 
ATOM     15  C   UNL d   1       1.099  -0.350  -0.139  0.00  0.00    -0.015 A 
ATOM     16  C   UNL d   1       0.912   1.032   0.110  0.00  0.00    -0.024 A 
ATOM     17  C   UNL d   1       2.416  -0.757  -0.469  0.00  0.00     0.013 A 
ATOM     18  C   UNL d   1       2.002   1.914   0.157  0.00  0.00     0.012 A 
ATOM     19  C   UNL d   1      -0.372   1.547   0.279  0.00  0.00     0.024 C 
ATOM     20  C   UNL d   1       3.286   1.475  -0.139  0.00  0.00     0.001 A 
ATOM     21  C   UNL d   1       3.486   0.147  -0.490  0.00  0.00     0.001 A 
ATOM     22  C   UNL d   1      -1.500   0.733   0.194  0.00  0.00    -0.024 A 
ATOM     23  C   UNL d   1      -1.358  -0.668   0.055  0.00  0.00    -0.015 A 
ATOM     24  C   UNL d   1      -2.769   1.331   0.235  0.00  0.00     0.012 A 
ATOM     25  C   UNL d   1      -2.555  -1.427   0.021  0.00  0.00     0.013 A 
ATOM     26  C   UNL d   1      -3.817  -0.821   0.063  0.00  0.00     0.001 A 
ATOM     27  C   UNL d   1      -3.923   0.560   0.154  0.00  0.00     0.001 A 
ENDBRANCH   1  14
TORSDOF 3
