REMARK  6 active torsions:
REMARK  status: ('A' for Active; 'I' for Inactive)
REMARK    1  A    between atoms: C_3  and  C_1 
REMARK    2  A    between atoms: C_2  and  S_14 
REMARK       I    between atoms: C_5  and  N_6 
REMARK    3  A    between atoms: C_9  and  C_5 
REMARK    4  A    between atoms: N_6  and  C_11 
REMARK    5  A    between atoms: C_18  and  C_9 
REMARK    6  A    between atoms: S_14  and  C_18 
ROOT
ATOM      1  C   UNL d   1       0.669  -4.813  -0.515  0.00  0.00     0.222 C 
ATOM      2  N   UNL d   1       0.595  -4.588   0.855  0.00  0.00    -0.327 N 
ATOM      3  O   UNL d   1       0.403  -5.889  -1.046  0.00  0.00    -0.273 OA
ATOM      4  H   UNL d   1       0.448  -3.639   1.171  0.00  0.00     0.169 HD
ENDROOT
BRANCH   2   5
ATOM      5  C   UNL d   1       0.506  -5.631   1.818  0.00  0.00     0.035 A 
ATOM      6  C   UNL d   1       0.918  -6.941   1.536  0.00  0.00     0.045 A 
ATOM      7  C   UNL d   1       0.788  -7.982   2.471  0.00  0.00     0.050 A 
ATOM      8  C   UNL d   1       0.279  -7.689   3.740  0.00  0.00     0.016 A 
ATOM      9  C   UNL d   1      -0.090  -6.379   4.056  0.00  0.00     0.003 A 
ATOM     10  C   UNL d   1       0.022  -5.357   3.103  0.00  0.00     0.029 A 
BRANCH   7  11
ATOM     11  C   UNL d   1       1.140  -9.400   2.087  0.00  0.00     0.417 C 
ATOM     12  F   UNL d   1       1.706  -9.512   0.850  0.00  0.00    -0.166 F 
ATOM     13  F   UNL d   1       0.053 -10.216   2.073  0.00  0.00    -0.166 F 
ATOM     14  F   UNL d   1       2.026  -9.973   2.949  0.00  0.00    -0.166 F 
ENDBRANCH   7  11
ENDBRANCH   2   5
BRANCH   1  15
ATOM     15  C   UNL d   1       1.174  -3.684  -1.388  0.00  0.00     0.113 C 
BRANCH  15  16
ATOM     16  C   UNL d   1       0.251  -2.501  -1.632  0.00  0.00     0.089 C 
BRANCH  16  17
ATOM     17  S   UNL d   1       0.551  -1.082  -0.537  0.00  0.00    -0.122 SA
BRANCH  17  18
ATOM     18  C   UNL d   1      -0.399   0.201  -1.310  0.00  0.00     0.041 A 
ATOM     19  S   UNL d   1      -0.503   1.760  -0.595  0.00  0.00    -0.095 SA
ATOM     20  C   UNL d   1      -1.566   2.331  -1.811  0.00  0.00     0.051 A 
ATOM     21  C   UNL d   1      -1.815   1.370  -2.762  0.00  0.00     0.009 A 
ATOM     22  C   UNL d   1      -1.129   0.150  -2.482  0.00  0.00     0.026 A 
ENDBRANCH  17  18
ENDBRANCH  16  17
ENDBRANCH  15  16
ENDBRANCH   1  15
TORSDOF 6
