REMARK  2 active torsions:
REMARK  status: ('A' for Active; 'I' for Inactive)
REMARK    1  A    between atoms: C_7  and  C_2 
REMARK    2  A    between atoms: N_6  and  C_5 
ROOT
ATOM      1  N   UNL d   1      -2.430   0.558  -0.188  0.00  0.00    -0.331 N 
ATOM      2  C   UNL d   1      -2.382  -0.796   0.282  0.00  0.00     0.227 C 
ATOM      3  N   UNL d   1      -1.228  -1.451  -0.344  0.00  0.00    -0.358 N 
ATOM      4  C   UNL d   1      -1.321   1.354  -0.134  0.00  0.00     0.255 C 
ATOM      5  C   UNL d   1      -0.022   0.653  -0.068  0.00  0.00     0.058 A 
ATOM      6  C   UNL d   1      -0.016  -0.751  -0.184  0.00  0.00     0.047 A 
ATOM      7  O   UNL d   1      -1.410   2.574  -0.148  0.00  0.00    -0.268 OA
ATOM      8  C   UNL d   1      -1.177  -2.910  -0.348  0.00  0.00     0.152 C 
ATOM      9  C   UNL d   1       1.157   1.398   0.072  0.00  0.00     0.019 A 
ATOM     10  C   UNL d   1       1.243  -1.374  -0.175  0.00  0.00     0.030 A 
ATOM     11  C   UNL d   1       2.383   0.745   0.098  0.00  0.00     0.001 A 
ATOM     12  C   UNL d   1       2.425  -0.638  -0.026  0.00  0.00     0.002 A 
ATOM     13  H   UNL d   1      -3.296   1.071  -0.110  0.00  0.00     0.165 HD
ENDROOT
BRANCH   2  14
ATOM     14  C   UNL d   1      -3.731  -1.405  -0.032  0.00  0.00     0.027 A 
ATOM     15  S   UNL d   1      -4.769  -1.917   1.239  0.00  0.00    -0.067 SA
ATOM     16  C   UNL d   1      -5.898  -2.558   0.144  0.00  0.00     0.144 A 
ATOM     17  C   UNL d   1      -5.538  -2.361  -1.171  0.00  0.00     0.045 A 
ATOM     18  C   UNL d   1      -4.292  -1.675  -1.271  0.00  0.00     0.021 A 
BRANCH  16  19
ATOM     19  N   UNL d   1      -7.074  -3.242   0.619  0.00  0.00    -0.108 N 
ATOM     20  O   UNL d   1      -7.804  -3.743  -0.248  0.00  0.00    -0.531 OA
ATOM     21  O   UNL d   1      -7.272  -3.292   1.839  0.00  0.00    -0.531 OA
ENDBRANCH  16  19
ENDBRANCH   2  14
TORSDOF 2
