REMARK  9 active torsions:
REMARK  status: ('A' for Active; 'I' for Inactive)
REMARK    1  A    between atoms: O_9  and  C_3 
REMARK       I    between atoms: C_4  and  N_5 
REMARK    2  A    between atoms: C_22  and  C_4 
REMARK    3  A    between atoms: N_5  and  C_14 
REMARK    4  A    between atoms: C_6  and  C_8 
REMARK    5  A    between atoms: C_7  and  C_23 
REMARK    6  A    between atoms: O_18  and  C_7 
REMARK    7  A    between atoms: C_16  and  O_9 
REMARK    8  A    between atoms: C_24  and  C_22 
REMARK    9  A    between atoms: C_23  and  C_24 
ROOT
ATOM      1  N   UNL d   1      -1.358  -0.011  -0.143  0.00  0.00    -0.344 N 
ATOM      2  HN  UNL d   1      -2.377  -0.034  -0.197  1.00  0.00     0.167 HD
ATOM      3  C   UNL d   1      -0.632  -1.144  -0.091  0.00  0.00     0.148 A 
ATOM      4  C   UNL d   1       0.705   1.268  -0.083  0.00  0.00     0.050 A 
ATOM      5  C   UNL d   1      -0.682   1.159  -0.120  0.00  0.00     0.119 A 
ATOM      6  C   UNL d   1       0.754  -1.155  -0.107  0.00  0.00     0.059 A 
ATOM      7  C   UNL d   1       1.430   0.072  -0.096  0.00  0.00     0.035 A 
ENDROOT
BRANCH   3   8
ATOM      8  O   UNL d   1      -1.296  -2.362  -0.007  0.00  0.00    -0.294 OA
BRANCH   8   9
ATOM      9  C   UNL d   1      -2.498  -2.373   0.675  0.00  0.00     0.077 A 
ATOM     10  C   UNL d   1      -3.503  -3.210   0.200  0.00  0.00     0.038 A 
ATOM     11  C   UNL d   1      -4.737  -3.280   0.867  0.00  0.00     0.011 A 
ATOM     12  C   UNL d   1      -4.994  -2.521   2.028  0.00  0.00    -0.050 A 
ATOM     13  C   UNL d   1      -3.958  -1.696   2.492  0.00  0.00     0.011 A 
ATOM     14  C   UNL d   1      -2.722  -1.640   1.840  0.00  0.00     0.038 A 
BRANCH  12  15
ATOM     15  C   UNL d   1      -6.347  -2.620   2.756  0.00  0.00    -0.024 C 
ATOM     16  C   UNL d   1      -6.444  -1.716   4.008  0.00  0.00     0.019 C 
ATOM     17  C   UNL d   1      -7.495  -2.210   1.810  0.00  0.00     0.019 C 
ATOM     18  C   UNL d   1      -6.574  -4.072   3.227  0.00  0.00     0.019 C 
ENDBRANCH  12  15
ENDBRANCH   8   9
ENDBRANCH   3   8
BRANCH   4  19
ATOM     19  N   UNL d   1       1.403   2.497  -0.010  0.00  0.00    -0.326 N 
ATOM     20  C   UNL d   1       0.816   3.749   0.016  0.00  0.00     0.222 C 
ATOM     21  O   UNL d   1      -0.386   3.988  -0.032  0.00  0.00    -0.273 OA
ATOM     22  H   UNL d   1       2.412   2.443   0.095  0.00  0.00     0.169 HD
BRANCH  20  23
ATOM     23  C   UNL d   1       1.797   4.898   0.148  0.00  0.00     0.103 C 
BRANCH  23  24
ATOM     24  C   UNL d   1       1.522   5.700   1.423  0.00  0.00     0.019 C 
BRANCH  24  25
ATOM     25  C   UNL d   1       1.761   4.913   2.711  0.00  0.00     0.110 C 
BRANCH  25  26
ATOM     26  C   UNL d   1       3.198   4.487   2.823  0.00  0.00     0.139 C 
ATOM     27  O   UNL d   1       3.636   3.456   2.327  0.00  0.00    -0.650 OA
BRANCH  26  28
ATOM     28  O   UNL d   1       3.985   5.389   3.448  0.00  0.00    -0.776 OA
ATOM     29  H   UNL d   1       3.511   6.180   3.767  0.00  0.00     0.167 HD
ENDBRANCH  26  28
ENDBRANCH  25  26
ENDBRANCH  24  25
ENDBRANCH  23  24
ENDBRANCH  20  23
ENDBRANCH   4  19
TORSDOF 9
