REMARK  5 active torsions:
REMARK  status: ('A' for Active; 'I' for Inactive)
REMARK    1  A    between atoms: C_5  and  C_1 
REMARK    2  A    between atoms: N_8  and  C_2 
REMARK       I    between atoms: C_9  and  N_8 
REMARK    3  A    between atoms: O_15  and  C_9 
REMARK    4  A    between atoms: N_10  and  O_15 
REMARK    5  A    between atoms: C_16  and  C_12 
ROOT
ATOM      1  N   UNL d   1       0.591  -2.438   0.726  0.00  0.00    -0.297 N 
ATOM      2  C   UNL d   1      -0.046  -1.331   0.223  0.00  0.00     0.387 C 
ATOM      3  O   UNL d   1       0.196  -0.759  -0.829  0.00  0.00    -0.236 OA
ATOM      4  H   UNL d   1       0.298  -2.712   1.652  0.00  0.00     0.171 HD
ENDROOT
BRANCH   1   5
ATOM      5  C   UNL d   1       1.561  -3.214   0.101  0.00  0.00     0.098 C 
ATOM      6  C   UNL d   1       2.277  -4.310   0.695  0.00  0.00     0.098 C 
ATOM      7  N   UNL d   1       3.185  -4.800  -0.160  0.00  0.00    -0.258 N 
ATOM      8  O   UNL d   1       3.010  -4.114  -1.338  0.00  0.00    -0.240 OA
ATOM      9  HN  UNL d   1       3.868  -5.535   0.026  1.00  0.00     0.195 HD
ATOM     10  C   UNL d   1       1.992  -3.222  -1.210  0.00  0.00     0.101 C 
ATOM     11  C   UNL d   1       1.573  -2.604  -2.484  0.00  0.00     0.081 C 
BRANCH   6  12
ATOM     12  C   UNL d   1       2.073  -4.961   1.988  0.00  0.00     0.038 A 
ATOM     13  C   UNL d   1       0.851  -5.602   2.277  0.00  0.00     0.048 A 
ATOM     14 CL   UNL d   1      -0.503  -5.586   1.194  0.00  0.00    -0.083 Cl
ATOM     15  C   UNL d   1       0.670  -6.312   3.472  0.00  0.00     0.025 A 
ATOM     16  C   UNL d   1       1.712  -6.407   4.390  0.00  0.00     0.003 A 
ATOM     17  C   UNL d   1       2.928  -5.781   4.124  0.00  0.00     0.025 A 
ATOM     18  C   UNL d   1       3.108  -5.057   2.938  0.00  0.00     0.048 A 
ATOM     19 CL   UNL d   1       4.643  -4.281   2.733  0.00  0.00    -0.083 Cl
ENDBRANCH   6  12
ENDBRANCH   1   5
BRANCH   2  20
ATOM     20  O   UNL d   1      -1.019  -0.948   1.119  0.00  0.00    -0.181 OA
BRANCH  20  21
ATOM     21  N   UNL d   1      -2.041  -0.251   0.452  0.00  0.00    -0.260 N 
ATOM     22  C   UNL d   1      -2.908   0.282   1.261  0.00  0.00     0.039 C 
ATOM     23  C   UNL d   1      -2.760   0.289   2.771  0.00  0.00     0.071 C 
ATOM     24  HN  UNL d   1      -2.096  -0.171  -0.564  1.00  0.00     0.194 HD
BRANCH  22  25
ATOM     25  C   UNL d   1      -4.152   0.885   0.668  0.00  0.00    -0.012 A 
ATOM     26  C   UNL d   1      -4.300   0.908  -0.729  0.00  0.00     0.016 A 
ATOM     27  C   UNL d   1      -5.492   1.347  -1.311  0.00  0.00     0.043 A 
ATOM     28  C   UNL d   1      -6.535   1.768  -0.497  0.00  0.00     0.116 A 
ATOM     29  C   UNL d   1      -6.400   1.779   0.886  0.00  0.00     0.043 A 
ATOM     30  F   UNL d   1      -7.690   2.159  -1.050  0.00  0.00    -0.206 F 
ATOM     31  C   UNL d   1      -5.207   1.341   1.472  0.00  0.00     0.016 A 
ENDBRANCH  22  25
ENDBRANCH  20  21
ENDBRANCH   2  20
TORSDOF 5
