REMARK  3 active torsions:
REMARK  status: ('A' for Active; 'I' for Inactive)
REMARK    1  A    between atoms: C_10  and  N_1 
REMARK    2  A    between atoms: C_7  and  C_2 
REMARK    3  A    between atoms: N_9  and  C_8 
ROOT
ATOM      1  N   UNL d   1       0.080  -0.848   0.975  0.00  0.00    -0.225 N 
ATOM      2  C   UNL d   1       1.085  -0.771   0.010  0.00  0.00     0.139 C 
ATOM      3  N   UNL d   1      -0.749   0.005  -0.812  0.00  0.00    -0.007 NA
ATOM      4  N   UNL d   1      -1.076  -0.437   0.390  0.00  0.00     0.001 NA
ATOM      5  N   UNL d   1       0.577  -0.201  -1.067  0.00  0.00    -0.270 N 
ATOM      6  HN  UNL d   1       1.077   0.039  -1.922  1.00  0.00     0.185 HD
ENDROOT
BRANCH   2   7
ATOM      7  C   UNL d   1       2.379  -1.296   0.204  0.00  0.00     0.068 C 
ATOM      8  C   UNL d   1       2.664  -2.571  -0.106  0.00  0.00     0.089 C 
BRANCH   8   9
ATOM      9  N   UNL d   1       3.859  -3.261   0.047  0.00  0.00    -0.390 N 
ATOM     10  C   UNL d   1       5.067  -2.706   0.672  0.00  0.00     0.122 C 
ATOM     11  C   UNL d   1       5.509  -3.617   1.815  0.00  0.00     0.020 C 
ATOM     12  C   UNL d   1       5.747  -5.040   1.317  0.00  0.00     0.003 C 
ATOM     13  C   UNL d   1       4.516  -5.571   0.585  0.00  0.00     0.020 C 
ATOM     14  C   UNL d   1       4.056  -4.611  -0.512  0.00  0.00     0.122 C 
ENDBRANCH   8   9
ENDBRANCH   2   7
BRANCH   1  15
ATOM     15  C   UNL d   1       0.093  -1.198   2.355  0.00  0.00     0.056 A 
ATOM     16  C   UNL d   1       1.261  -1.132   3.125  0.00  0.00     0.032 A 
ATOM     17  C   UNL d   1       1.216  -1.410   4.497  0.00  0.00     0.021 A 
ATOM     18  C   UNL d   1       0.013  -1.772   5.097  0.00  0.00     0.011 A 
ATOM     19  C   UNL d   1      -1.152  -1.858   4.341  0.00  0.00     0.021 A 
ATOM     20 BR   UNL d   1      -0.042  -2.121   6.954  0.00  0.00    -0.051 Br
ATOM     21  C   UNL d   1      -1.117  -1.559   2.975  0.00  0.00     0.032 A 
ENDBRANCH   1  15
TORSDOF 3
