REMARK  3 active torsions:
REMARK  status: ('A' for Active; 'I' for Inactive)
REMARK    1  A    between atoms: N_8  and  C_1 
REMARK    2  A    between atoms: C_7  and  C_16 
REMARK       I    between atoms: C_11  and  N_8 
REMARK       I    between atoms: N_12  and  C_11 
REMARK    3  A    between atoms: C_16  and  N_12 
ROOT
ATOM      1  N   UNL d   1       0.172   2.442  -1.199  0.00  0.00    -0.305 N 
ATOM      2  C   UNL d   1       1.137   3.267  -0.687  0.00  0.00     0.321 C 
ATOM      3  N   UNL d   1       2.395   2.724  -0.615  0.00  0.00    -0.339 N 
ATOM      4  O   UNL d   1       0.973   4.425  -0.313  0.00  0.00    -0.247 OA
ATOM      5  H   UNL d   1       0.471   1.522  -1.470  0.00  0.00     0.171 HD
ATOM      6  H   UNL d   1       3.095   3.369  -0.267  0.00  0.00     0.164 HD
ENDROOT
BRANCH   3   7
ATOM      7  C   UNL d   1       2.800   1.346  -0.798  0.00  0.00     0.166 C 
BRANCH   7   8
ATOM      8  C   UNL d   1       4.280   1.022  -0.872  0.00  0.00    -0.003 A 
ATOM      9  C   UNL d   1       5.314   1.931  -1.156  0.00  0.00     0.088 A 
ATOM     10  C   UNL d   1       6.633   1.481  -1.347  0.00  0.00     0.003 A 
ATOM     11  O   UNL d   1       4.997   3.257  -1.284  0.00  0.00    -0.325 OA
ATOM     12  C   UNL d   1       7.709   2.466  -1.686  0.00  0.00     0.212 C 
ATOM     13  C   UNL d   1       6.940   0.121  -1.226  0.00  0.00     0.054 A 
ATOM     14  O   UNL d   1       7.122   3.557  -2.378  0.00  0.00    -0.362 OA
ATOM     15  C   UNL d   1       6.096   4.127  -1.575  0.00  0.00     0.345 C 
ATOM     16  C   UNL d   1       5.926  -0.778  -0.945  0.00  0.00     0.117 A 
ATOM     17  C   UNL d   1       4.617  -0.343  -0.772  0.00  0.00     0.054 A 
ATOM     18  F   UNL d   1       6.204  -2.087  -0.870  0.00  0.00    -0.206 F 
ENDBRANCH   7   8
ENDBRANCH   3   7
BRANCH   1  19
ATOM     19  C   UNL d   1      -1.179   2.684  -1.423  0.00  0.00     0.092 A 
ATOM     20  C   UNL d   1      -2.000   3.769  -1.193  0.00  0.00     0.101 A 
ATOM     21  O   UNL d   1      -3.281   3.436  -1.537  0.00  0.00    -0.240 OA
ATOM     22  C   UNL d   1      -1.880   5.157  -0.708  0.00  0.00     0.081 C 
ATOM     23  N   UNL d   1      -3.315   2.174  -2.080  0.00  0.00    -0.263 N 
ATOM     24  C   UNL d   1      -2.052   1.744  -2.055  0.00  0.00     0.058 A 
ATOM     25  HN  UNL d   1      -4.132   1.672  -2.429  1.00  0.00     0.194 HD
ATOM     26  C   UNL d   1      -1.707   0.454  -2.699  0.00  0.00     0.072 C 
ENDBRANCH   1  19
TORSDOF 3
