REMARK  9 active torsions:
REMARK  status: ('A' for Active; 'I' for Inactive)
REMARK       I    between atoms: C_7  and  N_1 
REMARK    1  A    between atoms: N_17  and  C_2 
REMARK    2  A    between atoms: C_8  and  C_3 
REMARK    3  A    between atoms: C_15  and  C_7 
REMARK    4  A    between atoms: O_22  and  C_8 
REMARK    5  A    between atoms: C_13  and  C_9 
REMARK    6  A    between atoms: C_14  and  C_11 
REMARK    7  A    between atoms: C_12  and  O_16 
REMARK    8  A    between atoms: O_16  and  C_15 
REMARK    9  A    between atoms: C_29  and  O_22 
ROOT
ATOM      1  N   UNL d   1       0.431  -0.193   0.470  0.00  0.00    -0.210 N 
ATOM      2  C   UNL d   1       0.290   1.085  -0.093  0.00  0.00     0.121 A 
ATOM      3  C   UNL d   1      -1.041   1.235  -0.434  0.00  0.00     0.096 A 
ATOM      4  N   UNL d   1      -0.763  -0.870   0.400  0.00  0.00    -0.300 N 
ATOM      5  HN  UNL d   1      -0.947  -1.833   0.682  1.00  0.00     0.186 HD
ATOM      6  C   UNL d   1      -1.628   0.002  -0.115  0.00  0.00     0.129 A 
ATOM      7  C   UNL d   1       1.520  -0.818   1.126  0.00  0.00     0.268 C 
ATOM      8  O   UNL d   1       1.399  -1.953   1.589  0.00  0.00    -0.269 OA
ENDROOT
BRANCH   7   9
ATOM      9  C   UNL d   1       2.761   0.025   1.316  0.00  0.00     0.280 C 
BRANCH   9  10
ATOM     10  O   UNL d   1       3.426   0.289   0.079  0.00  0.00    -0.341 OA
BRANCH  10  11
ATOM     11  C   UNL d   1       4.536   1.095   0.124  0.00  0.00     0.076 A 
ATOM     12  C   UNL d   1       5.586   0.880  -0.789  0.00  0.00    -0.017 A 
ATOM     13  C   UNL d   1       6.678   1.792  -0.738  0.00  0.00     0.018 A 
ATOM     14  C   UNL d   1       6.757   2.889   0.140  0.00  0.00    -0.050 A 
ATOM     15  C   UNL d   1       5.670   3.084   0.990  0.00  0.00     0.011 A 
ATOM     16  C   UNL d   1       4.581   2.208   0.979  0.00  0.00     0.038 A 
BRANCH  12  17
ATOM     17  C   UNL d   1       5.664  -0.243  -1.855  0.00  0.00    -0.021 C 
ATOM     18  C   UNL d   1       4.576  -1.334  -1.777  0.00  0.00     0.019 C 
ATOM     19  C   UNL d   1       5.561   0.404  -3.257  0.00  0.00     0.019 C 
ATOM     20  C   UNL d   1       7.023  -0.987  -1.758  0.00  0.00     0.019 C 
ENDBRANCH  12  17
BRANCH  14  21
ATOM     21  C   UNL d   1       8.030   3.747   0.227  0.00  0.00    -0.024 C 
ATOM     22  C   UNL d   1       9.002   3.005   1.166  0.00  0.00     0.019 C 
ATOM     23  C   UNL d   1       8.721   3.949  -1.143  0.00  0.00     0.019 C 
ATOM     24  C   UNL d   1       7.785   5.163   0.797  0.00  0.00     0.019 C 
ENDBRANCH  14  21
ENDBRANCH  10  11
ENDBRANCH   9  10
ENDBRANCH   7   9
BRANCH   2  25
ATOM     25  N   UNL d   1       1.283   2.005  -0.224  0.00  0.00    -0.286 NA
ATOM     26  H   UNL d   1       2.207   1.691  -0.534  0.00  0.00     0.125 HD
ATOM     27  H   UNL d   1       1.044   2.868  -0.727  0.00  0.00     0.125 HD
ENDBRANCH   2  25
BRANCH   3  28
ATOM     28  C   UNL d   1      -1.644   2.436  -0.958  0.00  0.00     0.298 C 
ATOM     29  O   UNL d   1      -0.993   3.432  -1.272  0.00  0.00    -0.259 OA
BRANCH  28  30
ATOM     30  O   UNL d   1      -3.008   2.385  -0.949  0.00  0.00    -0.318 OA
BRANCH  30  31
ATOM     31  C   UNL d   1      -3.648   3.667  -0.922  0.00  0.00     0.174 C 
ATOM     32  C   UNL d   1      -3.798   4.075   0.533  0.00  0.00     0.034 C 
ENDBRANCH  30  31
ENDBRANCH  28  30
ENDBRANCH   3  28
TORSDOF 9
