REMARK  6 active torsions:
REMARK  status: ('A' for Active; 'I' for Inactive)
REMARK    1  A    between atoms: S_4  and  C_2 
REMARK    2  A    between atoms: S_5  and  C_3 
REMARK    3  A    between atoms: N_24  and  C_6 
REMARK    4  A    between atoms: N_23  and  C_7 
REMARK    5  A    between atoms: C_10  and  C_8 
REMARK    6  A    between atoms: C_11  and  C_9 
ROOT
ATOM      1  C   UNL d   1      -0.586  -0.163   0.630  0.00  0.00     0.099 C 
ATOM      2  C   UNL d   1      -0.008   1.161   0.543  0.00  0.00     0.063 C 
ATOM      3  C   UNL d   1       0.158  -1.369   0.319  0.00  0.00     0.063 C 
ATOM      4  C   UNL d   1       1.298   1.251   0.001  0.00  0.00    -0.005 C 
ATOM      5  C   UNL d   1       1.555  -1.178   0.085  0.00  0.00    -0.005 C 
ATOM      6  C   UNL d   1      -1.946  -0.242   1.089  0.00  0.00     0.104 C 
ATOM      7  C   UNL d   1       2.076   0.103  -0.152  0.00  0.00     0.027 C 
ATOM      8  N   UNL d   1      -3.057  -0.303   1.431  0.00  0.00    -0.191 NA
ENDROOT
BRANCH   2   9
ATOM      9  N   UNL d   1      -0.625   2.310   1.069  0.00  0.00    -0.388 N 
ATOM     10  C   UNL d   1       0.157   3.233   1.901  0.00  0.00     0.149 C 
ATOM     11  C   UNL d   1      -1.971   2.778   0.750  0.00  0.00     0.149 C 
ENDBRANCH   2   9
BRANCH   3  12
ATOM     12  N   UNL d   1      -0.369  -2.702   0.261  0.00  0.00    -0.388 N 
ATOM     13  C   UNL d   1      -1.738  -3.010   0.713  0.00  0.00     0.149 C 
ATOM     14  C   UNL d   1      -0.117  -3.411  -1.017  0.00  0.00     0.149 C 
ENDBRANCH   3  12
BRANCH   4  15
ATOM     15  C   UNL d   1       1.933   2.533  -0.367  0.00  0.00     0.048 C 
ATOM     16  C   UNL d   1       1.853   3.239  -1.514  0.00  0.00     0.139 C 
ATOM     17  C   UNL d   1       2.465   4.519  -1.587  0.00  0.00     0.111 C 
ATOM     18  N   UNL d   1       2.935   5.575  -1.577  0.00  0.00    -0.191 NA
BRANCH  16  19
ATOM     19  S   UNL d   1       1.052   2.692  -2.954  0.00  0.00     0.181 S 
ATOM     20  O   UNL d   1       1.710   3.283  -4.111  0.00  0.00    -0.222 OA
ATOM     21  O   UNL d   1       0.841   1.258  -2.925  0.00  0.00    -0.222 OA
ATOM     22  C   UNL d   1      -0.544   3.454  -2.853  0.00  0.00     0.168 C 
ENDBRANCH  16  19
ENDBRANCH   4  15
BRANCH   5  23
ATOM     23  C   UNL d   1       2.560  -2.261   0.021  0.00  0.00     0.048 C 
ATOM     24  C   UNL d   1       3.343  -2.823   0.963  0.00  0.00     0.139 C 
ATOM     25  C   UNL d   1       4.230  -3.869   0.589  0.00  0.00     0.111 C 
ATOM     26  N   UNL d   1       4.911  -4.740   0.241  0.00  0.00    -0.191 NA
BRANCH  24  27
ATOM     27  S   UNL d   1       3.447  -2.322   2.620  0.00  0.00     0.181 S 
ATOM     28  O   UNL d   1       4.843  -2.387   3.029  0.00  0.00    -0.222 OA
ATOM     29  O   UNL d   1       2.711  -1.095   2.859  0.00  0.00    -0.222 OA
ATOM     30  C   UNL d   1       2.610  -3.616   3.503  0.00  0.00     0.168 C 
ENDBRANCH  24  27
ENDBRANCH   5  23
TORSDOF 6
