REMARK  3 active torsions:
REMARK  status: ('A' for Active; 'I' for Inactive)
REMARK    1  A    between atoms: C_11  and  N_2 
REMARK    2  A    between atoms: C_21  and  C_10 
REMARK    3  A    between atoms: C_24  and  C_16 
ROOT
ATOM      1  C   UNL d   1      -1.272   0.873   0.184  0.00  0.00     0.103 A 
ATOM      2  N   UNL d   1      -3.547   0.132   0.192  0.00  0.00    -0.229 N 
ATOM      3  C   UNL d   1      -0.822  -0.417   0.243  0.00  0.00     0.073 A 
ATOM      4  C   UNL d   1      -2.669   1.242   0.199  0.00  0.00     0.275 C 
ATOM      5  C   UNL d   1       0.608  -0.539   0.089  0.00  0.00     0.041 A 
ATOM      6  C   UNL d   1      -3.111  -1.192   0.348  0.00  0.00     0.334 C 
ATOM      7  N   UNL d   1      -1.759  -1.414   0.401  0.00  0.00    -0.306 N 
ATOM      8  S   UNL d   1      -0.005   1.990   0.067  0.00  0.00    -0.062 SA
ATOM      9  C   UNL d   1       1.151   0.739   0.015  0.00  0.00     0.103 A 
ATOM     10  C   UNL d   1       1.528  -1.625  -0.019  0.00  0.00     0.018 A 
ATOM     11  N   UNL d   1       3.305   0.022  -0.187  0.00  0.00    -0.298 N 
ATOM     12  HN  UNL d   1       4.302   0.222  -0.267  1.00  0.00     0.187 HD
ATOM     13  N   UNL d   1       2.456   1.027  -0.107  0.00  0.00    -0.292 N 
ATOM     14  HN  UNL d   1       2.780   1.993  -0.138  1.00  0.00     0.187 HD
ATOM     15  C   UNL d   1       2.891  -1.274  -0.165  0.00  0.00     0.070 A 
ATOM     16  O   UNL d   1      -3.042   2.414   0.165  0.00  0.00    -0.266 OA
ATOM     17  O   UNL d   1      -3.850  -2.172   0.470  0.00  0.00    -0.246 OA
ATOM     18  H   UNL d   1      -1.478  -2.375   0.542  0.00  0.00     0.171 HD
ENDROOT
BRANCH   2  19
ATOM     19  C   UNL d   1      -4.959   0.358   0.056  0.00  0.00     0.049 A 
ATOM     20  C   UNL d   1      -5.715  -0.418  -0.839  0.00  0.00     0.056 A 
ATOM     21  C   UNL d   1      -7.093  -0.218  -0.979  0.00  0.00     0.058 A 
ATOM     22 CL   UNL d   1      -7.931  -1.187  -2.140  0.00  0.00    -0.082 Cl
ATOM     23  C   UNL d   1      -7.739   0.747  -0.204  0.00  0.00     0.055 A 
ATOM     24  C   UNL d   1      -6.997   1.523   0.690  0.00  0.00     0.028 A 
ATOM     25 CL   UNL d   1      -9.440   1.028  -0.297  0.00  0.00    -0.083 Cl
ATOM     26  C   UNL d   1      -5.615   1.341   0.807  0.00  0.00     0.032 A 
ENDBRANCH   2  19
BRANCH  10  27
ATOM     27  C   UNL d   1       1.024  -3.011   0.012  0.00  0.00    -0.023 A 
ATOM     28  C   UNL d   1       0.093  -3.462  -0.944  0.00  0.00     0.012 A 
ATOM     29  C   UNL d   1      -0.414  -4.763  -0.904  0.00  0.00     0.001 A 
ATOM     30  C   UNL d   1       0.053  -5.660   0.050  0.00  0.00     0.000 A 
ATOM     31  C   UNL d   1       1.011  -5.253   0.975  0.00  0.00     0.001 A 
ATOM     32  C   UNL d   1       1.476  -3.935   0.970  0.00  0.00     0.012 A 
ENDBRANCH  10  27
BRANCH  15  33
ATOM     33  C   UNL d   1       4.014  -2.238  -0.299  0.00  0.00    -0.007 A 
ATOM     34  C   UNL d   1       3.942  -3.386  -1.109  0.00  0.00     0.014 A 
ATOM     35  C   UNL d   1       4.993  -4.308  -1.165  0.00  0.00     0.001 A 
ATOM     36  C   UNL d   1       6.162  -4.079  -0.448  0.00  0.00     0.000 A 
ATOM     37  C   UNL d   1       6.285  -2.925   0.318  0.00  0.00     0.001 A 
ATOM     38  C   UNL d   1       5.223  -2.018   0.392  0.00  0.00     0.014 A 
ENDBRANCH  15  33
TORSDOF 3
