REMARK  6 active torsions:
REMARK  status: ('A' for Active; 'I' for Inactive)
REMARK    1  A    between atoms: O_20  and  C_3 
REMARK    2  A    between atoms: O_23  and  C_5 
REMARK    3  A    between atoms: C_14  and  C_6 
REMARK    4  A    between atoms: C_8  and  C_15 
REMARK    5  A    between atoms: N_16  and  N_10 
REMARK    6  A    between atoms: C_24  and  N_16 
ROOT
ATOM      1  C   UNL d   1      -0.101   0.624   0.023  0.00  0.00     0.118 A 
ATOM      2  C   UNL d   1      -0.053  -0.766   0.020  0.00  0.00     0.025 A 
ATOM      3  C   UNL d   1       1.098   1.323   0.062  0.00  0.00     0.134 A 
ATOM      4  C   UNL d   1      -1.333  -1.513   0.012  0.00  0.00     0.037 C 
ATOM      5  C   UNL d   1       2.329   0.657   0.046  0.00  0.00     0.108 A 
ATOM      6  C   UNL d   1       2.413  -0.746  -0.004  0.00  0.00    -0.014 A 
ATOM      7  O   UNL d   1      -1.249   1.372  -0.026  0.00  0.00    -0.337 OA
ATOM      8  C   UNL d   1       1.182  -1.440  -0.005  0.00  0.00     0.027 A 
ATOM      9  N   UNL d   1      -1.334  -2.787  -0.242  0.00  0.00    -0.320 N 
ATOM     10  HN  UNL d   1      -0.460  -3.297  -0.373  1.00  0.00     0.181 HD
ATOM     11  C   UNL d   1      -2.429   0.651  -0.433  0.00  0.00     0.066 C 
ATOM     12  C   UNL d   1      -2.549  -0.674   0.323  0.00  0.00     0.096 C 
ATOM     13  C   UNL d   1      -2.433   0.462  -1.962  0.00  0.00     0.046 C 
ATOM     14  C   UNL d   1      -3.624   1.539  -0.059  0.00  0.00     0.046 C 
ENDROOT
BRANCH   9  15
ATOM     15  N   UNL d   1      -2.535  -3.424  -0.330  0.00  0.00    -0.206 NA
ATOM     16  H   UNL d   1      -3.244  -2.969  -0.903  0.00  0.00     0.153 HD
BRANCH  15  17
ATOM     17  C   UNL d   1      -2.474  -4.805  -0.644  0.00  0.00     0.027 A 
ATOM     18  C   UNL d   1      -1.392  -5.602  -0.251  0.00  0.00     0.026 A 
ATOM     19  C   UNL d   1      -1.356  -6.966  -0.552  0.00  0.00     0.018 A 
ATOM     20  C   UNL d   1      -2.414  -7.570  -1.241  0.00  0.00     0.048 A 
ATOM     21  C   UNL d   1      -3.522  -6.785  -1.595  0.00  0.00     0.018 A 
ATOM     22  C   UNL d   1      -3.557  -5.421  -1.283  0.00  0.00     0.026 A 
BRANCH  20  23
ATOM     23  C   UNL d   1      -2.376  -9.032  -1.608  0.00  0.00     0.417 C 
ATOM     24  F   UNL d   1      -1.249  -9.673  -1.188  0.00  0.00    -0.166 F 
ATOM     25  F   UNL d   1      -3.420  -9.730  -1.081  0.00  0.00    -0.166 F 
ATOM     26  F   UNL d   1      -2.436  -9.232  -2.954  0.00  0.00    -0.166 F 
ENDBRANCH  20  23
ENDBRANCH  15  17
ENDBRANCH   9  15
BRANCH   3  27
ATOM     27  O   UNL d   1       1.109   2.697   0.097  0.00  0.00    -0.356 OA
ATOM     28  H   UNL d   1       0.166   2.959   0.109  0.00  0.00     0.218 HD
ENDBRANCH   3  27
BRANCH   6  29
ATOM     29  C   UNL d   1       3.761  -1.495  -0.053  0.00  0.00    -0.021 C 
ATOM     30  C   UNL d   1       4.575  -1.216   1.228  0.00  0.00     0.019 C 
ATOM     31  C   UNL d   1       3.607  -3.035  -0.150  0.00  0.00     0.019 C 
ATOM     32  C   UNL d   1       4.581  -1.068  -1.292  0.00  0.00     0.019 C 
ENDBRANCH   6  29
BRANCH   5  33
ATOM     33  O   UNL d   1       3.456   1.436   0.074  0.00  0.00    -0.357 OA
ATOM     34  H   UNL d   1       3.127   2.357   0.101  0.00  0.00     0.217 HD
ENDBRANCH   5  33
TORSDOF 6
