REMARK  7 active torsions:
REMARK  status: ('A' for Active; 'I' for Inactive)
REMARK    1  A    between atoms: C_6  and  C_1 
REMARK    2  A    between atoms: C_2  and  C_5 
REMARK    3  A    between atoms: N_18  and  C_6 
REMARK    4  A    between atoms: O_20  and  C_7 
REMARK    5  A    between atoms: O_13  and  N_8 
REMARK    6  A    between atoms: C_10  and  O_13 
REMARK       I    between atoms: N_19  and  C_10 
REMARK    7  A    between atoms: C_22  and  O_20 
ROOT
ATOM      1  C   UNL d   1      -0.518  -3.694   0.026  0.00  0.00     0.106 A 
ATOM      2  N   UNL d   1      -1.215  -4.867   0.073  0.00  0.00    -0.360 N 
ATOM      3  HN  UNL d   1      -2.234  -4.875   0.113  1.00  0.00     0.165 HD
ATOM      4  C   UNL d   1       0.877  -6.059   0.028  0.00  0.00     0.066 A 
ATOM      5  C   UNL d   1       0.881  -3.626   0.001  0.00  0.00     0.099 A 
ATOM      6  C   UNL d   1       1.573  -4.841   0.004  0.00  0.00     0.056 A 
ATOM      7  C   UNL d   1      -0.506  -6.013   0.066  0.00  0.00     0.105 A 
ENDROOT
BRANCH   1   8
ATOM      8  C   UNL d   1      -1.389  -2.454  -0.015  0.00  0.00     0.128 C 
ATOM      9  N   UNL d   1      -2.534  -2.514   0.606  0.00  0.00    -0.243 N 
ATOM     10  HN  UNL d   1      -2.870  -3.333   1.113  1.00  0.00     0.196 HD
BRANCH   9  11
ATOM     11  O   UNL d   1      -3.254  -1.294   0.489  0.00  0.00    -0.180 OA
BRANCH  11  12
ATOM     12  C   UNL d   1      -4.490  -1.377   1.105  0.00  0.00     0.382 C 
ATOM     13  O   UNL d   1      -5.260  -0.422   1.138  0.00  0.00    -0.236 OA
ATOM     14  N   UNL d   1      -4.749  -2.601   1.658  0.00  0.00    -0.340 N 
ATOM     15  C   UNL d   1      -5.952  -2.957   2.350  0.00  0.00     0.151 C 
ATOM     16  H   UNL d   1      -3.993  -3.264   1.510  0.00  0.00     0.164 HD
ENDBRANCH  11  12
ENDBRANCH   9  11
BRANCH   8  17
ATOM     17  N   UNL d   1      -0.962  -1.333  -0.696  0.00  0.00    -0.285 NA
ATOM     18  H   UNL d   1       0.044  -1.207  -0.751  0.00  0.00     0.125 HD
ATOM     19  H   UNL d   1      -1.469  -0.492  -0.445  0.00  0.00     0.125 HD
ENDBRANCH   8  17
ENDBRANCH   1   8
BRANCH   5  20
ATOM     20  O   UNL d   1       1.482  -2.396  -0.010  0.00  0.00    -0.349 OA
BRANCH  20  21
ATOM     21  C   UNL d   1       2.911  -2.357   0.018  0.00  0.00     0.171 C 
ATOM     22  C   UNL d   1       3.343  -0.903   0.033  0.00  0.00     0.034 C 
ENDBRANCH  20  21
ENDBRANCH   5  20
BRANCH   4  23
ATOM     23  C   UNL d   1       1.575  -7.384   0.005  0.00  0.00     0.418 C 
ATOM     24  F   UNL d   1       2.933  -7.275  -0.020  0.00  0.00    -0.166 F 
ATOM     25  F   UNL d   1       1.283  -8.149   1.091  0.00  0.00    -0.166 F 
ATOM     26  F   UNL d   1       1.242  -8.130  -1.083  0.00  0.00    -0.166 F 
ENDBRANCH   4  23
TORSDOF 7
