REMARK  4 active torsions:
REMARK  status: ('A' for Active; 'I' for Inactive)
REMARK    1  A    between atoms: N_2  and  C_1 
REMARK    2  A    between atoms: N_8  and  C_5 
REMARK       I    between atoms: C_6  and  N_8 
REMARK       I    between atoms: N_13  and  C_6 
REMARK    3  A    between atoms: C_10  and  C_18 
REMARK    4  A    between atoms: C_18  and  N_13 
ROOT
ATOM      1  C   UNL d   1       3.810  -0.855  -0.044  0.00  0.00     0.321 C 
ATOM      2  N   UNL d   1       2.511  -1.209  -0.001  0.00  0.00    -0.308 N 
ATOM      3  N   UNL d   1       4.202   0.443   0.064  0.00  0.00    -0.338 N 
ATOM      4  O   UNL d   1       4.623  -1.774  -0.176  0.00  0.00    -0.247 OA
ATOM      5  H   UNL d   1       2.453  -2.221  -0.038  0.00  0.00     0.170 HD
ATOM      6  H   UNL d   1       3.638   1.040   0.648  0.00  0.00     0.164 HD
ENDROOT
BRANCH   2   7
ATOM      7  C   UNL d   1       1.294  -0.554  -0.004  0.00  0.00     0.045 A 
ATOM      8  C   UNL d   1       0.969   0.834  -0.068  0.00  0.00     0.074 A 
ATOM      9  C   UNL d   1      -0.402   1.038  -0.076  0.00  0.00     0.145 A 
ATOM     10  S   UNL d   1      -1.290  -0.406  -0.006  0.00  0.00    -0.076 SA
ATOM     11  C   UNL d   1       0.143  -1.326   0.029  0.00  0.00     0.081 A 
BRANCH   9  12
ATOM     12  N   UNL d   1      -1.099   2.300  -0.135  0.00  0.00    -0.108 N 
ATOM     13  O   UNL d   1      -0.386   3.312  -0.103  0.00  0.00    -0.531 OA
ATOM     14  O   UNL d   1      -2.332   2.293  -0.217  0.00  0.00    -0.531 OA
ENDBRANCH   9  12
ENDBRANCH   2   7
BRANCH   3  15
ATOM     15  C   UNL d   1       5.639   0.629   0.134  0.00  0.00     0.170 C 
BRANCH  15  16
ATOM     16  C   UNL d   1       6.138   2.031   0.286  0.00  0.00     0.000 A 
ATOM     17  S   UNL d   1       5.145   3.421   0.289  0.00  0.00    -0.105 SA
ATOM     18  C   UNL d   1       6.490   4.465   0.488  0.00  0.00     0.050 A 
ATOM     19  C   UNL d   1       7.679   3.774   0.553  0.00  0.00     0.008 A 
ATOM     20  C   UNL d   1       7.473   2.372   0.436  0.00  0.00     0.017 A 
ENDBRANCH  15  16
ENDBRANCH   3  15
TORSDOF 4
