REMARK  3 active torsions:
REMARK  status: ('A' for Active; 'I' for Inactive)
REMARK    1  A    between atoms: O_2  and  C_1 
REMARK    2  A    between atoms: C_6  and  O_2 
REMARK    3  A    between atoms: N_7  and  C_5 
ROOT
ATOM      1  C   UNL d   1       0.399  -0.990   0.065  0.00  0.00     0.169 A 
ATOM      2  N   UNL d   1       1.132  -0.175   0.865  0.00  0.00    -0.345 N 
ATOM      3  HN  UNL d   1       1.968  -0.507   1.346  1.00  0.00     0.167 HD
ATOM      4  C   UNL d   1      -0.764  -0.595  -0.620  0.00  0.00     0.058 A 
ATOM      5  C   UNL d   1       0.702   1.094   0.992  0.00  0.00     0.090 A 
ATOM      6  C   UNL d   1      -1.188   0.718  -0.418  0.00  0.00     0.029 A 
ATOM      7  C   UNL d   1      -0.438   1.584   0.373  0.00  0.00     0.019 A 
ENDROOT
BRANCH   1   8
ATOM      8  O   UNL d   1       0.801  -2.313  -0.103  0.00  0.00    -0.292 OA
BRANCH   8   9
ATOM      9  C   UNL d   1       2.149  -2.592  -0.034  0.00  0.00     0.078 A 
ATOM     10  C   UNL d   1       2.503  -3.815   0.542  0.00  0.00     0.039 A 
ATOM     11  C   UNL d   1       3.847  -4.188   0.623  0.00  0.00     0.026 A 
ATOM     12  C   UNL d   1       4.832  -3.341   0.118  0.00  0.00     0.034 A 
ATOM     13  C   UNL d   1       4.485  -2.133  -0.483  0.00  0.00     0.026 A 
ATOM     14 CL   UNL d   1       6.490  -3.790   0.232  0.00  0.00    -0.084 Cl
ATOM     15  C   UNL d   1       3.141  -1.768  -0.575  0.00  0.00     0.039 A 
ENDBRANCH   8   9
ENDBRANCH   1   8
BRANCH   4  16
ATOM     16  N   UNL d   1      -1.598  -1.501  -1.294  0.00  0.00    -0.299 NA
ATOM     17  H   UNL d   1      -1.107  -2.341  -1.596  0.00  0.00     0.124 HD
ATOM     18  H   UNL d   1      -2.164  -1.087  -2.027  0.00  0.00     0.124 HD
ENDBRANCH   4  16
TORSDOF 3
