REMARK  6 active torsions:
REMARK  status: ('A' for Active; 'I' for Inactive)
REMARK    1  A    between atoms: C_3  and  C_1 
REMARK    2  A    between atoms: C_12  and  C_2 
REMARK    3  A    between atoms: N_15  and  C_3 
REMARK    4  A    between atoms: O_10  and  N_6 
REMARK    5  A    between atoms: C_9  and  O_10 
REMARK    6  A    between atoms: C_11  and  C_9 
ROOT
ATOM      1  C   UNL d   1      -2.814  -1.210   0.005  0.00  0.00     0.112 C 
ATOM      2  N   UNL d   1      -3.933  -0.582  -0.118  0.00  0.00    -0.245 N 
ATOM      3  HN  UNL d   1      -4.826  -1.054  -0.258  1.00  0.00     0.196 HD
ENDROOT
BRANCH   1   4
ATOM      4  C   UNL d   1      -2.817  -2.664  -0.086  0.00  0.00     0.041 A 
ATOM      5  C   UNL d   1      -3.690  -3.459  -0.827  0.00  0.00     0.099 A 
ATOM      6  O   UNL d   1      -3.413  -4.781  -0.612  0.00  0.00    -0.314 OA
ATOM      7  C   UNL d   1      -2.369  -4.853   0.257  0.00  0.00     0.051 A 
ATOM      8  C   UNL d   1      -1.956  -3.586   0.593  0.00  0.00     0.050 A 
ATOM      9  C   UNL d   1      -1.939  -6.210   0.650  0.00  0.00     0.077 C 
BRANCH   5  10
ATOM     10  C   UNL d   1      -4.786  -3.216  -1.766  0.00  0.00    -0.001 A 
ATOM     11  C   UNL d   1      -4.756  -2.128  -2.648  0.00  0.00     0.014 A 
ATOM     12  C   UNL d   1      -5.841  -1.848  -3.483  0.00  0.00     0.001 A 
ATOM     13  C   UNL d   1      -6.963  -2.672  -3.467  0.00  0.00     0.000 A 
ATOM     14  C   UNL d   1      -6.991  -3.786  -2.631  0.00  0.00     0.001 A 
ATOM     15  C   UNL d   1      -5.908  -4.058  -1.789  0.00  0.00     0.014 A 
ENDBRANCH   5  10
ENDBRANCH   1   4
BRANCH   1  16
ATOM     16  N   UNL d   1      -1.571  -0.680   0.205  0.00  0.00    -0.286 NA
ATOM     17  H   UNL d   1      -0.803  -1.206  -0.198  0.00  0.00     0.125 HD
ATOM     18  H   UNL d   1      -1.529   0.308  -0.008  0.00  0.00     0.125 HD
ENDBRANCH   1  16
BRANCH   2  19
ATOM     19  O   UNL d   1      -3.803   0.825  -0.041  0.00  0.00    -0.193 OA
BRANCH  19  20
ATOM     20  C   UNL d   1      -5.004   1.383  -0.395  0.00  0.00     0.315 C 
ATOM     21  O   UNL d   1      -6.016   0.783  -0.742  0.00  0.00    -0.257 OA
BRANCH  20  22
ATOM     22  C   UNL d   1      -5.020   2.870  -0.267  0.00  0.00     0.047 A 
ATOM     23  C   UNL d   1      -3.933   3.738  -0.490  0.00  0.00    -0.046 A 
ATOM     24  C   UNL d   1      -2.550   3.287  -0.860  0.00  0.00     0.049 C 
ATOM     25  C   UNL d   1      -4.141   5.128  -0.352  0.00  0.00     0.008 A 
ATOM     26  C   UNL d   1      -5.399   5.652  -0.053  0.00  0.00     0.001 A 
ATOM     27  C   UNL d   1      -6.476   4.797   0.132  0.00  0.00     0.001 A 
ATOM     28  C   UNL d   1      -6.285   3.420   0.031  0.00  0.00     0.018 A 
ENDBRANCH  20  22
ENDBRANCH  19  20
ENDBRANCH   2  19
TORSDOF 6
