REMARK  3 active torsions:
REMARK  status: ('A' for Active; 'I' for Inactive)
REMARK    1  A    between atoms: C_13  and  N_2 
REMARK       I    between atoms: C_11  and  N_10 
REMARK    2  A    between atoms: O_21  and  C_11 
REMARK    3  A    between atoms: C_26  and  O_21 
ROOT
ATOM      1  C   UNL d   1       0.677   0.433   0.074  0.00  0.00     0.074 A 
ATOM      2  N   UNL d   1       2.957   1.212   0.048  0.00  0.00    -0.229 N 
ATOM      3  C   UNL d   1       1.186  -0.825  -0.037  0.00  0.00     0.095 A 
ATOM      4  C   UNL d   1       1.592   1.553   0.152  0.00  0.00     0.270 A 
ATOM      5  C   UNL d   1       3.439  -0.102  -0.132  0.00  0.00     0.335 A 
ATOM      6  N   UNL d   1       2.507  -1.117  -0.132  0.00  0.00    -0.301 N 
ATOM      7  C   UNL d   1      -0.753   0.393   0.064  0.00  0.00    -0.023 A 
ATOM      8  C   UNL d   1      -1.224  -0.914   0.025  0.00  0.00     0.010 A 
ATOM      9  S   UNL d   1       0.047  -2.059  -0.067  0.00  0.00    -0.074 SA
ATOM     10  N   UNL d   1      -3.492  -0.138   0.324  0.00  0.00    -0.323 N 
ATOM     11  C   UNL d   1      -4.349  -0.081   1.404  0.00  0.00     0.363 C 
ATOM     12  C   UNL d   1      -2.675  -1.321   0.019  0.00  0.00     0.174 C 
ATOM     13  C   UNL d   1      -1.703   1.558   0.104  0.00  0.00     0.061 C 
ATOM     14  O   UNL d   1       4.627  -0.409  -0.247  0.00  0.00    -0.246 OA
ATOM     15  O   UNL d   1       1.158   2.701   0.263  0.00  0.00    -0.266 OA
ATOM     16  C   UNL d   1      -3.108   1.112  -0.340  0.00  0.00     0.133 C 
ATOM     17  O   UNL d   1      -4.863   0.956   1.812  0.00  0.00    -0.238 OA
ATOM     18  H   UNL d   1       2.831  -2.071  -0.222  0.00  0.00     0.171 HD
ENDROOT
BRANCH   2  19
ATOM     19  C   UNL d   1       3.905   2.279   0.114  0.00  0.00     0.047 A 
ATOM     20  C   UNL d   1       4.845   2.466  -0.908  0.00  0.00     0.032 A 
ATOM     21  C   UNL d   1       5.724   3.553  -0.866  0.00  0.00     0.026 A 
ATOM     22  C   UNL d   1       5.693   4.431   0.216  0.00  0.00     0.034 A 
ATOM     23  C   UNL d   1       4.783   4.240   1.252  0.00  0.00     0.026 A 
ATOM     24 CL   UNL d   1       6.779   5.764   0.269  0.00  0.00    -0.084 Cl
ATOM     25  C   UNL d   1       3.881   3.176   1.194  0.00  0.00     0.032 A 
ENDBRANCH   2  19
BRANCH  11  26
ATOM     26  O   UNL d   1      -4.523  -1.292   1.992  0.00  0.00    -0.304 OA
BRANCH  26  27
ATOM     27  C   UNL d   1      -5.068  -1.262   3.318  0.00  0.00     0.176 C 
ATOM     28  C   UNL d   1      -3.918  -1.080   4.292  0.00  0.00     0.034 C 
ENDBRANCH  26  27
ENDBRANCH  11  26
TORSDOF 3
