REMARK  4 active torsions:
REMARK  status: ('A' for Active; 'I' for Inactive)
REMARK    1  A    between atoms: C_2  and  C_1 
REMARK       I    between atoms: N_4  and  C_2 
REMARK    2  A    between atoms: C_10  and  C_6 
REMARK    3  A    between atoms: C_11  and  C_10 
REMARK       I    between atoms: N_13  and  C_11 
REMARK    4  A    between atoms: C_12  and  N_13 
ROOT
ATOM      1  C   UNL d   1       3.982   0.142  -0.098  0.00  0.00     0.263 C 
ATOM      2  N   UNL d   1       4.444  -1.125   0.300  0.00  0.00    -0.332 N 
ATOM      3  C   UNL d   1       4.325  -2.344  -0.558  0.00  0.00     0.188 C 
ATOM      4  C   UNL d   1       4.008  -3.625   0.256  0.00  0.00     0.241 C 
ATOM      5  N   UNL d   1       4.473  -3.683   1.548  0.00  0.00    -0.358 N 
ATOM      6  O   UNL d   1       3.210   0.244  -1.047  0.00  0.00    -0.267 OA
ATOM      7  O   UNL d   1       3.531  -4.646  -0.239  0.00  0.00    -0.271 OA
ATOM      8  C   UNL d   1       5.275  -1.344   1.496  0.00  0.00     0.147 C 
ATOM      9  C   UNL d   1       4.739  -2.501   2.332  0.00  0.00     0.142 C 
ATOM     10  H   UNL d   1       4.231  -4.545   2.025  0.00  0.00     0.162 HD
ENDROOT
BRANCH   3  11
ATOM     11  C   UNL d   1       3.517  -2.324  -1.863  0.00  0.00     0.138 C 
BRANCH  11  12
ATOM     12  C   UNL d   1       2.002  -2.488  -1.823  0.00  0.00     0.224 C 
ATOM     13  N   UNL d   1       1.355  -1.925  -0.747  0.00  0.00    -0.326 N 
ATOM     14  H   UNL d   1       1.926  -1.423  -0.077  0.00  0.00     0.169 HD
ATOM     15  O   UNL d   1       1.440  -3.026  -2.778  0.00  0.00    -0.273 OA
BRANCH  13  16
ATOM     16  C   UNL d   1      -0.042  -1.732  -0.575  0.00  0.00     0.058 A 
ATOM     17  C   UNL d   1      -1.001  -2.167  -1.496  0.00  0.00     0.055 A 
ATOM     18  C   UNL d   1      -2.350  -1.845  -1.319  0.00  0.00     0.036 A 
ATOM     19 CL   UNL d   1      -3.514  -2.356  -2.481  0.00  0.00    -0.084 Cl
ATOM     20  C   UNL d   1      -2.768  -1.100  -0.219  0.00  0.00     0.026 A 
ATOM     21  C   UNL d   1      -1.832  -0.694   0.730  0.00  0.00     0.028 A 
ATOM     22  C   UNL d   1      -0.481  -1.016   0.557  0.00  0.00     0.060 A 
ATOM     23 CL   UNL d   1       0.634  -0.518   1.785  0.00  0.00    -0.082 Cl
ENDBRANCH  13  16
ENDBRANCH  11  12
ENDBRANCH   3  11
BRANCH   1  24
ATOM     24  C   UNL d   1       4.345   1.311   0.682  0.00  0.00     0.096 C 
ATOM     25  S   UNL d   1       3.078   2.319   1.237  0.00  0.00    -0.082 SA
ATOM     26  C   UNL d   1       4.152   3.343   2.099  0.00  0.00     0.017 A 
ATOM     27  C   UNL d   1       3.803   4.454   2.891  0.00  0.00     0.020 A 
ATOM     28  C   UNL d   1       5.481   2.946   1.932  0.00  0.00     0.004 A 
ATOM     29  C   UNL d   1       4.808   5.141   3.573  0.00  0.00     0.001 A 
ATOM     30  C   UNL d   1       6.131   4.739   3.467  0.00  0.00     0.001 A 
ATOM     31  C   UNL d   1       6.477   3.664   2.643  0.00  0.00     0.014 A 
ATOM     32  C   UNL d   1       5.576   1.840   1.012  0.00  0.00     0.068 C 
ATOM     33 CL   UNL d   1       7.093   1.248   0.456  0.00  0.00    -0.082 Cl
ENDBRANCH   1  24
TORSDOF 4
