REMARK  4 active torsions:
REMARK  status: ('A' for Active; 'I' for Inactive)
REMARK    1  A    between atoms: C_2  and  N_1 
REMARK    2  A    between atoms: O_14  and  C_5 
REMARK    3  A    between atoms: O_15  and  C_8 
REMARK    4  A    between atoms: O_16  and  C_9 
ROOT
ATOM      1  C   UNL d   1       0.045   2.336  -0.002  0.00  0.00     0.051 A 
ATOM      2  C   UNL d   1       0.119   5.182   0.209  0.00  0.00     0.135 A 
ATOM      3  C   UNL d   1      -0.672   3.014   0.991  0.00  0.00     0.070 A 
ATOM      4  C   UNL d   1       0.791   3.106  -0.895  0.00  0.00     0.070 A 
ATOM      5  C   UNL d   1      -0.620   4.413   1.133  0.00  0.00     0.106 A 
ATOM      6  C   UNL d   1       0.830   4.507  -0.807  0.00  0.00     0.106 A 
ENDROOT
BRANCH   1   7
ATOM      7  N   UNL d   1       0.032   0.915  -0.070  0.00  0.00    -0.245 N 
ATOM      8  C   UNL d   1       1.019   0.146  -0.624  0.00  0.00     0.255 A 
ATOM      9  C   UNL d   1       0.642  -1.259  -0.428  0.00  0.00     0.080 A 
ATOM     10  O   UNL d   1       2.083   0.450  -1.136  0.00  0.00    -0.268 OA
ATOM     11  C   UNL d   1      -0.519  -1.287   0.219  0.00  0.00     0.080 A 
ATOM     12  C   UNL d   1      -0.927   0.099   0.465  0.00  0.00     0.255 A 
ATOM     13  O   UNL d   1      -1.974   0.358   1.042  0.00  0.00    -0.268 OA
ENDBRANCH   1   7
BRANCH   5  14
ATOM     14  O   UNL d   1      -1.255   5.059   2.164  0.00  0.00    -0.353 OA
ATOM     15  C   UNL d   1      -1.969   4.289   3.125  0.00  0.00     0.210 C 
ENDBRANCH   5  14
BRANCH   6  16
ATOM     16  O   UNL d   1       1.559   5.070  -1.829  0.00  0.00    -0.353 OA
ATOM     17  C   UNL d   1       2.225   6.298  -1.566  0.00  0.00     0.210 C 
ENDBRANCH   6  16
BRANCH   2  18
ATOM     18  O   UNL d   1       0.203   6.549   0.177  0.00  0.00    -0.351 OA
ATOM     19  C   UNL d   1      -0.502   7.341   1.119  0.00  0.00     0.210 C 
ENDBRANCH   2  18
TORSDOF 4
