REMARK  5 active torsions:
REMARK  status: ('A' for Active; 'I' for Inactive)
REMARK    1  A    between atoms: C_4  and  N_1 
REMARK    2  A    between atoms: C_2  and  C_3 
REMARK    3  A    between atoms: C_10  and  C_2 
REMARK    4  A    between atoms: C_11  and  C_2 
REMARK    5  A    between atoms: C_3  and  C_5 
ROOT
ATOM      1  C   UNL d   1       2.553  -0.265   1.390  0.00  0.00     0.107 C 
ATOM      2  C   UNL d   1       2.831  -0.597  -0.055  0.00  0.00     0.079 C 
ATOM      3  N   UNL d   1       3.042  -0.865  -1.164  0.00  0.00    -0.196 NA
ENDROOT
BRANCH   1   4
ATOM      4  C   UNL d   1       1.904  -1.600   1.976  0.00  0.00     0.075 C 
BRANCH   4   5
ATOM      5  C   UNL d   1       2.687  -2.930   1.948  0.00  0.00    -0.023 A 
ATOM      6  C   UNL d   1       2.132  -4.175   2.351  0.00  0.00     0.109 A 
ATOM      7  C   UNL d   1       2.864  -5.376   2.194  0.00  0.00     0.037 A 
ATOM      8  C   UNL d   1       4.155  -5.365   1.674  0.00  0.00     0.002 A 
ATOM      9  C   UNL d   1       4.737  -4.160   1.333  0.00  0.00     0.001 A 
ATOM     10  C   UNL d   1       4.017  -2.973   1.474  0.00  0.00     0.010 A 
BRANCH   6  11
ATOM     11  N   UNL d   1       0.795  -4.308   2.977  0.00  0.00    -0.115 N 
ATOM     12  O   UNL d   1       0.179  -3.282   3.289  0.00  0.00    -0.532 OA
ATOM     13  O   UNL d   1       0.371  -5.454   3.188  0.00  0.00    -0.532 OA
ENDBRANCH   6  11
ENDBRANCH   4   5
ENDBRANCH   1   4
BRANCH   1  14
ATOM     14  C   UNL d   1       1.559   0.935   1.475  0.00  0.00    -0.031 A 
ATOM     15  C   UNL d   1       0.954   1.290   2.696  0.00  0.00     0.009 A 
ATOM     16  C   UNL d   1       0.110   2.402   2.794  0.00  0.00     0.001 A 
ATOM     17  C   UNL d   1      -0.153   3.187   1.677  0.00  0.00     0.000 A 
ATOM     18  C   UNL d   1       0.433   2.866   0.459  0.00  0.00     0.001 A 
ATOM     19  C   UNL d   1       1.285   1.761   0.360  0.00  0.00     0.009 A 
ENDBRANCH   1  14
BRANCH   1  20
ATOM     20  C   UNL d   1       3.850   0.124   2.163  0.00  0.00    -0.031 A 
ATOM     21  C   UNL d   1       4.928   0.756   1.511  0.00  0.00     0.009 A 
ATOM     22  C   UNL d   1       6.129   1.006   2.183  0.00  0.00     0.001 A 
ATOM     23  C   UNL d   1       6.271   0.660   3.524  0.00  0.00     0.000 A 
ATOM     24  C   UNL d   1       5.205   0.088   4.205  0.00  0.00     0.001 A 
ATOM     25  C   UNL d   1       4.006  -0.167   3.536  0.00  0.00     0.009 A 
ENDBRANCH   1  20
TORSDOF 5
