REMARK  7 active torsions:
REMARK  status: ('A' for Active; 'I' for Inactive)
REMARK    1  A    between atoms: S_12  and  C_2 
REMARK    2  A    between atoms: O_18  and  C_7 
REMARK    3  A    between atoms: C_8  and  C_14 
REMARK    4  A    between atoms: C_11  and  C_17 
REMARK       I    between atoms: N_13  and  C_11 
REMARK    5  A    between atoms: C_17  and  S_12 
REMARK    6  A    between atoms: C_14  and  N_13 
REMARK    7  A    between atoms: O_19  and  C_15 
ROOT
ATOM      1  C   UNL d   1       5.967   3.906   1.061  0.00  0.00     0.227 C 
ATOM      2  N   UNL d   1       6.249   3.103  -0.025  0.00  0.00    -0.356 N 
ATOM      3  O   UNL d   1       5.819   3.456   2.197  0.00  0.00    -0.273 OA
ATOM      4  H   UNL d   1       6.300   3.533  -0.940  0.00  0.00     0.162 HD
ENDROOT
BRANCH   1   5
ATOM      5  C   UNL d   1       5.961   5.404   0.809  0.00  0.00     0.184 C 
BRANCH   5   6
ATOM      6  S   UNL d   1       5.390   5.865  -0.847  0.00  0.00    -0.096 SA
BRANCH   6   7
ATOM      7  C   UNL d   1       3.654   5.639  -0.731  0.00  0.00     0.115 A 
ATOM      8  S   UNL d   1       2.619   6.197  -1.986  0.00  0.00    -0.045 SA
ATOM      9  C   UNL d   1       1.283   5.590  -1.130  0.00  0.00     0.103 A 
ATOM     10  C   UNL d   1       1.704   5.000   0.058  0.00  0.00     0.067 A 
ATOM     11  N   UNL d   1       0.019   5.692  -1.595  0.00  0.00    -0.358 N 
ATOM     12  C   UNL d   1       0.702   4.448   0.878  0.00  0.00     0.034 A 
ATOM     13  N   UNL d   1       3.072   5.031   0.282  0.00  0.00    -0.343 N 
ATOM     14  C   UNL d   1      -0.626   4.530   0.446  0.00  0.00     0.019 A 
ATOM     15  C   UNL d   1      -0.900   5.143  -0.770  0.00  0.00     0.089 A 
ATOM     16  HN  UNL d   1       3.549   4.646   1.097  1.00  0.00     0.167 HD
ATOM     17  HN  UNL d   1      -0.218   6.139  -2.480  1.00  0.00     0.166 HD
ENDBRANCH   6   7
ENDBRANCH   5   6
ENDBRANCH   1   5
BRANCH   2  18
ATOM     18  C   UNL d   1       6.091   1.664   0.041  0.00  0.00     0.164 C 
BRANCH  18  19
ATOM     19  C   UNL d   1       7.361   0.836   0.017  0.00  0.00    -0.004 A 
ATOM     20  C   UNL d   1       7.337  -0.586   0.029  0.00  0.00     0.109 A 
ATOM     21  C   UNL d   1       8.559  -1.303  -0.039  0.00  0.00     0.102 A 
ATOM     22  C   UNL d   1       9.774  -0.616  -0.095  0.00  0.00     0.039 A 
ATOM     23  C   UNL d   1       9.806   0.767  -0.116  0.00  0.00     0.003 A 
ATOM     24  C   UNL d   1       8.608   1.487  -0.053  0.00  0.00     0.012 A 
BRANCH  20  25
ATOM     25  O   UNL d   1       6.204  -1.362   0.003  0.00  0.00    -0.352 OA
ATOM     26  C   UNL d   1       5.051  -0.998   0.743  0.00  0.00     0.210 C 
ENDBRANCH  20  25
BRANCH  21  27
ATOM     27  O   UNL d   1       8.739  -2.664  -0.010  0.00  0.00    -0.353 OA
ATOM     28  C   UNL d   1       7.720  -3.480  -0.569  0.00  0.00     0.210 C 
ENDBRANCH  21  27
ENDBRANCH  18  19
ENDBRANCH   2  18
TORSDOF 7
