REMARK  4 active torsions:
REMARK  status: ('A' for Active; 'I' for Inactive)
REMARK    1  A    between atoms: C_9  and  S_1 
REMARK    2  A    between atoms: C_11  and  S_1 
REMARK    3  A    between atoms: C_8  and  C_4 
REMARK    4  A    between atoms: C_5  and  C_9 
ROOT
ATOM      1  N   UNL d   1       0.134  -2.543   2.185  0.00  0.00    -0.322 N 
ATOM      2  HN  UNL d   1      -0.746  -2.746   1.711  1.00  0.00     0.169 HD
ATOM      3  C   UNL d   1       0.934  -3.385   2.916  0.00  0.00     0.138 A 
ATOM      4  C   UNL d   1       0.792  -1.408   2.254  0.00  0.00     0.162 A 
ATOM      5  N   UNL d   1       2.023  -2.808   3.440  0.00  0.00    -0.242 N 
ATOM      6  HN  UNL d   1       2.746  -3.232   4.021  1.00  0.00     0.196 HD
ATOM      7  O   UNL d   1       1.931  -1.486   2.999  0.00  0.00    -0.222 OA
ENDROOT
BRANCH   4   8
ATOM      8  C   UNL d   1       0.443  -0.097   1.697  0.00  0.00     0.232 C 
BRANCH   8   9
ATOM      9  S   UNL d   1       1.063  -0.019   0.038  0.00  0.00     0.182 S 
ATOM     10  O   UNL d   1       2.498  -0.244   0.065  0.00  0.00    -0.222 OA
ATOM     11  O   UNL d   1       0.527   1.179  -0.579  0.00  0.00    -0.222 OA
BRANCH   9  12
ATOM     12  C   UNL d   1       0.308  -1.391  -0.807  0.00  0.00     0.059 A 
ATOM     13  C   UNL d   1      -1.084  -1.414  -0.949  0.00  0.00     0.025 A 
ATOM     14  C   UNL d   1      -1.692  -2.525  -1.534  0.00  0.00     0.025 A 
ATOM     15  C   UNL d   1      -0.909  -3.588  -1.987  0.00  0.00     0.034 A 
ATOM     16  C   UNL d   1       0.481  -3.545  -1.873  0.00  0.00     0.025 A 
ATOM     17 CL   UNL d   1      -1.667  -4.965  -2.685  0.00  0.00    -0.084 Cl
ATOM     18  C   UNL d   1       1.098  -2.441  -1.283  0.00  0.00     0.025 A 
ENDBRANCH   9  12
ENDBRANCH   8   9
ENDBRANCH   4   8
BRANCH   3  19
ATOM     19  C   UNL d   1       0.559  -4.788   3.095  0.00  0.00     0.017 A 
ATOM     20  C   UNL d   1      -0.540  -5.389   2.518  0.00  0.00     0.065 A 
ATOM     21  S   UNL d   1      -0.690  -7.033   2.970  0.00  0.00    -0.113 SA
ATOM     22  C   UNL d   1       0.721  -6.953   3.935  0.00  0.00     0.050 A 
ATOM     23  C   UNL d   1       1.298  -5.701   3.908  0.00  0.00     0.023 A 
ENDBRANCH   3  19
TORSDOF 4
