REMARK  2 active torsions:
REMARK  status: ('A' for Active; 'I' for Inactive)
REMARK    1  A    between atoms: C_2  and  S_1 
REMARK    2  A    between atoms: N_3  and  S_1 
ROOT
ATOM      1  N   UNL d   1       0.203  -1.544  -0.440  0.00  0.00    -0.264 N 
ATOM      2  C   UNL d   1      -0.766  -1.939   0.516  0.00  0.00     0.072 A 
ATOM      3  C   UNL d   1       0.344  -2.312  -1.680  0.00  0.00     0.107 C 
ATOM      4  N   UNL d   1       0.208  -4.231   0.796  0.00  0.00    -0.325 N 
ATOM      5  C   UNL d   1       0.757  -4.539  -0.410  0.00  0.00     0.224 C 
ATOM      6  C   UNL d   1       1.220  -3.519  -1.420  0.00  0.00     0.129 C 
ATOM      7  C   UNL d   1      -0.697  -3.200   1.124  0.00  0.00     0.062 A 
ATOM      8  O   UNL d   1       0.970  -5.740  -0.626  0.00  0.00    -0.273 OA
ATOM      9  C   UNL d   1      -1.854  -1.096   0.770  0.00  0.00     0.033 A 
ATOM     10  C   UNL d   1      -1.011  -2.666  -2.301  0.00  0.00     0.034 C 
ATOM     11  C   UNL d   1      -1.672  -3.544   2.074  0.00  0.00     0.032 A 
ATOM     12  C   UNL d   1      -2.859  -1.488   1.653  0.00  0.00     0.002 A 
ATOM     13  C   UNL d   1      -2.759  -2.704   2.319  0.00  0.00     0.002 A 
ATOM     14  H   UNL d   1       0.112  -5.078   1.345  0.00  0.00     0.169 HD
ENDROOT
BRANCH   1  15
ATOM     15  S   UNL d   1       1.167  -0.187  -0.164  0.00  0.00     0.282 S 
ATOM     16  O   UNL d   1       0.954   0.343   1.169  0.00  0.00    -0.198 OA
ATOM     17  O   UNL d   1       2.503  -0.465  -0.660  0.00  0.00    -0.198 OA
BRANCH  15  18
ATOM     18  C   UNL d   1       0.627   1.107  -1.208  0.00  0.00     0.166 A 
ATOM     19  N   UNL d   1      -0.425   0.984  -2.110  0.00  0.00    -0.340 N 
ATOM     20  C   UNL d   1      -0.469   2.140  -2.733  0.00  0.00     0.183 A 
ATOM     21  HN  UNL d   1      -1.029   0.175  -2.255  1.00  0.00     0.167 HD
ATOM     22  N   UNL d   1       0.494   2.994  -2.284  0.00  0.00    -0.354 N 
ATOM     23  C   UNL d   1       1.194   2.364  -1.296  0.00  0.00     0.135 A 
ATOM     24  C   UNL d   1       0.747   4.317  -2.797  0.00  0.00     0.156 C 
ENDBRANCH  15  18
ENDBRANCH   1  15
TORSDOF 2
