REMARK  4 active torsions:
REMARK  status: ('A' for Active; 'I' for Inactive)
REMARK    1  A    between atoms: C_8  and  N_1 
REMARK    2  A    between atoms: C_7  and  C_2 
REMARK    3  A    between atoms: N_12  and  C_9 
REMARK    4  A    between atoms: C_13  and  N_12 
ROOT
ATOM      1  N   UNL d   1       4.934  -1.074  -0.003  0.00  0.00    -0.225 N 
ATOM      2  C   UNL d   1       3.625  -0.622  -0.193  0.00  0.00     0.139 C 
ATOM      3  N   UNL d   1       4.893   1.044   0.318  0.00  0.00    -0.007 NA
ATOM      4  N   UNL d   1       5.666  -0.022   0.446  0.00  0.00     0.001 NA
ATOM      5  N   UNL d   1       3.634   0.695  -0.087  0.00  0.00    -0.270 N 
ATOM      6  HN  UNL d   1       2.855   1.328  -0.272  1.00  0.00     0.185 HD
ENDROOT
BRANCH   2   7
ATOM      7  C   UNL d   1       2.538  -1.519  -0.323  0.00  0.00     0.068 C 
ATOM      8  C   UNL d   1       1.380  -1.220  -0.923  0.00  0.00     0.092 C 
BRANCH   8   9
ATOM      9  N   UNL d   1       0.954  -0.064  -1.530  0.00  0.00    -0.366 N 
ATOM     10  H   UNL d   1       1.565   0.744  -1.419  0.00  0.00     0.165 HD
BRANCH   9  11
ATOM     11  C   UNL d   1      -0.282   0.159  -2.164  0.00  0.00     0.032 A 
ATOM     12  C   UNL d   1      -0.748   1.473  -2.317  0.00  0.00     0.031 A 
ATOM     13  C   UNL d   1      -2.013   1.736  -2.861  0.00  0.00     0.026 A 
ATOM     14  C   UNL d   1      -2.827   0.681  -3.263  0.00  0.00     0.034 A 
ATOM     15  C   UNL d   1      -2.382  -0.629  -3.139  0.00  0.00     0.026 A 
ATOM     16 CL   UNL d   1      -4.391   0.996  -3.906  0.00  0.00    -0.084 Cl
ATOM     17  C   UNL d   1      -1.119  -0.884  -2.592  0.00  0.00     0.031 A 
ENDBRANCH   9  11
ENDBRANCH   8   9
ENDBRANCH   2   7
BRANCH   1  18
ATOM     18  C   UNL d   1       5.554  -2.326  -0.272  0.00  0.00     0.056 A 
ATOM     19  C   UNL d   1       5.010  -3.219  -1.206  0.00  0.00     0.032 A 
ATOM     20  C   UNL d   1       5.684  -4.401  -1.525  0.00  0.00     0.009 A 
ATOM     21  C   UNL d   1       6.911  -4.707  -0.928  0.00  0.00    -0.062 A 
ATOM     22  C   UNL d   1       7.436  -3.834   0.030  0.00  0.00     0.009 A 
ATOM     23  C   UNL d   1       7.643  -5.956  -1.324  0.00  0.00     0.048 C 
ATOM     24  C   UNL d   1       6.773  -2.643   0.346  0.00  0.00     0.032 A 
ENDBRANCH   1  18
TORSDOF 4
