REMARK  2 active torsions:
REMARK  status: ('A' for Active; 'I' for Inactive)
REMARK    1  A    between atoms: C_8  and  N_7 
REMARK    2  A    between atoms: O_11  and  C_10 
ROOT
ATOM      1  C   UNL d   1       4.032   0.245   1.037  0.00  0.00     0.166 A 
ATOM      2  S   UNL d   1       3.196   1.669   1.638  0.00  0.00    -0.022 SA
ATOM      3  C   UNL d   1       4.731   2.279   2.188  0.00  0.00     0.160 A 
ATOM      4  N   UNL d   1       5.318   0.248   1.202  0.00  0.00    -0.278 N 
ATOM      5  HN  UNL d   1       5.948  -0.495   0.899  1.00  0.00     0.189 HD
ATOM      6  N   UNL d   1       5.704   1.389   1.838  0.00  0.00    -0.282 N 
ATOM      7  N   UNL d   1       3.243  -0.691   0.441  0.00  0.00    -0.333 N 
ATOM      8  S   UNL d   1       5.010   3.693   3.003  0.00  0.00    -0.051 SA
ATOM      9  H   UNL d   1       6.688   1.535   2.037  0.00  0.00     0.188 HD
ATOM     10  H   UNL d   1       2.267  -0.464   0.297  0.00  0.00     0.168 HD
ENDROOT
BRANCH   7  11
ATOM     11  C   UNL d   1       3.582  -2.014   0.115  0.00  0.00     0.067 A 
ATOM     12  C   UNL d   1       2.943  -2.667  -0.958  0.00  0.00     0.094 A 
ATOM     13  C   UNL d   1       3.248  -3.994  -1.272  0.00  0.00     0.039 A 
ATOM     14  C   UNL d   1       4.223  -4.680  -0.552  0.00  0.00     0.003 A 
ATOM     15  C   UNL d   1       4.897  -4.036   0.481  0.00  0.00     0.002 A 
ATOM     16  C   UNL d   1       4.585  -2.711   0.801  0.00  0.00     0.032 A 
BRANCH  12  17
ATOM     17  O   UNL d   1       1.952  -2.076  -1.703  0.00  0.00    -0.354 OA
ATOM     18  C   UNL d   1       2.410  -0.940  -2.439  0.00  0.00     0.210 C 
ENDBRANCH  12  17
ENDBRANCH   7  11
TORSDOF 2
