REMARK  5 active torsions:
REMARK  status: ('A' for Active; 'I' for Inactive)
REMARK    1  A    between atoms: C_16  and  C_9 
REMARK    2  A    between atoms: S_17  and  C_10 
REMARK    3  A    between atoms: C_22  and  S_17 
REMARK    4  A    between atoms: C_24  and  C_22 
REMARK    5  A    between atoms: O_33  and  C_25 
ROOT
ATOM      1  C   UNL d   1      -1.306   0.695  -0.082  0.00  0.00     0.120 C 
ATOM      2  C   UNL d   1      -1.331  -0.656  -0.074  0.00  0.00     0.067 C 
ATOM      3  N   UNL d   1      -2.453   1.468  -0.071  0.00  0.00    -0.322 N 
ATOM      4  HN  UNL d   1      -2.411   2.486  -0.133  1.00  0.00     0.169 HD
ATOM      5  C   UNL d   1      -2.643  -1.327  -0.121  0.00  0.00     0.258 C 
ATOM      6  C   UNL d   1       1.195  -0.701  -0.109  0.00  0.00     0.024 C 
ATOM      7  N   UNL d   1      -3.708  -0.504   0.044  0.00  0.00    -0.303 N 
ATOM      8  C   UNL d   1       1.160   0.647  -0.106  0.00  0.00     0.022 C 
ATOM      9  C   UNL d   1      -0.080  -1.522   0.015  0.00  0.00     0.099 C 
ATOM     10  C   UNL d   1      -3.579   0.847   0.022  0.00  0.00     0.148 C 
ATOM     11  N   UNL d   1      -0.057   1.304  -0.060  0.00  0.00    -0.345 N 
ATOM     12  C   UNL d   1       2.496  -1.420  -0.243  0.00  0.00     0.159 C 
ATOM     13  C   UNL d   1       2.416   1.489  -0.106  0.00  0.00     0.067 C 
ATOM     14  C   UNL d   1       3.646   0.737   0.457  0.00  0.00    -0.036 C 
ATOM     15  C   UNL d   1       3.776  -0.608  -0.274  0.00  0.00     0.092 C 
ATOM     16  O   UNL d   1      -2.773  -2.528  -0.314  0.00  0.00    -0.267 OA
ATOM     17  O   UNL d   1       2.526  -2.638  -0.409  0.00  0.00    -0.293 OA
ATOM     18  C   UNL d   1       3.513   0.516   1.979  0.00  0.00     0.015 C 
ATOM     19  C   UNL d   1       4.918   1.571   0.215  0.00  0.00     0.015 C 
ATOM     20  H   UNL d   1      -4.629  -0.913   0.052  0.00  0.00     0.171 HD
ATOM     21  H   UNL d   1      -0.079   2.318  -0.089  0.00  0.00     0.167 HD
ENDROOT
BRANCH  10  22
ATOM     22  S   UNL d   1      -5.133   1.609   0.172  0.00  0.00    -0.089 SA
BRANCH  22  23
ATOM     23  C   UNL d   1      -4.886   3.175  -0.702  0.00  0.00     0.121 C 
BRANCH  23  24
ATOM     24  C   UNL d   1      -6.149   4.019  -0.694  0.00  0.00    -0.048 A 
ATOM     25  C   UNL d   1      -6.394   4.923   0.353  0.00  0.00     0.009 A 
ATOM     26  C   UNL d   1      -7.549   5.713   0.363  0.00  0.00     0.024 A 
ATOM     27  C   UNL d   1      -8.475   5.598  -0.669  0.00  0.00     0.034 A 
ATOM     28  C   UNL d   1      -8.262   4.694  -1.706  0.00  0.00     0.024 A 
ATOM     29 CL   UNL d   1      -9.889   6.581  -0.665  0.00  0.00    -0.084 Cl
ATOM     30  C   UNL d   1      -7.105   3.904  -1.717  0.00  0.00     0.009 A 
ENDBRANCH  23  24
ENDBRANCH  22  23
ENDBRANCH  10  22
BRANCH   9  31
ATOM     31  C   UNL d   1      -0.076  -2.319   1.325  0.00  0.00    -0.044 A 
ATOM     32  C   UNL d   1      -0.041  -3.721   1.297  0.00  0.00     0.011 A 
ATOM     33  C   UNL d   1      -0.062  -4.464   2.483  0.00  0.00     0.037 A 
ATOM     34  C   UNL d   1      -0.114  -3.817   3.716  0.00  0.00     0.068 A 
ATOM     35  C   UNL d   1      -0.135  -2.422   3.753  0.00  0.00     0.037 A 
ATOM     36  C   UNL d   1      -0.114  -1.677   2.572  0.00  0.00     0.011 A 
BRANCH  34  37
ATOM     37  O   UNL d   1      -0.142  -4.420   4.943  0.00  0.00    -0.356 OA
ATOM     38  C   UNL d   1      -0.154  -5.842   4.955  0.00  0.00     0.210 C 
ENDBRANCH  34  37
ENDBRANCH   9  31
TORSDOF 5
