REMARK  2 active torsions:
REMARK  status: ('A' for Active; 'I' for Inactive)
REMARK    1  A    between atoms: C_10  and  C_3 
REMARK    2  A    between atoms: O_15  and  C_7 
ROOT
ATOM      1  C   UNL d   1      -0.795  -0.372   0.124  0.00  0.00     0.052 A 
ATOM      2  C   UNL d   1      -1.198   0.976   0.140  0.00  0.00    -0.013 A 
ATOM      3  C   UNL d   1      -2.551   1.303  -0.004  0.00  0.00     0.010 A 
ATOM      4  N   UNL d   1      -1.608  -1.421  -0.002  0.00  0.00    -0.335 N 
ATOM      5  HN  UNL d   1      -1.272  -2.384   0.029  1.00  0.00     0.168 HD
ATOM      6  C   UNL d   1      -3.419   0.205  -0.235  0.00  0.00     0.107 A 
ATOM      7  C   UNL d   1      -2.913  -1.111  -0.174  0.00  0.00     0.164 A 
ATOM      8  C   UNL d   1       0.644  -0.462   0.180  0.00  0.00    -0.002 A 
ATOM      9  C   UNL d   1       0.036   1.851   0.279  0.00  0.00     0.081 A 
ATOM     10  C   UNL d   1       1.169   0.841   0.252  0.00  0.00    -0.041 A 
ATOM     11  C   UNL d   1      -4.791   0.386  -0.613  0.00  0.00     0.104 C 
ATOM     12  N   UNL d   1      -5.890   0.559  -0.953  0.00  0.00    -0.191 NA
ATOM     13  C   UNL d   1       1.484  -1.560   0.108  0.00  0.00     0.014 A 
ATOM     14  C   UNL d   1       2.534   1.073   0.234  0.00  0.00     0.008 A 
ATOM     15  C   UNL d   1       2.865  -1.338   0.094  0.00  0.00     0.001 A 
ATOM     16  C   UNL d   1       3.384  -0.032   0.150  0.00  0.00     0.001 A 
ENDROOT
BRANCH   7  17
ATOM     17  O   UNL d   1      -3.809  -2.154  -0.317  0.00  0.00    -0.340 OA
ATOM     18  C   UNL d   1      -3.228  -3.439  -0.099  0.00  0.00     0.211 C 
ENDBRANCH   7  17
BRANCH   3  19
ATOM     19  C   UNL d   1      -3.012   2.724   0.062  0.00  0.00    -0.002 A 
ATOM     20  C   UNL d   1      -4.030   3.183   0.929  0.00  0.00     0.045 A 
ATOM     21 CL   UNL d   1      -4.806   2.157   2.092  0.00  0.00    -0.083 Cl
ATOM     22  C   UNL d   1      -4.422   4.531   0.945  0.00  0.00     0.024 A 
ATOM     23  C   UNL d   1      -3.757   5.468   0.160  0.00  0.00     0.002 A 
ATOM     24  C   UNL d   1      -2.725   5.054  -0.669  0.00  0.00     0.001 A 
ATOM     25  C   UNL d   1      -2.386   3.698  -0.745  0.00  0.00     0.014 A 
ENDBRANCH   3  19
TORSDOF 2
