REMARK  2 active torsions:
REMARK  status: ('A' for Active; 'I' for Inactive)
REMARK    1  A    between atoms: C_2  and  C_1 
REMARK       I    between atoms: N_6  and  C_2 
REMARK    2  A    between atoms: C_10  and  N_6 
ROOT
ATOM      1  C   UNL d   1      -2.590  -1.489  -0.181  0.00  0.00     0.272 C 
ATOM      2  N   UNL d   1      -3.809  -0.845   0.117  0.00  0.00    -0.346 N 
ATOM      3  O   UNL d   1      -2.520  -2.693  -0.413  0.00  0.00    -0.266 OA
ATOM      4  C   UNL d   1      -3.825   0.470   0.762  0.00  0.00     0.153 C 
ENDROOT
BRANCH   1   5
ATOM      5  C   UNL d   1      -1.329  -0.716  -0.175  0.00  0.00     0.125 A 
ATOM      6  N   UNL d   1      -1.233   0.605  -0.409  0.00  0.00    -0.256 N 
ATOM      7  O   UNL d   1       0.105   0.928  -0.272  0.00  0.00    -0.242 OA
ATOM      8  HN  UNL d   1      -1.995   1.242  -0.641  1.00  0.00     0.195 HD
ATOM      9  C   UNL d   1       0.819  -0.197  -0.005  0.00  0.00     0.075 A 
ATOM     10  C   UNL d   1      -0.033  -1.269   0.025  0.00  0.00     0.071 A 
ATOM     11  C   UNL d   1       2.268  -0.029   0.201  0.00  0.00     0.079 C 
ENDBRANCH   1   5
BRANCH   2  12
ATOM     12  C   UNL d   1      -5.149  -1.470  -0.061  0.00  0.00     0.087 C 
ATOM     13  C   UNL d   1      -5.256  -2.928  -0.555  0.00  0.00     0.025 C 
ATOM     14  C   UNL d   1      -5.040  -3.112  -2.060  0.00  0.00     0.002 C 
ATOM     15  C   UNL d   1      -5.837  -2.125  -2.906  0.00  0.00     0.000 C 
ATOM     16  C   UNL d   1      -5.683  -0.692  -2.413  0.00  0.00     0.002 C 
ATOM     17  C   UNL d   1      -6.064  -0.590  -0.940  0.00  0.00     0.025 C 
ENDBRANCH   2  12
TORSDOF 2
