REMARK  2 active torsions:
REMARK  status: ('A' for Active; 'I' for Inactive)
REMARK    1  A    between atoms: N_8  and  C_1 
REMARK    2  A    between atoms: C_6  and  C_11 
REMARK       I    between atoms: C_11  and  N_8 
ROOT
ATOM      1  C   UNL d   1      -3.053  -1.081   0.108  0.00  0.00     0.152 A 
ATOM      2  C   UNL d   1      -0.957  -0.588   0.000  0.00  0.00     0.058 A 
ATOM      3  C   UNL d   1      -1.460   0.677   0.136  0.00  0.00     0.018 A 
ATOM      4  N   UNL d   1      -1.852  -1.611  -0.054  0.00  0.00    -0.335 N 
ATOM      5  HN  UNL d   1      -1.637  -2.599  -0.194  1.00  0.00     0.168 HD
ATOM      6  S   UNL d   1      -3.124   0.641   0.281  0.00  0.00    -0.056 SA
ATOM      7  C   UNL d   1       0.473  -0.491  -0.049  0.00  0.00    -0.002 A 
ATOM      8  C   UNL d   1       0.823   0.886   0.036  0.00  0.00    -0.041 A 
ATOM      9  C   UNL d   1      -0.430   1.750   0.149  0.00  0.00     0.088 A 
ATOM     10  C   UNL d   1       1.425  -1.484  -0.121  0.00  0.00     0.014 A 
ATOM     11  C   UNL d   1       2.149   1.278   0.030  0.00  0.00     0.008 A 
ATOM     12  C   UNL d   1       2.766  -1.087  -0.117  0.00  0.00     0.001 A 
ATOM     13  C   UNL d   1       3.123   0.276  -0.047  0.00  0.00     0.001 A 
ENDROOT
BRANCH   1  14
ATOM     14  N   UNL d   1      -4.180  -1.859   0.101  0.00  0.00    -0.302 N 
ATOM     15  C   UNL d   1      -5.442  -1.500   0.513  0.00  0.00     0.276 C 
ATOM     16  O   UNL d   1      -5.797  -0.406   0.940  0.00  0.00    -0.266 OA
ATOM     17  H   UNL d   1      -4.019  -2.835  -0.117  0.00  0.00     0.171 HD
BRANCH  15  18
ATOM     18  C   UNL d   1      -6.387  -2.624   0.475  0.00  0.00     0.125 A 
ATOM     19  N   UNL d   1      -6.068  -3.810  -0.077  0.00  0.00    -0.256 N 
ATOM     20  O   UNL d   1      -7.154  -4.638   0.152  0.00  0.00    -0.242 OA
ATOM     21  HN  UNL d   1      -5.204  -4.049  -0.564  1.00  0.00     0.195 HD
ATOM     22  C   UNL d   1      -8.106  -3.958   0.845  0.00  0.00     0.075 A 
ATOM     23  C   UNL d   1      -7.691  -2.664   1.029  0.00  0.00     0.071 A 
ATOM     24  C   UNL d   1      -9.292  -4.726   1.262  0.00  0.00     0.079 C 
ENDBRANCH  15  18
ENDBRANCH   1  14
TORSDOF 2
