REMARK  5 active torsions:
REMARK  status: ('A' for Active; 'I' for Inactive)
REMARK       I    between atoms: C_7  and  N_1 
REMARK    1  A    between atoms: C_4  and  C_5 
REMARK    2  A    between atoms: C_15  and  C_6 
REMARK    3  A    between atoms: C_13  and  C_7 
REMARK    4  A    between atoms: C_9  and  C_8 
REMARK    5  A    between atoms: O_26  and  C_15 
ROOT
ATOM      1  C   UNL d   1      -1.011   4.570  -0.610  0.00  0.00     0.088 A 
ATOM      2  C   UNL d   1      -0.740   2.472   0.029  0.00  0.00     0.104 A 
ATOM      3  O   UNL d   1      -0.385   3.397  -0.908  0.00  0.00    -0.308 OA
ATOM      4  C   UNL d   1      -1.708   4.413   0.575  0.00  0.00     0.041 A 
ATOM      5  C   UNL d   1      -1.547   3.067   0.974  0.00  0.00     0.042 A 
ENDROOT
BRANCH   2   6
ATOM      6  C   UNL d   1      -0.323   1.042   0.011  0.00  0.00     0.084 A 
ATOM      7  N   UNL d   1      -0.799   0.151   0.889  0.00  0.00    -0.289 N 
ATOM      8  N   UNL d   1      -0.225  -1.031   0.530  0.00  0.00    -0.230 N 
ATOM      9  HN  UNL d   1      -1.448   0.319   1.657  1.00  0.00     0.188 HD
ATOM     10  C   UNL d   1      -0.557  -2.251   1.181  0.00  0.00     0.283 C 
ATOM     11  C   UNL d   1       0.667  -0.854  -0.513  0.00  0.00     0.122 A 
ATOM     12  O   UNL d   1       0.239  -3.172   0.983  0.00  0.00    -0.265 OA
ATOM     13  C   UNL d   1       0.574   0.459  -0.904  0.00  0.00     0.053 A 
BRANCH  10  14
ATOM     14  C   UNL d   1      -1.783  -2.414   1.968  0.00  0.00     0.074 A 
ATOM     15  S   UNL d   1      -2.018  -3.880   2.841  0.00  0.00    -0.097 SA
ATOM     16  C   UNL d   1      -3.585  -3.422   3.344  0.00  0.00     0.050 A 
ATOM     17  C   UNL d   1      -3.928  -2.172   2.887  0.00  0.00     0.009 A 
ATOM     18  C   UNL d   1      -2.891  -1.591   2.099  0.00  0.00     0.025 A 
ENDBRANCH  10  14
ENDBRANCH   2   6
BRANCH   1  19
ATOM     19  C   UNL d   1      -0.949   5.818  -1.437  0.00  0.00     0.021 A 
ATOM     20  C   UNL d   1      -0.277   5.933  -2.649  0.00  0.00     0.093 A 
ATOM     21  S   UNL d   1      -0.430   7.536  -3.283  0.00  0.00    -0.095 SA
ATOM     22  C   UNL d   1      -1.384   8.052  -1.972  0.00  0.00     0.051 A 
ATOM     23  C   UNL d   1      -1.584   7.045  -1.058  0.00  0.00     0.023 A 
BRANCH  20  24
ATOM     24  C   UNL d   1       0.443   4.938  -3.433  0.00  0.00     0.300 C 
ATOM     25  O   UNL d   1       0.181   3.746  -3.512  0.00  0.00    -0.259 OA
BRANCH  24  26
ATOM     26  O   UNL d   1       1.482   5.522  -4.106  0.00  0.00    -0.322 OA
ATOM     27  C   UNL d   1       2.237   4.628  -4.922  0.00  0.00     0.213 C 
ENDBRANCH  24  26
ENDBRANCH  20  24
ENDBRANCH   1  19
TORSDOF 5
