REMARK  4 active torsions:
REMARK  status: ('A' for Active; 'I' for Inactive)
REMARK    1  A    between atoms: N_2  and  S_1 
REMARK    2  A    between atoms: C_4  and  S_1 
REMARK    3  A    between atoms: C_3  and  N_2 
REMARK    4  A    between atoms: N_12  and  C_11 
ROOT
ATOM      1  S   UNL d   1       0.971  -0.145  -0.134  0.00  0.00     0.245 S 
ATOM      2  O   UNL d   1      -0.105  -0.917  -0.720  0.00  0.00    -0.206 OA
ATOM      3  O   UNL d   1       2.356  -0.406  -0.460  0.00  0.00    -0.206 OA
ENDROOT
BRANCH   1   4
ATOM      4  N   UNL d   1       0.768  -0.145   1.558  0.00  0.00    -0.180 NA
ATOM      5  H   UNL d   1      -0.106   0.312   1.809  0.00  0.00     0.146 HD
BRANCH   4   6
ATOM      6  C   UNL d   1       0.942  -1.416   2.217  0.00  0.00     0.034 A 
ATOM      7  C   UNL d   1       2.226  -1.798   2.657  0.00  0.00    -0.039 A 
ATOM      8  C   UNL d   1       2.395  -3.034   3.307  0.00  0.00     0.008 A 
ATOM      9  C   UNL d   1       3.453  -0.951   2.457  0.00  0.00     0.050 C 
ATOM     10  C   UNL d   1       1.310  -3.871   3.543  0.00  0.00     0.001 A 
ATOM     11  C   UNL d   1       0.045  -3.493   3.107  0.00  0.00     0.008 A 
ATOM     12  C   UNL d   1      -0.157  -2.275   2.430  0.00  0.00    -0.039 A 
ATOM     13  C   UNL d   1      -1.568  -1.975   2.005  0.00  0.00     0.050 C 
ENDBRANCH   4   6
ENDBRANCH   1   4
BRANCH   1  14
ATOM     14  C   UNL d   1       0.648   1.570  -0.519  0.00  0.00     0.074 A 
ATOM     15  C   UNL d   1       1.694   2.496  -0.496  0.00  0.00     0.026 A 
ATOM     16  C   UNL d   1       1.450   3.826  -0.859  0.00  0.00     0.025 A 
ATOM     17  C   UNL d   1       0.184   4.231  -1.296  0.00  0.00     0.005 A 
ATOM     18  C   UNL d   1      -0.864   3.308  -1.263  0.00  0.00     0.025 A 
ATOM     19  C   UNL d   1      -0.635   1.972  -0.902  0.00  0.00     0.026 A 
BRANCH  17  20
ATOM     20  N   UNL d   1      -0.077   5.583  -1.547  0.00  0.00    -0.303 NA
ATOM     21  H   UNL d   1      -0.883   5.743  -2.142  0.00  0.00     0.124 HD
ATOM     22  H   UNL d   1       0.735   6.107  -1.860  0.00  0.00     0.124 HD
ENDBRANCH  17  20
ENDBRANCH   1  14
TORSDOF 4
