REMARK  3 active torsions:
REMARK  status: ('A' for Active; 'I' for Inactive)
REMARK    1  A    between atoms: S_2  and  C_3 
REMARK    2  A    between atoms: C_7  and  S_2 
REMARK    3  A    between atoms: O_14  and  C_6 
ROOT
ATOM      1  S   UNL d   1       2.393   0.726  -1.297  0.00  0.00     0.183 S 
ATOM      2  O   UNL d   1       3.619   0.073  -0.875  0.00  0.00    -0.222 OA
ATOM      3  O   UNL d   1       1.805   0.391  -2.579  0.00  0.00    -0.222 OA
ENDROOT
BRANCH   1   4
ATOM      4  C   UNL d   1       1.200   0.400  -0.033  0.00  0.00     0.157 C 
ATOM      5  C   UNL d   1       0.847  -1.093  -0.037  0.00  0.00     0.163 C 
ATOM      6  S   UNL d   1      -0.916  -1.182  -0.175  0.00  0.00     0.148 S 
ATOM      7  C   UNL d   1      -1.211   0.421   0.517  0.00  0.00     0.173 C 
ATOM      8  O   UNL d   1      -1.275  -1.125  -1.579  0.00  0.00    -0.228 OA
ATOM      9  O   UNL d   1      -1.422  -2.191   0.728  0.00  0.00    -0.228 OA
ATOM     10  C   UNL d   1      -0.080   1.249  -0.076  0.00  0.00     0.151 C 
BRANCH  10  11
ATOM     11  O   UNL d   1      -0.466   1.693  -1.370  0.00  0.00    -0.393 OA
ATOM     12  H   UNL d   1      -0.765   0.942  -1.931  0.00  0.00     0.210 HD
ENDBRANCH  10  11
ENDBRANCH   1   4
BRANCH   1  13
ATOM     13  C   UNL d   1       2.722   2.474  -1.279  0.00  0.00     0.059 A 
ATOM     14  C   UNL d   1       3.758   2.973  -0.480  0.00  0.00     0.025 A 
ATOM     15  C   UNL d   1       4.092   4.329  -0.557  0.00  0.00     0.025 A 
ATOM     16  C   UNL d   1       3.404   5.169  -1.431  0.00  0.00     0.034 A 
ATOM     17  C   UNL d   1       2.376   4.670  -2.230  0.00  0.00     0.025 A 
ATOM     18 CL   UNL d   1       3.842   6.829  -1.546  0.00  0.00    -0.084 Cl
ATOM     19  C   UNL d   1       2.041   3.316  -2.163  0.00  0.00     0.025 A 
ENDBRANCH   1  13
TORSDOF 3
