REMARK  4 active torsions:
REMARK  status: ('A' for Active; 'I' for Inactive)
REMARK    1  A    between atoms: C_6  and  N_1 
REMARK    2  A    between atoms: C_5  and  C_6 
REMARK       I    between atoms: N_11  and  C_5 
REMARK    3  A    between atoms: N_8  and  N_11 
REMARK    4  A    between atoms: C_17  and  C_16 
ROOT
ATOM      1  C   UNL d   1       2.611   2.889  -0.497  0.00  0.00     0.254 C 
ATOM      2  N   UNL d   1       3.611   2.249  -1.221  0.00  0.00    -0.269 N 
ATOM      3  O   UNL d   1       2.781   3.783   0.328  0.00  0.00    -0.270 OA
ATOM      4  H   UNL d   1       3.391   1.303  -1.547  0.00  0.00     0.190 HD
ENDROOT
BRANCH   1   5
ATOM      5  C   UNL d   1       1.197   2.356  -0.846  0.00  0.00     0.236 C 
BRANCH   5   6
ATOM      6  N   UNL d   1       0.742   1.144  -0.139  0.00  0.00    -0.307 N 
ATOM      7  C   UNL d   1       1.637   0.067  -0.078  0.00  0.00     0.234 C 
ATOM      8  C   UNL d   1       1.313  -0.962   0.973  0.00  0.00     0.182 C 
ATOM      9  O   UNL d   1       2.639  -0.029  -0.790  0.00  0.00    -0.272 OA
ATOM     10  S   UNL d   1      -0.103  -1.899   0.405  0.00  0.00    -0.118 SA
ATOM     11  C   UNL d   1      -1.160  -0.491   0.075  0.00  0.00     0.028 A 
ATOM     12  C   UNL d   1      -0.686   0.837  -0.098  0.00  0.00     0.054 A 
ATOM     13  C   UNL d   1      -2.528  -0.793  -0.025  0.00  0.00     0.021 A 
ATOM     14  C   UNL d   1      -1.656   1.834  -0.305  0.00  0.00     0.031 A 
ATOM     15  C   UNL d   1      -3.023   1.525  -0.382  0.00  0.00     0.002 A 
ATOM     16  C   UNL d   1      -3.458   0.214  -0.257  0.00  0.00     0.002 A 
ENDBRANCH   5   6
ENDBRANCH   1   5
BRANCH   2  17
ATOM     17  N   UNL d   1       4.930   2.578  -1.069  0.00  0.00    -0.308 N 
ATOM     18  C   UNL d   1       5.750   1.720  -1.595  0.00  0.00     0.120 C 
ATOM     19  HN  UNL d   1       5.242   3.421  -0.587  1.00  0.00     0.186 HD
BRANCH  18  20
ATOM     20  C   UNL d   1       7.209   1.900  -1.568  0.00  0.00    -0.004 A 
ATOM     21  C   UNL d   1       8.025   0.968  -2.195  0.00  0.00     0.100 A 
ATOM     22  N   UNL d   1       9.377   1.061  -2.244  0.00  0.00    -0.374 N 
ATOM     23  C   UNL d   1       9.930   2.134  -1.635  0.00  0.00     0.087 A 
ATOM     24  HN  UNL d   1       9.946   0.358  -2.714  1.00  0.00     0.164 HD
ATOM     25  C   UNL d   1       9.197   3.112  -0.980  0.00  0.00     0.018 A 
ATOM     26  C   UNL d   1       7.809   2.992  -0.946  0.00  0.00     0.015 A 
ENDBRANCH  18  20
ENDBRANCH   2  17
TORSDOF 4
