REMARK  4 active torsions:
REMARK  status: ('A' for Active; 'I' for Inactive)
REMARK    1  A    between atoms: C_8  and  N_1 
REMARK       I    between atoms: C_2  and  N_3 
REMARK    2  A    between atoms: C_10  and  C_2 
REMARK    3  A    between atoms: C_14  and  C_8 
REMARK    4  A    between atoms: N_9  and  C_14 
ROOT
ATOM      1  C   UNL d   1       4.166  -6.880  -2.516  0.00  0.00     0.253 C 
ATOM      2  N   UNL d   1       3.294  -6.017  -1.845  0.00  0.00    -0.345 N 
ATOM      3  N   UNL d   1       3.286  -3.616  -0.122  0.00  0.00     0.093 N 
ATOM      4  O   UNL d   1       4.744  -6.562  -3.552  0.00  0.00    -0.267 OA
ATOM      5  C   UNL d   1       3.033  -4.695  -2.426  0.00  0.00     0.156 C 
ATOM      6  C   UNL d   1       2.912  -6.114  -0.432  0.00  0.00     0.156 C 
ATOM      7  C   UNL d   1       3.545  -4.976   0.393  0.00  0.00     0.292 C 
ATOM      8  C   UNL d   1       3.648  -3.570  -1.563  0.00  0.00     0.292 C 
ENDROOT
BRANCH   1   9
ATOM      9  C   UNL d   1       4.423  -8.249  -1.987  0.00  0.00     0.032 A 
ATOM     10  C   UNL d   1       3.407  -9.038  -1.434  0.00  0.00     0.018 A 
ATOM     11  C   UNL d   1       3.698 -10.307  -0.923  0.00  0.00     0.025 A 
ATOM     12  C   UNL d   1       4.992 -10.815  -1.023  0.00  0.00     0.034 A 
ATOM     13  C   UNL d   1       5.997 -10.067  -1.635  0.00  0.00     0.025 A 
ATOM     14 CL   UNL d   1       5.345 -12.377  -0.398  0.00  0.00    -0.084 Cl
ATOM     15  C   UNL d   1       5.714  -8.785  -2.116  0.00  0.00     0.018 A 
ENDBRANCH   1   9
BRANCH   3  16
ATOM     16  C   UNL d   1       1.910  -3.130   0.123  0.00  0.00     0.292 C 
BRANCH  16  17
ATOM     17  C   UNL d   1       1.568  -3.020   1.621  0.00  0.00     0.159 C 
BRANCH  17  18
ATOM     18  N   UNL d   1       0.310  -2.330   1.886  0.00  0.00    -0.353 N 
ATOM     19  C   UNL d   1      -0.919  -2.938   2.079  0.00  0.00     0.008 A 
ATOM     20  C   UNL d   1      -1.819  -1.950   2.427  0.00  0.00     0.026 A 
ATOM     21  C   UNL d   1      -1.195  -4.396   1.949  0.00  0.00     0.068 C 
ATOM     22  C   UNL d   1      -1.134  -0.721   2.432  0.00  0.00     0.026 A 
ATOM     23  C   UNL d   1       0.180  -0.967   2.087  0.00  0.00     0.008 A 
ATOM     24  C   UNL d   1       1.284   0.027   1.965  0.00  0.00     0.068 C 
ENDBRANCH  17  18
ENDBRANCH  16  17
ENDBRANCH   3  16
TORSDOF 4
