REMARK  4 active torsions:
REMARK  status: ('A' for Active; 'I' for Inactive)
REMARK    1  A    between atoms: C_7  and  C_1 
REMARK    2  A    between atoms: O_11  and  C_4 
REMARK    3  A    between atoms: C_15  and  N_9 
REMARK    4  A    between atoms: C_16  and  C_15 
ROOT
ATOM      1  C   UNL d   1      -1.458  -1.423  -0.015  0.00  0.00     0.081 A 
ATOM      2  C   UNL d   1      -2.002  -0.037   0.002  0.00  0.00     0.262 A 
ATOM      3  N   UNL d   1      -1.094   1.019  -0.001  0.00  0.00    -0.317 N 
ATOM      4  C   UNL d   1      -0.130  -1.636  -0.037  0.00  0.00     0.095 A 
ATOM      5  C   UNL d   1       0.810  -0.511  -0.030  0.00  0.00     0.025 A 
ATOM      6  C   UNL d   1       0.319   0.804  -0.010  0.00  0.00     0.050 A 
ATOM      7  O   UNL d   1      -3.223   0.120   0.017  0.00  0.00    -0.267 OA
ATOM      8  C   UNL d   1      -1.613   2.380   0.013  0.00  0.00     0.159 C 
ATOM      9  C   UNL d   1       2.198  -0.735  -0.031  0.00  0.00     0.016 A 
ATOM     10  C   UNL d   1       1.235   1.869   0.007  0.00  0.00     0.031 A 
ATOM     11  C   UNL d   1       3.095   0.329  -0.011  0.00  0.00     0.001 A 
ATOM     12  C   UNL d   1       2.613   1.631   0.008  0.00  0.00     0.002 A 
ENDROOT
BRANCH   1  13
ATOM     13  C   UNL d   1      -2.387  -2.589   0.031  0.00  0.00     0.103 C 
ATOM     14  N   UNL d   1      -1.963  -3.808  -0.031  0.00  0.00    -0.394 N 
ATOM     15  HN  UNL d   1      -0.977  -4.029  -0.171  1.00  0.00     0.159 HD
BRANCH  14  16
ATOM     16  C   UNL d   1      -2.979  -4.854   0.112  0.00  0.00     0.157 C 
BRANCH  16  17
ATOM     17  C   UNL d   1      -2.690  -5.719   1.317  0.00  0.00    -0.041 A 
ATOM     18  C   UNL d   1      -3.632  -5.859   2.345  0.00  0.00     0.009 A 
ATOM     19  C   UNL d   1      -3.353  -6.655   3.458  0.00  0.00     0.001 A 
ATOM     20  C   UNL d   1      -2.131  -7.319   3.556  0.00  0.00     0.000 A 
ATOM     21  C   UNL d   1      -1.186  -7.188   2.541  0.00  0.00     0.001 A 
ATOM     22  C   UNL d   1      -1.464  -6.395   1.427  0.00  0.00     0.009 A 
ENDBRANCH  16  17
ENDBRANCH  14  16
ENDBRANCH   1  13
BRANCH   4  23
ATOM     23  O   UNL d   1       0.455  -2.893  -0.051  0.00  0.00    -0.359 OA
ATOM     24  H   UNL d   1      -0.274  -3.558  -0.036  0.00  0.00     0.217 HD
ENDBRANCH   4  23
TORSDOF 4
