REMARK  7 active torsions:
REMARK  status: ('A' for Active; 'I' for Inactive)
REMARK    1  A    between atoms: C_17  and  C_8 
REMARK    2  A    between atoms: O_19  and  C_9 
REMARK    3  A    between atoms: O_22  and  C_16 
REMARK    4  A    between atoms: C_24  and  C_17 
REMARK    5  A    between atoms: C_23  and  C_24 
REMARK    6  A    between atoms: C_26  and  C_23 
REMARK    7  A    between atoms: C_27  and  C_26 
ROOT
ATOM      1  C   UNL d   1      -0.445  -1.447  -0.560  0.00  0.00    -0.014 C 
ATOM      2  C   UNL d   1      -1.922  -1.062  -0.755  0.00  0.00    -0.044 C 
ATOM      3  C   UNL d   1       1.440   1.471   1.244  0.00  0.00    -0.036 C 
ATOM      4  C   UNL d   1      -0.329   1.327   0.070  0.00  0.00    -0.002 C 
ATOM      5  C   UNL d   1       0.221  -0.345   0.298  0.00  0.00     0.002 C 
ATOM      6  C   UNL d   1       0.506   2.578   1.031  0.00  0.00    -0.001 C 
ATOM      7  C   UNL d   1      -1.797   1.466  -0.335  0.00  0.00     0.042 C 
ATOM      8  C   UNL d   1       0.251   1.024   2.619  0.00  0.00    -0.002 C 
ATOM      9  C   UNL d   1      -2.216   0.337  -1.298  0.00  0.00     0.148 C 
ATOM     10  C   UNL d   1      -2.907  -1.912  -0.397  0.00  0.00     0.010 C 
ATOM     11  C   UNL d   1       2.444   0.437   1.513  0.00  0.00     0.010 C 
ATOM     12  C   UNL d   1       1.798  -0.655   0.606  0.00  0.00     0.007 C 
ATOM     13  C   UNL d   1      -0.269  -2.777   0.282  0.00  0.00     0.017 C 
ATOM     14  C   UNL d   1       0.880   3.162   2.441  0.00  0.00     0.006 C 
ATOM     15  C   UNL d   1       0.509   2.206   3.521  0.00  0.00     0.006 C 
ATOM     16  C   UNL d   1      -2.707  -3.247   0.241  0.00  0.00     0.141 C 
ATOM     17  C   UNL d   1       0.268  -1.682  -1.907  0.00  0.00     0.020 C 
ATOM     18  C   UNL d   1      -1.322  -3.825  -0.005  0.00  0.00     0.037 C 
ATOM     19  C   UNL d   1       2.101   1.801  -0.329  0.00  0.00     0.016 C 
ENDROOT
BRANCH   8  20
ATOM     20  C   UNL d   1      -1.425   0.841   2.723  0.00  0.00    -0.014 C 
ATOM     21  C   UNL d   1      -2.318   2.117   2.753  0.00  0.00     0.010 C 
BRANCH  20  22
ATOM     22  C   UNL d   1      -1.947  -0.049   3.926  0.00  0.00     0.005 C 
BRANCH  22  23
ATOM     23  C   UNL d   1      -1.504   0.361   5.333  0.00  0.00     0.001 C 
BRANCH  23  24
ATOM     24  C   UNL d   1      -2.289  -0.327   6.471  0.00  0.00     0.004 C 
BRANCH  24  25
ATOM     25  C   UNL d   1      -1.547  -0.227   7.825  0.00  0.00    -0.023 C 
ATOM     26  C   UNL d   1      -1.313   1.221   8.261  0.00  0.00     0.009 C 
ATOM     27  C   UNL d   1      -2.283  -0.979   8.938  0.00  0.00     0.009 C 
ENDBRANCH  24  25
ENDBRANCH  23  24
ENDBRANCH  22  23
ENDBRANCH  20  22
ENDBRANCH   8  20
BRANCH   9  28
ATOM     28  O   UNL d   1      -3.614   0.501  -1.547  0.00  0.00    -0.391 OA
ATOM     29  H   UNL d   1      -4.053   0.544  -0.681  0.00  0.00     0.210 HD
ENDBRANCH   9  28
BRANCH  16  30
ATOM     30  O   UNL d   1      -2.912  -3.061   1.640  0.00  0.00    -0.392 OA
ATOM     31  H   UNL d   1      -2.453  -2.238   1.890  0.00  0.00     0.210 HD
ENDBRANCH  16  30
TORSDOF 7
