REMARK  3 active torsions:
REMARK  status: ('A' for Active; 'I' for Inactive)
REMARK    1  A    between atoms: C_5  and  N_1 
REMARK    2  A    between atoms: C_10  and  C_7 
REMARK    3  A    between atoms: C_9  and  C_8 
ROOT
ATOM      1  N   UNL d   1      -0.226  -1.205   0.122  0.00  0.00    -0.179 N 
ATOM      2  N   UNL d   1       1.047  -0.765   0.371  0.00  0.00    -0.266 N 
ATOM      3  HN  UNL d   1       1.846  -1.284   0.735  1.00  0.00     0.190 HD
ATOM      4  C   UNL d   1      -1.004  -0.219  -0.430  0.00  0.00     0.394 A 
ATOM      5  O   UNL d   1      -0.219   0.903  -0.454  0.00  0.00    -0.240 OA
ATOM      6  C   UNL d   1       0.973   0.480   0.023  0.00  0.00     0.178 A 
ATOM      7  O   UNL d   1      -2.175  -0.232  -0.776  0.00  0.00    -0.236 OA
ENDROOT
BRANCH   1   8
ATOM      8  C   UNL d   1      -0.487  -2.580   0.136  0.00  0.00     0.147 A 
ATOM      9  C   UNL d   1      -0.162  -3.347   1.250  0.00  0.00     0.093 A 
ATOM     10  C   UNL d   1      -0.305  -4.745   1.148  0.00  0.00     0.021 A 
ATOM     11  C   UNL d   1      -0.763  -5.317  -0.032  0.00  0.00     0.018 A 
ATOM     12  C   UNL d   1      -1.093  -4.471  -1.071  0.00  0.00     0.090 A 
ATOM     13  N   UNL d   1      -0.979  -3.127  -1.005  0.00  0.00    -0.350 N 
ATOM     14  HN  UNL d   1      -1.256  -2.539  -1.791  1.00  0.00     0.166 HD
BRANCH   9  15
ATOM     15  C   UNL d   1       0.244  -2.755   2.568  0.00  0.00     0.421 C 
ATOM     16  F   UNL d   1       0.040  -1.419   2.721  0.00  0.00    -0.166 F 
ATOM     17  F   UNL d   1      -0.454  -3.323   3.598  0.00  0.00    -0.166 F 
ATOM     18  F   UNL d   1       1.556  -2.980   2.860  0.00  0.00    -0.166 F 
ENDBRANCH   9  15
ENDBRANCH   1   8
BRANCH   6  19
ATOM     19  C   UNL d   1       2.051   1.475   0.062  0.00  0.00     0.018 A 
ATOM     20  C   UNL d   1       3.373   1.031   0.183  0.00  0.00     0.041 A 
ATOM     21  C   UNL d   1       4.419   1.956   0.256  0.00  0.00     0.056 A 
ATOM     22 CL   UNL d   1       6.026   1.337   0.395  0.00  0.00    -0.083 Cl
ATOM     23  C   UNL d   1       4.144   3.328   0.216  0.00  0.00     0.055 A 
ATOM     24  C   UNL d   1       2.822   3.768   0.089  0.00  0.00     0.026 A 
ATOM     25 CL   UNL d   1       5.384   4.525   0.323  0.00  0.00    -0.083 Cl
ATOM     26  C   UNL d   1       1.775   2.845   0.007  0.00  0.00     0.017 A 
ENDBRANCH   6  19
TORSDOF 3
