REMARK  3 active torsions:
REMARK  status: ('A' for Active; 'I' for Inactive)
REMARK    1  A    between atoms: C_8  and  C_1 
REMARK    2  A    between atoms: C_6  and  C_4 
REMARK    3  A    between atoms: O_15  and  C_8 
ROOT
ATOM      1  C   UNL d   1      -1.157  -1.481   0.059  0.00  0.00     0.052 A 
ATOM      2  N   UNL d   1      -1.168   1.281  -0.116  0.00  0.00    -0.353 N 
ATOM      3  HN  UNL d   1      -1.177   2.298  -0.196  1.00  0.00     0.166 HD
ATOM      4  C   UNL d   1      -2.329   0.591  -0.073  0.00  0.00     0.068 A 
ATOM      5  C   UNL d   1      -2.367  -0.785   0.014  0.00  0.00     0.051 A 
ATOM      6  C   UNL d   1       0.081  -0.789   0.046  0.00  0.00     0.007 A 
ATOM      7  C   UNL d   1      -0.006   0.618  -0.051  0.00  0.00     0.044 A 
ATOM      8  C   UNL d   1       1.375  -1.371   0.142  0.00  0.00     0.015 A 
ATOM      9  C   UNL d   1       1.155   1.374  -0.078  0.00  0.00     0.030 A 
ATOM     10  C   UNL d   1       2.530  -0.587   0.093  0.00  0.00     0.001 A 
ATOM     11  C   UNL d   1       2.419   0.790  -0.017  0.00  0.00     0.002 A 
ENDROOT
BRANCH   4  12
ATOM     12  C   UNL d   1      -3.526   1.416  -0.132  0.00  0.00     0.101 A 
ATOM     13  O   UNL d   1      -4.729   0.765  -0.135  0.00  0.00    -0.321 OA
ATOM     14  C   UNL d   1      -5.699   1.713  -0.198  0.00  0.00     0.142 A 
ATOM     15  C   UNL d   1      -5.144   2.969  -0.239  0.00  0.00     0.027 A 
ATOM     16  C   UNL d   1      -3.742   2.779  -0.195  0.00  0.00     0.041 A 
ENDBRANCH   4  12
BRANCH   1  17
ATOM     17  C   UNL d   1      -1.293  -2.957   0.159  0.00  0.00     0.177 C 
ATOM     18  O   UNL d   1      -2.143  -3.488   0.851  0.00  0.00    -0.646 OA
BRANCH  17  19
ATOM     19  O   UNL d   1      -0.468  -3.649  -0.652  0.00  0.00    -0.773 OA
ATOM     20  H   UNL d   1       0.041  -3.111  -1.286  0.00  0.00     0.167 HD
ENDBRANCH  17  19
ENDBRANCH   1  17
TORSDOF 3
