REMARK  1 active torsions:
REMARK  status: ('A' for Active; 'I' for Inactive)
REMARK    1  A    between atoms: C_9  and  N_6 
ROOT
ATOM      1  C   UNL d   1      -1.128   0.694  -0.074  0.00  0.00     0.114 C 
ATOM      2  C   UNL d   1      -1.716  -0.714  -0.336  0.00  0.00     0.273 C 
ATOM      3  N   UNL d   1      -0.642  -1.575  -0.251  0.00  0.00    -0.321 N 
ATOM      4  C   UNL d   1       0.322   0.498  -0.040  0.00  0.00     0.023 A 
ATOM      5  C   UNL d   1       0.548  -0.875  -0.100  0.00  0.00     0.047 A 
ATOM      6  N   UNL d   1      -1.701   1.834   0.151  0.00  0.00    -0.351 N 
ATOM      7  HN  UNL d   1      -1.118   2.660   0.285  1.00  0.00     0.166 HD
ATOM      8  O   UNL d   1      -2.862  -1.015  -0.589  0.00  0.00    -0.266 OA
ATOM      9  C   UNL d   1       1.356   1.407   0.058  0.00  0.00     0.016 A 
ATOM     10  C   UNL d   1       1.820  -1.402  -0.036  0.00  0.00     0.030 A 
ATOM     11  C   UNL d   1       2.655   0.892   0.102  0.00  0.00     0.001 A 
ATOM     12  C   UNL d   1       2.884  -0.499   0.066  0.00  0.00     0.002 A 
ATOM     13  H   UNL d   1      -0.733  -2.572  -0.375  0.00  0.00     0.169 HD
ENDROOT
BRANCH   6  14
ATOM     14  C   UNL d   1      -3.095   1.972   0.218  0.00  0.00     0.032 A 
ATOM     15  C   UNL d   1      -3.907   1.161   1.015  0.00  0.00     0.030 A 
ATOM     16  C   UNL d   1      -5.290   1.355   1.066  0.00  0.00     0.009 A 
ATOM     17  C   UNL d   1      -5.883   2.413   0.372  0.00  0.00    -0.062 A 
ATOM     18  C   UNL d   1      -5.070   3.268  -0.377  0.00  0.00     0.009 A 
ATOM     19  C   UNL d   1      -7.371   2.595   0.419  0.00  0.00     0.048 C 
ATOM     20  C   UNL d   1      -3.689   3.047  -0.451  0.00  0.00     0.030 A 
ENDBRANCH   6  14
TORSDOF 1
