REMARK  9 active torsions:
REMARK  status: ('A' for Active; 'I' for Inactive)
REMARK    1  A    between atoms: C_8  and  C_1 
REMARK    2  A    between atoms: C_10  and  C_3 
REMARK    3  A    between atoms: N_19  and  C_4 
REMARK    4  A    between atoms: C_6  and  C_18 
REMARK       I    between atoms: N_9  and  C_6 
REMARK    5  A    between atoms: O_13  and  C_7 
REMARK    6  A    between atoms: C_22  and  C_8 
REMARK    7  A    between atoms: C_11  and  N_9 
REMARK    8  A    between atoms: C_23  and  C_10 
REMARK    9  A    between atoms: C_18  and  O_13 
ROOT
ATOM      1  C   UNL d   1       1.486  -0.344  -0.088  0.00  0.00    -0.016 C 
ATOM      2  C   UNL d   1       0.530  -1.393   0.011  0.00  0.00     0.018 C 
ATOM      3  C   UNL d   1      -0.863  -1.217  -0.102  0.00  0.00    -0.050 C 
ATOM      4  C   UNL d   1       0.984   0.928  -0.445  0.00  0.00     0.076 C 
ATOM      5  C   UNL d   1      -1.314   0.083  -0.288  0.00  0.00     0.011 C 
ATOM      6  C   UNL d   1      -0.413   1.127  -0.467  0.00  0.00     0.038 C 
ENDROOT
BRANCH   4   7
ATOM      7  O   UNL d   1       1.855   1.946  -0.812  0.00  0.00    -0.342 OA
BRANCH   7   8
ATOM      8  C   UNL d   1       1.217   3.036  -1.464  0.00  0.00     0.278 C 
BRANCH   8   9
ATOM      9  C   UNL d   1       1.987   4.138  -2.188  0.00  0.00     0.246 C 
ATOM     10  N   UNL d   1       3.364   4.073  -2.125  0.00  0.00    -0.325 N 
ATOM     11  H   UNL d   1       3.759   3.225  -1.734  0.00  0.00     0.169 HD
ATOM     12  O   UNL d   1       1.334   4.988  -2.796  0.00  0.00    -0.271 OA
BRANCH  10  13
ATOM     13  C   UNL d   1       4.231   4.970  -2.796  0.00  0.00     0.036 C 
ATOM     14  C   UNL d   1       3.800   6.212  -3.294  0.00  0.00     0.054 C 
ATOM     15  C   UNL d   1       4.597   6.992  -4.127  0.00  0.00     0.030 C 
ATOM     16  C   UNL d   1       5.931   6.598  -4.327  0.00  0.00     0.055 C 
ATOM     17  C   UNL d   1       6.407   5.407  -3.771  0.00  0.00     0.028 C 
ATOM     18 CL   UNL d   1       6.992   7.545  -5.302  0.00  0.00    -0.082 Cl
ATOM     19  C   UNL d   1       5.556   4.590  -3.012  0.00  0.00     0.031 C 
BRANCH  15  20
ATOM     20  N   UNL d   1       4.098   8.233  -4.579  0.00  0.00    -0.301 NA
ATOM     21  H   UNL d   1       3.093   8.219  -4.726  0.00  0.00     0.124 HD
ATOM     22  H   UNL d   1       4.602   8.578  -5.394  0.00  0.00     0.124 HD
ENDBRANCH  15  20
ENDBRANCH  10  13
ENDBRANCH   8   9
ENDBRANCH   7   8
ENDBRANCH   4   7
BRANCH   1  23
ATOM     23  C   UNL d   1       2.975  -0.682   0.195  0.00  0.00    -0.018 C 
ATOM     24  C   UNL d   1       3.726   0.455   0.931  0.00  0.00     0.020 C 
ATOM     25  C   UNL d   1       3.130  -1.899   1.175  0.00  0.00     0.020 C 
BRANCH  23  26
ATOM     26  C   UNL d   1       3.714  -1.124  -1.100  0.00  0.00     0.009 C 
ATOM     27  C   UNL d   1       3.841  -0.089  -2.204  0.00  0.00     0.006 C 
ENDBRANCH  23  26
ENDBRANCH   1  23
BRANCH   3  28
ATOM     28  C   UNL d   1      -1.847  -2.390   0.043  0.00  0.00    -0.021 C 
ATOM     29  C   UNL d   1      -3.127  -2.149  -0.806  0.00  0.00     0.020 C 
ATOM     30  C   UNL d   1      -1.263  -3.725  -0.477  0.00  0.00     0.020 C 
BRANCH  28  31
ATOM     31  C   UNL d   1      -2.287  -2.526   1.531  0.00  0.00     0.009 C 
ATOM     32  C   UNL d   1      -1.174  -2.815   2.536  0.00  0.00     0.006 C 
ENDBRANCH  28  31
ENDBRANCH   3  28
TORSDOF 9
