REMARK  2 active torsions:
REMARK  status: ('A' for Active; 'I' for Inactive)
REMARK    1  A    between atoms: C_10  and  C_5 
REMARK    2  A    between atoms: C_9  and  C_6 
ROOT
ATOM      1  C   UNL d   1       0.792   0.433   0.010  0.00  0.00     0.050 A 
ATOM      2  N   UNL d   1       1.450   1.540   0.433  0.00  0.00    -0.354 N 
ATOM      3  HN  UNL d   1       0.933   2.346   0.785  1.00  0.00     0.166 HD
ATOM      4  C   UNL d   1       1.450  -0.720  -0.479  0.00  0.00    -0.019 A 
ATOM      5  C   UNL d   1       2.860  -0.693  -0.554  0.00  0.00    -0.015 A 
ATOM      6  C   UNL d   1       2.800   1.560   0.382  0.00  0.00     0.043 A 
ATOM      7  C   UNL d   1       3.515   0.469  -0.103  0.00  0.00     0.043 A 
ATOM      8  C   UNL d   1      -0.683   0.543   0.073  0.00  0.00    -0.003 A 
ATOM      9  C   UNL d   1      -1.492  -0.494   0.596  0.00  0.00    -0.046 A 
ATOM     10  C   UNL d   1       0.606  -1.896  -0.923  0.00  0.00     0.042 C 
ATOM     11  C   UNL d   1      -1.323   1.685  -0.442  0.00  0.00     0.014 A 
ATOM     12  C   UNL d   1      -0.156  -2.610   0.200  0.00  0.00     0.009 C 
ATOM     13  C   UNL d   1      -0.850  -1.708   1.218  0.00  0.00     0.040 C 
ATOM     14  C   UNL d   1      -2.892  -0.391   0.548  0.00  0.00     0.008 A 
ATOM     15  C   UNL d   1      -2.716   1.785  -0.476  0.00  0.00     0.001 A 
ATOM     16  C   UNL d   1      -3.499   0.741   0.006  0.00  0.00     0.001 A 
ENDROOT
BRANCH   6  17
ATOM     17  C   UNL d   1       3.449   2.803   0.856  0.00  0.00    -0.009 A 
ATOM     18  C   UNL d   1       2.859   3.587   1.865  0.00  0.00     0.014 A 
ATOM     19  C   UNL d   1       3.451   4.776   2.312  0.00  0.00     0.007 A 
ATOM     20  C   UNL d   1       4.655   5.220   1.759  0.00  0.00    -0.062 A 
ATOM     21  C   UNL d   1       5.258   4.455   0.760  0.00  0.00     0.007 A 
ATOM     22  C   UNL d   1       5.262   6.514   2.215  0.00  0.00     0.048 C 
ATOM     23  C   UNL d   1       4.664   3.267   0.317  0.00  0.00     0.014 A 
ENDBRANCH   6  17
BRANCH   5  24
ATOM     24  C   UNL d   1       3.699  -1.796  -1.085  0.00  0.00    -0.025 A 
ATOM     25  C   UNL d   1       3.484  -2.344  -2.361  0.00  0.00     0.012 A 
ATOM     26  C   UNL d   1       4.275  -3.390  -2.846  0.00  0.00     0.001 A 
ATOM     27  C   UNL d   1       5.336  -3.872  -2.087  0.00  0.00     0.000 A 
ATOM     28  C   UNL d   1       5.603  -3.312  -0.841  0.00  0.00     0.001 A 
ATOM     29  C   UNL d   1       4.786  -2.293  -0.342  0.00  0.00     0.012 A 
ENDBRANCH   5  24
TORSDOF 2
