REMARK  2 active torsions:
REMARK  status: ('A' for Active; 'I' for Inactive)
REMARK    1  A    between atoms: N_8  and  C_1 
REMARK       I    between atoms: C_5  and  N_8 
REMARK       I    between atoms: N_10  and  C_5 
REMARK    2  A    between atoms: C_11  and  N_10 
ROOT
ATOM      1  C   UNL d   1       1.010   2.932  -0.228  0.00  0.00     0.321 C 
ATOM      2  N   UNL d   1       0.085   1.947  -0.374  0.00  0.00    -0.305 N 
ATOM      3  N   UNL d   1       2.317   2.569  -0.368  0.00  0.00    -0.330 N 
ATOM      4  O   UNL d   1       0.790   4.113   0.015  0.00  0.00    -0.247 OA
ATOM      5  H   UNL d   1       0.422   1.074  -0.765  0.00  0.00     0.171 HD
ATOM      6  H   UNL d   1       2.897   3.383  -0.206  0.00  0.00     0.165 HD
ENDROOT
BRANCH   2   7
ATOM      7  C   UNL d   1      -1.297   2.053  -0.279  0.00  0.00     0.092 A 
ATOM      8  C   UNL d   1      -2.129   3.140  -0.104  0.00  0.00     0.101 A 
ATOM      9  O   UNL d   1      -3.420   2.705  -0.035  0.00  0.00    -0.240 OA
ATOM     10  C   UNL d   1      -1.980   4.606  -0.051  0.00  0.00     0.081 C 
ATOM     11  N   UNL d   1      -3.471   1.340  -0.220  0.00  0.00    -0.263 N 
ATOM     12  C   UNL d   1      -2.203   0.959  -0.406  0.00  0.00     0.058 A 
ATOM     13  HN  UNL d   1      -4.300   0.747  -0.215  1.00  0.00     0.194 HD
ATOM     14  C   UNL d   1      -1.898  -0.460  -0.699  0.00  0.00     0.072 C 
ENDBRANCH   2   7
BRANCH   3  15
ATOM     15  C   UNL d   1       2.995   1.274  -0.193  0.00  0.00     0.178 C 
ATOM     16  C   UNL d   1       2.572   0.183  -1.195  0.00  0.00     0.240 C 
ATOM     17  N   UNL d   1       3.357  -0.926  -1.309  0.00  0.00    -0.359 N 
ATOM     18  O   UNL d   1       1.515   0.224  -1.826  0.00  0.00    -0.271 OA
ATOM     19  C   UNL d   1       4.575  -1.206  -0.584  0.00  0.00     0.122 C 
ATOM     20  H   UNL d   1       3.009  -1.614  -1.967  0.00  0.00     0.162 HD
ATOM     21  C   UNL d   1       4.331  -1.384   0.910  0.00  0.00     0.020 C 
ATOM     22  C   UNL d   1       4.123  -0.072   1.669  0.00  0.00     0.004 C 
ATOM     23  C   UNL d   1       2.898   0.750   1.245  0.00  0.00     0.035 C 
ENDBRANCH   3  15
TORSDOF 2
