REMARK  6 active torsions:
REMARK  status: ('A' for Active; 'I' for Inactive)
REMARK    1  A    between atoms: N_12  and  C_1 
REMARK    2  A    between atoms: N_14  and  C_3 
REMARK    3  A    between atoms: C_8  and  C_10 
REMARK    4  A    between atoms: C_9  and  C_11 
REMARK    5  A    between atoms: C_16  and  N_14 
REMARK    6  A    between atoms: C_27  and  N_17 
ROOT
ATOM      1  C   UNL d   1      -0.842   1.162  -0.159  0.00  0.00     0.181 A 
ATOM      2  S   UNL d   1      -1.453  -0.400  -0.600  0.00  0.00    -0.014 SA
ATOM      3  C   UNL d   1       0.002  -1.089   0.017  0.00  0.00     0.167 A 
ATOM      4  N   UNL d   1       0.326   1.091   0.451  0.00  0.00    -0.276 N 
ATOM      5  HN  UNL d   1       0.824   1.905   0.809  1.00  0.00     0.189 HD
ATOM      6  N   UNL d   1       0.801  -0.191   0.552  0.00  0.00    -0.277 N 
ATOM      7  HN  UNL d   1       1.688  -0.426   0.998  1.00  0.00     0.189 HD
ENDROOT
BRANCH   3   8
ATOM      8  N   UNL d   1       0.248  -2.425  -0.054  0.00  0.00    -0.335 N 
ATOM      9  H   UNL d   1      -0.503  -3.063  -0.272  0.00  0.00     0.168 HD
BRANCH   8  10
ATOM     10  C   UNL d   1       1.533  -2.997   0.058  0.00  0.00     0.035 A 
ATOM     11  C   UNL d   1       1.693  -4.253   0.658  0.00  0.00     0.045 A 
ATOM     12  C   UNL d   1       2.975  -4.789   0.897  0.00  0.00     0.050 A 
ATOM     13  C   UNL d   1       4.108  -4.059   0.503  0.00  0.00     0.032 A 
ATOM     14  C   UNL d   1       3.976  -2.801  -0.093  0.00  0.00     0.050 A 
ATOM     15  C   UNL d   1       2.689  -2.291  -0.307  0.00  0.00     0.045 A 
BRANCH  12  16
ATOM     16  C   UNL d   1       3.124  -6.108   1.618  0.00  0.00     0.417 C 
ATOM     17  F   UNL d   1       4.421  -6.479   1.808  0.00  0.00    -0.166 F 
ATOM     18  F   UNL d   1       2.558  -6.088   2.857  0.00  0.00    -0.166 F 
ATOM     19  F   UNL d   1       2.535  -7.138   0.952  0.00  0.00    -0.166 F 
ENDBRANCH  12  16
BRANCH  14  20
ATOM     20  C   UNL d   1       5.175  -1.971  -0.481  0.00  0.00     0.417 C 
ATOM     21  F   UNL d   1       6.362  -2.553  -0.154  0.00  0.00    -0.166 F 
ATOM     22  F   UNL d   1       5.232  -1.734  -1.820  0.00  0.00    -0.166 F 
ATOM     23  F   UNL d   1       5.182  -0.750   0.119  0.00  0.00    -0.166 F 
ENDBRANCH  14  20
ENDBRANCH   8  10
ENDBRANCH   3   8
BRANCH   1  24
ATOM     24  N   UNL d   1      -1.573   2.275  -0.455  0.00  0.00    -0.278 N 
ATOM     25  N   UNL d   1      -1.030   3.339  -0.085  0.00  0.00    -0.299 N 
ATOM     26  HN  UNL d   1      -0.128   3.362   0.391  1.00  0.00     0.187 HD
ATOM     27  HN  UNL d   1      -2.474   2.243  -0.933  1.00  0.00     0.189 HD
BRANCH  25  28
ATOM     28  C   UNL d   1      -1.768   4.501  -0.379  0.00  0.00     0.048 A 
ATOM     29  C   UNL d   1      -3.160   4.536  -0.537  0.00  0.00     0.031 A 
ATOM     30  C   UNL d   1      -3.823   5.743  -0.780  0.00  0.00     0.002 A 
ATOM     31  C   UNL d   1      -3.102   6.933  -0.859  0.00  0.00     0.000 A 
ATOM     32  C   UNL d   1      -1.719   6.918  -0.697  0.00  0.00     0.002 A 
ATOM     33  C   UNL d   1      -1.060   5.710  -0.458  0.00  0.00     0.031 A 
ENDBRANCH  25  28
ENDBRANCH   1  24
TORSDOF 6
