REMARK  7 active torsions:
REMARK  status: ('A' for Active; 'I' for Inactive)
REMARK    1  A    between atoms: N_2  and  C_1 
REMARK    2  A    between atoms: C_3  and  C_1 
REMARK    3  A    between atoms: C_4  and  C_3 
REMARK    4  A    between atoms: C_11  and  C_5 
REMARK    5  A    between atoms: O_10  and  C_8 
REMARK    6  A    between atoms: C_12  and  O_10 
REMARK    7  A    between atoms: C_14  and  C_12 
ROOT
ATOM      1  C   UNL d   1       0.947   0.513  -2.667  0.00  0.00     0.050 C 
ATOM      2  C   UNL d   1       2.144  -0.193  -2.861  0.00  0.00     0.083 C 
ATOM      3  C   UNL d   1       0.365   1.196  -3.753  0.00  0.00     0.018 C 
ATOM      4  C   UNL d   1       2.857   0.012  -4.054  0.00  0.00     0.038 C 
ATOM      5  C   UNL d   1       1.057   1.337  -4.955  0.00  0.00     0.001 C 
ATOM      6  C   UNL d   1       2.322   0.780  -5.089  0.00  0.00     0.003 C 
ENDROOT
BRANCH   1   7
ATOM      7  C   UNL d   1       0.290   0.584  -1.332  0.00  0.00     0.217 C 
ATOM      8  O   UNL d   1       0.019  -0.455  -0.743  0.00  0.00    -0.285 OA
BRANCH   7   9
ATOM      9  C   UNL d   1      -0.044   1.938  -0.776  0.00  0.00     0.154 C 
ATOM     10  C   UNL d   1       0.145   3.149  -1.343  0.00  0.00     0.051 C 
BRANCH   9  11
ATOM     11  N   UNL d   1      -0.667   1.912   0.523  0.00  0.00    -0.112 N 
ATOM     12  O   UNL d   1      -1.906   1.915   0.549  0.00  0.00    -0.532 OA
ATOM     13  O   UNL d   1       0.085   1.936   1.503  0.00  0.00    -0.532 OA
ENDBRANCH   9  11
BRANCH  10  14
ATOM     14  C   UNL d   1      -0.285   4.496  -0.927  0.00  0.00    -0.034 A 
ATOM     15  C   UNL d   1       0.115   5.091   0.272  0.00  0.00     0.011 A 
ATOM     16  C   UNL d   1      -0.225   6.422   0.544  0.00  0.00     0.001 A 
ATOM     17  C   UNL d   1      -0.958   7.168  -0.378  0.00  0.00     0.000 A 
ATOM     18  C   UNL d   1      -1.367   6.584  -1.572  0.00  0.00     0.001 A 
ATOM     19  C   UNL d   1      -1.032   5.255  -1.844  0.00  0.00     0.011 A 
ENDBRANCH  10  14
ENDBRANCH   7   9
ENDBRANCH   1   7
BRANCH   2  20
ATOM     20  O   UNL d   1       2.582  -1.066  -1.891  0.00  0.00    -0.346 OA
BRANCH  20  21
ATOM     21  C   UNL d   1       3.303  -2.196  -2.420  0.00  0.00     0.214 C 
BRANCH  21  22
ATOM     22  C   UNL d   1       3.163  -3.488  -1.645  0.00  0.00    -0.034 A 
ATOM     23  C   UNL d   1       2.164  -3.707  -0.693  0.00  0.00     0.009 A 
ATOM     24  C   UNL d   1       2.028  -4.965  -0.092  0.00  0.00     0.001 A 
ATOM     25  C   UNL d   1       2.881  -6.013  -0.441  0.00  0.00     0.000 A 
ATOM     26  C   UNL d   1       3.877  -5.809  -1.390  0.00  0.00     0.001 A 
ATOM     27  C   UNL d   1       4.016  -4.556  -1.987  0.00  0.00     0.009 A 
ENDBRANCH  21  22
ENDBRANCH  20  21
ENDBRANCH   2  20
TORSDOF 7
