REMARK  4 active torsions:
REMARK  status: ('A' for Active; 'I' for Inactive)
REMARK    1  A    between atoms: C_9  and  N_1 
REMARK    2  A    between atoms: C_7  and  C_2 
REMARK    3  A    between atoms: N_10  and  C_8 
REMARK    4  A    between atoms: C_11  and  N_10 
ROOT
ATOM      1  N   UNL d   1       3.679   0.682   0.054  0.00  0.00    -0.225 N 
ATOM      2  C   UNL d   1       3.609  -0.712   0.039  0.00  0.00     0.139 C 
ATOM      3  N   UNL d   1       5.673  -0.093   0.035  0.00  0.00    -0.007 NA
ATOM      4  N   UNL d   1       4.982   1.030  -0.082  0.00  0.00     0.001 NA
ATOM      5  N   UNL d   1       4.841  -1.178   0.124  0.00  0.00    -0.270 N 
ATOM      6  HN  UNL d   1       5.119  -2.153   0.236  1.00  0.00     0.185 HD
ENDROOT
BRANCH   2   7
ATOM      7  C   UNL d   1       2.384  -1.385  -0.189  0.00  0.00     0.068 C 
ATOM      8  C   UNL d   1       2.149  -2.661   0.148  0.00  0.00     0.092 C 
BRANCH   8   9
ATOM      9  N   UNL d   1       2.953  -3.583   0.762  0.00  0.00    -0.366 N 
ATOM     10  H   UNL d   1       3.913  -3.286   0.926  0.00  0.00     0.165 HD
BRANCH   9  11
ATOM     11  C   UNL d   1       2.657  -4.926   1.063  0.00  0.00     0.031 A 
ATOM     12  C   UNL d   1       1.438  -5.542   0.735  0.00  0.00     0.031 A 
ATOM     13  C   UNL d   1       1.168  -6.867   1.092  0.00  0.00     0.021 A 
ATOM     14  C   UNL d   1       2.116  -7.598   1.796  0.00  0.00     0.011 A 
ATOM     15  C   UNL d   1       3.329  -7.013   2.145  0.00  0.00     0.021 A 
ATOM     16 BR   UNL d   1       1.749  -9.386   2.283  0.00  0.00    -0.051 Br
ATOM     17  C   UNL d   1       3.593  -5.686   1.783  0.00  0.00     0.031 A 
ENDBRANCH   9  11
ENDBRANCH   8   9
ENDBRANCH   2   7
BRANCH   1  18
ATOM     18  C   UNL d   1       2.666   1.667   0.203  0.00  0.00     0.056 A 
ATOM     19  C   UNL d   1       1.479   1.383   0.895  0.00  0.00     0.031 A 
ATOM     20  C   UNL d   1       0.482   2.354   1.009  0.00  0.00     0.002 A 
ATOM     21  C   UNL d   1       0.665   3.612   0.439  0.00  0.00     0.000 A 
ATOM     22  C   UNL d   1       1.856   3.912  -0.222  0.00  0.00     0.002 A 
ATOM     23  C   UNL d   1       2.865   2.950  -0.327  0.00  0.00     0.031 A 
ENDBRANCH   1  18
TORSDOF 4
