REMARK  7 active torsions:
REMARK  status: ('A' for Active; 'I' for Inactive)
REMARK    1  A    between atoms: C_4  and  N_1 
REMARK    2  A    between atoms: C_2  and  C_4 
REMARK    3  A    between atoms: C_5  and  C_2 
REMARK    4  A    between atoms: C_3  and  C_6 
REMARK    5  A    between atoms: O_15  and  C_3 
REMARK    6  A    between atoms: C_20  and  O_15 
REMARK    7  A    between atoms: O_19  and  C_16 
ROOT
ATOM      1  N   UNL d   1       1.379   0.055   0.147  0.00  0.00     0.095 N 
ATOM      2  C   UNL d   1      -1.501   0.153  -0.314  0.00  0.00     0.089 C 
ATOM      3  C   UNL d   1      -0.709   1.395   0.130  0.00  0.00     0.045 C 
ATOM      4  C   UNL d   1      -0.706  -1.134  -0.082  0.00  0.00     0.045 C 
ATOM      5  C   UNL d   1       0.793   1.361  -0.203  0.00  0.00     0.273 C 
ATOM      6  C   UNL d   1       0.708  -0.998  -0.626  0.00  0.00     0.273 C 
ENDROOT
BRANCH   1   7
ATOM      7  C   UNL d   1       2.833  -0.021  -0.077  0.00  0.00     0.356 C 
BRANCH   7   8
ATOM      8  C   UNL d   1       3.636   0.944   0.783  0.00  0.00     0.187 C 
ATOM      9  O   UNL d   1       4.328   1.814   0.244  0.00  0.00    -0.290 OA
BRANCH   8  10
ATOM     10  C   UNL d   1       3.671   0.829   2.275  0.00  0.00     0.012 A 
ATOM     11  C   UNL d   1       2.777   0.044   3.008  0.00  0.00     0.018 A 
ATOM     12  C   UNL d   1       2.800   0.068   4.412  0.00  0.00     0.037 A 
ATOM     13  C   UNL d   1       3.724   0.862   5.090  0.00  0.00     0.068 A 
ATOM     14  C   UNL d   1       4.667   1.587   4.364  0.00  0.00     0.037 A 
ATOM     15  C   UNL d   1       4.634   1.580   2.967  0.00  0.00     0.018 A 
BRANCH  13  16
ATOM     16  O   UNL d   1       3.818   0.958   6.451  0.00  0.00    -0.356 OA
ATOM     17  C   UNL d   1       2.569   0.975   7.136  0.00  0.00     0.210 C 
ENDBRANCH  13  16
ENDBRANCH   8  10
ENDBRANCH   7   8
ENDBRANCH   1   7
BRANCH   2  18
ATOM     18  C   UNL d   1      -2.006   0.131  -1.749  0.00  0.00     0.263 C 
ATOM     19  O   UNL d   1      -2.719  -0.778  -2.170  0.00  0.00    -0.265 OA
BRANCH  18  20
ATOM     20  O   UNL d   1      -1.561   1.163  -2.502  0.00  0.00    -0.322 OA
BRANCH  20  21
ATOM     21  C   UNL d   1      -1.933   1.100  -3.888  0.00  0.00     0.174 C 
ATOM     22  C   UNL d   1      -3.370   1.544  -4.099  0.00  0.00     0.034 C 
ENDBRANCH  20  21
ENDBRANCH  18  20
ENDBRANCH   2  18
TORSDOF 7
