REMARK  4 active torsions:
REMARK  status: ('A' for Active; 'I' for Inactive)
REMARK    1  A    between atoms: N_5  and  C_1 
REMARK       I    between atoms: C_7  and  N_5 
REMARK    2  A    between atoms: C_14  and  C_6 
REMARK    3  A    between atoms: C_12  and  C_7 
REMARK    4  A    between atoms: C_15  and  C_8 
ROOT
ATOM      1  C   UNL d   1      -0.189  -1.114  -0.118  0.00  0.00     0.130 C 
ATOM      2  C   UNL d   1       0.548   0.073  -0.276  0.00  0.00     0.099 C 
ATOM      3  N   UNL d   1      -1.529  -1.102  -0.022  0.00  0.00    -0.340 N 
ATOM      4  HN  UNL d   1      -2.046  -1.979   0.046  1.00  0.00     0.167 HD
ATOM      5  C   UNL d   1      -0.100   1.323  -0.149  0.00  0.00     0.001 C 
ATOM      6  C   UNL d   1      -2.189   0.076  -0.016  0.00  0.00     0.044 C 
ATOM      7  C   UNL d   1      -1.497   1.284   0.004  0.00  0.00     0.044 C 
ATOM      8  C   UNL d   1       1.930  -0.032  -0.622  0.00  0.00     0.104 C 
ATOM      9  N   UNL d   1       3.048  -0.209  -0.884  0.00  0.00    -0.191 NA
ENDROOT
BRANCH   1  10
ATOM     10  N   UNL d   1       0.498  -2.349  -0.017  0.00  0.00    -0.308 N 
ATOM     11  C   UNL d   1      -0.085  -3.577   0.244  0.00  0.00     0.257 C 
ATOM     12  O   UNL d   1      -1.281  -3.813   0.354  0.00  0.00    -0.267 OA
ATOM     13  H   UNL d   1       1.506  -2.308   0.003  0.00  0.00     0.170 HD
BRANCH  11  14
ATOM     14  C   UNL d   1       0.880  -4.703   0.473  0.00  0.00     0.032 A 
ATOM     15  C   UNL d   1       0.467  -5.767   1.287  0.00  0.00     0.017 A 
ATOM     16  C   UNL d   1       1.340  -6.819   1.579  0.00  0.00     0.007 A 
ATOM     17  C   UNL d   1       2.638  -6.829   1.058  0.00  0.00    -0.062 A 
ATOM     18  C   UNL d   1       3.043  -5.780   0.224  0.00  0.00     0.007 A 
ATOM     19  C   UNL d   1       3.577  -7.947   1.406  0.00  0.00     0.048 C 
ATOM     20  C   UNL d   1       2.169  -4.728  -0.075  0.00  0.00     0.017 A 
ENDBRANCH  11  14
ENDBRANCH   1  10
BRANCH   5  21
ATOM     21  C   UNL d   1       0.597   2.645  -0.178  0.00  0.00    -0.024 A 
ATOM     22  C   UNL d   1      -0.019   3.783  -0.740  0.00  0.00     0.012 A 
ATOM     23  C   UNL d   1       0.612   5.032  -0.762  0.00  0.00     0.001 A 
ATOM     24  C   UNL d   1       1.894   5.174  -0.246  0.00  0.00     0.000 A 
ATOM     25  C   UNL d   1       2.529   4.076   0.319  0.00  0.00     0.001 A 
ATOM     26  C   UNL d   1       1.877   2.838   0.375  0.00  0.00     0.012 A 
ENDBRANCH   5  21
BRANCH   6  27
ATOM     27  C   UNL d   1      -3.663  -0.004  -0.089  0.00  0.00    -0.009 A 
ATOM     28  C   UNL d   1      -4.357  -1.117   0.418  0.00  0.00     0.013 A 
ATOM     29  C   UNL d   1      -5.748  -1.220   0.309  0.00  0.00     0.001 A 
ATOM     30  C   UNL d   1      -6.477  -0.214  -0.319  0.00  0.00     0.000 A 
ATOM     31  C   UNL d   1      -5.817   0.893  -0.841  0.00  0.00     0.001 A 
ATOM     32  C   UNL d   1      -4.427   0.994  -0.728  0.00  0.00     0.013 A 
ENDBRANCH   6  27
TORSDOF 4
