REMARK  3 active torsions:
REMARK  status: ('A' for Active; 'I' for Inactive)
REMARK    1  A    between atoms: C_5  and  C_1 
REMARK    2  A    between atoms: C_7  and  C_4 
REMARK       I    between atoms: N_10  and  C_5 
REMARK    3  A    between atoms: C_14  and  N_10 
ROOT
ATOM      1  C   UNL d   1       1.253   0.741  -0.047  0.00  0.00     0.108 A 
ATOM      2  N   UNL d   1       1.412  -0.640   0.129  0.00  0.00    -0.345 N 
ATOM      3  HN  UNL d   1       2.285  -1.102   0.385  1.00  0.00     0.167 HD
ATOM      4  C   UNL d   1       0.258  -1.257  -0.087  0.00  0.00     0.085 A 
ATOM      5  S   UNL d   1      -1.073  -0.197  -0.420  0.00  0.00    -0.081 SA
ATOM      6  C   UNL d   1      -0.024   1.133  -0.401  0.00  0.00     0.087 A 
ENDROOT
BRANCH   1   7
ATOM      7  C   UNL d   1       2.326   1.731   0.107  0.00  0.00     0.273 C 
ATOM      8  N   UNL d   1       3.579   1.202   0.361  0.00  0.00    -0.322 N 
ATOM      9  H   UNL d   1       3.651   0.194   0.284  0.00  0.00     0.169 HD
ATOM     10  O   UNL d   1       2.068   2.926  -0.028  0.00  0.00    -0.266 OA
BRANCH   8  11
ATOM     11  C   UNL d   1       4.763   1.970   0.485  0.00  0.00     0.037 A 
ATOM     12  C   UNL d   1       4.746   3.347   0.742  0.00  0.00     0.069 A 
ATOM     13  C   UNL d   1       5.921   4.091   0.714  0.00  0.00     0.104 A 
ATOM     14  O   UNL d   1       5.793   5.446   0.892  0.00  0.00    -0.346 OA
ATOM     15  C   UNL d   1       7.146   3.464   0.492  0.00  0.00     0.102 A 
ATOM     16  C   UNL d   1       6.920   6.132   0.342  0.00  0.00     0.202 C 
ATOM     17  C   UNL d   1       8.209   5.505   0.847  0.00  0.00     0.202 C 
ATOM     18  O   UNL d   1       8.337   4.141   0.422  0.00  0.00    -0.346 OA
ATOM     19  C   UNL d   1       7.186   2.083   0.303  0.00  0.00     0.042 A 
ATOM     20  C   UNL d   1       5.998   1.336   0.309  0.00  0.00     0.032 A 
ENDBRANCH   8  11
ENDBRANCH   1   7
BRANCH   4  21
ATOM     21  C   UNL d   1       0.026  -2.715  -0.062  0.00  0.00     0.007 A 
ATOM     22  C   UNL d   1       0.797  -3.584   0.704  0.00  0.00    -0.010 A 
ATOM     23  C   UNL d   1       0.532  -4.952   0.719  0.00  0.00     0.076 A 
ATOM     24  C   UNL d   1       1.892  -3.314   1.669  0.00  0.00     0.069 C 
ATOM     25  O   UNL d   1       1.351  -5.673   1.551  0.00  0.00    -0.350 OA
ATOM     26  C   UNL d   1      -0.483  -5.527  -0.017  0.00  0.00     0.037 A 
ATOM     27  C   UNL d   1       2.399  -4.740   1.887  0.00  0.00     0.180 C 
ATOM     28  C   UNL d   1      -1.259  -4.689  -0.808  0.00  0.00     0.004 A 
ATOM     29  C   UNL d   1      -1.003  -3.308  -0.833  0.00  0.00     0.015 A 
ENDBRANCH   4  21
TORSDOF 3
