REMARK  2 active torsions:
REMARK  status: ('A' for Active; 'I' for Inactive)
REMARK    1  A    between atoms: C_8  and  N_1 
REMARK    2  A    between atoms: C_9  and  N_3 
ROOT
ATOM      1  N   UNL d   1       0.952   1.283   0.145  0.00  0.00    -0.336 N 
ATOM      2  C   UNL d   1       1.694   0.159   0.433  0.00  0.00     0.140 C 
ATOM      3  N   UNL d   1      -1.132   0.035  -0.151  0.00  0.00     0.119 N 
ATOM      4  C   UNL d   1      -0.451   1.151   0.526  0.00  0.00     0.401 C 
ATOM      5  S   UNL d   1       1.314  -1.140  -0.660  0.00  0.00    -0.070 SA
ATOM      6  C   UNL d   1      -0.401  -1.228  -0.117  0.00  0.00     0.356 C 
ATOM      7  S   UNL d   1       2.563  -0.047   1.849  0.00  0.00    -0.053 SA
ENDROOT
BRANCH   1   8
ATOM      8  C   UNL d   1       1.289   2.181  -0.995  0.00  0.00     0.087 C 
ATOM      9  C   UNL d   1       2.687   1.984  -1.630  0.00  0.00     0.025 C 
ATOM     10  C   UNL d   1       3.854   2.456  -0.758  0.00  0.00     0.002 C 
ATOM     11  C   UNL d   1       3.665   3.875  -0.240  0.00  0.00     0.000 C 
ATOM     12  C   UNL d   1       2.287   4.090   0.375  0.00  0.00     0.002 C 
ATOM     13  C   UNL d   1       1.166   3.662  -0.577  0.00  0.00     0.025 C 
ENDBRANCH   1   8
BRANCH   3  14
ATOM     14  C   UNL d   1      -2.558  -0.072   0.299  0.00  0.00     0.226 C 
ATOM     15  C   UNL d   1      -2.852  -0.151   1.820  0.00  0.00     0.036 C 
ATOM     16  C   UNL d   1      -2.642  -1.525   2.446  0.00  0.00     0.002 C 
ATOM     17  C   UNL d   1      -3.433  -2.611   1.728  0.00  0.00     0.000 C 
ATOM     18  C   UNL d   1      -3.314  -2.574   0.208  0.00  0.00     0.002 C 
ATOM     19  C   UNL d   1      -3.405  -1.168  -0.398  0.00  0.00     0.036 C 
ENDBRANCH   3  14
TORSDOF 2
