REMARK  3 active torsions:
REMARK  status: ('A' for Active; 'I' for Inactive)
REMARK       I    between atoms: N_2  and  C_1 
REMARK    1  A    between atoms: C_11  and  C_1 
REMARK    2  A    between atoms: C_3  and  N_2 
REMARK    3  A    between atoms: C_4  and  C_11 
ROOT
ATOM      1  C   UNL d   1       0.998  -0.017  -0.021  0.00  0.00     0.227 C 
ATOM      2  N   UNL d   1       0.292   0.952   0.655  0.00  0.00    -0.313 N 
ATOM      3  O   UNL d   1       0.507  -0.879  -0.748  0.00  0.00    -0.273 OA
ATOM      4  H   UNL d   1       0.762   1.800   0.946  0.00  0.00     0.170 HD
ENDROOT
BRANCH   1   5
ATOM      5  C   UNL d   1       2.493   0.027   0.219  0.00  0.00     0.141 C 
BRANCH   5   6
ATOM      6  C   UNL d   1       3.282   1.090  -0.508  0.00  0.00    -0.044 A 
ATOM      7  C   UNL d   1       4.577   1.382  -0.044  0.00  0.00     0.050 A 
ATOM      8  C   UNL d   1       5.383   2.298  -0.715  0.00  0.00     0.119 A 
ATOM      9  F   UNL d   1       6.615   2.548  -0.255  0.00  0.00    -0.206 F 
ATOM     10  C   UNL d   1       4.933   2.944  -1.855  0.00  0.00     0.084 A 
ATOM     11  C   UNL d   1       3.660   2.654  -2.322  0.00  0.00     0.119 A 
ATOM     12  C   UNL d   1       2.834   1.733  -1.670  0.00  0.00     0.050 A 
ATOM     13  F   UNL d   1       3.215   3.263  -3.430  0.00  0.00    -0.206 F 
ENDBRANCH   5   6
ENDBRANCH   1   5
BRANCH   2  14
ATOM     14  C   UNL d   1      -1.098   1.025   0.774  0.00  0.00     0.107 A 
ATOM     15  N   UNL d   1      -1.565   2.246   1.112  0.00  0.00    -0.352 N 
ATOM     16  C   UNL d   1      -2.907   2.385   1.214  0.00  0.00     0.089 A 
ATOM     17  HN  UNL d   1      -0.934   3.029   1.283  1.00  0.00     0.166 HD
ATOM     18  C   UNL d   1      -3.811   1.352   1.038  0.00  0.00     0.017 A 
ATOM     19  C   UNL d   1      -3.307   0.093   0.744  0.00  0.00     0.005 A 
ATOM     20  C   UNL d   1      -1.932  -0.074   0.605  0.00  0.00     0.048 A 
ENDBRANCH   2  14
TORSDOF 3
