REMARK  5 active torsions:
REMARK  status: ('A' for Active; 'I' for Inactive)
REMARK    1  A    between atoms: N_2  and  C_1 
REMARK    2  A    between atoms: N_7  and  C_4 
REMARK    3  A    between atoms: S_10  and  C_5 
REMARK    4  A    between atoms: C_17  and  S_10 
REMARK    5  A    between atoms: C_11  and  C_17 
ROOT
ATOM      1  C   UNL d   1       1.581   1.344   0.042  0.00  0.00     0.121 A 
ATOM      2  C   UNL d   1       0.178   1.292   0.029  0.00  0.00     0.063 A 
ATOM      3  C   UNL d   1       0.272  -1.122   0.016  0.00  0.00     0.061 A 
ATOM      4  C   UNL d   1       2.377   0.195   0.058  0.00  0.00     0.036 A 
ATOM      5  C   UNL d   1       1.688  -1.038   0.058  0.00  0.00     0.053 A 
ATOM      6  C   UNL d   1      -0.481   0.061   0.014  0.00  0.00     0.063 A 
ATOM      7 CL   UNL d   1      -2.203   0.144   0.131  0.00  0.00    -0.082 Cl
ENDROOT
BRANCH   4   8
ATOM      8  S   UNL d   1       4.159   0.047  -0.126  0.00  0.00    -0.123 SA
BRANCH   8   9
ATOM      9  C   UNL d   1       4.883   1.318   0.976  0.00  0.00     0.119 C 
BRANCH   9  10
ATOM     10  C   UNL d   1       6.393   1.197   1.036  0.00  0.00    -0.027 A 
ATOM     11  C   UNL d   1       7.080   0.603   2.111  0.00  0.00     0.042 A 
ATOM     12  C   UNL d   1       8.477   0.561   2.126  0.00  0.00     0.048 A 
ATOM     13 CL   UNL d   1       6.247  -0.095   3.452  0.00  0.00    -0.084 Cl
ATOM     14  C   UNL d   1       9.203   1.103   1.069  0.00  0.00     0.035 A 
ATOM     15  C   UNL d   1       8.546   1.677  -0.014  0.00  0.00     0.024 A 
ATOM     16 CL   UNL d   1      10.923   1.065   1.098  0.00  0.00    -0.084 Cl
ATOM     17  C   UNL d   1       7.150   1.724  -0.029  0.00  0.00     0.011 A 
ENDBRANCH   9  10
ENDBRANCH   8   9
ENDBRANCH   4   8
BRANCH   1  18
ATOM     18  N   UNL d   1       2.147   2.666   0.012  0.00  0.00    -0.114 N 
ATOM     19  O   UNL d   1       2.273   3.202  -1.096  0.00  0.00    -0.532 OA
ATOM     20  O   UNL d   1       2.412   3.179   1.105  0.00  0.00    -0.532 OA
ENDBRANCH   1  18
BRANCH   3  21
ATOM     21  N   UNL d   1      -0.315  -2.422  -0.066  0.00  0.00    -0.331 N 
ATOM     22  C   UNL d   1       0.209  -3.580   0.480  0.00  0.00     0.096 A 
ATOM     23  C   UNL d   1      -0.619  -4.641   0.181  0.00  0.00     0.019 A 
ATOM     24  C   UNL d   1      -1.671  -4.137  -0.607  0.00  0.00     0.019 A 
ATOM     25  C   UNL d   1      -1.453  -2.785  -0.759  0.00  0.00     0.096 A 
ENDBRANCH   3  21
TORSDOF 5
