REMARK  7 active torsions:
REMARK  status: ('A' for Active; 'I' for Inactive)
REMARK    1  A    between atoms: C_2  and  C_1 
REMARK    2  A    between atoms: C_5  and  C_1 
REMARK    3  A    between atoms: C_11  and  C_1 
REMARK    4  A    between atoms: C_12  and  C_1 
REMARK    5  A    between atoms: O_10  and  C_2 
REMARK    6  A    between atoms: C_14  and  C_11 
REMARK    7  A    between atoms: C_13  and  C_12 
ROOT
ATOM      1  N   UNL d   1      -1.798  -3.774   1.510  0.00  0.00    -0.197 NA
ATOM      2  C   UNL d   1      -1.502  -2.755   1.051  0.00  0.00     0.059 C 
ATOM      3  C   UNL d   1      -1.108  -1.454   0.482  0.00  0.00     0.125 C 
ENDROOT
BRANCH   3   4
ATOM      4  C   UNL d   1       0.420  -1.296   0.527  0.00  0.00     0.042 C 
BRANCH   4   5
ATOM      5  C   UNL d   1       0.981   0.061  -0.005  0.00  0.00     0.109 C 
BRANCH   5   6
ATOM      6  C   UNL d   1       0.515   1.207   0.881  0.00  0.00     0.274 C 
ATOM      7  O   UNL d   1      -0.188   1.065   1.874  0.00  0.00    -0.264 OA
BRANCH   6   8
ATOM      8  O   UNL d   1       0.997   2.407   0.459  0.00  0.00    -0.326 OA
ATOM      9  C   UNL d   1       0.508   3.523   1.214  0.00  0.00     0.213 C 
ENDBRANCH   6   8
ENDBRANCH   5   6
BRANCH   5  10
ATOM     10  C   UNL d   1       0.575   0.173  -1.481  0.00  0.00     0.141 C 
ATOM     11  O   UNL d   1       0.930  -0.701  -2.281  0.00  0.00    -0.297 OA
ATOM     12  C   UNL d   1      -0.293   1.298  -1.992  0.00  0.00     0.092 C 
ENDBRANCH   5  10
BRANCH   5  13
ATOM     13  C   UNL d   1       2.545   0.021   0.040  0.00  0.00     0.042 C 
BRANCH  13  14
ATOM     14  C   UNL d   1       3.146  -0.183   1.439  0.00  0.00     0.125 C 
ATOM     15  C   UNL d   1       4.613  -0.201   1.391  0.00  0.00     0.059 C 
ATOM     16  N   UNL d   1       5.771  -0.221   1.365  0.00  0.00    -0.197 NA
ENDBRANCH  13  14
ENDBRANCH   5  13
ENDBRANCH   4   5
ENDBRANCH   3   4
TORSDOF 7
