REMARK  4 active torsions:
REMARK  status: ('A' for Active; 'I' for Inactive)
REMARK    1  A    between atoms: C_8  and  C_2 
REMARK    2  A    between atoms: N_3  and  C_11 
REMARK    3  A    between atoms: N_19  and  C_6 
REMARK    4  A    between atoms: N_12  and  C_10 
ROOT
ATOM      1  C   UNL d   1      -2.081   2.841   0.574  0.00  0.00    -0.006 A 
ATOM      2  C   UNL d   1      -2.830   2.090   1.526  0.00  0.00     0.040 A 
ATOM      3  C   UNL d   1      -3.949   4.344   0.214  0.00  0.00     0.103 A 
ATOM      4  C   UNL d   1      -2.638   3.956  -0.073  0.00  0.00     0.049 A 
ATOM      5  C   UNL d   1      -4.152   2.511   1.772  0.00  0.00     0.032 A 
ATOM      6  C   UNL d   1      -4.712   3.624   1.133  0.00  0.00     0.038 A 
ENDROOT
BRANCH   1   7
ATOM      7  C   UNL d   1      -0.707   2.477   0.197  0.00  0.00     0.034 C 
ATOM      8  C   UNL d   1      -0.381   1.534  -0.691  0.00  0.00     0.073 A 
ATOM      9  C   UNL d   1       0.993   0.996  -0.859  0.00  0.00     0.108 A 
ATOM     10  C   UNL d   1      -1.216   0.734  -1.605  0.00  0.00     0.273 A 
ATOM     11  N   UNL d   1       1.001   0.001  -1.713  0.00  0.00    -0.287 N 
ATOM     12  N   UNL d   1      -0.303  -0.154  -2.145  0.00  0.00    -0.264 N 
ATOM     13  HN  UNL d   1       1.809  -0.550  -2.002  1.00  0.00     0.188 HD
ATOM     14  H   UNL d   1      -0.534  -0.856  -2.836  0.00  0.00     0.190 HD
ATOM     15  O   UNL d   1      -2.400   0.851  -1.861  0.00  0.00    -0.266 OA
BRANCH   9  16
ATOM     16  N   UNL d   1       2.123   1.417  -0.218  0.00  0.00    -0.287 NA
ATOM     17  H   UNL d   1       2.964   1.009  -0.617  0.00  0.00     0.125 HD
ATOM     18  H   UNL d   1       2.210   2.416  -0.076  0.00  0.00     0.125 HD
ENDBRANCH   9  16
ENDBRANCH   1   7
BRANCH   2  19
ATOM     19  N   UNL d   1      -2.321   0.960   2.150  0.00  0.00    -0.376 N 
ATOM     20  C   UNL d   1      -3.190  -0.141   2.608  0.00  0.00     0.149 C 
ATOM     21  C   UNL d   1      -2.424  -1.468   2.449  0.00  0.00     0.187 C 
ATOM     22  O   UNL d   1      -1.156  -1.451   3.131  0.00  0.00    -0.388 OA
ATOM     23  C   UNL d   1      -0.340  -0.366   2.650  0.00  0.00     0.187 C 
ATOM     24  C   UNL d   1      -1.042   0.982   2.883  0.00  0.00     0.149 C 
ENDBRANCH   2  19
BRANCH   3  25
ATOM     25  N   UNL d   1      -4.518   5.526  -0.442  0.00  0.00    -0.116 N 
ATOM     26  O   UNL d   1      -3.792   6.158  -1.224  0.00  0.00    -0.532 OA
ATOM     27  O   UNL d   1      -5.685   5.836  -0.162  0.00  0.00    -0.532 OA
ENDBRANCH   3  25
TORSDOF 4
