REMARK  4 active torsions:
REMARK  status: ('A' for Active; 'I' for Inactive)
REMARK    1  A    between atoms: C_4  and  C_1 
REMARK       I    between atoms: N_9  and  C_4 
REMARK    2  A    between atoms: N_5  and  C_11 
REMARK    3  A    between atoms: C_7  and  N_9 
REMARK    4  A    between atoms: C_8  and  C_12 
ROOT
ATOM      1  C   UNL d   1       4.572  -2.261   0.410  0.00  0.00     0.062 A 
ATOM      2  C   UNL d   1       5.053  -3.305   1.234  0.00  0.00     0.057 A 
ATOM      3  C   UNL d   1       3.277  -3.865  -0.918  0.00  0.00     0.050 A 
ATOM      4  C   UNL d   1       3.747  -2.568  -0.686  0.00  0.00     0.048 A 
ATOM      5  C   UNL d   1       4.640  -4.620   0.935  0.00  0.00     0.032 A 
ATOM      6  C   UNL d   1       3.743  -4.897  -0.101  0.00  0.00     0.018 A 
ENDROOT
BRANCH   1   7
ATOM      7  N   UNL d   1       4.849  -0.909   0.732  0.00  0.00    -0.320 N 
ATOM      8  C   UNL d   1       4.072   0.180   0.357  0.00  0.00     0.264 C 
ATOM      9  O   UNL d   1       2.966   0.053  -0.170  0.00  0.00    -0.267 OA
ATOM     10  H   UNL d   1       5.556  -0.742   1.431  0.00  0.00     0.169 HD
BRANCH   8  11
ATOM     11  C   UNL d   1       4.621   1.498   0.646  0.00  0.00     0.096 A 
ATOM     12  S   UNL d   1       6.254   1.711   1.107  0.00  0.00    -0.082 SA
ATOM     13  C   UNL d   1       6.137   3.426   1.063  0.00  0.00     0.017 A 
ATOM     14  C   UNL d   1       7.172   4.354   1.299  0.00  0.00     0.020 A 
ATOM     15  C   UNL d   1       4.843   3.843   0.746  0.00  0.00     0.004 A 
ATOM     16  C   UNL d   1       6.897   5.721   1.200  0.00  0.00     0.001 A 
ATOM     17  C   UNL d   1       5.621   6.160   0.882  0.00  0.00     0.001 A 
ATOM     18  C   UNL d   1       4.596   5.240   0.663  0.00  0.00     0.014 A 
ATOM     19  C   UNL d   1       3.974   2.716   0.542  0.00  0.00     0.068 A 
ATOM     20 CL   UNL d   1       2.306   2.947   0.167  0.00  0.00    -0.082 Cl
ENDBRANCH   8  11
ENDBRANCH   1   7
BRANCH   2  21
ATOM     21  N   UNL d   1       5.636  -3.126   2.498  0.00  0.00    -0.374 N 
ATOM     22  C   UNL d   1       6.993  -2.586   2.678  0.00  0.00     0.162 C 
ATOM     23  C   UNL d   1       7.288  -2.156   4.115  0.00  0.00    -0.034 A 
ATOM     24  C   UNL d   1       8.490  -1.498   4.424  0.00  0.00     0.009 A 
ATOM     25  C   UNL d   1       6.381  -2.405   5.164  0.00  0.00    -0.049 A 
ATOM     26  C   UNL d   1       8.757  -1.070   5.730  0.00  0.00     0.001 A 
ATOM     27  C   UNL d   1       7.831  -1.292   6.747  0.00  0.00     0.001 A 
ATOM     28  C   UNL d   1       6.650  -1.968   6.468  0.00  0.00     0.008 A 
ATOM     29  C   UNL d   1       5.131  -3.186   4.884  0.00  0.00     0.059 C 
ATOM     30  C   UNL d   1       4.613  -2.821   3.505  0.00  0.00     0.128 C 
ENDBRANCH   2  21
BRANCH   3  31
ATOM     31  C   UNL d   1       2.204  -4.119  -1.948  0.00  0.00     0.417 C 
ATOM     32  F   UNL d   1       2.023  -3.086  -2.820  0.00  0.00    -0.166 F 
ATOM     33  F   UNL d   1       2.459  -5.211  -2.718  0.00  0.00    -0.166 F 
ATOM     34  F   UNL d   1       0.986  -4.340  -1.378  0.00  0.00    -0.166 F 
ENDBRANCH   3  31
TORSDOF 4
