REMARK  2 active torsions:
REMARK  status: ('A' for Active; 'I' for Inactive)
REMARK    1  A    between atoms: C_6  and  N_1 
REMARK    2  A    between atoms: O_14  and  C_11 
ROOT
ATOM      1  N   UNL d   1       2.422  -0.591  -0.038  0.00  0.00    -0.254 N 
ATOM      2  C   UNL d   1       2.376   0.814  -0.018  0.00  0.00     0.186 A 
ATOM      3  C   UNL d   1       1.271  -1.405  -0.036  0.00  0.00     0.267 A 
ATOM      4  C   UNL d   1      -0.035  -0.712  -0.011  0.00  0.00     0.059 A 
ATOM      5  N   UNL d   1       1.133   1.387   0.039  0.00  0.00    -0.332 N 
ATOM      6  C   UNL d   1      -0.059   0.674   0.017  0.00  0.00     0.050 A 
ATOM      7  S   UNL d   1       3.649   1.911  -0.130  0.00  0.00    -0.040 SA
ATOM      8  O   UNL d   1       1.267  -2.634  -0.032  0.00  0.00    -0.267 OA
ATOM      9  C   UNL d   1      -1.237  -1.429  -0.028  0.00  0.00     0.019 A 
ATOM     10  C   UNL d   1      -1.271   1.365   0.004  0.00  0.00     0.030 A 
ATOM     11  C   UNL d   1      -2.454  -0.743  -0.044  0.00  0.00     0.001 A 
ATOM     12  C   UNL d   1      -2.469   0.652  -0.035  0.00  0.00     0.002 A 
ATOM     13  H   UNL d   1       1.112   2.401   0.034  0.00  0.00     0.168 HD
ENDROOT
BRANCH   1  14
ATOM     14  C   UNL d   1       3.684  -1.272  -0.099  0.00  0.00     0.047 A 
ATOM     15  C   UNL d   1       4.646  -1.073   0.903  0.00  0.00     0.066 A 
ATOM     16  C   UNL d   1       5.917  -1.637   0.789  0.00  0.00     0.070 A 
ATOM     17  C   UNL d   1       6.214  -2.429  -0.322  0.00  0.00     0.037 A 
ATOM     18  C   UNL d   1       5.249  -2.675  -1.300  0.00  0.00     0.005 A 
ATOM     19  C   UNL d   1       3.981  -2.107  -1.183  0.00  0.00     0.030 A 
BRANCH  16  20
ATOM     20  O   UNL d   1       6.944  -1.476   1.678  0.00  0.00    -0.356 OA
ATOM     21  C   UNL d   1       6.685  -0.654   2.811  0.00  0.00     0.210 C 
ENDBRANCH  16  20
ENDBRANCH   1  14
TORSDOF 2
