REMARK  2 active torsions:
REMARK  status: ('A' for Active; 'I' for Inactive)
REMARK       I    between atoms: N_2  and  C_1 
REMARK       I    between atoms: N_4  and  C_1 
REMARK    1  A    between atoms: C_8  and  N_4 
REMARK    2  A    between atoms: O_15  and  C_10 
ROOT
ATOM      1  C   UNL d   1       0.455   0.342   0.204  0.00  0.00     0.327 C 
ATOM      2  N   UNL d   1       0.245  -0.927   0.825  0.00  0.00    -0.299 N 
ATOM      3  C   UNL d   1      -0.754  -1.885   0.353  0.00  0.00     0.051 C 
ATOM      4  N   UNL d   1       1.560   1.027   0.694  0.00  0.00    -0.309 N 
ATOM      5  O   UNL d   1      -0.247   0.821  -0.683  0.00  0.00    -0.246 OA
ATOM      6  C   UNL d   1      -1.263  -2.846   1.272  0.00  0.00    -0.030 C 
ATOM      7  C   UNL d   1      -1.238  -1.974  -0.976  0.00  0.00    -0.034 C 
ATOM      8  C   UNL d   1       0.803  -1.154   2.168  0.00  0.00     0.134 C 
ATOM      9  C   UNL d   1       0.763  -2.584   2.649  0.00  0.00     0.025 C 
ATOM     10  C   UNL d   1      -2.924  -3.621  -0.314  0.00  0.00     0.001 C 
ATOM     11  C   UNL d   1      -0.669  -3.052   2.639  0.00  0.00     0.042 C 
ATOM     12  C   UNL d   1      -2.356  -3.671   0.944  0.00  0.00     0.009 C 
ATOM     13  C   UNL d   1      -2.350  -2.799  -1.272  0.00  0.00     0.009 C 
ATOM     14  C   UNL d   1      -0.608  -1.333  -2.187  0.00  0.00     0.050 C 
ATOM     15  H   UNL d   1       1.753   0.947   1.677  0.00  0.00     0.170 HD
ENDROOT
BRANCH   4  16
ATOM     16  C   UNL d   1       2.387   1.943   0.008  0.00  0.00     0.036 A 
ATOM     17  C   UNL d   1       2.271   2.236  -1.351  0.00  0.00     0.032 A 
ATOM     18  C   UNL d   1       3.218   3.056  -1.982  0.00  0.00     0.039 A 
ATOM     19  C   UNL d   1       4.293   3.574  -1.260  0.00  0.00     0.068 A 
ATOM     20  C   UNL d   1       4.384   3.326   0.107  0.00  0.00     0.039 A 
ATOM     21  C   UNL d   1       3.439   2.511   0.737  0.00  0.00     0.032 A 
BRANCH  19  22
ATOM     22  O   UNL d   1       5.286   4.352  -1.789  0.00  0.00    -0.356 OA
ATOM     23  C   UNL d   1       5.677   3.988  -3.110  0.00  0.00     0.210 C 
ENDBRANCH  19  22
ENDBRANCH   4  16
TORSDOF 2
