REMARK  3 active torsions:
REMARK  status: ('A' for Active; 'I' for Inactive)
REMARK    1  A    between atoms: S_11  and  C_1 
REMARK    2  A    between atoms: C_14  and  S_11 
REMARK    3  A    between atoms: C_16  and  C_14 
ROOT
ATOM      1  C   UNL d   1      -2.403  -0.096   0.086  0.00  0.00     0.145 A 
ATOM      2  N   UNL d   1      -1.675  -1.086  -0.366  0.00  0.00    -0.335 N 
ATOM      3  HN  UNL d   1      -2.000  -1.947  -0.806  1.00  0.00     0.168 HD
ATOM      4  N   UNL d   1      -1.642   0.894   0.634  0.00  0.00    -0.335 N 
ATOM      5  C   UNL d   1      -0.371  -0.707  -0.116  0.00  0.00     0.062 A 
ATOM      6  C   UNL d   1      -0.329   0.526   0.528  0.00  0.00     0.062 A 
ATOM      7  C   UNL d   1       0.836  -1.359  -0.411  0.00  0.00     0.057 A 
ATOM      8  C   UNL d   1       0.854   1.157   0.919  0.00  0.00     0.057 A 
ATOM      9  C   UNL d   1       2.044  -0.748  -0.034  0.00  0.00     0.058 A 
ATOM     10  C   UNL d   1       2.052   0.490   0.627  0.00  0.00     0.058 A 
ATOM     11 CL   UNL d   1       3.510  -1.584  -0.420  0.00  0.00    -0.082 Cl
ATOM     12 CL   UNL d   1       3.518   1.266   1.120  0.00  0.00    -0.082 Cl
ATOM     13  H   UNL d   1      -2.007   1.748   1.030  0.00  0.00     0.168 HD
ENDROOT
BRANCH   1  14
ATOM     14  S   UNL d   1      -4.107   0.128   0.020  0.00  0.00    -0.089 SA
BRANCH  14  15
ATOM     15  C   UNL d   1      -4.729  -1.579   0.029  0.00  0.00     0.121 C 
BRANCH  15  16
ATOM     16  C   UNL d   1      -6.244  -1.580   0.017  0.00  0.00    -0.048 A 
ATOM     17  C   UNL d   1      -6.946  -1.579  -1.200  0.00  0.00     0.009 A 
ATOM     18  C   UNL d   1      -8.342  -1.516  -1.216  0.00  0.00     0.024 A 
ATOM     19  C   UNL d   1      -9.047  -1.451  -0.017  0.00  0.00     0.034 A 
ATOM     20  C   UNL d   1      -8.369  -1.453   1.200  0.00  0.00     0.024 A 
ATOM     21 CL   UNL d   1     -10.765  -1.353  -0.038  0.00  0.00    -0.084 Cl
ATOM     22  C   UNL d   1      -6.972  -1.516   1.217  0.00  0.00     0.009 A 
ENDBRANCH  15  16
ENDBRANCH  14  15
ENDBRANCH   1  14
TORSDOF 3
