REMARK  4 active torsions:
REMARK  status: ('A' for Active; 'I' for Inactive)
REMARK    1  A    between atoms: N_2  and  S_1 
REMARK    2  A    between atoms: C_3  and  S_1 
REMARK    3  A    between atoms: C_9  and  N_2 
REMARK       I    between atoms: C_8  and  N_11 
REMARK    4  A    between atoms: N_11  and  C_18 
ROOT
ATOM      1  S   UNL d   1       0.839   0.143   0.020  0.00  0.00     0.245 S 
ATOM      2  O   UNL d   1       0.249   1.091   0.938  0.00  0.00    -0.206 OA
ATOM      3  O   UNL d   1       2.278   0.103  -0.172  0.00  0.00    -0.206 OA
ENDROOT
BRANCH   1   4
ATOM      4  N   UNL d   1       0.189   0.339  -1.549  0.00  0.00    -0.181 NA
ATOM      5  H   UNL d   1       0.917   0.751  -2.135  0.00  0.00     0.146 HD
BRANCH   4   6
ATOM      6  C   UNL d   1      -1.086   0.976  -1.604  0.00  0.00     0.025 A 
ATOM      7  C   UNL d   1      -1.158   2.364  -1.488  0.00  0.00     0.064 A 
ATOM      8  C   UNL d   1      -2.375   2.943  -1.154  0.00  0.00     0.103 A 
ATOM      9  O   UNL d   1      -2.379   4.281  -0.858  0.00  0.00    -0.346 OA
ATOM     10  C   UNL d   1      -3.523   2.161  -1.010  0.00  0.00     0.102 A 
ATOM     11  C   UNL d   1      -3.172   4.439   0.320  0.00  0.00     0.202 C 
ATOM     12  C   UNL d   1      -4.597   3.948   0.081  0.00  0.00     0.202 C 
ATOM     13  O   UNL d   1      -4.703   2.651  -0.524  0.00  0.00    -0.346 OA
ATOM     14  C   UNL d   1      -3.471   0.796  -1.282  0.00  0.00     0.041 A 
ATOM     15  C   UNL d   1      -2.241   0.195  -1.551  0.00  0.00     0.027 A 
ENDBRANCH   4   6
ENDBRANCH   1   4
BRANCH   1  16
ATOM     16  C   UNL d   1       0.332  -1.491   0.494  0.00  0.00     0.075 A 
ATOM     17  C   UNL d   1       1.146  -2.588   0.204  0.00  0.00     0.027 A 
ATOM     18  C   UNL d   1       0.811  -3.856   0.699  0.00  0.00     0.031 A 
ATOM     19  C   UNL d   1      -0.330  -4.038   1.495  0.00  0.00     0.034 A 
ATOM     20  C   UNL d   1      -1.131  -2.928   1.779  0.00  0.00     0.031 A 
ATOM     21  C   UNL d   1      -0.804  -1.658   1.289  0.00  0.00     0.027 A 
BRANCH  19  22
ATOM     22  N   UNL d   1      -0.593  -5.340   1.981  0.00  0.00    -0.328 N 
ATOM     23  C   UNL d   1      -1.655  -5.730   2.777  0.00  0.00     0.218 C 
ATOM     24  O   UNL d   1      -2.568  -5.017   3.185  0.00  0.00    -0.274 OA
ATOM     25  C   UNL d   1      -1.642  -7.196   3.136  0.00  0.00     0.117 C 
ATOM     26  H   UNL d   1       0.074  -6.053   1.721  0.00  0.00     0.169 HD
ENDBRANCH  19  22
ENDBRANCH   1  16
TORSDOF 4
