REMARK  3 active torsions:
REMARK  status: ('A' for Active; 'I' for Inactive)
REMARK    1  A    between atoms: C_2  and  C_1 
REMARK       I    between atoms: N_4  and  C_1 
REMARK    2  A    between atoms: N_3  and  C_6 
REMARK    3  A    between atoms: C_13  and  N_4 
ROOT
ATOM      1  C   UNL d   1      -4.072   1.242  -0.764  0.00  0.00     0.030 A 
ATOM      2  C   UNL d   1      -3.325   0.911   0.376  0.00  0.00     0.031 A 
ATOM      3  C   UNL d   1      -3.332   1.466  -1.930  0.00  0.00     0.031 A 
ATOM      4  C   UNL d   1      -1.211   1.027  -0.830  0.00  0.00     0.035 A 
ATOM      5  C   UNL d   1      -1.936   1.355  -1.970  0.00  0.00     0.032 A 
ATOM      6  C   UNL d   1      -1.920   0.797   0.348  0.00  0.00     0.032 A 
ENDROOT
BRANCH   4   7
ATOM      7  N   UNL d   1       0.197   0.914  -0.812  0.00  0.00    -0.323 N 
ATOM      8  C   UNL d   1       1.072   1.252  -1.837  0.00  0.00     0.263 C 
ATOM      9  O   UNL d   1       0.718   1.742  -2.909  0.00  0.00    -0.267 OA
ATOM     10  H   UNL d   1       0.624   0.592   0.050  0.00  0.00     0.169 HD
BRANCH   8  11
ATOM     11  C   UNL d   1       2.490   1.020  -1.582  0.00  0.00     0.072 A 
ATOM     12  S   UNL d   1       3.092   0.309  -0.147  0.00  0.00    -0.097 SA
ATOM     13  C   UNL d   1       4.714   0.430  -0.687  0.00  0.00     0.050 A 
ATOM     14  C   UNL d   1       4.802   0.997  -1.938  0.00  0.00     0.009 A 
ATOM     15  C   UNL d   1       3.520   1.333  -2.453  0.00  0.00     0.025 A 
ENDBRANCH   8  11
ENDBRANCH   4   7
BRANCH   1  16
ATOM     16  N   UNL d   1      -5.450   1.336  -0.760  0.00  0.00    -0.381 N 
ATOM     17  C   UNL d   1      -6.225   1.692   0.429  0.00  0.00     0.123 C 
ATOM     18  C   UNL d   1      -7.185   0.553   0.771  0.00  0.00     0.020 C 
ATOM     19  C   UNL d   1      -8.062   0.189  -0.429  0.00  0.00     0.003 C 
ATOM     20  C   UNL d   1      -7.212  -0.094  -1.665  0.00  0.00     0.020 C 
ATOM     21  C   UNL d   1      -6.247   1.055  -1.960  0.00  0.00     0.123 C 
ENDBRANCH   1  16
TORSDOF 3
