REMARK  2 active torsions:
REMARK  status: ('A' for Active; 'I' for Inactive)
REMARK    1  A    between atoms: C_8  and  C_3 
REMARK    2  A    between atoms: C_10  and  C_7 
ROOT
ATOM      1  N   UNL d   1       1.560  -0.076   0.014  0.00  0.00    -0.331 N 
ATOM      2  HN  UNL d   1       2.505  -0.459  -0.008  1.00  0.00     0.168 HD
ATOM      3  C   UNL d   1       1.190   1.163   0.019  0.00  0.00     0.162 A 
ATOM      4  C   UNL d   1       0.365  -0.750   0.046  0.00  0.00     0.111 A 
ATOM      5  O   UNL d   1      -0.135   1.425   0.068  0.00  0.00    -0.256 OA
ATOM      6  C   UNL d   1      -0.769   0.220   0.088  0.00  0.00     0.316 A 
ATOM      7  C   UNL d   1       0.274  -2.085   0.017  0.00  0.00     0.047 C 
ATOM      8  O   UNL d   1      -1.968   0.035   0.127  0.00  0.00    -0.257 OA
ENDROOT
BRANCH   7   9
ATOM      9  C   UNL d   1      -0.973  -2.847   0.005  0.00  0.00    -0.032 A 
ATOM     10  C   UNL d   1      -1.586  -3.219   1.205  0.00  0.00     0.035 A 
ATOM     11  C   UNL d   1      -2.774  -3.949   1.175  0.00  0.00     0.034 A 
ATOM     12 CL   UNL d   1      -3.526  -4.414   2.652  0.00  0.00    -0.084 Cl
ATOM     13  C   UNL d   1      -3.356  -4.311  -0.039  0.00  0.00     0.024 A 
ATOM     14  C   UNL d   1      -2.746  -3.938  -1.237  0.00  0.00     0.003 A 
ATOM     15  C   UNL d   1      -1.557  -3.208  -1.215  0.00  0.00     0.011 A 
ENDBRANCH   7   9
BRANCH   3  16
ATOM     16  C   UNL d   1       2.060   2.346  -0.050  0.00  0.00     0.015 A 
ATOM     17  C   UNL d   1       3.446   2.165  -0.138  0.00  0.00     0.016 A 
ATOM     18  C   UNL d   1       4.288   3.272  -0.266  0.00  0.00     0.001 A 
ATOM     19  C   UNL d   1       3.748   4.558  -0.301  0.00  0.00     0.000 A 
ATOM     20  C   UNL d   1       2.371   4.742  -0.195  0.00  0.00     0.001 A 
ATOM     21  C   UNL d   1       1.525   3.640  -0.068  0.00  0.00     0.016 A 
ENDBRANCH   3  16
TORSDOF 2
