REMARK  3 active torsions:
REMARK  status: ('A' for Active; 'I' for Inactive)
REMARK    1  A    between atoms: C_7  and  C_3 
REMARK    2  A    between atoms: C_9  and  N_4 
REMARK       I    between atoms: N_8  and  C_7 
REMARK    3  A    between atoms: C_13  and  N_8 
ROOT
ATOM      1  C   UNL d   1      -0.764  -2.440  -0.109  0.00  0.00     0.274 C 
ATOM      2  N   UNL d   1       0.293  -3.334  -0.198  0.00  0.00    -0.322 N 
ATOM      3  O   UNL d   1      -1.950  -2.753  -0.021  0.00  0.00    -0.266 OA
ATOM      4  H   UNL d   1       1.212  -2.905  -0.143  0.00  0.00     0.169 HD
ENDROOT
BRANCH   1   5
ATOM      5  C   UNL d   1      -0.386  -1.016  -0.089  0.00  0.00     0.118 A 
ATOM      6  N   UNL d   1       0.871  -0.540  -0.173  0.00  0.00    -0.292 N 
ATOM      7  N   UNL d   1       0.736   0.823  -0.128  0.00  0.00    -0.287 N 
ATOM      8  HN  UNL d   1       1.734  -1.077  -0.253  1.00  0.00     0.187 HD
ATOM      9  C   UNL d   1      -0.588   1.210  -0.010  0.00  0.00     0.028 A 
ATOM     10  C   UNL d   1      -1.143   2.586   0.059  0.00  0.00     0.070 C 
ATOM     11  C   UNL d   1      -1.312   0.042   0.027  0.00  0.00     0.063 A 
BRANCH   7  12
ATOM     12  C   UNL d   1       1.950   1.673  -0.140  0.00  0.00     0.043 C 
ATOM     13  C   UNL d   1       3.238   0.830  -0.333  0.00  0.00     0.039 C 
ATOM     14  C   UNL d   1       1.921   2.685  -1.304  0.00  0.00     0.039 C 
ATOM     15  C   UNL d   1       2.095   2.403   1.211  0.00  0.00     0.039 C 
ENDBRANCH   7  12
ENDBRANCH   1   5
BRANCH   2  16
ATOM     16  C   UNL d   1       0.186  -4.745  -0.227  0.00  0.00     0.037 A 
ATOM     17  C   UNL d   1      -1.025  -5.417  -0.438  0.00  0.00     0.069 A 
ATOM     18  C   UNL d   1      -1.095  -6.810  -0.378  0.00  0.00     0.104 A 
ATOM     19  O   UNL d   1      -2.334  -7.370  -0.553  0.00  0.00    -0.346 OA
ATOM     20  C   UNL d   1       0.055  -7.562  -0.145  0.00  0.00     0.102 A 
ATOM     21  C   UNL d   1      -2.377  -8.691  -0.007  0.00  0.00     0.202 C 
ATOM     22  C   UNL d   1      -1.185  -9.504  -0.484  0.00  0.00     0.202 C 
ATOM     23  O   UNL d   1       0.056  -8.930  -0.051  0.00  0.00    -0.346 OA
ATOM     24  C   UNL d   1       1.275  -6.910   0.029  0.00  0.00     0.042 A 
ATOM     25  C   UNL d   1       1.342  -5.507  -0.021  0.00  0.00     0.032 A 
ENDBRANCH   2  16
TORSDOF 3
