REMARK  3 active torsions:
REMARK  status: ('A' for Active; 'I' for Inactive)
REMARK    1  A    between atoms: C_4  and  N_1 
REMARK    2  A    between atoms: C_7  and  C_3 
REMARK    3  A    between atoms: O_14  and  C_7 
ROOT
ATOM      1  N   UNL d   1      -0.046  -1.080   0.155  0.00  0.00    -0.346 N 
ATOM      2  C   UNL d   1       0.690  -0.022   0.665  0.00  0.00     0.221 C 
ATOM      3  C   UNL d   1      -1.108   0.878  -0.597  0.00  0.00     0.110 C 
ATOM      4  C   UNL d   1      -1.266  -0.630  -0.476  0.00  0.00     0.141 C 
ATOM      5  C   UNL d   1      -0.133   1.232   0.518  0.00  0.00     0.119 C 
ATOM      6  O   UNL d   1       1.789  -0.053   1.189  0.00  0.00    -0.273 OA
ENDROOT
BRANCH   1   7
ATOM      7  C   UNL d   1       0.426  -2.451  -0.033  0.00  0.00     0.095 C 
ATOM      8  C   UNL d   1       1.312  -3.042   1.091  0.00  0.00     0.064 C 
ATOM      9  C   UNL d   1       2.034  -4.126   0.346  0.00  0.00    -0.050 A 
ATOM     10  C   UNL d   1       2.744  -5.190   0.877  0.00  0.00     0.007 A 
ATOM     11  C   UNL d   1       1.976  -3.909  -1.034  0.00  0.00    -0.050 A 
ATOM     12  C   UNL d   1       3.386  -6.061  -0.006  0.00  0.00     0.001 A 
ATOM     13  C   UNL d   1       3.321  -5.851  -1.392  0.00  0.00     0.001 A 
ATOM     14  C   UNL d   1       2.617  -4.762  -1.916  0.00  0.00     0.007 A 
ATOM     15  C   UNL d   1       1.211  -2.661  -1.349  0.00  0.00     0.064 C 
ENDBRANCH   1   7
BRANCH   3  16
ATOM     16  C   UNL d   1      -0.559   1.281  -1.951  0.00  0.00     0.145 C 
ATOM     17  O   UNL d   1      -0.277   0.507  -2.851  0.00  0.00    -0.650 OA
BRANCH  16  18
ATOM     18  O   UNL d   1      -0.450   2.621  -2.105  0.00  0.00    -0.776 OA
ATOM     19  H   UNL d   1      -0.719   3.157  -1.336  0.00  0.00     0.167 HD
ENDBRANCH  16  18
ENDBRANCH   3  16
TORSDOF 3
