REMARK  6 active torsions:
REMARK  status: ('A' for Active; 'I' for Inactive)
REMARK    1  A    between atoms: C_2  and  O_21 
REMARK    2  A    between atoms: O_26  and  C_8 
REMARK    3  A    between atoms: O_15  and  C_9 
REMARK    4  A    between atoms: C_16  and  O_15 
REMARK    5  A    between atoms: C_17  and  O_20 
REMARK    6  A    between atoms: O_20  and  C_19 
ROOT
ATOM      1  C   UNL d   1       5.752   7.538   4.022  0.00  0.00    -0.006 C 
ATOM      2  C   UNL d   1       6.688   8.209   5.079  0.00  0.00     0.093 C 
ATOM      3  C   UNL d   1       7.921   7.881   2.459  0.00  0.00    -0.002 C 
ATOM      4  C   UNL d   1       7.438   7.571  -0.102  0.00  0.00    -0.013 C 
ATOM      5  C   UNL d   1       6.645   7.040   2.820  0.00  0.00     0.001 C 
ATOM      6  C   UNL d   1       7.962   8.479   1.044  0.00  0.00     0.001 C 
ATOM      7  C   UNL d   1       8.406   8.961   3.458  0.00  0.00     0.040 C 
ATOM      8  C   UNL d   1       7.358   9.453   4.465  0.00  0.00     0.153 C 
ATOM      9  C   UNL d   1       8.708   7.239  -0.928  0.00  0.00     0.140 C 
ATOM     10  C   UNL d   1       6.025   8.350   6.461  0.00  0.00     0.074 C 
ATOM     11  C   UNL d   1       6.751   6.292   0.410  0.00  0.00     0.012 C 
ATOM     12  C   UNL d   1       5.834   6.593   1.588  0.00  0.00     0.007 C 
ATOM     13  C   UNL d   1       4.974   6.305   4.609  0.00  0.00     0.015 C 
ATOM     14  C   UNL d   1       9.425   8.834   0.662  0.00  0.00     0.008 C 
ATOM     15  C   UNL d   1       9.556   8.496  -0.804  0.00  0.00     0.034 C 
ATOM     16  C   UNL d   1       5.657   6.938   7.006  0.00  0.00     0.135 C 
ATOM     17  C   UNL d   1       4.568   6.384   6.086  0.00  0.00     0.033 C 
ATOM     18  C   UNL d   1       4.667   8.538   3.534  0.00  0.00     0.019 C 
ATOM     19  C   UNL d   1       6.428   8.386  -0.946  0.00  0.00     0.018 C 
ENDROOT
BRANCH   9  20
ATOM     20  O   UNL d   1       8.442   6.994  -2.302  0.00  0.00    -0.316 OA
BRANCH  20  21
ATOM     21  C   UNL d   1       8.262   5.690  -2.649  0.00  0.00     0.255 C 
ATOM     22  O   UNL d   1       8.335   4.734  -1.905  0.00  0.00    -0.266 OA
ATOM     23  C   UNL d   1       7.954   5.588  -4.114  0.00  0.00     0.126 C 
ENDBRANCH  20  21
ENDBRANCH   9  20
BRANCH   8  24
ATOM     24  O   UNL d   1       8.052  10.198   5.472  0.00  0.00    -0.393 OA
ATOM     25  H   UNL d   1       8.601  10.857   5.009  0.00  0.00     0.210 HD
ENDBRANCH   8  24
BRANCH   2  26
ATOM     26  O   UNL d   1       7.824   7.364   5.323  0.00  0.00    -0.386 OA
ATOM     27  H   UNL d   1       8.357   7.846   5.989  0.00  0.00     0.210 HD
ENDBRANCH   2  26
BRANCH  16  28
ATOM     28  O   UNL d   1       6.891   6.159   7.166  0.00  0.00    -0.316 OA
BRANCH  28  29
ATOM     29  C   UNL d   1       7.108   4.960   6.568  0.00  0.00     0.255 C 
ATOM     30  O   UNL d   1       6.252   4.089   6.399  0.00  0.00    -0.266 OA
ATOM     31  C   UNL d   1       8.530   4.789   6.091  0.00  0.00     0.126 C 
ENDBRANCH  28  29
ENDBRANCH  16  28
TORSDOF 6
