REMARK  2 active torsions:
REMARK  status: ('A' for Active; 'I' for Inactive)
REMARK    1  A    between atoms: N_18  and  C_9 
REMARK    2  A    between atoms: N_16  and  N_18 
ROOT
ATOM      1  N   UNL d   1      -4.841  -0.196  -0.061  0.00  0.00    -0.131 N 
ATOM      2  H   UNL d   1      -5.651  -0.830  -0.056  0.00  0.00     0.205 HD
ENDROOT
BRANCH   1   3
ATOM      3  N   UNL d   1      -5.051   1.156  -0.065  0.00  0.00    -0.281 N 
ATOM      4  C   UNL d   1      -6.273   1.585  -0.067  0.00  0.00     0.129 A 
ATOM      5  C   UNL d   1      -7.580   0.787  -0.067  0.00  0.00     0.275 A 
ATOM      6  C   UNL d   1      -6.674   2.993  -0.070  0.00  0.00     0.024 A 
ATOM      7  N   UNL d   1      -8.591   1.725  -0.072  0.00  0.00    -0.321 N 
ATOM      8  O   UNL d   1      -7.661  -0.422  -0.062  0.00  0.00    -0.266 OA
ATOM      9  C   UNL d   1      -8.070   3.017  -0.073  0.00  0.00     0.049 A 
ATOM     10  H   UNL d   1      -9.572   1.482  -0.073  0.00  0.00     0.169 HD
ATOM     11  C   UNL d   1      -8.774   4.203  -0.077  0.00  0.00     0.049 A 
ATOM     12  C   UNL d   1      -8.027   5.386  -0.077  0.00  0.00     0.013 A 
ATOM     13  C   UNL d   1      -6.618   5.367  -0.072  0.00  0.00     0.020 A 
ATOM     14 BR   UNL d   1      -8.928   7.052  -0.082  0.00  0.00    -0.051 Br
ATOM     15  C   UNL d   1      -5.922   4.152  -0.069  0.00  0.00     0.017 A 
ATOM     16  HN  UNL d   1      -4.266   1.807  -0.067  1.00  0.00     0.188 HD
ENDBRANCH   1   3
BRANCH   1  17
ATOM     17  C   UNL d   1      -3.627  -0.813  -0.058  0.00  0.00     0.701 A 
ATOM     18  N   UNL d   1      -3.419  -2.120  -0.051  0.00  0.00    -0.172 N 
ATOM     19  C   UNL d   1      -2.064  -2.277  -0.052  0.00  0.00     0.160 A 
ATOM     20  HN  UNL d   1      -4.125  -2.856  -0.047  1.00  0.00     0.186 HD
ATOM     21  C   UNL d   1      -1.417  -1.078  -0.055  0.00  0.00     0.164 A 
ATOM     22  N   UNL d   1      -1.370  -3.468  -0.052  0.00  0.00    -0.287 N 
ATOM     23  C   UNL d   1       0.004  -0.967  -0.056  0.00  0.00     0.282 A 
ATOM     24  N   UNL d   1      -2.416  -0.135  -0.063  0.00  0.00    -0.177 N 
ATOM     25  O   UNL d   1       0.606   0.103  -0.059  0.00  0.00    -0.265 OA
ATOM     26  N   UNL d   1       0.658  -2.204  -0.052  0.00  0.00    -0.269 N 
ATOM     27  C   UNL d   1       0.028  -3.456  -0.050  0.00  0.00     0.332 A 
ATOM     28  C   UNL d   1       2.109  -2.158  -0.052  0.00  0.00     0.164 C 
ATOM     29  O   UNL d   1       0.675  -4.508  -0.047  0.00  0.00    -0.246 OA
ATOM     30  C   UNL d   1      -2.241   1.296  -0.084  0.00  0.00     0.176 C 
ATOM     31  C   UNL d   1      -2.034  -4.755  -0.051  0.00  0.00     0.163 C 
ENDBRANCH   1  17
TORSDOF 2
