REMARK  2 active torsions:
REMARK  status: ('A' for Active; 'I' for Inactive)
REMARK    1  A    between atoms: C_2  and  C_1 
REMARK       I    between atoms: N_6  and  C_2 
REMARK       I    between atoms: C_5  and  N_7 
REMARK    2  A    between atoms: C_11  and  C_5 
ROOT
ATOM      1  C   UNL d   1      -0.101   2.558  -0.154  0.00  0.00     0.258 C 
ATOM      2  C   UNL d   1      -5.212   4.873  -0.791  0.00  0.00     0.277 C 
ATOM      3  N   UNL d   1      -1.278   3.303  -0.209  0.00  0.00    -0.345 N 
ATOM      4  N   UNL d   1      -3.912   4.367  -0.623  0.00  0.00    -0.343 N 
ATOM      5  O   UNL d   1       0.176   1.872   0.828  0.00  0.00    -0.267 OA
ATOM      6  C   UNL d   1      -2.254   3.190   0.881  0.00  0.00     0.146 C 
ATOM      7  C   UNL d   1      -1.460   4.510  -1.010  0.00  0.00     0.146 C 
ATOM      8  C   UNL d   1      -3.704   3.304   0.372  0.00  0.00     0.146 C 
ATOM      9  C   UNL d   1      -2.859   4.527  -1.628  0.00  0.00     0.146 C 
ATOM     10  O   UNL d   1      -6.057   4.736   0.095  0.00  0.00    -0.265 OA
ENDROOT
BRANCH   1  11
ATOM     11  C   UNL d   1       0.807   2.601  -1.288  0.00  0.00     0.087 A 
ATOM     12  C   UNL d   1       0.523   2.527  -2.640  0.00  0.00     0.090 A 
ATOM     13  O   UNL d   1       1.679   2.599  -3.352  0.00  0.00    -0.242 OA
ATOM     14  C   UNL d   1      -0.697   2.366  -3.453  0.00  0.00     0.080 C 
ATOM     15  N   UNL d   1       2.751   2.643  -2.491  0.00  0.00    -0.265 N 
ATOM     16  C   UNL d   1       2.232   2.591  -1.258  0.00  0.00     0.047 A 
ATOM     17  HN  UNL d   1       3.738   2.704  -2.741  1.00  0.00     0.194 HD
ATOM     18  C   UNL d   1       3.134   2.540  -0.085  0.00  0.00     0.071 C 
ENDBRANCH   1  11
BRANCH   2  19
ATOM     19  C   UNL d   1      -5.515   5.593  -2.019  0.00  0.00     0.142 A 
ATOM     20  O   UNL d   1      -5.044   5.130  -3.223  0.00  0.00    -0.317 OA
ATOM     21  C   UNL d   1      -5.459   5.994  -4.183  0.00  0.00     0.143 A 
ATOM     22  C   UNL d   1      -6.213   7.000  -3.630  0.00  0.00     0.027 A 
ATOM     23  C   UNL d   1      -6.283   6.721  -2.242  0.00  0.00     0.045 A 
ENDBRANCH   2  19
TORSDOF 2
