REMARK  3 active torsions:
REMARK  status: ('A' for Active; 'I' for Inactive)
REMARK    1  A    between atoms: C_2  and  C_1 
REMARK       I    between atoms: N_3  and  C_1 
REMARK    2  A    between atoms: C_4  and  N_3 
REMARK    3  A    between atoms: S_15  and  C_5 
ROOT
ATOM      1  C   UNL d   1       1.069   0.331  -0.212  0.00  0.00     0.258 C 
ATOM      2  N   UNL d   1       0.417   0.681   0.964  0.00  0.00    -0.323 N 
ATOM      3  O   UNL d   1       2.102   0.837  -0.641  0.00  0.00    -0.267 OA
ATOM      4  H   UNL d   1      -0.348   0.090   1.271  0.00  0.00     0.169 HD
ENDROOT
BRANCH   1   5
ATOM      5  C   UNL d   1       0.430  -0.725  -1.024  0.00  0.00     0.064 A 
ATOM      6  C   UNL d   1       1.138  -1.768  -1.640  0.00  0.00     0.018 A 
ATOM      7  C   UNL d   1       0.445  -2.641  -2.488  0.00  0.00     0.036 A 
ATOM      8  C   UNL d   1      -0.914  -2.449  -2.680  0.00  0.00     0.089 A 
ATOM      9  N   UNL d   1      -1.621  -1.464  -2.090  0.00  0.00    -0.374 N 
ATOM     10  C   UNL d   1      -0.931  -0.617  -1.291  0.00  0.00     0.106 A 
ATOM     11  HN  UNL d   1      -2.624  -1.362  -2.238  1.00  0.00     0.164 HD
BRANCH   6  12
ATOM     12  S   UNL d   1       2.859  -2.156  -1.318  0.00  0.00    -0.133 SA
ATOM     13  C   UNL d   1       3.644  -1.238  -2.672  0.00  0.00     0.095 C 
ENDBRANCH   6  12
ENDBRANCH   1   5
BRANCH   2  14
ATOM     14  C   UNL d   1       0.818   1.704   1.858  0.00  0.00     0.038 A 
ATOM     15  C   UNL d   1       1.817   2.637   1.562  0.00  0.00     0.053 A 
ATOM     16  C   UNL d   1       2.217   3.575   2.515  0.00  0.00     0.037 A 
ATOM     17 CL   UNL d   1       3.473   4.691   2.137  0.00  0.00    -0.084 Cl
ATOM     18  C   UNL d   1       1.620   3.612   3.769  0.00  0.00     0.048 A 
ATOM     19  C   UNL d   1       0.595   2.715   4.051  0.00  0.00     0.037 A 
ATOM     20  C   UNL d   1       0.183   1.772   3.103  0.00  0.00     0.053 A 
ATOM     21 CL   UNL d   1      -0.164   2.756   5.596  0.00  0.00    -0.084 Cl
ENDBRANCH   2  14
TORSDOF 3
