REMARK  3 active torsions:
REMARK  status: ('A' for Active; 'I' for Inactive)
REMARK    1  A    between atoms: N_2  and  C_1 
REMARK    2  A    between atoms: C_4  and  N_2 
REMARK    3  A    between atoms: C_9  and  N_5 
ROOT
ATOM      1  C   UNL d   1      -1.895  -1.143  -0.161  0.00  0.00    -0.086 C 
ATOM      2  C   UNL d   1      -3.009  -0.710  -0.024  0.00  0.00     0.015 C 
ATOM      3  C   UNL d   1      -0.536  -1.706  -0.306  0.00  0.00     0.088 C 
ATOM      4  C   UNL d   1      -0.134  -1.779  -1.787  0.00  0.00     0.052 C 
ATOM      5  C   UNL d   1      -0.537  -3.146   0.246  0.00  0.00     0.052 C 
ENDROOT
BRANCH   3   6
ATOM      6  N   UNL d   1       0.413  -0.923   0.499  0.00  0.00    -0.348 N 
ATOM      7  C   UNL d   1       1.017   0.273   0.263  0.00  0.00     0.173 C 
ATOM      8  S   UNL d   1       2.316   0.659   1.251  0.00  0.00    -0.041 SA
ATOM      9  H   UNL d   1       0.805  -1.397   1.304  0.00  0.00     0.163 HD
BRANCH   7  10
ATOM     10  N   UNL d   1       0.486   1.054  -0.724  0.00  0.00    -0.333 N 
ATOM     11  H   UNL d   1      -0.521   1.128  -0.702  0.00  0.00     0.168 HD
BRANCH  10  12
ATOM     12  C   UNL d   1       1.182   1.931  -1.591  0.00  0.00     0.040 A 
ATOM     13  C   UNL d   1       0.567   3.082  -2.112  0.00  0.00    -0.035 A 
ATOM     14  C   UNL d   1       1.262   3.857  -3.065  0.00  0.00     0.015 A 
ATOM     15  C   UNL d   1      -0.790   3.577  -1.692  0.00  0.00     0.050 C 
ATOM     16  C   UNL d   1       2.550   3.512  -3.495  0.00  0.00    -0.061 A 
ATOM     17  C   UNL d   1       3.150   2.371  -2.967  0.00  0.00     0.009 A 
ATOM     18  C   UNL d   1       3.266   4.363  -4.501  0.00  0.00     0.048 C 
ATOM     19  C   UNL d   1       2.470   1.589  -2.031  0.00  0.00     0.030 A 
ENDBRANCH  10  12
ENDBRANCH   7  10
ENDBRANCH   3   6
TORSDOF 3
