REMARK  1 active torsions:
REMARK  status: ('A' for Active; 'I' for Inactive)
REMARK    1  A    between atoms: C_7  and  C_1 
ROOT
ATOM      1  C   UNL d   1      -1.853  -1.546  -0.052  0.00  0.00     0.090 A 
ATOM      2  C   UNL d   1      -2.318  -0.288  -0.001  0.00  0.00     0.093 A 
ATOM      3  O   UNL d   1      -0.503  -1.873  -0.023  0.00  0.00    -0.309 OA
ATOM      4  C   UNL d   1      -1.369   0.835   0.035  0.00  0.00     0.187 A 
ATOM      5  C   UNL d   1       0.058   0.490   0.016  0.00  0.00     0.048 A 
ATOM      6  C   UNL d   1       0.418  -0.854  -0.000  0.00  0.00     0.090 A 
ATOM      7  O   UNL d   1      -1.766   1.993   0.069  0.00  0.00    -0.287 OA
ATOM      8  C   UNL d   1       1.035   1.490   0.011  0.00  0.00     0.018 A 
ATOM      9  C   UNL d   1       1.767  -1.210  -0.004  0.00  0.00     0.038 A 
ATOM     10  C   UNL d   1       2.383   1.133  -0.002  0.00  0.00     0.001 A 
ATOM     11  C   UNL d   1       2.748  -0.215  -0.004  0.00  0.00     0.003 A 
ENDROOT
BRANCH   1  12
ATOM     12  C   UNL d   1      -2.761  -2.714  -0.142  0.00  0.00    -0.002 A 
ATOM     13  C   UNL d   1      -3.985  -2.641  -0.832  0.00  0.00     0.016 A 
ATOM     14  C   UNL d   1      -4.822  -3.757  -0.936  0.00  0.00     0.024 A 
ATOM     15  C   UNL d   1      -4.439  -4.965  -0.363  0.00  0.00     0.034 A 
ATOM     16  C   UNL d   1      -3.229  -5.065   0.316  0.00  0.00     0.024 A 
ATOM     17 CL   UNL d   1      -5.462  -6.340  -0.505  0.00  0.00    -0.084 Cl
ATOM     18  C   UNL d   1      -2.395  -3.946   0.424  0.00  0.00     0.016 A 
ENDBRANCH   1  12
TORSDOF 1
