REMARK  2 active torsions:
REMARK  status: ('A' for Active; 'I' for Inactive)
REMARK    1  A    between atoms: C_4  and  C_3 
REMARK       I    between atoms: N_7  and  C_4 
REMARK    2  A    between atoms: C_11  and  N_7 
ROOT
ATOM      1  C   UNL d   1       3.359  -0.021  -0.029  0.00  0.00     0.270 C 
ATOM      2  N   UNL d   1       3.875   1.204   0.337  0.00  0.00    -0.322 N 
ATOM      3  O   UNL d   1       3.962  -1.042  -0.327  0.00  0.00    -0.266 OA
ATOM      4  H   UNL d   1       3.184   1.900   0.606  0.00  0.00     0.169 HD
ENDROOT
BRANCH   1   5
ATOM      5  C   UNL d   1       1.834  -0.056  -0.062  0.00  0.00     0.094 C 
ATOM      6  N   UNL d   1       1.176   1.044   0.166  0.00  0.00    -0.297 N 
ATOM      7  N   UNL d   1      -0.184   0.992   0.048  0.00  0.00    -0.270 N 
ATOM      8  HN  UNL d   1       1.655   1.907   0.422  1.00  0.00     0.187 HD
ATOM      9  C   UNL d   1      -0.950  -0.137  -0.103  0.00  0.00     0.236 C 
ATOM     10  H   UNL d   1      -0.680   1.880   0.053  0.00  0.00     0.190 HD
ATOM     11  O   UNL d   1      -2.168  -0.074  -0.248  0.00  0.00    -0.272 OA
ATOM     12  C   UNL d   1      -0.222  -1.445   0.029  0.00  0.00     0.111 C 
ATOM     13  C   UNL d   1       1.197  -1.352  -0.479  0.00  0.00     0.073 C 
ENDBRANCH   1   5
BRANCH   2  14
ATOM     14  C   UNL d   1       5.232   1.581   0.348  0.00  0.00     0.035 A 
ATOM     15  C   UNL d   1       6.260   0.762  -0.135  0.00  0.00     0.032 A 
ATOM     16  C   UNL d   1       7.587   1.202  -0.126  0.00  0.00     0.044 A 
ATOM     17  C   UNL d   1       7.888   2.460   0.374  0.00  0.00     0.116 A 
ATOM     18  C   UNL d   1       6.886   3.287   0.862  0.00  0.00     0.044 A 
ATOM     19  F   UNL d   1       9.159   2.883   0.383  0.00  0.00    -0.206 F 
ATOM     20  C   UNL d   1       5.556   2.850   0.845  0.00  0.00     0.032 A 
ENDBRANCH   2  14
TORSDOF 2
