REMARK  4 active torsions:
REMARK  status: ('A' for Active; 'I' for Inactive)
REMARK    1  A    between atoms: C_2  and  S_1 
REMARK    2  A    between atoms: N_7  and  S_1 
REMARK    3  A    between atoms: C_15  and  N_7 
REMARK       I    between atoms: C_10  and  N_11 
REMARK    4  A    between atoms: N_11  and  C_16 
ROOT
ATOM      1  N   UNL d   1       0.266  -1.702   0.021  0.00  0.00    -0.181 NA
ATOM      2  H   UNL d   1       0.943  -1.656   0.784  0.00  0.00     0.146 HD
ENDROOT
BRANCH   1   3
ATOM      3  S   UNL d   1      -0.134  -0.117  -0.428  0.00  0.00     0.248 S 
ATOM      4  O   UNL d   1      -0.566   0.577   0.761  0.00  0.00    -0.205 OA
ATOM      5  O   UNL d   1       0.942   0.408  -1.245  0.00  0.00    -0.205 OA
BRANCH   3   6
ATOM      6  C   UNL d   1      -1.516  -0.103  -1.458  0.00  0.00     0.105 A 
ATOM      7  C   UNL d   1      -2.736  -0.651  -1.147  0.00  0.00     0.099 A 
ATOM      8  S   UNL d   1      -3.880  -0.474  -2.394  0.00  0.00    -0.064 SA
ATOM      9 CL   UNL d   1      -3.223  -1.475   0.283  0.00  0.00    -0.075 Cl
ATOM     10  C   UNL d   1      -2.763   0.364  -3.349  0.00  0.00     0.077 A 
ATOM     11  C   UNL d   1      -1.535   0.508  -2.756  0.00  0.00     0.058 A 
ATOM     12 CL   UNL d   1      -3.226   0.941  -4.898  0.00  0.00    -0.076 Cl
ENDBRANCH   3   6
ENDBRANCH   1   3
BRANCH   1  13
ATOM     13  C   UNL d   1       0.647  -2.585  -1.034  0.00  0.00     0.023 A 
ATOM     14  C   UNL d   1       1.958  -2.642  -1.504  0.00  0.00     0.026 A 
ATOM     15  C   UNL d   1       2.276  -3.481  -2.584  0.00  0.00     0.031 A 
ATOM     16  C   UNL d   1       1.283  -4.249  -3.211  0.00  0.00     0.034 A 
ATOM     17  C   UNL d   1      -0.021  -4.180  -2.720  0.00  0.00     0.031 A 
ATOM     18  C   UNL d   1      -0.337  -3.355  -1.641  0.00  0.00     0.026 A 
BRANCH  16  19
ATOM     19  N   UNL d   1       1.653  -5.045  -4.318  0.00  0.00    -0.328 N 
ATOM     20  C   UNL d   1       0.807  -5.812  -5.102  0.00  0.00     0.218 C 
ATOM     21  O   UNL d   1      -0.404  -5.952  -4.957  0.00  0.00    -0.274 OA
ATOM     22  C   UNL d   1       1.501  -6.511  -6.244  0.00  0.00     0.117 C 
ATOM     23  H   UNL d   1       2.631  -5.024  -4.577  0.00  0.00     0.169 HD
ENDBRANCH  16  19
ENDBRANCH   1  13
TORSDOF 4
