REMARK  7 active torsions:
REMARK  status: ('A' for Active; 'I' for Inactive)
REMARK    1  A    between atoms: S_10  and  C_4 
REMARK    2  A    between atoms: S_11  and  C_4 
REMARK    3  A    between atoms: C_6  and  C_7 
REMARK    4  A    between atoms: C_8  and  C_6 
REMARK    5  A    between atoms: C_9  and  S_11 
REMARK    6  A    between atoms: C_15  and  S_10 
REMARK    7  A    between atoms: C_17  and  C_15 
ROOT
ATOM      1  N   UNL d   1       1.022  -0.141   0.072  0.00  0.00    -0.282 N 
ATOM      2  HN  UNL d   1       0.601  -1.009   0.406  1.00  0.00     0.179 HD
ATOM      3  C   UNL d   1       0.242   0.830  -0.407  0.00  0.00     0.183 C 
ATOM      4  C   UNL d   1       2.308   0.008   0.116  0.00  0.00     0.121 C 
ATOM      5  N   UNL d   1      -0.475   1.647  -0.811  0.00  0.00    -0.172 NA
ENDROOT
BRANCH   4   6
ATOM      6  S   UNL d   1       3.193   1.433  -0.426  0.00  0.00    -0.100 SA
BRANCH   6   7
ATOM      7  C   UNL d   1       4.736   0.760  -1.106  0.00  0.00     0.120 C 
BRANCH   7   8
ATOM      8  C   UNL d   1       5.686   1.835  -1.594  0.00  0.00    -0.049 A 
ATOM      9  C   UNL d   1       6.610   2.418  -0.710  0.00  0.00     0.008 A 
ATOM     10  C   UNL d   1       7.524   3.375  -1.160  0.00  0.00     0.001 A 
ATOM     11  C   UNL d   1       7.523   3.768  -2.496  0.00  0.00     0.000 A 
ATOM     12  C   UNL d   1       6.604   3.208  -3.382  0.00  0.00     0.001 A 
ATOM     13  C   UNL d   1       5.688   2.249  -2.934  0.00  0.00     0.008 A 
ENDBRANCH   7   8
ENDBRANCH   6   7
ENDBRANCH   4   6
BRANCH   4  14
ATOM     14  S   UNL d   1       3.257  -1.310   0.816  0.00  0.00    -0.076 SA
BRANCH  14  15
ATOM     15  C   UNL d   1       2.228  -2.026   2.020  0.00  0.00     0.056 C 
ATOM     16  C   UNL d   1       2.643  -3.107   2.698  0.00  0.00     0.063 C 
BRANCH  16  17
ATOM     17  C   UNL d   1       1.777  -3.725   3.739  0.00  0.00     0.182 C 
ATOM     18  O   UNL d   1       0.889  -3.090   4.296  0.00  0.00    -0.288 OA
BRANCH  17  19
ATOM     19  C   UNL d   1       2.030  -5.148   4.104  0.00  0.00     0.015 A 
ATOM     20  C   UNL d   1       2.535  -6.068   3.176  0.00  0.00     0.034 A 
ATOM     21  C   UNL d   1       2.654  -7.413   3.531  0.00  0.00     0.011 A 
ATOM     22 BR   UNL d   1       3.285  -8.660   2.256  0.00  0.00    -0.051 Br
ATOM     23  C   UNL d   1       2.287  -7.854   4.801  0.00  0.00     0.019 A 
ATOM     24  C   UNL d   1       1.801  -6.938   5.734  0.00  0.00     0.002 A 
ATOM     25  C   UNL d   1       1.666  -5.590   5.385  0.00  0.00     0.015 A 
ENDBRANCH  17  19
ENDBRANCH  16  17
ENDBRANCH  14  15
ENDBRANCH   4  14
TORSDOF 7
