REMARK  6 active torsions:
REMARK  status: ('A' for Active; 'I' for Inactive)
REMARK    1  A    between atoms: O_5  and  C_1 
REMARK    2  A    between atoms: C_3  and  C_2 
REMARK    3  A    between atoms: C_6  and  C_3 
REMARK    4  A    between atoms: C_4  and  N_8 
REMARK    5  A    between atoms: C_14  and  O_5 
REMARK    6  A    between atoms: N_8  and  C_15 
ROOT
ATOM      1  N   UNL d   1       3.827  -3.987  -4.341  0.00  0.00    -0.366 N 
ATOM      2  H   UNL d   1       4.814  -4.189  -4.525  0.00  0.00     0.165 HD
ENDROOT
BRANCH   1   3
ATOM      3  C   UNL d   1       2.944  -4.763  -5.037  0.00  0.00     0.092 C 
ATOM      4  C   UNL d   1       3.200  -5.648  -6.007  0.00  0.00     0.072 C 
BRANCH   4   5
ATOM      5  C   UNL d   1       4.572  -5.903  -6.528  0.00  0.00     0.183 C 
ATOM      6  O   UNL d   1       5.576  -5.569  -5.904  0.00  0.00    -0.288 OA
BRANCH   5   7
ATOM      7  C   UNL d   1       4.688  -6.613  -7.831  0.00  0.00     0.014 A 
ATOM      8  C   UNL d   1       3.727  -6.467  -8.840  0.00  0.00     0.016 A 
ATOM      9  C   UNL d   1       3.875  -7.144 -10.053  0.00  0.00     0.007 A 
ATOM     10  C   UNL d   1       4.987  -7.963 -10.280  0.00  0.00    -0.062 A 
ATOM     11  C   UNL d   1       5.952  -8.096  -9.276  0.00  0.00     0.007 A 
ATOM     12  C   UNL d   1       5.126  -8.683 -11.590  0.00  0.00     0.048 C 
ATOM     13  C   UNL d   1       5.808  -7.420  -8.060  0.00  0.00     0.016 A 
ENDBRANCH   5   7
ENDBRANCH   4   5
ENDBRANCH   1   3
BRANCH   1  14
ATOM     14  C   UNL d   1       3.551  -2.965  -3.417  0.00  0.00     0.032 A 
ATOM     15  C   UNL d   1       4.522  -2.629  -2.470  0.00  0.00     0.032 A 
ATOM     16  C   UNL d   1       4.252  -1.690  -1.465  0.00  0.00     0.039 A 
ATOM     17  C   UNL d   1       3.002  -1.072  -1.380  0.00  0.00     0.078 A 
ATOM     18  C   UNL d   1       2.050  -1.355  -2.353  0.00  0.00     0.039 A 
ATOM     19  C   UNL d   1       2.316  -2.313  -3.344  0.00  0.00     0.032 A 
BRANCH  17  20
ATOM     20  O   UNL d   1       2.865  -0.222  -0.326  0.00  0.00    -0.255 OA
BRANCH  20  21
ATOM     21  C   UNL d   1       1.570   0.108   0.151  0.00  0.00     0.530 C 
ATOM     22  F   UNL d   1       0.616  -0.784  -0.190  0.00  0.00    -0.144 F 
ATOM     23  F   UNL d   1       1.215   1.329  -0.301  0.00  0.00    -0.144 F 
ATOM     24  F   UNL d   1       1.615   0.158   1.502  0.00  0.00    -0.144 F 
ENDBRANCH  20  21
ENDBRANCH  17  20
ENDBRANCH   1  14
TORSDOF 6
