REMARK  6 active torsions:
REMARK  status: ('A' for Active; 'I' for Inactive)
REMARK    1  A    between atoms: C_2  and  C_1 
REMARK       I    between atoms: N_5  and  C_2 
REMARK    2  A    between atoms: C_4  and  C_3 
REMARK    3  A    between atoms: C_11  and  N_5 
REMARK    4  A    between atoms: C_21  and  N_5 
REMARK    5  A    between atoms: O_20  and  C_10 
REMARK    6  A    between atoms: C_13  and  C_11 
ROOT
ATOM      1  C   UNL d   1       0.219   1.233   0.341  0.00  0.00     0.062 A 
ATOM      2  C   UNL d   1       0.216   0.270   1.358  0.00  0.00     0.069 A 
ATOM      3  C   UNL d   1      -0.569   1.002  -0.784  0.00  0.00     0.108 A 
ATOM      4  N   UNL d   1      -1.428  -0.036  -0.915  0.00  0.00    -0.346 N 
ATOM      5  HN  UNL d   1      -2.018  -0.142  -1.740  1.00  0.00     0.167 HD
ATOM      6  C   UNL d   1      -0.658  -0.826   1.216  0.00  0.00     0.073 A 
ATOM      7  C   UNL d   1      -1.464  -0.920   0.097  0.00  0.00     0.142 A 
ENDROOT
BRANCH   1   8
ATOM      8  C   UNL d   1       1.075   2.439   0.341  0.00  0.00     0.256 C 
ATOM      9  N   UNL d   1       0.504   3.713   0.152  0.00  0.00    -0.344 N 
ATOM     10  O   UNL d   1       2.276   2.241   0.478  0.00  0.00    -0.267 OA
BRANCH   9  11
ATOM     11  C   UNL d   1       1.436   4.854   0.180  0.00  0.00     0.164 C 
BRANCH  11  12
ATOM     12  C   UNL d   1       1.268   5.896  -0.907  0.00  0.00    -0.039 A 
ATOM     13  C   UNL d   1       1.398   7.257  -0.577  0.00  0.00     0.032 A 
ATOM     14  C   UNL d   1       1.292   8.242  -1.560  0.00  0.00     0.034 A 
ATOM     15 CL   UNL d   1       1.447   9.900  -1.129  0.00  0.00    -0.084 Cl
ATOM     16  C   UNL d   1       1.067   7.889  -2.887  0.00  0.00     0.024 A 
ATOM     17  C   UNL d   1       0.959   6.542  -3.232  0.00  0.00     0.002 A 
ATOM     18  C   UNL d   1       1.071   5.550  -2.251  0.00  0.00     0.009 A 
ENDBRANCH  11  12
ENDBRANCH   9  11
BRANCH   9  19
ATOM     19  C   UNL d   1      -0.947   3.967   0.037  0.00  0.00     0.122 C 
ATOM     20  C   UNL d   1      -1.486   5.179   0.780  0.00  0.00     0.026 C 
ENDBRANCH   9  19
ENDBRANCH   1   8
BRANCH   2  21
ATOM     21  C   UNL d   1       1.076   0.300   2.591  0.00  0.00     0.418 C 
ATOM     22  F   UNL d   1       1.806   1.420   2.808  0.00  0.00    -0.166 F 
ATOM     23  F   UNL d   1       0.315   0.157   3.719  0.00  0.00    -0.166 F 
ATOM     24  F   UNL d   1       1.952  -0.746   2.623  0.00  0.00    -0.166 F 
ENDBRANCH   2  21
BRANCH   7  25
ATOM     25  O   UNL d   1      -2.330  -1.992   0.049  0.00  0.00    -0.341 OA
ATOM     26  C   UNL d   1      -3.268  -1.895  -1.019  0.00  0.00     0.211 C 
ENDBRANCH   7  25
TORSDOF 6
