REMARK  6 active torsions:
REMARK  status: ('A' for Active; 'I' for Inactive)
REMARK    1  A    between atoms: C_8  and  C_1 
REMARK    2  A    between atoms: S_11  and  C_5 
REMARK    3  A    between atoms: C_9  and  N_10 
REMARK       I    between atoms: N_10  and  C_12 
REMARK    4  A    between atoms: C_19  and  S_11 
REMARK    5  A    between atoms: C_12  and  C_19 
REMARK    6  A    between atoms: O_24  and  C_13 
ROOT
ATOM      1  C   UNL d   1       4.216  -4.480  -0.154  0.00  0.00     0.185 C 
ENDROOT
BRANCH   1   2
ATOM      2  C   UNL d   1       2.732  -4.121  -0.187  0.00  0.00     0.232 C 
ATOM      3  N   UNL d   1       1.907  -5.236  -0.360  0.00  0.00    -0.324 N 
ATOM      4  H   UNL d   1       2.332  -6.141  -0.260  0.00  0.00     0.169 HD
ATOM      5  O   UNL d   1       2.320  -2.973  -0.045  0.00  0.00    -0.272 OA
BRANCH   3   6
ATOM      6  C   UNL d   1       0.494  -5.149  -0.268  0.00  0.00     0.069 A 
ATOM      7  C   UNL d   1      -0.299  -6.077   0.429  0.00  0.00     0.095 A 
ATOM      8  C   UNL d   1      -1.683  -5.837   0.523  0.00  0.00     0.039 A 
ATOM      9  C   UNL d   1      -2.286  -4.728  -0.075  0.00  0.00     0.009 A 
ATOM     10  C   UNL d   1      -1.516  -3.837  -0.813  0.00  0.00    -0.060 A 
ATOM     11  C   UNL d   1      -0.139  -4.064  -0.911  0.00  0.00     0.039 A 
ATOM     12  C   UNL d   1      -2.150  -2.652  -1.480  0.00  0.00     0.048 C 
BRANCH   7  13
ATOM     13  O   UNL d   1       0.039  -7.202   1.126  0.00  0.00    -0.354 OA
ATOM     14  C   UNL d   1       1.385  -7.584   1.320  0.00  0.00     0.210 C 
ENDBRANCH   7  13
ENDBRANCH   3   6
ENDBRANCH   1   2
BRANCH   1  15
ATOM     15  S   UNL d   1       5.195  -3.083   0.483  0.00  0.00    -0.083 SA
BRANCH  15  16
ATOM     16  C   UNL d   1       6.799  -3.585   0.121  0.00  0.00     0.163 A 
ATOM     17  N   UNL d   1       7.906  -2.808   0.352  0.00  0.00    -0.312 N 
ATOM     18  C   UNL d   1       8.968  -3.512  -0.172  0.00  0.00     0.209 A 
ATOM     19  C   UNL d   1       7.902  -1.536   1.045  0.00  0.00     0.160 C 
ATOM     20  N   UNL d   1       8.516  -4.682  -0.594  0.00  0.00    -0.279 N 
ATOM     21  N   UNL d   1       7.157  -4.717  -0.414  0.00  0.00    -0.278 N 
ATOM     22  HN  UNL d   1       9.083  -5.433  -0.988  1.00  0.00     0.188 HD
ATOM     23  HN  UNL d   1       6.537  -5.490  -0.657  1.00  0.00     0.189 HD
BRANCH  18  24
ATOM     24  C   UNL d   1      10.385  -3.057  -0.276  0.00  0.00     0.450 C 
ATOM     25  F   UNL d   1      10.580  -1.769   0.109  0.00  0.00    -0.163 F 
ATOM     26  F   UNL d   1      11.218  -3.808   0.491  0.00  0.00    -0.163 F 
ATOM     27  F   UNL d   1      10.845  -3.135  -1.553  0.00  0.00    -0.163 F 
ENDBRANCH  18  24
ENDBRANCH  15  16
ENDBRANCH   1  15
TORSDOF 6
