REMARK  7 active torsions:
REMARK  status: ('A' for Active; 'I' for Inactive)
REMARK    1  A    between atoms: N_4  and  C_1 
REMARK    2  A    between atoms: N_5  and  C_1 
REMARK    3  A    between atoms: C_9  and  N_4 
REMARK    4  A    between atoms: C_13  and  N_5 
REMARK    5  A    between atoms: O_14  and  C_15 
REMARK    6  A    between atoms: C_17  and  O_14 
REMARK    7  A    between atoms: C_22  and  C_17 
ROOT
ATOM      1  N   UNL d   1       0.186  -0.059  -1.160  0.00  0.00    -0.333 N 
ATOM      2  H   UNL d   1       0.655  -0.537  -1.920  0.00  0.00     0.168 HD
ENDROOT
BRANCH   1   3
ATOM      3  C   UNL d   1       0.987   0.041  -0.024  0.00  0.00     0.176 C 
ATOM      4  S   UNL d   1       0.473  -0.157   1.561  0.00  0.00    -0.041 SA
BRANCH   3   5
ATOM      5  N   UNL d   1       2.295   0.328  -0.426  0.00  0.00    -0.333 N 
ATOM      6  H   UNL d   1       2.334   1.046  -1.141  0.00  0.00     0.168 HD
BRANCH   5   7
ATOM      7  C   UNL d   1       3.483   0.109   0.296  0.00  0.00     0.035 A 
ATOM      8  C   UNL d   1       4.517   1.049   0.168  0.00  0.00     0.043 A 
ATOM      9  C   UNL d   1       5.706   0.871   0.905  0.00  0.00    -0.006 A 
ATOM     10  C   UNL d   1       6.895   1.636   1.064  0.00  0.00     0.030 A 
ATOM     11  C   UNL d   1       5.843  -0.268   1.696  0.00  0.00     0.042 A 
ATOM     12  C   UNL d   1       7.713   0.962   1.943  0.00  0.00     0.089 A 
ATOM     13  N   UNL d   1       7.072  -0.190   2.312  0.00  0.00    -0.365 N 
ATOM     14  H   UNL d   1       7.433  -0.880   2.956  0.00  0.00     0.165 HD
ATOM     15  C   UNL d   1       4.855  -1.250   1.784  0.00  0.00     0.033 A 
ATOM     16  C   UNL d   1       3.672  -1.038   1.069  0.00  0.00     0.032 A 
ENDBRANCH   5   7
ENDBRANCH   3   5
ENDBRANCH   1   3
BRANCH   1  17
ATOM     17  C   UNL d   1      -1.218  -0.004  -1.240  0.00  0.00     0.034 A 
ATOM     18  C   UNL d   1      -1.979   0.888  -0.484  0.00  0.00     0.032 A 
ATOM     19  C   UNL d   1      -3.365   0.944  -0.647  0.00  0.00     0.039 A 
ATOM     20  C   UNL d   1      -3.998   0.119  -1.575  0.00  0.00     0.069 A 
ATOM     21  C   UNL d   1      -3.241  -0.789  -2.316  0.00  0.00     0.039 A 
ATOM     22  C   UNL d   1      -1.852  -0.828  -2.172  0.00  0.00     0.032 A 
BRANCH  20  23
ATOM     23  O   UNL d   1      -5.353   0.285  -1.681  0.00  0.00    -0.347 OA
BRANCH  23  24
ATOM     24  C   UNL d   1      -5.919  -0.149  -2.920  0.00  0.00     0.214 C 
BRANCH  24  25
ATOM     25  C   UNL d   1      -7.239   0.531  -3.198  0.00  0.00    -0.034 A 
ATOM     26  C   UNL d   1      -7.557   1.786  -2.662  0.00  0.00     0.009 A 
ATOM     27  C   UNL d   1      -8.745   2.426  -3.013  0.00  0.00     0.001 A 
ATOM     28  C   UNL d   1      -9.623   1.826  -3.914  0.00  0.00     0.000 A 
ATOM     29  C   UNL d   1      -9.317   0.581  -4.460  0.00  0.00     0.001 A 
ATOM     30  C   UNL d   1      -8.131  -0.062  -4.106  0.00  0.00     0.009 A 
ENDBRANCH  24  25
ENDBRANCH  23  24
ENDBRANCH  20  23
ENDBRANCH   1  17
TORSDOF 7
