REMARK  3 active torsions:
REMARK  status: ('A' for Active; 'I' for Inactive)
REMARK    1  A    between atoms: C_10  and  C_4 
REMARK    2  A    between atoms: C_11  and  C_6 
REMARK       I    between atoms: N_12  and  C_10 
REMARK       I    between atoms: C_14  and  N_12 
REMARK       I    between atoms: N_15  and  C_14 
REMARK    3  A    between atoms: C_22  and  N_15 
ROOT
ATOM      1  N   UNL d   1       0.321   0.914  -0.317  0.00  0.00    -0.314 N 
ATOM      2  N   UNL d   1      -0.845  -0.941   0.076  0.00  0.00    -0.335 N 
ATOM      3  HN  UNL d   1      -1.090  -1.916   0.247  1.00  0.00     0.168 HD
ATOM      4  C   UNL d   1      -1.727   0.128  -0.032  0.00  0.00     0.113 A 
ATOM      5  C   UNL d   1       0.368  -0.454  -0.086  0.00  0.00     0.134 A 
ATOM      6  C   UNL d   1       2.682   1.166  -0.402  0.00  0.00     0.065 A 
ATOM      7  C   UNL d   1      -1.002   1.281  -0.285  0.00  0.00     0.132 A 
ATOM      8  C   UNL d   1       1.449   1.714  -0.481  0.00  0.00     0.114 A 
ATOM      9  C   UNL d   1       1.664  -1.046  -0.036  0.00  0.00     0.079 A 
ATOM     10  C   UNL d   1       2.765  -0.283  -0.182  0.00  0.00     0.045 A 
ATOM     11 CL   UNL d   1       1.797  -2.741   0.240  0.00  0.00    -0.080 Cl
ENDROOT
BRANCH   4  12
ATOM     12  C   UNL d   1      -3.175  -0.053   0.183  0.00  0.00     0.257 C 
ATOM     13  N   UNL d   1      -3.960   1.062   0.393  0.00  0.00    -0.174 NA
ATOM     14  C   UNL d   1      -4.107   2.041  -0.564  0.00  0.00     0.305 C 
ATOM     15  H   UNL d   1      -4.864   0.757   0.722  0.00  0.00     0.141 HD
ATOM     16  N   UNL d   1      -4.871   3.093  -0.074  0.00  0.00    -0.313 N 
ATOM     17  O   UNL d   1      -3.556   2.007  -1.659  0.00  0.00    -0.253 OA
ATOM     18  H   UNL d   1      -5.027   3.078   0.926  0.00  0.00     0.170 HD
ATOM     19  O   UNL d   1      -3.705  -1.155   0.302  0.00  0.00    -0.272 OA
BRANCH  16  20
ATOM     20  C   UNL d   1      -4.920   4.362  -0.690  0.00  0.00     0.035 A 
ATOM     21  C   UNL d   1      -4.785   4.539  -2.070  0.00  0.00     0.031 A 
ATOM     22  C   UNL d   1      -4.616   5.817  -2.603  0.00  0.00     0.026 A 
ATOM     23  C   UNL d   1      -4.599   6.921  -1.757  0.00  0.00     0.034 A 
ATOM     24  C   UNL d   1      -4.825   6.764  -0.391  0.00  0.00     0.026 A 
ATOM     25 CL   UNL d   1      -4.264   8.482  -2.394  0.00  0.00    -0.084 Cl
ATOM     26  C   UNL d   1      -5.012   5.484   0.141  0.00  0.00     0.031 A 
ENDBRANCH  16  20
ENDBRANCH   4  12
BRANCH   6  27
ATOM     27  C   UNL d   1       3.944   1.980  -0.469  0.00  0.00     0.418 C 
ATOM     28  F   UNL d   1       5.050   1.269  -0.141  0.00  0.00    -0.166 F 
ATOM     29  F   UNL d   1       4.149   2.486  -1.710  0.00  0.00    -0.166 F 
ATOM     30  F   UNL d   1       3.893   3.037   0.383  0.00  0.00    -0.166 F 
ENDBRANCH   6  27
TORSDOF 3
