REMARK  7 active torsions:
REMARK  status: ('A' for Active; 'I' for Inactive)
REMARK    1  A    between atoms: C_2  and  C_1 
REMARK       I    between atoms: N_4  and  C_2 
REMARK    2  A    between atoms: C_5  and  C_3 
REMARK    3  A    between atoms: C_6  and  N_4 
REMARK    4  A    between atoms: S_14  and  C_10 
REMARK    5  A    between atoms: C_12  and  C_21 
REMARK    6  A    between atoms: O_22  and  C_12 
REMARK    7  A    between atoms: C_21  and  S_14 
ROOT
ATOM      1  C   UNL d   1       0.866   1.175  -0.364  0.00  0.00     0.062 A 
ATOM      2  C   UNL d   1       1.575  -0.003  -0.087  0.00  0.00     0.067 A 
ATOM      3  C   UNL d   1      -0.495   1.018  -0.646  0.00  0.00     0.106 A 
ATOM      4  N   UNL d   1      -1.186  -0.154  -0.587  0.00  0.00    -0.360 N 
ATOM      5  HN  UNL d   1      -2.182  -0.194  -0.804  1.00  0.00     0.166 HD
ATOM      6  C   UNL d   1      -0.503  -1.254  -0.231  0.00  0.00     0.070 A 
ATOM      7  C   UNL d   1       0.860  -1.221   0.004  0.00  0.00     0.054 A 
ENDROOT
BRANCH   1   8
ATOM      8  C   UNL d   1       1.334   2.603  -0.345  0.00  0.00     0.258 C 
ATOM      9  N   UNL d   1       2.336   2.947   0.546  0.00  0.00    -0.322 N 
ATOM     10  H   UNL d   1       3.061   2.260   0.696  0.00  0.00     0.169 HD
ATOM     11  O   UNL d   1       0.759   3.402  -1.080  0.00  0.00    -0.267 OA
BRANCH   9  12
ATOM     12  C   UNL d   1       2.738   4.279   0.848  0.00  0.00     0.046 A 
ATOM     13  C   UNL d   1       1.834   5.258   1.321  0.00  0.00    -0.035 A 
ATOM     14  C   UNL d   1       2.340   6.493   1.784  0.00  0.00     0.009 A 
ATOM     15  C   UNL d   1       0.346   5.088   1.459  0.00  0.00     0.050 C 
ATOM     16  C   UNL d   1       3.703   6.762   1.799  0.00  0.00     0.001 A 
ATOM     17  C   UNL d   1       4.588   5.813   1.310  0.00  0.00     0.009 A 
ATOM     18  C   UNL d   1       4.123   4.583   0.812  0.00  0.00    -0.035 A 
ATOM     19  C   UNL d   1       5.169   3.689   0.202  0.00  0.00     0.050 C 
ENDBRANCH   9  12
ENDBRANCH   1   8
BRANCH   2  20
ATOM     20  C   UNL d   1       3.054  -0.119   0.099  0.00  0.00     0.418 C 
ATOM     21  F   UNL d   1       3.746   1.008  -0.189  0.00  0.00    -0.166 F 
ATOM     22  F   UNL d   1       3.385  -0.431   1.381  0.00  0.00    -0.166 F 
ATOM     23  F   UNL d   1       3.607  -1.090  -0.678  0.00  0.00    -0.166 F 
ENDBRANCH   2  20
BRANCH   6  24
ATOM     24  S   UNL d   1      -1.397  -2.768   0.038  0.00  0.00    -0.102 SA
BRANCH  24  25
ATOM     25  C   UNL d   1      -2.750  -2.549  -1.158  0.00  0.00     0.191 C 
BRANCH  25  26
ATOM     26  C   UNL d   1      -2.230  -2.507  -2.583  0.00  0.00     0.268 C 
ATOM     27  O   UNL d   1      -1.197  -3.023  -2.982  0.00  0.00    -0.264 OA
BRANCH  26  28
ATOM     28  O   UNL d   1      -3.127  -1.857  -3.380  0.00  0.00    -0.326 OA
ATOM     29  C   UNL d   1      -2.708  -1.756  -4.741  0.00  0.00     0.213 C 
ENDBRANCH  26  28
ENDBRANCH  25  26
ENDBRANCH  24  25
ENDBRANCH   6  24
TORSDOF 7
