REMARK  4 active torsions:
REMARK  status: ('A' for Active; 'I' for Inactive)
REMARK    1  A    between atoms: C_17  and  C_2 
REMARK    2  A    between atoms: N_8  and  C_3 
REMARK    3  A    between atoms: C_4  and  C_5 
REMARK       I    between atoms: C_5  and  N_12 
REMARK    4  A    between atoms: N_12  and  C_17 
ROOT
ATOM      1  C   UNL d   1       5.911  -0.603  -0.019  0.00  0.00     0.253 C 
ATOM      2  N   UNL d   1       5.383  -0.087  -1.185  0.00  0.00    -0.352 N 
ATOM      3  O   UNL d   1       6.022   0.041   1.015  0.00  0.00    -0.268 OA
ATOM      4  H   UNL d   1       5.565  -0.557  -2.063  0.00  0.00     0.163 HD
ENDROOT
BRANCH   1   5
ATOM      5  C   UNL d   1       6.376  -2.005  -0.077  0.00  0.00     0.047 A 
ATOM      6  C   UNL d   1       7.407  -2.434   0.748  0.00  0.00     0.106 A 
ATOM      7  N   UNL d   1       7.922  -3.694   0.733  0.00  0.00    -0.351 N 
ATOM      8  C   UNL d   1       7.367  -4.599  -0.102  0.00  0.00     0.103 A 
ATOM      9  HN  UNL d   1       8.705  -3.948   1.335  1.00  0.00     0.166 HD
ATOM     10  C   UNL d   1       6.298  -4.244  -0.930  0.00  0.00     0.049 A 
ATOM     11  C   UNL d   1       5.803  -2.942  -0.929  0.00  0.00     0.022 A 
BRANCH   8  12
ATOM     12  N   UNL d   1       7.921  -5.859  -0.245  0.00  0.00    -0.363 N 
ATOM     13  C   UNL d   1       9.290  -6.080   0.235  0.00  0.00     0.150 C 
ATOM     14  C   UNL d   1       9.854  -7.282  -0.550  0.00  0.00     0.187 C 
ATOM     15  O   UNL d   1       9.039  -8.461  -0.377  0.00  0.00    -0.388 OA
ATOM     16  C   UNL d   1       7.683  -8.213  -0.794  0.00  0.00     0.187 C 
ATOM     17  C   UNL d   1       7.062  -7.033  -0.027  0.00  0.00     0.150 C 
ENDBRANCH   8  12
ENDBRANCH   1   5
BRANCH   2  18
ATOM     18  C   UNL d   1       4.941   1.287  -1.239  0.00  0.00     0.169 C 
BRANCH  18  19
ATOM     19  C   UNL d   1       4.392   1.567  -2.600  0.00  0.00     0.002 A 
ATOM     20  S   UNL d   1       5.383   2.266  -3.803  0.00  0.00    -0.092 SA
ATOM     21  C   UNL d   1       4.107   2.304  -4.959  0.00  0.00     0.015 A 
ATOM     22  C   UNL d   1       2.930   1.765  -4.434  0.00  0.00    -0.018 A 
ATOM     23  C   UNL d   1       4.167   2.801  -6.276  0.00  0.00     0.019 A 
ATOM     24  C   UNL d   1       1.784   1.724  -5.266  0.00  0.00     0.013 A 
ATOM     25  C   UNL d   1       3.115   1.340  -3.075  0.00  0.00     0.029 A 
ATOM     26  C   UNL d   1       1.839   2.217  -6.574  0.00  0.00     0.001 A 
ATOM     27  C   UNL d   1       3.020   2.751  -7.071  0.00  0.00     0.001 A 
ENDBRANCH  18  19
ENDBRANCH   2  18
TORSDOF 4
