REMARK  4 active torsions:
REMARK  status: ('A' for Active; 'I' for Inactive)
REMARK    1  A    between atoms: N_12  and  C_2 
REMARK    2  A    between atoms: C_7  and  C_5 
REMARK    3  A    between atoms: C_6  and  N_9 
REMARK    4  A    between atoms: C_8  and  C_7 
REMARK       I    between atoms: N_9  and  C_8 
ROOT
ATOM      1  C   UNL d   1      -4.637  -2.166  -1.334  0.00  0.00     0.223 C 
ATOM      2  N   UNL d   1      -3.621  -2.256  -0.398  0.00  0.00    -0.326 N 
ATOM      3  O   UNL d   1      -5.564  -1.368  -1.324  0.00  0.00    -0.273 OA
ATOM      4  H   UNL d   1      -3.332  -3.212  -0.219  0.00  0.00     0.169 HD
ENDROOT
BRANCH   1   5
ATOM      5  C   UNL d   1      -4.441  -3.189  -2.444  0.00  0.00     0.128 C 
BRANCH   5   6
ATOM      6  C   UNL d   1      -5.705  -3.868  -2.917  0.00  0.00     0.156 C 
ATOM      7  C   UNL d   1      -6.721  -2.951  -3.553  0.00  0.00     0.238 C 
ATOM      8  N   UNL d   1      -7.987  -3.227  -3.136  0.00  0.00    -0.307 N 
ATOM      9  O   UNL d   1      -6.469  -2.121  -4.418  0.00  0.00    -0.272 OA
ATOM     10  C   UNL d   1      -8.134  -4.182  -2.196  0.00  0.00     0.141 C 
ATOM     11  H   UNL d   1      -8.759  -2.708  -3.524  0.00  0.00     0.171 HD
ATOM     12  S   UNL d   1      -6.614  -4.802  -1.648  0.00  0.00    -0.079 SA
BRANCH  10  13
ATOM     13  N   UNL d   1      -9.261  -4.597  -1.762  0.00  0.00    -0.380 N 
ATOM     14  H   UNL d   1     -10.026  -4.102  -2.222  0.00  0.00     0.158 HD
ATOM     15  HN  UNL d   1      -9.381  -5.322  -1.055  1.00  0.00     0.158 HD
ENDBRANCH  10  13
ENDBRANCH   5   6
ENDBRANCH   1   5
BRANCH   2  16
ATOM     16  C   UNL d   1      -3.497  -1.418   0.734  0.00  0.00     0.046 C 
ATOM     17  C   UNL d   1      -3.632  -2.015   2.002  0.00  0.00    -0.034 C 
ATOM     18  C   UNL d   1      -3.052  -1.394   3.118  0.00  0.00     0.015 C 
ATOM     19  C   UNL d   1      -4.416  -3.281   2.224  0.00  0.00     0.050 C 
ATOM     20  C   UNL d   1      -2.350  -0.196   2.986  0.00  0.00    -0.061 C 
ATOM     21  C   UNL d   1      -2.351   0.455   1.744  0.00  0.00     0.015 C 
ATOM     22  C   UNL d   1      -1.631   0.388   4.165  0.00  0.00     0.048 C 
ATOM     23  C   UNL d   1      -2.935  -0.136   0.608  0.00  0.00    -0.034 C 
ATOM     24  C   UNL d   1      -2.804   0.576  -0.710  0.00  0.00     0.050 C 
ENDBRANCH   2  16
TORSDOF 4
