REMARK  2 active torsions:
REMARK  status: ('A' for Active; 'I' for Inactive)
REMARK    1  A    between atoms: C_7  and  C_12 
REMARK    2  A    between atoms: N_8  and  N_11 
ROOT
ATOM      1  C   UNL d   1      -2.100  -0.769  -0.088  0.00  0.00     0.164 A 
ATOM      2  N   UNL d   1      -1.063  -1.563   0.070  0.00  0.00    -0.334 N 
ATOM      3  HN  UNL d   1      -1.117  -2.576   0.182  1.00  0.00     0.168 HD
ATOM      4  S   UNL d   1      -1.711   0.905  -0.249  0.00  0.00    -0.051 SA
ATOM      5  C   UNL d   1       0.113  -0.828   0.064  0.00  0.00     0.051 A 
ATOM      6  C   UNL d   1      -0.042   0.547  -0.104  0.00  0.00     0.035 A 
ATOM      7  N   UNL d   1      -3.378  -1.231  -0.123  0.00  0.00    -0.280 N 
ATOM      8  C   UNL d   1       1.416  -1.346   0.207  0.00  0.00     0.031 A 
ATOM      9  C   UNL d   1       1.054   1.425  -0.137  0.00  0.00     0.021 A 
ATOM     10  C   UNL d   1       2.517  -0.482   0.174  0.00  0.00     0.002 A 
ATOM     11  C   UNL d   1       2.336   0.886   0.003  0.00  0.00     0.002 A 
ATOM     12  H   UNL d   1      -3.480  -2.235  -0.003  0.00  0.00     0.189 HD
ENDROOT
BRANCH   7  13
ATOM     13  N   UNL d   1      -4.465  -0.418  -0.232  0.00  0.00    -0.309 N 
ATOM     14  C   UNL d   1      -5.628  -0.987  -0.246  0.00  0.00     0.126 C 
ATOM     15  HN  UNL d   1      -4.368   0.595  -0.301  1.00  0.00     0.186 HD
BRANCH  14  16
ATOM     16  C   UNL d   1      -6.809  -0.165  -0.347  0.00  0.00     0.021 A 
ATOM     17  S   UNL d   1      -8.355  -0.889  -0.344  0.00  0.00    -0.101 SA
ATOM     18  C   UNL d   1      -9.134   0.632  -0.464  0.00  0.00     0.050 A 
ATOM     19  C   UNL d   1      -8.234   1.672  -0.512  0.00  0.00     0.008 A 
ATOM     20  C   UNL d   1      -6.888   1.210  -0.446  0.00  0.00     0.021 A 
ENDBRANCH  14  16
ENDBRANCH   7  13
TORSDOF 2
