REMARK  2 active torsions:
REMARK  status: ('A' for Active; 'I' for Inactive)
REMARK    1  A    between atoms: N_15  and  C_1 
REMARK    2  A    between atoms: C_2  and  C_6 
REMARK       I    between atoms: C_6  and  N_14 
ROOT
ATOM      1  C   UNL d   1      -3.398   1.685   3.639  0.00  0.00     0.254 C 
ATOM      2  N   UNL d   1      -2.244   2.093   2.954  0.00  0.00    -0.345 N 
ATOM      3  N   UNL d   1      -0.050   2.688   1.042  0.00  0.00     0.105 N 
ATOM      4  C   UNL d   1      -0.983   1.350   2.958  0.00  0.00     0.156 C 
ATOM      5  C   UNL d   1      -2.442   3.115   1.922  0.00  0.00     0.156 C 
ATOM      6  C   UNL d   1      -1.191   3.605   1.147  0.00  0.00     0.293 C 
ATOM      7  C   UNL d   1       0.203   2.115   2.371  0.00  0.00     0.293 C 
ATOM      8  O   UNL d   1      -4.443   2.332   3.624  0.00  0.00    -0.267 OA
ENDROOT
BRANCH   1   9
ATOM      9  C   UNL d   1      -3.396   0.421   4.428  0.00  0.00     0.034 A 
ATOM     10  C   UNL d   1      -3.906   0.485   5.741  0.00  0.00     0.049 A 
ATOM     11  C   UNL d   1      -3.916  -0.733   6.461  0.00  0.00     0.067 A 
ATOM     12  N   UNL d   1      -4.361  -0.906   7.715  0.00  0.00    -0.310 N 
ATOM     13  C   UNL d   1      -3.402  -2.008   5.840  0.00  0.00     0.067 A 
ATOM     14  S   UNL d   1      -4.141  -2.513   8.078  0.00  0.00     0.068 SA
ATOM     15  HN  UNL d   1      -4.756  -0.191   8.326  1.00  0.00     0.176 HD
ATOM     16  N   UNL d   1      -3.461  -3.064   6.665  0.00  0.00    -0.310 N 
ATOM     17  HN  UNL d   1      -3.150  -4.015   6.465  1.00  0.00     0.176 HD
ATOM     18  C   UNL d   1      -2.927  -2.027   4.509  0.00  0.00     0.033 A 
ATOM     19  C   UNL d   1      -2.982  -0.798   3.825  0.00  0.00     0.019 A 
ENDBRANCH   1   9
BRANCH   3  20
ATOM     20  C   UNL d   1      -0.050   1.775  -0.123  0.00  0.00     0.290 C 
ATOM     21  C   UNL d   1      -1.261   0.865  -0.339  0.00  0.00    -0.009 C 
ATOM     22  C   UNL d   1      -0.892  -0.492  -0.197  0.00  0.00    -0.017 C 
ATOM     23  C   UNL d   1      -2.551   1.200  -0.720  0.00  0.00     0.010 C 
ATOM     24  C   UNL d   1      -1.843  -1.498  -0.272  0.00  0.00     0.013 C 
ATOM     25  C   UNL d   1       0.543  -0.572  -0.037  0.00  0.00    -0.017 A 
ATOM     26  C   UNL d   1      -3.167  -1.146  -0.543  0.00  0.00     0.001 C 
ATOM     27  C   UNL d   1      -3.514   0.190  -0.791  0.00  0.00     0.001 C 
ATOM     28  C   UNL d   1       1.079   0.736  -0.055  0.00  0.00    -0.009 A 
ATOM     29  C   UNL d   1       1.374  -1.674   0.075  0.00  0.00     0.013 A 
ATOM     30  C   UNL d   1       2.449   0.951   0.017  0.00  0.00     0.010 A 
ATOM     31  C   UNL d   1       3.285  -0.161   0.135  0.00  0.00     0.001 A 
ATOM     32  C   UNL d   1       2.752  -1.461   0.167  0.00  0.00     0.001 A 
ENDBRANCH   3  20
TORSDOF 2
