REMARK  7 active torsions:
REMARK  status: ('A' for Active; 'I' for Inactive)
REMARK    1  A    between atoms: C_8  and  N_1 
REMARK    2  A    between atoms: C_5  and  C_2 
REMARK    3  A    between atoms: C_11  and  C_4 
REMARK    4  A    between atoms: O_18  and  C_5 
REMARK    5  A    between atoms: C_7  and  N_13 
REMARK    6  A    between atoms: N_9  and  C_11 
REMARK    7  A    between atoms: N_13  and  N_9 
ROOT
ATOM      1  N   UNL d   1       1.000  -0.758   0.020  0.00  0.00    -0.305 N 
ATOM      2  C   UNL d   1      -0.337  -1.174   0.025  0.00  0.00     0.116 A 
ATOM      3  C   UNL d   1      -1.133  -0.042  -0.054  0.00  0.00     0.039 A 
ATOM      4  C   UNL d   1       1.016   0.640  -0.004  0.00  0.00     0.057 A 
ATOM      5  C   UNL d   1      -0.296   1.082  -0.020  0.00  0.00     0.034 A 
ENDROOT
BRANCH   4   6
ATOM      6  C   UNL d   1       2.180   1.496  -0.080  0.00  0.00     0.137 C 
BRANCH   6   7
ATOM      7  N   UNL d   1       2.141   2.687   0.420  0.00  0.00    -0.307 N 
ATOM      8  HN  UNL d   1       1.303   3.067   0.861  1.00  0.00     0.186 HD
BRANCH   7   9
ATOM      9  N   UNL d   1       3.303   3.403   0.316  0.00  0.00    -0.277 N 
ATOM     10  H   UNL d   1       4.106   3.026  -0.181  0.00  0.00     0.189 HD
BRANCH   9  11
ATOM     11  C   UNL d   1       3.436   4.629   0.906  0.00  0.00     0.184 C 
ATOM     12  S   UNL d   1       4.842   5.503   0.819  0.00  0.00    -0.040 SA
ATOM     13  N   UNL d   1       2.351   5.077   1.578  0.00  0.00    -0.375 N 
ATOM     14  H   UNL d   1       1.524   4.492   1.568  0.00  0.00     0.158 HD
ATOM     15  H   UNL d   1       2.346   5.974   2.041  0.00  0.00     0.158 HD
ENDBRANCH   9  11
ENDBRANCH   7   9
ENDBRANCH   6   7
ENDBRANCH   4   6
BRANCH   1  16
ATOM     16  C   UNL d   1       2.153  -1.612   0.028  0.00  0.00     0.040 A 
ATOM     17  C   UNL d   1       2.139  -2.835  -0.661  0.00  0.00     0.033 A 
ATOM     18  C   UNL d   1       3.243  -3.690  -0.611  0.00  0.00     0.044 A 
ATOM     19  C   UNL d   1       4.373  -3.311   0.099  0.00  0.00     0.116 A 
ATOM     20  C   UNL d   1       4.419  -2.093   0.765  0.00  0.00     0.044 A 
ATOM     21  F   UNL d   1       5.431  -4.131   0.146  0.00  0.00    -0.206 F 
ATOM     22  C   UNL d   1       3.306  -1.246   0.742  0.00  0.00     0.033 A 
ENDBRANCH   1  16
BRANCH   2  23
ATOM     23  C   UNL d   1      -0.810  -2.531   0.196  0.00  0.00     0.310 C 
ATOM     24  O   UNL d   1      -0.269  -3.408   0.858  0.00  0.00    -0.258 OA
BRANCH  23  25
ATOM     25  O   UNL d   1      -1.953  -2.710  -0.526  0.00  0.00    -0.321 OA
ATOM     26  C   UNL d   1      -2.439  -4.053  -0.512  0.00  0.00     0.213 C 
ENDBRANCH  23  25
ENDBRANCH   2  23
TORSDOF 7
