REMARK  6 active torsions:
REMARK  status: ('A' for Active; 'I' for Inactive)
REMARK    1  A    between atoms: C_9  and  C_6 
REMARK    2  A    between atoms: O_13  and  C_7 
REMARK    3  A    between atoms: C_22  and  O_13 
REMARK    4  A    between atoms: C_15  and  C_22 
REMARK    5  A    between atoms: O_23  and  C_15 
REMARK    6  A    between atoms: C_26  and  O_23 
ROOT
ATOM      1  C   UNL d   1       0.856  -0.290  -0.000  0.00  0.00     0.052 A 
ATOM      2  N   UNL d   1       1.545  -1.462  -0.010  0.00  0.00    -0.335 N 
ATOM      3  HN  UNL d   1       1.057  -2.357  -0.019  1.00  0.00     0.168 HD
ATOM      4  C   UNL d   1       1.504   0.955  -0.005  0.00  0.00    -0.015 A 
ATOM      5  C   UNL d   1       3.628  -0.226   0.018  0.00  0.00     0.109 A 
ATOM      6  C   UNL d   1       2.931   0.994  -0.013  0.00  0.00     0.031 A 
ATOM      7  C   UNL d   1       2.895  -1.405  -0.007  0.00  0.00     0.165 A 
ATOM      8  C   UNL d   1      -0.620  -0.401   0.013  0.00  0.00    -0.003 A 
ATOM      9  C   UNL d   1       5.060  -0.308   0.093  0.00  0.00     0.105 C 
ATOM     10  N   UNL d   1       6.215  -0.359   0.153  0.00  0.00    -0.191 NA
ATOM     11  C   UNL d   1       0.684   2.222   0.049  0.00  0.00     0.046 C 
ATOM     12  C   UNL d   1      -1.427   0.750  -0.008  0.00  0.00    -0.045 A 
ATOM     13  C   UNL d   1      -0.832   2.123  -0.092  0.00  0.00     0.044 C 
ATOM     14  C   UNL d   1      -1.278  -1.647   0.037  0.00  0.00     0.014 A 
ATOM     15  C   UNL d   1      -2.832   0.648  -0.003  0.00  0.00     0.008 A 
ATOM     16  C   UNL d   1      -2.675  -1.745   0.034  0.00  0.00     0.001 A 
ATOM     17  C   UNL d   1      -3.453  -0.595   0.017  0.00  0.00     0.001 A 
ENDROOT
BRANCH   6  18
ATOM     18  C   UNL d   1       3.668   2.270  -0.097  0.00  0.00     0.087 A 
ATOM     19  O   UNL d   1       3.125   3.337   0.566  0.00  0.00    -0.322 OA
ATOM     20  C   UNL d   1       3.902   4.420   0.321  0.00  0.00     0.142 A 
ATOM     21  C   UNL d   1       4.982   4.068  -0.448  0.00  0.00     0.027 A 
ATOM     22  C   UNL d   1       4.832   2.686  -0.721  0.00  0.00     0.040 A 
ENDBRANCH   6  18
BRANCH   7  23
ATOM     23  O   UNL d   1       3.601  -2.595   0.003  0.00  0.00    -0.325 OA
BRANCH  23  24
ATOM     24  C   UNL d   1       2.894  -3.690  -0.563  0.00  0.00     0.288 C 
BRANCH  24  25
ATOM     25  C   UNL d   1       2.554  -3.553  -2.044  0.00  0.00     0.283 C 
ATOM     26  O   UNL d   1       2.859  -2.613  -2.765  0.00  0.00    -0.263 OA
BRANCH  25  27
ATOM     27  O   UNL d   1       1.809  -4.632  -2.427  0.00  0.00    -0.320 OA
BRANCH  27  28
ATOM     28  C   UNL d   1       1.035  -4.448  -3.620  0.00  0.00     0.174 C 
ATOM     29  C   UNL d   1      -0.313  -3.891  -3.201  0.00  0.00     0.034 C 
ENDBRANCH  27  28
ENDBRANCH  25  27
ENDBRANCH  24  25
ENDBRANCH  23  24
ENDBRANCH   7  23
TORSDOF 6
