REMARK  8 active torsions:
REMARK  status: ('A' for Active; 'I' for Inactive)
REMARK    1  A    between atoms: C_13  and  C_1 
REMARK    2  A    between atoms: C_17  and  C_2 
REMARK    3  A    between atoms: C_4  and  C_8 
REMARK    4  A    between atoms: C_5  and  C_9 
REMARK    5  A    between atoms: C_10  and  N_21 
REMARK    6  A    between atoms: N_14  and  C_10 
REMARK    7  A    between atoms: C_12  and  N_14 
REMARK    8  A    between atoms: N_21  and  N_15 
ROOT
ATOM      1  N   UNL d   1      -1.197  -3.341  -0.328  0.00  0.00    -0.309 N 
ATOM      2  HN  UNL d   1      -0.198  -3.181  -0.197  1.00  0.00     0.186 HD
ATOM      3  C   UNL d   1      -2.062  -2.394  -0.527  0.00  0.00     0.121 C 
ENDROOT
BRANCH   1   4
ATOM      4  N   UNL d   1      -1.783  -4.588  -0.315  0.00  0.00    -0.276 N 
ATOM      5  H   UNL d   1      -1.167  -5.318  -0.665  0.00  0.00     0.189 HD
BRANCH   4   6
ATOM      6  C   UNL d   1      -2.587  -5.029   0.724  0.00  0.00     0.191 C 
ATOM      7  S   UNL d   1      -2.801  -4.286   2.209  0.00  0.00    -0.039 SA
BRANCH   6   8
ATOM      8  N   UNL d   1      -3.220  -6.229   0.516  0.00  0.00    -0.332 N 
ATOM      9  H   UNL d   1      -3.553  -6.660   1.373  0.00  0.00     0.168 HD
BRANCH   8  10
ATOM     10  C   UNL d   1      -3.715  -6.782  -0.683  0.00  0.00     0.035 A 
ATOM     11  C   UNL d   1      -4.170  -8.102  -0.636  0.00  0.00     0.045 A 
ATOM     12  C   UNL d   1      -4.753  -8.712  -1.761  0.00  0.00     0.050 A 
ATOM     13  C   UNL d   1      -4.901  -7.962  -2.938  0.00  0.00     0.032 A 
ATOM     14  C   UNL d   1      -4.478  -6.625  -2.996  0.00  0.00     0.050 A 
ATOM     15  C   UNL d   1      -3.872  -6.051  -1.864  0.00  0.00     0.045 A 
BRANCH  12  16
ATOM     16  C   UNL d   1      -5.217 -10.146  -1.677  0.00  0.00     0.417 C 
ATOM     17  F   UNL d   1      -5.837 -10.584  -2.806  0.00  0.00    -0.166 F 
ATOM     18  F   UNL d   1      -4.188 -11.008  -1.453  0.00  0.00    -0.166 F 
ATOM     19  F   UNL d   1      -6.101 -10.344  -0.661  0.00  0.00    -0.166 F 
ENDBRANCH  12  16
BRANCH  14  20
ATOM     20  C   UNL d   1      -4.711  -5.781  -4.228  0.00  0.00     0.417 C 
ATOM     21  F   UNL d   1      -5.263  -6.470  -5.263  0.00  0.00    -0.166 F 
ATOM     22  F   UNL d   1      -5.548  -4.734  -3.985  0.00  0.00    -0.166 F 
ATOM     23  F   UNL d   1      -3.562  -5.233  -4.710  0.00  0.00    -0.166 F 
ENDBRANCH  14  20
ENDBRANCH   8  10
ENDBRANCH   6   8
ENDBRANCH   4   6
ENDBRANCH   1   4
BRANCH   3  24
ATOM     24  C   UNL d   1      -1.696  -0.995  -0.543  0.00  0.00     0.021 A 
ATOM     25  C   UNL d   1      -2.475  -0.013  -1.153  0.00  0.00     0.055 A 
ATOM     26  N   UNL d   1      -1.918   1.198  -0.811  0.00  0.00    -0.354 N 
ATOM     27  C   UNL d   1      -0.768   1.028  -0.082  0.00  0.00     0.043 A 
ATOM     28  H   UNL d   1      -2.279   2.098  -1.096  0.00  0.00     0.166 HD
ATOM     29  C   UNL d   1       0.099   1.985   0.459  0.00  0.00     0.030 A 
ATOM     30  C   UNL d   1      -0.567  -0.345   0.050  0.00  0.00     0.004 A 
ATOM     31  C   UNL d   1       1.232   1.524   1.131  0.00  0.00     0.002 A 
ATOM     32  C   UNL d   1       1.487   0.160   1.251  0.00  0.00     0.001 A 
ATOM     33  C   UNL d   1       0.592  -0.782   0.729  0.00  0.00     0.014 A 
BRANCH  25  34
ATOM     34  C   UNL d   1      -3.641  -0.108  -2.037  0.00  0.00    -0.008 A 
ATOM     35  C   UNL d   1      -4.716   0.782  -1.923  0.00  0.00     0.015 A 
ATOM     36  C   UNL d   1      -5.799   0.708  -2.802  0.00  0.00     0.024 A 
ATOM     37  C   UNL d   1      -5.823  -0.267  -3.798  0.00  0.00     0.034 A 
ATOM     38  C   UNL d   1      -4.771  -1.169  -3.921  0.00  0.00     0.024 A 
ATOM     39 CL   UNL d   1      -7.150  -0.347  -4.888  0.00  0.00    -0.084 Cl
ATOM     40  C   UNL d   1      -3.680  -1.084  -3.050  0.00  0.00     0.015 A 
ENDBRANCH  25  34
ENDBRANCH   3  24
TORSDOF 8
