REMARK  3 active torsions:
REMARK  status: ('A' for Active; 'I' for Inactive)
REMARK       I    between atoms: N_4  and  C_1 
REMARK       I    between atoms: N_5  and  C_1 
REMARK    1  A    between atoms: C_8  and  N_4 
REMARK    2  A    between atoms: C_9  and  N_5 
REMARK    3  A    between atoms: O_14  and  C_6 
ROOT
ATOM      1  C   UNL d   1       1.065  -0.003   0.093  0.00  0.00     0.325 C 
ATOM      2  N   UNL d   1       0.483  -1.259   0.039  0.00  0.00    -0.307 N 
ATOM      3  N   UNL d   1       0.183   0.984  -0.319  0.00  0.00    -0.309 N 
ATOM      4  O   UNL d   1       2.215   0.208   0.450  0.00  0.00    -0.247 OA
ATOM      5  H   UNL d   1      -0.342  -1.347  -0.533  0.00  0.00     0.170 HD
ATOM      6  H   UNL d   1      -0.799   0.786  -0.189  0.00  0.00     0.170 HD
ENDROOT
BRANCH   2   7
ATOM      7  C   UNL d   1       1.126  -2.457   0.428  0.00  0.00     0.051 A 
ATOM      8  C   UNL d   1       2.288  -2.513   1.199  0.00  0.00     0.119 A 
ATOM      9  N   UNL d   1       2.929  -3.658   1.538  0.00  0.00    -0.345 N 
ATOM     10  C   UNL d   1       2.394  -4.808   1.091  0.00  0.00     0.141 A 
ATOM     11  HN  UNL d   1       3.777  -3.647   2.105  1.00  0.00     0.167 HD
ATOM     12  C   UNL d   1       1.226  -4.868   0.348  0.00  0.00     0.058 A 
ATOM     13  C   UNL d   1       0.581  -3.674   0.019  0.00  0.00     0.035 A 
BRANCH  10  14
ATOM     14  O   UNL d   1       3.021  -6.005   1.370  0.00  0.00    -0.341 OA
ATOM     15  C   UNL d   1       4.257  -5.827   2.059  0.00  0.00     0.211 C 
ENDBRANCH  10  14
ENDBRANCH   2   7
BRANCH   3  16
ATOM     16  C   UNL d   1       0.537   2.329  -0.572  0.00  0.00     0.036 A 
ATOM     17  C   UNL d   1       1.856   2.733  -0.817  0.00  0.00     0.032 A 
ATOM     18  C   UNL d   1       2.159   4.076  -1.053  0.00  0.00     0.044 A 
ATOM     19  C   UNL d   1       1.139   5.015  -1.055  0.00  0.00     0.116 A 
ATOM     20  C   UNL d   1      -0.180   4.633  -0.838  0.00  0.00     0.044 A 
ATOM     21  F   UNL d   1       1.428   6.304  -1.275  0.00  0.00    -0.206 F 
ATOM     22  C   UNL d   1      -0.484   3.288  -0.604  0.00  0.00     0.032 A 
ENDBRANCH   3  16
TORSDOF 3
