REMARK  6 active torsions:
REMARK  status: ('A' for Active; 'I' for Inactive)
REMARK    1  A    between atoms: C_2  and  S_1 
REMARK    2  A    between atoms: N_14  and  S_1 
REMARK    3  A    between atoms: C_13  and  C_3 
REMARK    4  A    between atoms: C_4  and  C_15 
REMARK    5  A    between atoms: O_19  and  C_13 
REMARK    6  A    between atoms: C_15  and  N_14 
ROOT
ATOM      1  S   UNL d   1       0.889   0.006  -0.022  0.00  0.00     0.264 S 
ATOM      2  O   UNL d   1       0.649  -1.060   0.928  0.00  0.00    -0.204 OA
ATOM      3  O   UNL d   1       2.181   0.635  -0.177  0.00  0.00    -0.204 OA
ENDROOT
BRANCH   1   4
ATOM      4  C   UNL d   1      -0.236   1.306   0.510  0.00  0.00     0.186 A 
ATOM      5  C   UNL d   1      -1.377   1.226   1.299  0.00  0.00     0.071 A 
ATOM      6  C   UNL d   1      -1.903   2.539   1.467  0.00  0.00     0.072 A 
ATOM      7  C   UNL d   1      -1.048   3.361   0.758  0.00  0.00     0.067 A 
ATOM      8  O   UNL d   1      -0.064   2.629   0.161  0.00  0.00    -0.301 OA
ATOM      9  C   UNL d   1      -0.997   4.826   0.545  0.00  0.00     0.078 C 
BRANCH   6  10
ATOM     10  C   UNL d   1      -3.074   2.961   2.221  0.00  0.00     0.295 C 
ATOM     11  O   UNL d   1      -3.441   4.124   2.314  0.00  0.00    -0.259 OA
BRANCH  10  12
ATOM     12  O   UNL d   1      -3.711   1.898   2.795  0.00  0.00    -0.322 OA
ATOM     13  C   UNL d   1      -4.878   2.245   3.543  0.00  0.00     0.213 C 
ENDBRANCH  10  12
ENDBRANCH   6  10
ENDBRANCH   1   4
BRANCH   1  14
ATOM     14  N   UNL d   1       0.352  -0.545  -1.517  0.00  0.00    -0.210 NA
ATOM     15  H   UNL d   1      -0.648  -0.738  -1.529  0.00  0.00     0.140 HD
BRANCH  14  16
ATOM     16  C   UNL d   1       0.834   0.198  -2.683  0.00  0.00     0.147 C 
BRANCH  16  17
ATOM     17  C   UNL d   1       0.249  -0.418  -3.915  0.00  0.00     0.003 A 
ATOM     18  C   UNL d   1       0.328  -1.737  -4.354  0.00  0.00     0.033 A 
ATOM     19  N   UNL d   1      -0.329  -1.772  -5.559  0.00  0.00    -0.300 N 
ATOM     20  C   UNL d   1       0.994  -2.903  -3.712  0.00  0.00     0.070 C 
ATOM     21  C   UNL d   1      -0.511  -2.869  -6.480  0.00  0.00     0.177 C 
ATOM     22  N   UNL d   1      -0.834  -0.578  -5.919  0.00  0.00    -0.303 N 
ATOM     23  C   UNL d   1      -0.469   0.253  -4.942  0.00  0.00     0.031 A 
ATOM     24  HN  UNL d   1      -1.377  -0.358  -6.754  1.00  0.00     0.186 HD
ATOM     25  C   UNL d   1      -0.808   1.695  -5.035  0.00  0.00     0.070 C 
ENDBRANCH  16  17
ENDBRANCH  14  16
ENDBRANCH   1  14
TORSDOF 6
