REMARK  6 active torsions:
REMARK  status: ('A' for Active; 'I' for Inactive)
REMARK    1  A    between atoms: N_2  and  C_1 
REMARK       I    between atoms: C_6  and  N_2 
REMARK    2  A    between atoms: C_8  and  N_2 
REMARK    3  A    between atoms: C_19  and  C_6 
REMARK    4  A    between atoms: N_7  and  C_18 
REMARK    5  A    between atoms: C_9  and  C_11 
REMARK    6  A    between atoms: C_10  and  C_12 
ROOT
ATOM      1  N   UNL d   1      -3.334  -1.435  -0.093  0.00  0.00    -0.258 N 
ATOM      2  C   UNL d   1      -3.475  -2.828   0.044  0.00  0.00     0.264 C 
ATOM      3  O   UNL d   1      -4.429  -3.382   0.595  0.00  0.00    -0.267 OA
ENDROOT
BRANCH   1   4
ATOM      4  C   UNL d   1      -2.047  -0.912  -0.070  0.00  0.00     0.159 A 
ATOM      5  N   UNL d   1      -1.354  -0.557  -1.123  0.00  0.00    -0.335 N 
ATOM      6  C   UNL d   1      -0.089  -0.155  -0.730  0.00  0.00     0.051 A 
ATOM      7  HN  UNL d   1      -1.693  -0.574  -2.085  1.00  0.00     0.168 HD
ATOM      8  C   UNL d   1       0.971   0.181  -1.594  0.00  0.00     0.031 A 
ATOM      9  C   UNL d   1       0.117  -0.093   0.651  0.00  0.00     0.035 A 
ATOM     10  C   UNL d   1       2.189   0.615  -1.062  0.00  0.00     0.002 A 
ATOM     11  C   UNL d   1       2.352   0.735   0.314  0.00  0.00     0.002 A 
ATOM     12  C   UNL d   1       1.322   0.381   1.195  0.00  0.00     0.021 A 
ATOM     13  S   UNL d   1      -1.288  -0.701   1.451  0.00  0.00    -0.051 SA
ENDBRANCH   1   4
BRANCH   1  14
ATOM     14  C   UNL d   1      -4.431  -0.503   0.063  0.00  0.00     0.046 A 
ATOM     15  C   UNL d   1      -5.764  -0.946   0.054  0.00  0.00     0.046 A 
ATOM     16  C   UNL d   1      -6.854  -0.076   0.242  0.00  0.00     0.050 A 
ATOM     17  C   UNL d   1      -6.603   1.289   0.420  0.00  0.00     0.032 A 
ATOM     18  C   UNL d   1      -5.291   1.780   0.406  0.00  0.00     0.050 A 
ATOM     19  C   UNL d   1      -4.224   0.883   0.201  0.00  0.00     0.046 A 
BRANCH  16  20
ATOM     20  C   UNL d   1      -8.272  -0.599   0.274  0.00  0.00     0.417 C 
ATOM     21  F   UNL d   1      -8.367  -1.949   0.134  0.00  0.00    -0.166 F 
ATOM     22  F   UNL d   1      -8.904  -0.297   1.441  0.00  0.00    -0.166 F 
ATOM     23  F   UNL d   1      -9.040  -0.066  -0.716  0.00  0.00    -0.166 F 
ENDBRANCH  16  20
BRANCH  18  24
ATOM     24  C   UNL d   1      -5.034   3.250   0.645  0.00  0.00     0.417 C 
ATOM     25  F   UNL d   1      -3.712   3.577   0.657  0.00  0.00    -0.166 F 
ATOM     26  F   UNL d   1      -5.610   4.042  -0.299  0.00  0.00    -0.166 F 
ATOM     27  F   UNL d   1      -5.531   3.668   1.842  0.00  0.00    -0.166 F 
ENDBRANCH  18  24
ENDBRANCH   1  14
BRANCH   2  28
ATOM     28  C   UNL d   1      -2.440  -3.760  -0.510  0.00  0.00     0.033 A 
ATOM     29  C   UNL d   1      -2.268  -5.005   0.119  0.00  0.00     0.019 A 
ATOM     30  C   UNL d   1      -1.364  -5.947  -0.386  0.00  0.00     0.037 A 
ATOM     31  C   UNL d   1      -0.615  -5.638  -1.528  0.00  0.00     0.102 A 
ATOM     32  C   UNL d   1      -0.792  -4.414  -2.182  0.00  0.00     0.037 A 
ATOM     33  C   UNL d   1      -1.730  -3.498  -1.691  0.00  0.00     0.019 A 
BRANCH  31  34
ATOM     34  N   UNL d   1       0.345  -6.614  -2.059  0.00  0.00    -0.116 N 
ATOM     35  O   UNL d   1       1.025  -6.278  -3.039  0.00  0.00    -0.532 OA
ATOM     36  O   UNL d   1       0.419  -7.715  -1.495  0.00  0.00    -0.532 OA
ENDBRANCH  31  34
ENDBRANCH   2  28
TORSDOF 6
