REMARK  3 active torsions:
REMARK  status: ('A' for Active; 'I' for Inactive)
REMARK    1  A    between atoms: C_6  and  C_1 
REMARK    2  A    between atoms: C_8  and  C_2 
REMARK    3  A    between atoms: C_9  and  C_6 
ROOT
ATOM      1  C   UNL d   1      -0.363   1.119   0.092  0.00  0.00     0.043 A 
ATOM      2  C   UNL d   1       1.006  -0.579  -0.175  0.00  0.00     0.090 A 
ATOM      3  C   UNL d   1      -1.166  -0.120  -0.132  0.00  0.00     0.298 A 
ATOM      4  O   UNL d   1      -0.272  -1.163  -0.282  0.00  0.00    -0.274 OA
ATOM      5  C   UNL d   1       1.007   0.740   0.002  0.00  0.00     0.055 A 
ATOM      6  O   UNL d   1      -2.378  -0.225  -0.193  0.00  0.00    -0.259 OA
ENDROOT
BRANCH   1   7
ATOM      7  C   UNL d   1      -0.787   2.357   0.375  0.00  0.00     0.029 C 
BRANCH   7   8
ATOM      8  C   UNL d   1      -2.175   2.768   0.587  0.00  0.00    -0.035 A 
ATOM      9  C   UNL d   1      -2.724   2.725   1.874  0.00  0.00     0.011 A 
ATOM     10  C   UNL d   1      -4.030   3.166   2.098  0.00  0.00     0.001 A 
ATOM     11  C   UNL d   1      -4.791   3.653   1.037  0.00  0.00     0.000 A 
ATOM     12  C   UNL d   1      -4.250   3.696  -0.247  0.00  0.00     0.001 A 
ATOM     13  C   UNL d   1      -2.944   3.253  -0.474  0.00  0.00     0.011 A 
ENDBRANCH   7   8
ENDBRANCH   1   7
BRANCH   2  14
ATOM     14  C   UNL d   1       2.172  -1.466  -0.247  0.00  0.00    -0.002 A 
ATOM     15  C   UNL d   1       3.357  -1.160   0.442  0.00  0.00     0.014 A 
ATOM     16  C   UNL d   1       4.457  -2.020   0.394  0.00  0.00     0.001 A 
ATOM     17  C   UNL d   1       4.388  -3.199  -0.343  0.00  0.00     0.000 A 
ATOM     18  C   UNL d   1       3.218  -3.521  -1.027  0.00  0.00     0.001 A 
ATOM     19  C   UNL d   1       2.115  -2.662  -0.975  0.00  0.00     0.014 A 
ENDBRANCH   2  14
TORSDOF 3
