REMARK  4 active torsions:
REMARK  status: ('A' for Active; 'I' for Inactive)
REMARK    1  A    between atoms: C_3  and  C_1 
REMARK    2  A    between atoms: C_4  and  C_2 
REMARK    3  A    between atoms: O_14  and  C_3 
REMARK    4  A    between atoms: O_13  and  C_4 
ROOT
ATOM      1  C   UNL d   1      -1.252   0.494  -0.961  0.00  0.00     0.106 C 
ATOM      2  C   UNL d   1       0.209   0.877  -1.387  0.00  0.00     0.106 C 
ATOM      3  C   UNL d   1      -0.485   0.532   1.380  0.00  0.00    -0.025 C 
ATOM      4  C   UNL d   1       0.773   0.851   1.032  0.00  0.00    -0.025 C 
ATOM      5  C   UNL d   1       1.201   0.326  -0.323  0.00  0.00     0.023 C 
ATOM      6  C   UNL d   1      -1.221  -0.319   0.362  0.00  0.00     0.023 C 
ATOM      7  C   UNL d   1      -0.370  -1.597   0.177  0.00  0.00     0.010 C 
ATOM      8  C   UNL d   1       1.052  -1.214  -0.288  0.00  0.00     0.010 C 
ENDROOT
BRANCH   1   9
ATOM      9  C   UNL d   1      -1.952  -0.298  -2.046  0.00  0.00     0.145 C 
ATOM     10  O   UNL d   1      -1.384  -0.999  -2.869  0.00  0.00    -0.650 OA
BRANCH   9  11
ATOM     11  O   UNL d   1      -3.299  -0.195  -2.003  0.00  0.00    -0.776 OA
ATOM     12  H   UNL d   1      -3.639   0.420  -1.324  0.00  0.00     0.167 HD
ENDBRANCH   9  11
ENDBRANCH   1   9
BRANCH   2  13
ATOM     13  C   UNL d   1       0.353   2.384  -1.554  0.00  0.00     0.145 C 
ATOM     14  O   UNL d   1      -0.552   3.194  -1.410  0.00  0.00    -0.650 OA
BRANCH  13  15
ATOM     15  O   UNL d   1       1.586   2.774  -1.950  0.00  0.00    -0.776 OA
ATOM     16  H   UNL d   1       2.217   2.047  -2.111  0.00  0.00     0.167 HD
ENDBRANCH  13  15
ENDBRANCH   2  13
TORSDOF 4
