REMARK  7 active torsions:
REMARK  status: ('A' for Active; 'I' for Inactive)
REMARK    1  A    between atoms: O_16  and  C_1 
REMARK    2  A    between atoms: O_18  and  C_2 
REMARK    3  A    between atoms: O_19  and  C_3 
REMARK    4  A    between atoms: C_4  and  O_12 
REMARK    5  A    between atoms: C_7  and  C_4 
REMARK    6  A    between atoms: O_12  and  N_5 
REMARK    7  A    between atoms: C_13  and  C_10 
ROOT
ATOM      1  N   UNL d   1      -3.326   1.645  -0.356  0.00  0.00    -0.268 N 
ATOM      2  HN  UNL d   1      -2.766   2.496  -0.385  1.00  0.00     0.194 HD
ATOM      3  C   UNL d   1      -2.850   0.447  -0.237  0.00  0.00     0.126 C 
ENDROOT
BRANCH   3   4
ATOM      4  C   UNL d   1      -1.398   0.200  -0.167  0.00  0.00    -0.013 A 
ATOM      5  C   UNL d   1      -0.479   1.247  -0.166  0.00  0.00     0.052 A 
ATOM      6  C   UNL d   1       0.899   0.987  -0.155  0.00  0.00     0.105 A 
ATOM      7  C   UNL d   1       1.360  -0.344  -0.113  0.00  0.00     0.135 A 
ATOM      8  C   UNL d   1       0.418  -1.393   0.003  0.00  0.00     0.105 A 
ATOM      9  C   UNL d   1      -0.954  -1.118  -0.086  0.00  0.00     0.052 A 
BRANCH   6  10
ATOM     10  O   UNL d   1       1.650   2.132  -0.101  0.00  0.00    -0.353 OA
ATOM     11  C   UNL d   1       2.902   2.129  -0.769  0.00  0.00     0.210 C 
ENDBRANCH   6  10
BRANCH   7  12
ATOM     12  O   UNL d   1       2.712  -0.566  -0.017  0.00  0.00    -0.351 OA
ATOM     13  C   UNL d   1       3.249  -1.528  -0.927  0.00  0.00     0.210 C 
ENDBRANCH   7  12
BRANCH   8  14
ATOM     14  O   UNL d   1       0.895  -2.662   0.240  0.00  0.00    -0.353 OA
ATOM     15  C   UNL d   1      -0.024  -3.596   0.801  0.00  0.00     0.210 C 
ENDBRANCH   8  14
ENDBRANCH   3   4
BRANCH   1  16
ATOM     16  O   UNL d   1      -4.734   1.601  -0.440  0.00  0.00    -0.195 OA
BRANCH  16  17
ATOM     17  C   UNL d   1      -5.209   2.878  -0.578  0.00  0.00     0.315 C 
ATOM     18  O   UNL d   1      -4.563   3.916  -0.578  0.00  0.00    -0.257 OA
BRANCH  17  19
ATOM     19  C   UNL d   1      -6.692   2.883  -0.741  0.00  0.00     0.041 A 
ATOM     20  C   UNL d   1      -7.327   4.133  -0.821  0.00  0.00     0.019 A 
ATOM     21  C   UNL d   1      -8.711   4.221  -0.988  0.00  0.00     0.025 A 
ATOM     22  C   UNL d   1      -9.469   3.057  -1.075  0.00  0.00     0.034 A 
ATOM     23  C   UNL d   1      -8.854   1.808  -1.000  0.00  0.00     0.025 A 
ATOM     24 CL   UNL d   1     -11.174   3.164  -1.281  0.00  0.00    -0.084 Cl
ATOM     25  C   UNL d   1      -7.465   1.717  -0.832  0.00  0.00     0.019 A 
ENDBRANCH  17  19
ENDBRANCH  16  17
ENDBRANCH   1  16
TORSDOF 7
