REMARK  1 active torsions:
REMARK  status: ('A' for Active; 'I' for Inactive)
REMARK    1  A    between atoms: C_10  and  C_3 
ROOT
ATOM      1  C   UNL d   1       2.295  -0.776   0.283  0.00  0.00     0.167 A 
ATOM      2  C   UNL d   1       3.584  -1.335  -0.034  0.00  0.00     0.076 A 
ATOM      3  C   UNL d   1       4.032  -2.085  -1.175  0.00  0.00     0.085 A 
ATOM      4  N   UNL d   1       2.248   0.374   0.880  0.00  0.00    -0.335 N 
ATOM      5  HN  UNL d   1       3.100   0.852   1.175  1.00  0.00     0.168 HD
ATOM      6  N   UNL d   1       5.346  -2.343  -1.056  0.00  0.00    -0.259 N 
ATOM      7  HN  UNL d   1       5.929  -2.843  -1.727  1.00  0.00     0.195 HD
ATOM      8  O   UNL d   1       1.239  -1.516  -0.117  0.00  0.00    -0.256 OA
ATOM      9  C   UNL d   1      -0.015  -1.044   0.077  0.00  0.00     0.302 A 
ATOM     10  C   UNL d   1      -0.162   0.259   0.743  0.00  0.00     0.066 A 
ATOM     11  C   UNL d   1       0.997   0.929   1.103  0.00  0.00     0.052 A 
ATOM     12  O   UNL d   1       5.758  -1.807   0.139  0.00  0.00    -0.241 OA
ATOM     13  C   UNL d   1       4.718  -1.185   0.739  0.00  0.00     0.089 A 
ATOM     14  C   UNL d   1       0.905   2.195   1.688  0.00  0.00     0.054 A 
ATOM     15  C   UNL d   1      -1.420   0.817   0.990  0.00  0.00     0.022 A 
ATOM     16  O   UNL d   1      -1.001  -1.667  -0.294  0.00  0.00    -0.259 OA
ATOM     17  C   UNL d   1      -0.345   2.759   1.938  0.00  0.00     0.036 A 
ATOM     18  C   UNL d   1      -1.510   2.070   1.601  0.00  0.00     0.025 A 
ATOM     19 CL   UNL d   1      -0.452   4.311   2.671  0.00  0.00    -0.084 Cl
ATOM     20  C   UNL d   1       5.011  -0.508   2.019  0.00  0.00     0.080 C 
ENDROOT
BRANCH   3  21
ATOM     21  C   UNL d   1       3.310  -2.512  -2.388  0.00  0.00     0.037 A 
ATOM     22  C   UNL d   1       2.473  -1.632  -3.109  0.00  0.00     0.048 A 
ATOM     23 CL   UNL d   1       2.312   0.058  -2.748  0.00  0.00    -0.083 Cl
ATOM     24  C   UNL d   1       1.762  -2.063  -4.240  0.00  0.00     0.025 A 
ATOM     25  C   UNL d   1       1.933  -3.349  -4.734  0.00  0.00     0.003 A 
ATOM     26  C   UNL d   1       2.802  -4.216  -4.084  0.00  0.00     0.025 A 
ATOM     27  C   UNL d   1       3.465  -3.818  -2.911  0.00  0.00     0.048 A 
ATOM     28 CL   UNL d   1       4.441  -5.044  -2.166  0.00  0.00    -0.083 Cl
ENDBRANCH   3  21
TORSDOF 1
