REMARK  4 active torsions:
REMARK  status: ('A' for Active; 'I' for Inactive)
REMARK    1  A    between atoms: N_2  and  C_1 
REMARK    2  A    between atoms: N_4  and  C_1 
REMARK    3  A    between atoms: C_8  and  N_2 
REMARK    4  A    between atoms: C_7  and  C_8 
ROOT
ATOM      1  C   UNL d   1       1.037   2.687  -0.023  0.00  0.00     0.162 C 
ENDROOT
BRANCH   1   2
ATOM      2  C   UNL d   1      -0.093   3.672  -0.074  0.00  0.00    -0.025 A 
ATOM      3  C   UNL d   1      -0.594   4.126  -1.289  0.00  0.00     0.096 A 
ATOM      4  N   UNL d   1      -1.570   5.056  -1.408  0.00  0.00    -0.375 N 
ATOM      5  C   UNL d   1      -2.082   5.549  -0.261  0.00  0.00     0.087 A 
ATOM      6  HN  UNL d   1      -1.902   5.369  -2.320  1.00  0.00     0.164 HD
ATOM      7  C   UNL d   1      -1.677   5.143   1.000  0.00  0.00     0.018 A 
ATOM      8  C   UNL d   1      -0.672   4.184   1.092  0.00  0.00     0.011 A 
ENDBRANCH   1   2
BRANCH   1   9
ATOM      9  N   UNL d   1       0.581   1.315  -0.036  0.00  0.00    -0.363 N 
ATOM     10  H   UNL d   1      -0.430   1.211  -0.022  0.00  0.00     0.162 HD
BRANCH   9  11
ATOM     11  C   UNL d   1       1.181   0.106  -0.056  0.00  0.00     0.169 C 
ATOM     12  S   UNL d   1       0.050  -1.149  -0.072  0.00  0.00    -0.041 SA
BRANCH  11  13
ATOM     13  N   UNL d   1       2.552  -0.063  -0.065  0.00  0.00    -0.367 N 
ATOM     14  C   UNL d   1       3.586   0.966  -0.022  0.00  0.00     0.151 C 
ATOM     15  C   UNL d   1       3.159  -1.401  -0.152  0.00  0.00     0.151 C 
ENDBRANCH  11  13
ENDBRANCH   9  11
ENDBRANCH   1   9
TORSDOF 4
