REMARK  4 active torsions:
REMARK  status: ('A' for Active; 'I' for Inactive)
REMARK    1  A    between atoms: C_3  and  C_1 
REMARK       I    between atoms: N_13  and  C_3 
REMARK    2  A    between atoms: N_10  and  C_22 
REMARK    3  A    between atoms: C_20  and  N_13 
REMARK    4  A    between atoms: C_22  and  C_23 
ROOT
ATOM      1  C   UNL d   1      -1.438  -2.938   0.138  0.00  0.00     0.258 C 
ATOM      2  N   UNL d   1      -0.250  -3.559  -0.216  0.00  0.00    -0.323 N 
ATOM      3  O   UNL d   1      -1.538  -1.942   0.849  0.00  0.00    -0.267 OA
ATOM      4  H   UNL d   1      -0.311  -4.342  -0.864  0.00  0.00     0.169 HD
ENDROOT
BRANCH   2   5
ATOM      5  C   UNL d   1       1.047  -3.129   0.145  0.00  0.00     0.035 A 
ATOM      6  C   UNL d   1       1.285  -2.134   1.099  0.00  0.00     0.038 A 
ATOM      7  C   UNL d   1       2.579  -1.657   1.364  0.00  0.00    -0.036 A 
ATOM      8  C   UNL d   1       3.660  -2.229   0.687  0.00  0.00     0.009 A 
ATOM      9  C   UNL d   1       3.442  -3.250  -0.240  0.00  0.00     0.003 A 
ATOM     10  C   UNL d   1       2.142  -3.701  -0.506  0.00  0.00     0.029 A 
BRANCH   7  11
ATOM     11  C   UNL d   1       2.767  -0.508   2.323  0.00  0.00     0.186 C 
BRANCH  11  12
ATOM     12  N   UNL d   1       3.059  -0.928   3.687  0.00  0.00    -0.299 N 
ATOM     13  N   UNL d   1       4.216  -0.543   4.271  0.00  0.00    -0.310 N 
ATOM     14  C   UNL d   1       4.073  -0.924   5.543  0.00  0.00     0.108 A 
ATOM     15  HN  UNL d   1       5.011  -0.071   3.841  1.00  0.00     0.186 HD
ATOM     16  C   UNL d   1       2.838  -1.551   5.782  0.00  0.00     0.037 A 
ATOM     17  C   UNL d   1       2.199  -1.536   4.564  0.00  0.00     0.112 A 
ENDBRANCH  11  12
ENDBRANCH   7  11
ENDBRANCH   2   5
BRANCH   1  18
ATOM     18  C   UNL d   1      -2.698  -3.474  -0.416  0.00  0.00     0.061 A 
ATOM     19  C   UNL d   1      -2.818  -4.673  -1.161  0.00  0.00     0.082 A 
ATOM     20  N   UNL d   1      -1.837  -5.529  -1.509  0.00  0.00    -0.310 N 
ATOM     21  C   UNL d   1      -4.178  -5.116  -1.666  0.00  0.00     0.068 A 
ATOM     22  S   UNL d   1      -2.559  -6.767  -2.353  0.00  0.00     0.068 SA
ATOM     23  HN  UNL d   1      -0.844  -5.435  -1.297  1.00  0.00     0.176 HD
ATOM     24  N   UNL d   1      -4.140  -6.272  -2.345  0.00  0.00    -0.310 N 
ATOM     25  HN  UNL d   1      -4.931  -6.753  -2.774  1.00  0.00     0.176 HD
ATOM     26  C   UNL d   1      -5.343  -4.348  -1.419  0.00  0.00     0.032 A 
ATOM     27  C   UNL d   1      -5.165  -3.168  -0.685  0.00  0.00     0.003 A 
ATOM     28  C   UNL d   1      -3.904  -2.754  -0.206  0.00  0.00     0.019 A 
ENDBRANCH   1  18
TORSDOF 4
