REMARK  1 active torsions:
REMARK  status: ('A' for Active; 'I' for Inactive)
REMARK    1  A    between atoms: C_3  and  N_1 
ROOT
ATOM      1  N   UNL d   1      -0.346   1.112  -0.007  0.00  0.00    -0.260 N 
ATOM      2  C   UNL d   1       0.938   0.654  -0.120  0.00  0.00     0.148 A 
ATOM      3  C   UNL d   1      -1.339   0.143  -0.026  0.00  0.00     0.240 A 
ATOM      4  S   UNL d   1       1.016  -1.076  -0.197  0.00  0.00    -0.084 SA
ATOM      5  N   UNL d   1       2.021   1.343  -0.131  0.00  0.00    -0.379 N 
ATOM      6  HN  UNL d   1       2.953   0.943  -0.237  1.00  0.00     0.158 HD
ATOM      7  C   UNL d   1      -0.769  -1.253  -0.055  0.00  0.00     0.186 A 
ATOM      8  O   UNL d   1      -2.550   0.346  -0.090  0.00  0.00    -0.272 OA
ATOM      9  H   UNL d   1       1.833   2.340  -0.021  0.00  0.00     0.158 HD
ENDROOT
BRANCH   1  10
ATOM     10  C   UNL d   1      -0.693   2.491  -0.043  0.00  0.00     0.066 A 
ATOM     11  C   UNL d   1      -1.480   3.093   0.958  0.00  0.00     0.063 A 
ATOM     12  C   UNL d   1      -1.808   4.451   0.880  0.00  0.00     0.050 A 
ATOM     13 CL   UNL d   1      -1.952   2.248   2.393  0.00  0.00    -0.082 Cl
ATOM     14  C   UNL d   1      -1.354   5.213  -0.193  0.00  0.00     0.035 A 
ATOM     15  C   UNL d   1      -0.573   4.634  -1.190  0.00  0.00     0.026 A 
ATOM     16 CL   UNL d   1      -1.743   6.886  -0.279  0.00  0.00    -0.084 Cl
ATOM     17  C   UNL d   1      -0.241   3.280  -1.115  0.00  0.00     0.034 A 
ENDBRANCH   1  10
TORSDOF 1
