REMARK  4 active torsions:
REMARK  status: ('A' for Active; 'I' for Inactive)
REMARK    1  A    between atoms: C_7  and  N_1 
REMARK    2  A    between atoms: C_8  and  N_3 
REMARK    3  A    between atoms: C_11  and  C_7 
REMARK    4  A    between atoms: C_12  and  C_8 
ROOT
ATOM      1  N   UNL d   1       2.393  -0.672   0.042  0.00  0.00    -0.261 N 
ATOM      2  C   UNL d   1       2.409   0.706  -0.135  0.00  0.00     0.332 C 
ATOM      3  N   UNL d   1       1.191   1.375  -0.046  0.00  0.00    -0.294 N 
ATOM      4  C   UNL d   1       1.239  -1.432   0.173  0.00  0.00     0.264 C 
ATOM      5  C   UNL d   1      -0.043  -0.714   0.103  0.00  0.00     0.059 A 
ATOM      6  C   UNL d   1      -0.048   0.677   0.029  0.00  0.00     0.055 A 
ATOM      7  O   UNL d   1       3.453   1.314  -0.382  0.00  0.00    -0.246 OA
ATOM      8  O   UNL d   1       1.235  -2.653   0.313  0.00  0.00    -0.267 OA
ATOM      9  C   UNL d   1      -1.244  -1.444   0.092  0.00  0.00     0.019 A 
ATOM     10  C   UNL d   1      -1.292   1.330  -0.015  0.00  0.00     0.031 A 
ATOM     11  C   UNL d   1      -2.466  -0.782   0.012  0.00  0.00     0.001 A 
ATOM     12  C   UNL d   1      -2.489   0.607  -0.033  0.00  0.00     0.002 A 
ENDROOT
BRANCH   1  13
ATOM     13  C   UNL d   1       3.667  -1.385  -0.025  0.00  0.00     0.175 C 
BRANCH  13  14
ATOM     14  C   UNL d   1       4.441  -1.375   1.280  0.00  0.00    -0.040 A 
ATOM     15  C   UNL d   1       4.300  -2.417   2.209  0.00  0.00     0.010 A 
ATOM     16  C   UNL d   1       5.016  -2.399   3.412  0.00  0.00     0.024 A 
ATOM     17  C   UNL d   1       5.869  -1.335   3.697  0.00  0.00     0.034 A 
ATOM     18  C   UNL d   1       6.029  -0.299   2.782  0.00  0.00     0.024 A 
ATOM     19 CL   UNL d   1       6.727  -1.298   5.188  0.00  0.00    -0.084 Cl
ATOM     20  C   UNL d   1       5.320  -0.321   1.579  0.00  0.00     0.010 A 
ENDBRANCH  13  14
ENDBRANCH   1  13
BRANCH   3  21
ATOM     21  C   UNL d   1       1.220   2.842  -0.123  0.00  0.00     0.172 C 
BRANCH  21  22
ATOM     22  C   UNL d   1       0.793   3.422  -1.460  0.00  0.00    -0.040 A 
ATOM     23  C   UNL d   1       0.122   4.656  -1.494  0.00  0.00     0.010 A 
ATOM     24  C   UNL d   1      -0.311   5.199  -2.709  0.00  0.00     0.024 A 
ATOM     25  C   UNL d   1      -0.059   4.519  -3.897  0.00  0.00     0.034 A 
ATOM     26  C   UNL d   1       0.643   3.318  -3.886  0.00  0.00     0.024 A 
ATOM     27 CL   UNL d   1      -0.625   5.165  -5.388  0.00  0.00    -0.084 Cl
ATOM     28  C   UNL d   1       1.079   2.779  -2.673  0.00  0.00     0.010 A 
ENDBRANCH  21  22
ENDBRANCH   3  21
TORSDOF 4
