REMARK  2 active torsions:
REMARK  status: ('A' for Active; 'I' for Inactive)
REMARK    1  A    between atoms: N_4  and  C_2 
REMARK    2  A    between atoms: S_16  and  C_11 
ROOT
ATOM      1  C   UNL d   1       1.863  -0.692   0.007  0.00  0.00     0.199 A 
ATOM      2  C   UNL d   1       4.625  -2.902  -0.508  0.00  0.00     0.215 A 
ATOM      3  O   UNL d   1       0.887  -0.854  -0.947  0.00  0.00    -0.265 OA
ATOM      4  N   UNL d   1       1.543   0.240   0.885  0.00  0.00    -0.275 N 
ATOM      5  HN  UNL d   1       2.102   0.542   1.683  1.00  0.00     0.189 HD
ATOM      6  C   UNL d   1       3.079  -1.446   0.054  0.00  0.00     0.130 A 
ATOM      7  O   UNL d   1       3.416  -2.403  -0.877  0.00  0.00    -0.284 OA
ATOM      8  N   UNL d   1       0.308   0.729   0.516  0.00  0.00    -0.272 N 
ATOM      9  HN  UNL d   1      -0.224   1.462   0.986  1.00  0.00     0.189 HD
ATOM     10  C   UNL d   1      -0.051   0.065  -0.561  0.00  0.00     0.201 A 
ATOM     11  C   UNL d   1       5.095  -2.306   0.635  0.00  0.00     0.066 A 
ATOM     12  C   UNL d   1       4.098  -1.365   0.996  0.00  0.00     0.046 A 
ENDROOT
BRANCH  10  13
ATOM     13  S   UNL d   1      -1.544   0.306  -1.405  0.00  0.00    -0.098 SA
ATOM     14  H   UNL d   1      -1.385  -0.676  -2.300  0.00  0.00     0.110 HD
ENDBRANCH  10  13
BRANCH   2  15
ATOM     15  N   UNL d   1       5.181  -3.924  -1.339  0.00  0.00    -0.090 N 
ATOM     16  O   UNL d   1       6.287  -4.363  -1.000  0.00  0.00    -0.530 OA
ATOM     17  O   UNL d   1       4.524  -4.289  -2.322  0.00  0.00    -0.530 OA
ENDBRANCH   2  15
TORSDOF 2
