REMARK  4 active torsions:
REMARK  status: ('A' for Active; 'I' for Inactive)
REMARK    1  A    between atoms: C_6  and  C_1 
REMARK    2  A    between atoms: C_9  and  C_3 
REMARK    3  A    between atoms: C_7  and  C_4 
REMARK       I    between atoms: N_8  and  C_7 
REMARK    4  A    between atoms: C_11  and  N_8 
ROOT
ATOM      1  C   UNL d   1       0.258   1.308  -0.053  0.00  0.00     0.100 A 
ATOM      2  S   UNL d   1      -0.939   0.057  -0.110  0.00  0.00    -0.079 SA
ATOM      3  C   UNL d   1       1.547   0.776  -0.054  0.00  0.00    -0.003 A 
ATOM      4  C   UNL d   1       0.219  -1.190  -0.103  0.00  0.00     0.074 A 
ATOM      5  C   UNL d   1       1.492  -0.663  -0.083  0.00  0.00     0.038 A 
ENDROOT
BRANCH   4   6
ATOM      6  C   UNL d   1      -0.126  -2.611  -0.107  0.00  0.00     0.259 C 
ATOM      7  N   UNL d   1      -1.470  -2.928  -0.172  0.00  0.00    -0.348 N 
ATOM      8  H   UNL d   1      -2.114  -2.159  -0.122  0.00  0.00     0.163 HD
ATOM      9  O   UNL d   1       0.746  -3.474  -0.049  0.00  0.00    -0.267 OA
BRANCH   7  10
ATOM     10  C   UNL d   1      -2.010  -4.303  -0.105  0.00  0.00     0.022 C 
ATOM     11  C   UNL d   1      -1.642  -4.975   1.231  0.00  0.00     0.037 C 
ATOM     12  C   UNL d   1      -3.545  -4.222  -0.220  0.00  0.00     0.037 C 
ATOM     13  C   UNL d   1      -1.498  -5.168  -1.272  0.00  0.00     0.037 C 
ENDBRANCH   7  10
ENDBRANCH   4   6
BRANCH   1  14
ATOM     14  C   UNL d   1      -0.219   2.730   0.002  0.00  0.00     0.424 C 
ATOM     15  F   UNL d   1      -1.560   2.842   0.212  0.00  0.00    -0.166 F 
ATOM     16  F   UNL d   1       0.377   3.438   0.996  0.00  0.00    -0.166 F 
ATOM     17  F   UNL d   1       0.026   3.393  -1.160  0.00  0.00    -0.166 F 
ENDBRANCH   1  14
BRANCH   3  18
ATOM     18  C   UNL d   1       2.797   1.556   0.014  0.00  0.00    -0.025 A 
ATOM     19  C   UNL d   1       3.897   1.034   0.720  0.00  0.00     0.012 A 
ATOM     20  C   UNL d   1       5.115   1.722   0.784  0.00  0.00     0.001 A 
ATOM     21  C   UNL d   1       5.251   2.956   0.160  0.00  0.00     0.000 A 
ATOM     22  C   UNL d   1       4.178   3.488  -0.549  0.00  0.00     0.001 A 
ATOM     23  C   UNL d   1       2.971   2.783  -0.638  0.00  0.00     0.012 A 
ENDBRANCH   3  18
TORSDOF 4
