REMARK  9 active torsions:
REMARK  status: ('A' for Active; 'I' for Inactive)
REMARK    1  A    between atoms: C_8  and  N_1 
REMARK    2  A    between atoms: S_10  and  C_2 
REMARK    3  A    between atoms: C_16  and  C_7 
REMARK    4  A    between atoms: C_11  and  C_20 
REMARK    5  A    between atoms: S_14  and  C_16 
REMARK    6  A    between atoms: C_20  and  S_14 
REMARK    7  A    between atoms: C_26  and  C_19 
REMARK    8  A    between atoms: C_27  and  C_26 
REMARK    9  A    between atoms: C_28  and  C_27 
ROOT
ATOM      1  N   UNL d   1      -0.423  -1.237   0.102  0.00  0.00    -0.279 N 
ATOM      2  C   UNL d   1       0.767  -0.515   0.130  0.00  0.00     0.164 A 
ATOM      3  N   UNL d   1       0.524   0.772   0.202  0.00  0.00    -0.278 N 
ATOM      4  HN  UNL d   1       1.223   1.513   0.244  1.00  0.00     0.189 HD
ATOM      5  N   UNL d   1      -0.825   0.944   0.211  0.00  0.00    -0.286 N 
ATOM      6  HN  UNL d   1      -1.309   1.841   0.257  1.00  0.00     0.188 HD
ATOM      7  C   UNL d   1      -1.406  -0.240   0.150  0.00  0.00     0.114 A 
ENDROOT
BRANCH   7   8
ATOM      8  C   UNL d   1      -2.887  -0.382   0.152  0.00  0.00     0.152 C 
BRANCH   8   9
ATOM      9  S   UNL d   1      -3.596  -1.487   1.392  0.00  0.00    -0.157 SA
BRANCH   9  10
ATOM     10  C   UNL d   1      -3.297  -0.565   2.958  0.00  0.00     0.113 C 
BRANCH  10  11
ATOM     11  C   UNL d   1      -4.156  -1.216   4.042  0.00  0.00    -0.038 C 
ATOM     12  C   UNL d   1      -3.757  -2.405   4.704  0.00  0.00    -0.019 C 
ATOM     13  C   UNL d   1      -4.762  -3.212   5.302  0.00  0.00    -0.025 C 
ATOM     14  C   UNL d   1      -2.424  -2.868   4.781  0.00  0.00     0.013 C 
ATOM     15  C   UNL d   1      -4.446  -4.501   5.747  0.00  0.00     0.012 C 
ATOM     16  C   UNL d   1      -6.067  -2.720   5.425  0.00  0.00     0.012 C 
ATOM     17  C   UNL d   1      -3.134  -4.978   5.701  0.00  0.00     0.001 C 
ATOM     18  C   UNL d   1      -2.114  -4.133   5.287  0.00  0.00     0.001 C 
ATOM     19  C   UNL d   1      -6.416  -1.484   4.909  0.00  0.00     0.001 C 
ATOM     20  C   UNL d   1      -5.484  -0.752   4.178  0.00  0.00     0.009 C 
ENDBRANCH  10  11
ENDBRANCH   9  10
ENDBRANCH   8   9
ENDBRANCH   7   8
BRANCH   1  21
ATOM     21  C   UNL d   1      -0.591  -2.653   0.064  0.00  0.00     0.043 A 
ATOM     22  C   UNL d   1       0.257  -3.480   0.814  0.00  0.00     0.030 A 
ATOM     23  C   UNL d   1       0.107  -4.869   0.782  0.00  0.00     0.009 A 
ATOM     24  C   UNL d   1      -0.909  -5.461   0.025  0.00  0.00    -0.058 A 
ATOM     25  C   UNL d   1      -1.773  -4.631  -0.698  0.00  0.00     0.009 A 
ATOM     26  C   UNL d   1      -1.606  -3.241  -0.697  0.00  0.00     0.030 A 
BRANCH  24  27
ATOM     27  C   UNL d   1      -1.088  -6.961   0.044  0.00  0.00     0.038 C 
BRANCH  27  28
ATOM     28  C   UNL d   1      -1.097  -7.632  -1.335  0.00  0.00     0.004 C 
BRANCH  28  29
ATOM     29  C   UNL d   1       0.227  -7.480  -2.086  0.00  0.00    -0.004 C 
ATOM     30  C   UNL d   1       0.179  -8.179  -3.436  0.00  0.00     0.005 C 
ENDBRANCH  28  29
ENDBRANCH  27  28
ENDBRANCH  24  27
ENDBRANCH   1  21
BRANCH   2  31
ATOM     31  S   UNL d   1       2.379  -1.127  -0.087  0.00  0.00    -0.105 SA
ATOM     32  H   UNL d   1       2.108  -2.363  -0.526  0.00  0.00     0.110 HD
ENDBRANCH   2  31
TORSDOF 9
