REMARK  3 active torsions:
REMARK  status: ('A' for Active; 'I' for Inactive)
REMARK    1  A    between atoms: C_10  and  C_5 
REMARK    2  A    between atoms: N_13  and  C_8 
REMARK    3  A    between atoms: N_12  and  C_9 
ROOT
ATOM      1  N   UNL d   1       0.626   1.014  -1.009  0.00  0.00    -0.318 N 
ATOM      2  HN  UNL d   1       1.112   1.524  -1.747  1.00  0.00     0.170 HD
ATOM      3  N   UNL d   1      -0.627   1.000   0.990  0.00  0.00    -0.318 N 
ATOM      4  HN  UNL d   1      -1.103   1.501   1.741  1.00  0.00     0.170 HD
ATOM      5  C   UNL d   1       0.004   1.629  -0.002  0.00  0.00     0.120 A 
ATOM      6  N   UNL d   1      -0.020  -1.022  -0.034  0.00  0.00    -0.309 N 
ATOM      7  HN  UNL d   1      -0.030  -2.042  -0.047  1.00  0.00     0.171 HD
ATOM      8  C   UNL d   1      -0.592  -0.318   0.928  0.00  0.00     0.158 A 
ATOM      9  C   UNL d   1       0.567  -0.305  -0.978  0.00  0.00     0.158 A 
ENDROOT
BRANCH   5  10
ATOM     10  C   UNL d   1       0.018   3.107   0.018  0.00  0.00     0.009 A 
ATOM     11  C   UNL d   1      -0.587   3.834   1.064  0.00  0.00     0.022 A 
ATOM     12  C   UNL d   1      -0.575   5.238   1.099  0.00  0.00    -0.061 A 
ATOM     13  C   UNL d   1      -1.219   5.984   2.230  0.00  0.00     0.048 C 
ATOM     14  C   UNL d   1       0.048   5.939   0.064  0.00  0.00     0.007 A 
ATOM     15  C   UNL d   1       0.652   5.249  -0.984  0.00  0.00     0.002 A 
ATOM     16  C   UNL d   1       0.638   3.852  -1.004  0.00  0.00     0.015 A 
ENDBRANCH   5  10
BRANCH   8  17
ATOM     17  N   UNL d   1      -1.235  -1.016   1.933  0.00  0.00    -0.274 NA
ATOM     18  H   UNL d   1      -1.515  -1.927   1.597  0.00  0.00     0.127 HD
ATOM     19  H   UNL d   1      -1.950  -0.439   2.352  0.00  0.00     0.127 HD
ENDBRANCH   8  17
BRANCH   9  20
ATOM     20  N   UNL d   1       1.203  -0.991  -1.995  0.00  0.00    -0.274 NA
ATOM     21  H   UNL d   1       1.459  -1.916  -1.680  0.00  0.00     0.127 HD
ATOM     22  H   UNL d   1       1.938  -0.421  -2.391  0.00  0.00     0.127 HD
ENDBRANCH   9  20
TORSDOF 3
