REMARK  3 active torsions:
REMARK  status: ('A' for Active; 'I' for Inactive)
REMARK    1  A    between atoms: S_2  and  C_1 
REMARK    2  A    between atoms: C_4  and  C_1 
REMARK    3  A    between atoms: C_3  and  S_2 
ROOT
ATOM      1  C   UNL d   1       0.307   0.585   1.010  0.00  0.00     0.075 C 
ATOM      2  C   UNL d   1       0.273   1.303   3.363  0.00  0.00    -0.025 C 
ATOM      3  C   UNL d   1       1.114   0.558   2.337  0.00  0.00     0.020 C 
ATOM      4  C   UNL d   1      -0.008   2.574   3.028  0.00  0.00    -0.026 C 
ATOM      5  C   UNL d   1       0.010   2.060   0.613  0.00  0.00     0.022 C 
ATOM      6  C   UNL d   1       2.421   1.377   2.198  0.00  0.00     0.010 C 
ATOM      7  C   UNL d   1       0.563   3.017   1.694  0.00  0.00     0.009 C 
ATOM      8  C   UNL d   1       2.094   2.823   1.758  0.00  0.00     0.009 C 
ENDROOT
BRANCH   1   9
ATOM      9  C   UNL d   1       1.014  -0.172  -0.104  0.00  0.00     0.196 C 
ATOM     10  O   UNL d   1       1.824   0.331  -0.877  0.00  0.00    -0.285 OA
BRANCH   9  11
ATOM     11  S   UNL d   1       0.629  -1.892  -0.203  0.00  0.00    -0.045 SA
BRANCH  11  12
ATOM     12  C   UNL d   1      -0.749  -1.774  -1.291  0.00  0.00     0.048 A 
ATOM     13  S   UNL d   1      -2.290  -2.365  -0.836  0.00  0.00    -0.095 SA
ATOM     14  C   UNL d   1      -2.981  -1.908  -2.332  0.00  0.00     0.051 A 
ATOM     15  C   UNL d   1      -2.055  -1.333  -3.173  0.00  0.00     0.009 A 
ATOM     16  C   UNL d   1      -0.760  -1.264  -2.574  0.00  0.00     0.027 A 
ENDBRANCH  11  12
ENDBRANCH   9  11
ENDBRANCH   1   9
TORSDOF 3
