REMARK  9 active torsions:
REMARK  status: ('A' for Active; 'I' for Inactive)
REMARK    1  A    between atoms: C_11  and  C_1 
REMARK    2  A    between atoms: N_12  and  C_3 
REMARK    3  A    between atoms: C_14  and  C_4 
REMARK    4  A    between atoms: C_7  and  S_16 
REMARK    5  A    between atoms: C_19  and  C_11 
REMARK       I    between atoms: C_17  and  N_12 
REMARK    6  A    between atoms: C_33  and  C_15 
REMARK    7  A    between atoms: S_16  and  C_25 
REMARK    8  A    between atoms: C_25  and  C_17 
REMARK    9  A    between atoms: O_32  and  C_29 
ROOT
ATOM      1  N   UNL d   1      -0.064   2.635   0.392  0.00  0.00    -0.320 N 
ATOM      2  C   UNL d   1      -1.344   3.146   0.570  0.00  0.00     0.232 C 
ATOM      3  O   UNL d   1      -2.374   2.486   0.713  0.00  0.00    -0.272 OA
ATOM      4  H   UNL d   1       0.720   3.284   0.440  0.00  0.00     0.169 HD
ENDROOT
BRANCH   1   5
ATOM      5  C   UNL d   1       0.275   1.289   0.267  0.00  0.00     0.091 A 
ATOM      6  C   UNL d   1       1.549   0.731   0.233  0.00  0.00     0.050 A 
ATOM      7  C   UNL d   1       1.463  -0.712   0.199  0.00  0.00     0.033 A 
ATOM      8  C   UNL d   1       0.175  -1.180   0.079  0.00  0.00    -0.015 A 
ATOM      9  S   UNL d   1      -0.935   0.104   0.065  0.00  0.00    -0.076 SA
BRANCH   6  10
ATOM     10  C   UNL d   1       2.798   1.505   0.280  0.00  0.00     0.195 C 
ATOM     11  O   UNL d   1       2.844   2.661   0.697  0.00  0.00    -0.287 OA
BRANCH  10  12
ATOM     12  C   UNL d   1       4.046   0.852  -0.216  0.00  0.00     0.015 A 
ATOM     13  C   UNL d   1       5.229   0.937   0.527  0.00  0.00     0.018 A 
ATOM     14  C   UNL d   1       6.382   0.258   0.097  0.00  0.00     0.037 A 
ATOM     15  C   UNL d   1       6.354  -0.494  -1.081  0.00  0.00     0.068 A 
ATOM     16  C   UNL d   1       5.178  -0.556  -1.830  0.00  0.00     0.037 A 
ATOM     17  C   UNL d   1       4.037   0.130  -1.417  0.00  0.00     0.018 A 
BRANCH  15  18
ATOM     18  O   UNL d   1       7.383  -1.244  -1.575  0.00  0.00    -0.356 OA
ATOM     19  C   UNL d   1       8.695  -0.791  -1.265  0.00  0.00     0.210 C 
ENDBRANCH  15  18
ENDBRANCH  10  12
ENDBRANCH   6  10
BRANCH   8  20
ATOM     20  C   UNL d   1      -0.293  -2.600  -0.016  0.00  0.00     0.042 C 
ATOM     21  C   UNL d   1      -0.367  -3.081  -1.457  0.00  0.00     0.010 C 
ENDBRANCH   8  20
ENDBRANCH   1   5
BRANCH   2  22
ATOM     22  C   UNL d   1      -1.440   4.660   0.711  0.00  0.00     0.185 C 
BRANCH  22  23
ATOM     23  S   UNL d   1      -0.361   5.563  -0.432  0.00  0.00    -0.083 SA
BRANCH  23  24
ATOM     24  C   UNL d   1      -0.883   7.190  -0.136  0.00  0.00     0.163 A 
ATOM     25  N   UNL d   1      -0.391   8.288  -0.792  0.00  0.00    -0.315 N 
ATOM     26  C   UNL d   1      -1.114   9.363  -0.318  0.00  0.00     0.141 A 
ATOM     27  C   UNL d   1       0.712   8.328  -1.720  0.00  0.00     0.160 C 
ATOM     28  N   UNL d   1      -1.930   8.930   0.628  0.00  0.00    -0.282 N 
ATOM     29  N   UNL d   1      -1.795   7.566   0.731  0.00  0.00    -0.278 N 
ATOM     30  HN  UNL d   1      -2.554   9.511   1.188  1.00  0.00     0.188 HD
ATOM     31  HN  UNL d   1      -2.311   6.956   1.365  1.00  0.00     0.189 HD
BRANCH  26  32
ATOM     32  C   UNL d   1      -1.024  10.747  -0.703  0.00  0.00     0.050 A 
ATOM     33  S   UNL d   1      -0.661  11.269  -2.297  0.00  0.00    -0.098 SA
ATOM     34  C   UNL d   1      -0.767  12.919  -1.870  0.00  0.00     0.050 A 
ATOM     35  C   UNL d   1      -1.114  13.085  -0.550  0.00  0.00     0.009 A 
ATOM     36  C   UNL d   1      -1.278  11.834   0.117  0.00  0.00     0.023 A 
ENDBRANCH  26  32
ENDBRANCH  23  24
ENDBRANCH  22  23
ENDBRANCH   2  22
TORSDOF 9
