REMARK  5 active torsions:
REMARK  status: ('A' for Active; 'I' for Inactive)
REMARK    1  A    between atoms: C_16  and  N_1 
REMARK    2  A    between atoms: N_15  and  C_6 
REMARK    3  A    between atoms: N_13  and  N_15 
REMARK    4  A    between atoms: C_17  and  C_16 
REMARK    5  A    between atoms: C_20  and  C_18 
ROOT
ATOM      1  N   UNL d   1       1.587   1.036   0.017  0.00  0.00    -0.314 N 
ATOM      2  C   UNL d   1       2.592   0.073   0.009  0.00  0.00     0.147 A 
ATOM      3  C   UNL d   1       0.243  -0.863  -0.023  0.00  0.00     0.097 A 
ATOM      4  C   UNL d   1       0.271   0.515   0.009  0.00  0.00     0.131 A 
ATOM      5  S   UNL d   1       1.865  -1.549  -0.005  0.00  0.00    -0.053 SA
ATOM      6  C   UNL d   1      -0.992  -1.477  -0.069  0.00  0.00     0.142 A 
ATOM      7  N   UNL d   1      -0.823   1.286   0.012  0.00  0.00    -0.337 N 
ATOM      8  HN  UNL d   1      -0.781   2.305   0.037  1.00  0.00     0.168 HD
ATOM      9  N   UNL d   1      -2.117  -0.729  -0.073  0.00  0.00    -0.336 N 
ATOM     10  HN  UNL d   1      -3.040  -1.163  -0.113  1.00  0.00     0.168 HD
ATOM     11  S   UNL d   1       4.244   0.297   0.002  0.00  0.00    -0.052 SA
ATOM     12  C   UNL d   1      -1.978   0.607  -0.023  0.00  0.00     0.183 A 
ENDROOT
BRANCH   6  13
ATOM     13  N   UNL d   1      -1.046  -2.891  -0.218  0.00  0.00    -0.285 N 
ATOM     14  H   UNL d   1      -0.288  -3.337   0.298  0.00  0.00     0.188 HD
BRANCH  13  15
ATOM     15  N   UNL d   1      -2.276  -3.479  -0.167  0.00  0.00    -0.309 N 
ATOM     16  C   UNL d   1      -2.258  -4.773  -0.195  0.00  0.00     0.118 C 
ATOM     17  HN  UNL d   1      -3.141  -2.941  -0.111  1.00  0.00     0.186 HD
BRANCH  16  18
ATOM     18  C   UNL d   1      -3.502  -5.566  -0.150  0.00  0.00    -0.019 A 
ATOM     19  C   UNL d   1      -4.749  -4.934  -0.092  0.00  0.00     0.014 A 
ATOM     20  C   UNL d   1      -5.916  -5.699  -0.055  0.00  0.00     0.024 A 
ATOM     21  C   UNL d   1      -5.833  -7.091  -0.077  0.00  0.00     0.034 A 
ATOM     22  C   UNL d   1      -4.591  -7.725  -0.134  0.00  0.00     0.024 A 
ATOM     23 CL   UNL d   1      -7.271  -8.034  -0.033  0.00  0.00    -0.084 Cl
ATOM     24  C   UNL d   1      -3.421  -6.963  -0.171  0.00  0.00     0.014 A 
ENDBRANCH  16  18
ENDBRANCH  13  15
ENDBRANCH   6  13
BRANCH   1  25
ATOM     25  C   UNL d   1       1.792   2.476  -0.057  0.00  0.00     0.158 C 
BRANCH  25  26
ATOM     26  C   UNL d   1       2.000   3.126   1.284  0.00  0.00    -0.017 C 
ATOM     27  C   UNL d   1       1.898   2.586   2.507  0.00  0.00     0.008 C 
ENDBRANCH  25  26
ENDBRANCH   1  25
TORSDOF 5
