REMARK  2 active torsions:
REMARK  status: ('A' for Active; 'I' for Inactive)
REMARK    1  A    between atoms: C_6  and  C_1 
REMARK    2  A    between atoms: C_10  and  C_6 
ROOT
ATOM      1  C   UNL d   1       3.175   1.033  -0.005  0.00  0.00     0.133 A 
ATOM      2  C   UNL d   1       1.925   1.642  -0.025  0.00  0.00    -0.010 A 
ATOM      3  O   UNL d   1       3.026  -0.324  -0.015  0.00  0.00    -0.305 OA
ATOM      4  C   UNL d   1       0.952   0.577  -0.020  0.00  0.00     0.018 A 
ATOM      5  C   UNL d   1       1.699  -0.596  -0.019  0.00  0.00     0.088 A 
ATOM      6  C   UNL d   1      -0.476   0.454  -0.012  0.00  0.00    -0.012 A 
ATOM      7  C   UNL d   1       1.167  -1.881  -0.014  0.00  0.00     0.039 A 
ATOM      8  C   UNL d   1      -1.047  -0.850  -0.005  0.00  0.00    -0.025 A 
ATOM      9  C   UNL d   1      -0.225  -1.986  -0.006  0.00  0.00     0.015 A 
ATOM     10  C   UNL d   1       1.662   3.105  -0.014  0.00  0.00     0.052 C 
ATOM     11  C   UNL d   1      -1.337   1.573  -0.007  0.00  0.00     0.013 A 
ATOM     12  C   UNL d   1      -2.444  -0.987   0.003  0.00  0.00     0.012 A 
ATOM     13  C   UNL d   1      -2.724   1.410   0.002  0.00  0.00     0.001 A 
ATOM     14  C   UNL d   1      -3.275   0.133   0.006  0.00  0.00     0.001 A 
ENDROOT
BRANCH   1  15
ATOM     15  C   UNL d   1       4.516   1.587  -0.007  0.00  0.00     0.216 C 
ATOM     16  O   UNL d   1       4.791   2.684  -0.499  0.00  0.00    -0.284 OA
BRANCH  15  17
ATOM     17  C   UNL d   1       5.628   0.831   0.643  0.00  0.00     0.017 A 
ATOM     18  C   UNL d   1       5.404  -0.021   1.734  0.00  0.00     0.015 A 
ATOM     19  C   UNL d   1       6.477  -0.662   2.357  0.00  0.00     0.001 A 
ATOM     20  C   UNL d   1       7.777  -0.453   1.900  0.00  0.00     0.000 A 
ATOM     21  C   UNL d   1       8.009   0.393   0.816  0.00  0.00     0.001 A 
ATOM     22  C   UNL d   1       6.940   1.039   0.193  0.00  0.00     0.015 A 
ENDBRANCH  15  17
ENDBRANCH   1  15
TORSDOF 2
