REMARK  9 active torsions:
REMARK  status: ('A' for Active; 'I' for Inactive)
REMARK    1  A    between atoms: C_14  and  C_1 
REMARK    2  A    between atoms: C_2  and  N_5 
REMARK    3  A    between atoms: N_4  and  C_2 
REMARK    4  A    between atoms: C_3  and  C_18 
REMARK       I    between atoms: N_6  and  C_3 
REMARK    5  A    between atoms: C_10  and  N_4 
REMARK    6  A    between atoms: N_5  and  N_6 
REMARK    7  A    between atoms: S_13  and  C_14 
REMARK    8  A    between atoms: C_18  and  S_13 
REMARK    9  A    between atoms: O_19  and  C_15 
ROOT
ATOM      1  C   UNL d   1      -3.144   4.864   0.148  0.00  0.00     0.245 C 
ATOM      2  N   UNL d   1      -4.033   3.877   0.488  0.00  0.00    -0.267 N 
ATOM      3  O   UNL d   1      -3.283   6.000   0.607  0.00  0.00    -0.271 OA
ATOM      4  H   UNL d   1      -4.809   4.134   1.095  0.00  0.00     0.190 HD
ENDROOT
BRANCH   2   5
ATOM      5  N   UNL d   1      -4.106   2.620  -0.150  0.00  0.00    -0.274 N 
ATOM      6  H   UNL d   1      -3.847   2.623  -1.140  0.00  0.00     0.189 HD
BRANCH   5   7
ATOM      7  C   UNL d   1      -5.186   1.821   0.132  0.00  0.00     0.191 C 
ATOM      8  S   UNL d   1      -5.881   0.902  -1.073  0.00  0.00    -0.039 SA
BRANCH   7   9
ATOM      9  N   UNL d   1      -5.747   1.864   1.377  0.00  0.00    -0.332 N 
ATOM     10  H   UNL d   1      -6.712   1.549   1.414  0.00  0.00     0.168 HD
BRANCH   9  11
ATOM     11  C   UNL d   1      -5.084   1.899   2.625  0.00  0.00     0.036 A 
ATOM     12  C   UNL d   1      -3.712   1.650   2.755  0.00  0.00     0.066 A 
ATOM     13  C   UNL d   1      -3.109   1.625   4.013  0.00  0.00     0.070 A 
ATOM     14  C   UNL d   1      -3.886   1.874   5.147  0.00  0.00     0.037 A 
ATOM     15  C   UNL d   1      -5.254   2.117   5.028  0.00  0.00     0.005 A 
ATOM     16  C   UNL d   1      -5.855   2.114   3.770  0.00  0.00     0.029 A 
BRANCH  13  17
ATOM     17  O   UNL d   1      -1.790   1.358   4.260  0.00  0.00    -0.356 OA
ATOM     18  C   UNL d   1      -0.989   1.001   3.139  0.00  0.00     0.210 C 
ENDBRANCH  13  17
ENDBRANCH   9  11
ENDBRANCH   7   9
ENDBRANCH   5   7
ENDBRANCH   2   5
BRANCH   1  19
ATOM     19  C   UNL d   1      -1.985   4.525  -0.768  0.00  0.00     0.178 C 
BRANCH  19  20
ATOM     20  S   UNL d   1      -2.518   4.166  -2.470  0.00  0.00    -0.155 SA
BRANCH  20  21
ATOM     21  C   UNL d   1      -3.350   5.747  -2.871  0.00  0.00     0.116 C 
BRANCH  21  22
ATOM     22  C   UNL d   1      -3.859   5.721  -4.295  0.00  0.00    -0.005 A 
ATOM     23  C   UNL d   1      -5.108   5.148  -4.611  0.00  0.00     0.042 A 
ATOM     24 CL   UNL d   1      -6.162   4.511  -3.393  0.00  0.00    -0.084 Cl
ATOM     25  C   UNL d   1      -5.554   5.064  -5.935  0.00  0.00     0.024 A 
ATOM     26  C   UNL d   1      -4.767   5.550  -6.973  0.00  0.00     0.003 A 
ATOM     27  C   UNL d   1      -3.533   6.125  -6.686  0.00  0.00     0.024 A 
ATOM     28  C   UNL d   1      -3.081   6.208  -5.363  0.00  0.00     0.042 A 
ATOM     29 CL   UNL d   1      -1.527   6.930  -5.118  0.00  0.00    -0.084 Cl
ENDBRANCH  21  22
ENDBRANCH  20  21
ENDBRANCH  19  20
ENDBRANCH   1  19
TORSDOF 9
