REMARK  1 active torsions:
REMARK  status: ('A' for Active; 'I' for Inactive)
REMARK    1  A    between atoms: C_8  and  C_7 
ROOT
ATOM      1  C   UNL d   1       1.186   0.110  -0.009  0.00  0.00     0.101 A 
ATOM      2  N   UNL d   1      -0.811  -1.239   0.040  0.00  0.00    -0.275 N 
ATOM      3  N   UNL d   1      -1.024   1.065  -0.004  0.00  0.00    -0.275 N 
ATOM      4  C   UNL d   1       0.557  -1.232   0.042  0.00  0.00     0.265 A 
ATOM      5  C   UNL d   1       0.317   1.312  -0.099  0.00  0.00     0.265 A 
ATOM      6  C   UNL d   1      -1.628  -0.152   0.018  0.00  0.00     0.329 A 
ATOM      7  C   UNL d   1       2.533   0.155   0.035  0.00  0.00     0.039 C 
ATOM      8  O   UNL d   1       0.727   2.456  -0.260  0.00  0.00    -0.267 OA
ATOM      9  O   UNL d   1       1.192  -2.281   0.081  0.00  0.00    -0.267 OA
ATOM     10  O   UNL d   1      -2.849  -0.266   0.006  0.00  0.00    -0.246 OA
ATOM     11  H   UNL d   1      -1.260  -2.143   0.059  0.00  0.00     0.173 HD
ATOM     12  H   UNL d   1      -1.633   1.869  -0.063  0.00  0.00     0.173 HD
ENDROOT
BRANCH   7  13
ATOM     13  C   UNL d   1       3.353   1.375   0.008  0.00  0.00     0.025 A 
ATOM     14  C   UNL d   1       3.818   1.948  -1.185  0.00  0.00     0.047 A 
ATOM     15 CL   UNL d   1       3.503   1.220  -2.723  0.00  0.00    -0.083 Cl
ATOM     16  C   UNL d   1       4.559   3.136  -1.163  0.00  0.00     0.025 A 
ATOM     17  C   UNL d   1       4.847   3.764   0.050  0.00  0.00     0.005 A 
ATOM     18  C   UNL d   1       4.403   3.197   1.242  0.00  0.00     0.043 A 
ATOM     19  C   UNL d   1       3.665   2.016   1.213  0.00  0.00     0.128 A 
ATOM     20  F   UNL d   1       3.248   1.494   2.378  0.00  0.00    -0.205 F 
ENDBRANCH   7  13
TORSDOF 1
