REMARK  4 active torsions:
REMARK  status: ('A' for Active; 'I' for Inactive)
REMARK    1  A    between atoms: C_3  and  C_1 
REMARK       I    between atoms: N_10  and  C_3 
REMARK    2  A    between atoms: C_19  and  N_10 
REMARK    3  A    between atoms: C_11  and  C_15 
REMARK    4  A    between atoms: C_24  and  C_19 
ROOT
ATOM      1  C   UNL d   1       0.099  -3.141   1.435  0.00  0.00     0.256 C 
ATOM      2  N   UNL d   1      -0.371  -3.650   0.226  0.00  0.00    -0.348 N 
ATOM      3  O   UNL d   1       0.357  -3.842   2.413  0.00  0.00    -0.267 OA
ATOM      4  C   UNL d   1      -1.086  -2.857  -0.769  0.00  0.00     0.153 C 
ENDROOT
BRANCH   2   5
ATOM      5  C   UNL d   1      -0.423  -5.104   0.068  0.00  0.00     0.164 C 
BRANCH   5   6
ATOM      6  C   UNL d   1      -1.821  -5.662   0.183  0.00  0.00    -0.040 A 
ATOM      7  C   UNL d   1      -2.613  -5.855  -0.958  0.00  0.00     0.009 A 
ATOM      8  C   UNL d   1      -3.926  -6.322  -0.842  0.00  0.00     0.013 A 
ATOM      9  C   UNL d   1      -4.471  -6.614   0.414  0.00  0.00    -0.025 A 
ATOM     10  C   UNL d   1      -3.668  -6.440   1.552  0.00  0.00     0.013 A 
ATOM     11  C   UNL d   1      -2.361  -5.961   1.438  0.00  0.00     0.009 A 
BRANCH   9  12
ATOM     12  C   UNL d   1      -5.848  -7.093   0.528  0.00  0.00    -0.019 A 
ATOM     13  C   UNL d   1      -6.669  -6.721   1.578  0.00  0.00     0.061 A 
ATOM     14  S   UNL d   1      -8.227  -7.424   1.486  0.00  0.00    -0.113 SA
ATOM     15  C   UNL d   1      -7.840  -8.217   0.024  0.00  0.00     0.050 A 
ATOM     16  C   UNL d   1      -6.550  -7.950  -0.382  0.00  0.00     0.020 A 
ENDBRANCH   9  12
ENDBRANCH   5   6
ENDBRANCH   2   5
BRANCH   1  17
ATOM     17  C   UNL d   1       0.291  -1.694   1.602  0.00  0.00     0.061 A 
ATOM     18  C   UNL d   1       1.145  -0.934   0.760  0.00  0.00     0.082 A 
ATOM     19  N   UNL d   1       1.846  -1.354  -0.308  0.00  0.00    -0.310 N 
ATOM     20  C   UNL d   1       1.339   0.542   1.031  0.00  0.00     0.068 A 
ATOM     21  S   UNL d   1       2.644  -0.034  -0.914  0.00  0.00     0.068 SA
ATOM     22  HN  UNL d   1       1.880  -2.305  -0.675  1.00  0.00     0.176 HD
ATOM     23  N   UNL d   1       2.146   1.143   0.143  0.00  0.00    -0.310 N 
ATOM     24  HN  UNL d   1       2.402   2.130   0.122  1.00  0.00     0.176 HD
ATOM     25  C   UNL d   1       0.708   1.175   2.129  0.00  0.00     0.032 A 
ATOM     26  C   UNL d   1      -0.089   0.358   2.950  0.00  0.00     0.003 A 
ATOM     27  C   UNL d   1      -0.285  -1.021   2.702  0.00  0.00     0.019 A 
ENDBRANCH   1  17
TORSDOF 4
