REMARK  6 active torsions:
REMARK  status: ('A' for Active; 'I' for Inactive)
REMARK    1  A    between atoms: C_3  and  C_1 
REMARK    2  A    between atoms: C_2  and  C_4 
REMARK    3  A    between atoms: C_13  and  C_5 
REMARK    4  A    between atoms: N_12  and  N_6 
REMARK       I    between atoms: C_8  and  N_12 
REMARK    5  A    between atoms: O_21  and  C_8 
REMARK    6  A    between atoms: C_23  and  O_21 
ROOT
ATOM      1  C   UNL d   1       1.778   8.522   0.173  0.00  0.00     0.049 A 
ATOM      2  C   UNL d   1      -0.517   7.704   0.322  0.00  0.00     0.049 A 
ATOM      3  C   UNL d   1       1.328   6.116   0.118  0.00  0.00    -0.011 A 
ATOM      4  C   UNL d   1       0.401   8.764   0.289  0.00  0.00     0.032 A 
ATOM      5  C   UNL d   1      -0.040   6.383   0.247  0.00  0.00     0.029 A 
ATOM      6  C   UNL d   1       2.229   7.193   0.093  0.00  0.00     0.029 A 
ENDROOT
BRANCH   3   7
ATOM      7  C   UNL d   1       1.850   4.710  -0.045  0.00  0.00     0.032 C 
ATOM      8  N   UNL d   1       3.135   4.563  -0.182  0.00  0.00    -0.300 N 
ATOM      9  HN  UNL d   1       3.742   5.382  -0.140  1.00  0.00     0.186 HD
ATOM     10  C   UNL d   1       0.833   3.585  -0.068  0.00  0.00     0.070 C 
BRANCH   8  11
ATOM     11  N   UNL d   1       3.680   3.338  -0.381  0.00  0.00    -0.245 N 
ATOM     12  C   UNL d   1       4.989   3.214  -0.780  0.00  0.00     0.379 C 
ATOM     13  O   UNL d   1       5.815   4.112  -0.872  0.00  0.00    -0.237 OA
ATOM     14  H   UNL d   1       3.118   2.509  -0.490  0.00  0.00     0.192 HD
BRANCH  12  15
ATOM     15  O   UNL d   1       5.203   1.921  -1.147  0.00  0.00    -0.303 OA
BRANCH  15  16
ATOM     16  C   UNL d   1       6.402   1.687  -1.898  0.00  0.00     0.176 C 
ATOM     17  C   UNL d   1       6.089   1.879  -3.370  0.00  0.00     0.034 C 
ENDBRANCH  15  16
ENDBRANCH  12  15
ENDBRANCH   8  11
ENDBRANCH   3   7
BRANCH   1  18
ATOM     18  C   UNL d   1       2.768   9.663   0.104  0.00  0.00     0.417 C 
ATOM     19  F   UNL d   1       2.175  10.889   0.156  0.00  0.00    -0.166 F 
ATOM     20  F   UNL d   1       3.496   9.653  -1.045  0.00  0.00    -0.166 F 
ATOM     21  F   UNL d   1       3.666   9.641   1.126  0.00  0.00    -0.166 F 
ENDBRANCH   1  18
BRANCH   2  22
ATOM     22  C   UNL d   1      -2.005   7.955   0.408  0.00  0.00     0.417 C 
ATOM     23  F   UNL d   1      -2.337   9.274   0.420  0.00  0.00    -0.166 F 
ATOM     24  F   UNL d   1      -2.676   7.407  -0.642  0.00  0.00    -0.166 F 
ATOM     25  F   UNL d   1      -2.557   7.414   1.528  0.00  0.00    -0.166 F 
ENDBRANCH   2  22
TORSDOF 6
