REMARK  1 active torsions:
REMARK  status: ('A' for Active; 'I' for Inactive)
REMARK    1  A    between atoms: C_15  and  C_8 
ROOT
ATOM      1  C   UNL d   1      -1.256   0.644  -0.056  0.00  0.00     0.120 C 
ATOM      2  C   UNL d   1      -1.309  -0.703  -0.043  0.00  0.00     0.067 C 
ATOM      3  C   UNL d   1      -2.627  -1.373  -0.110  0.00  0.00     0.258 C 
ATOM      4  C   UNL d   1       1.217  -0.728  -0.083  0.00  0.00     0.024 C 
ATOM      5  N   UNL d   1      -2.417   1.365  -0.072  0.00  0.00    -0.319 N 
ATOM      6  N   UNL d   1      -3.717  -0.551  -0.020  0.00  0.00    -0.299 N 
ATOM      7  C   UNL d   1       1.181   0.621  -0.084  0.00  0.00     0.022 C 
ATOM      8  C   UNL d   1      -0.055  -1.560   0.044  0.00  0.00     0.099 C 
ATOM      9  N   UNL d   1      -0.034   1.280  -0.034  0.00  0.00    -0.345 N 
ATOM     10  C   UNL d   1      -3.660   0.808  -0.030  0.00  0.00     0.180 C 
ATOM     11  C   UNL d   1       2.521  -1.437  -0.227  0.00  0.00     0.159 C 
ATOM     12  C   UNL d   1       2.430   1.471  -0.096  0.00  0.00     0.067 C 
ATOM     13  C   UNL d   1       3.663   0.730   0.463  0.00  0.00    -0.036 C 
ATOM     14  C   UNL d   1       3.796  -0.618  -0.263  0.00  0.00     0.092 C 
ATOM     15  S   UNL d   1      -5.029   1.748   0.006  0.00  0.00    -0.040 SA
ATOM     16  O   UNL d   1      -2.746  -2.583  -0.259  0.00  0.00    -0.267 OA
ATOM     17  O   UNL d   1       2.555  -2.655  -0.396  0.00  0.00    -0.293 OA
ATOM     18  C   UNL d   1       3.537   0.517   1.987  0.00  0.00     0.015 C 
ATOM     19  C   UNL d   1       4.926   1.573   0.209  0.00  0.00     0.015 C 
ATOM     20  H   UNL d   1      -2.372   2.377  -0.075  0.00  0.00     0.170 HD
ATOM     21  H   UNL d   1      -4.622  -0.999  -0.037  0.00  0.00     0.171 HD
ATOM     22  H   UNL d   1      -0.031   2.291  -0.107  0.00  0.00     0.167 HD
ENDROOT
BRANCH   8  23
ATOM     23  C   UNL d   1      -0.043  -2.363   1.352  0.00  0.00    -0.045 A 
ATOM     24  C   UNL d   1      -0.008  -3.765   1.311  0.00  0.00     0.010 A 
ATOM     25  C   UNL d   1      -0.001  -4.512   2.490  0.00  0.00     0.024 A 
ATOM     26  C   UNL d   1      -0.030  -3.861   3.720  0.00  0.00     0.034 A 
ATOM     27  C   UNL d   1      -0.062  -2.470   3.783  0.00  0.00     0.024 A 
ATOM     28 CL   UNL d   1      -0.025  -4.780   5.175  0.00  0.00    -0.084 Cl
ATOM     29  C   UNL d   1      -0.067  -1.722   2.603  0.00  0.00     0.010 A 
ENDBRANCH   8  23
TORSDOF 1
