REMARK  2 active torsions:
REMARK  status: ('A' for Active; 'I' for Inactive)
REMARK    1  A    between atoms: N_3  and  C_1 
REMARK       I    between atoms: C_2  and  N_3 
REMARK       I    between atoms: N_7  and  C_2 
REMARK    2  A    between atoms: C_8  and  N_11 
ROOT
ATOM      1  C   UNL d   1       1.248   3.069  -0.117  0.00  0.00     0.323 C 
ATOM      2  N   UNL d   1       0.503   2.855  -1.254  0.00  0.00    -0.305 N 
ATOM      3  N   UNL d   1       2.519   2.502  -0.092  0.00  0.00    -0.332 N 
ATOM      4  N   UNL d   1       5.111   1.328   0.409  0.00  0.00    -0.251 NA
ATOM      5  O   UNL d   1       0.850   3.725   0.844  0.00  0.00    -0.247 OA
ATOM      6  C   UNL d   1       3.146   1.649  -1.116  0.00  0.00     0.142 C 
ATOM      7  C   UNL d   1       3.474   3.088   0.862  0.00  0.00     0.142 C 
ATOM      8  C   UNL d   1       4.414   2.047   1.480  0.00  0.00     0.118 C 
ATOM      9  C   UNL d   1       4.223   0.675  -0.562  0.00  0.00     0.118 C 
ATOM     10  H   UNL d   1       0.845   2.198  -1.931  0.00  0.00     0.171 HD
ENDROOT
BRANCH   2  11
ATOM     11  C   UNL d   1      -0.785   3.346  -1.491  0.00  0.00     0.092 C 
ATOM     12  C   UNL d   1      -1.519   4.330  -0.852  0.00  0.00     0.101 C 
ATOM     13  O   UNL d   1      -2.765   4.390  -1.399  0.00  0.00    -0.240 OA
ATOM     14  C   UNL d   1      -1.284   5.348   0.192  0.00  0.00     0.081 C 
ATOM     15  N   UNL d   1      -2.849   3.537  -2.472  0.00  0.00    -0.263 N 
ATOM     16  C   UNL d   1      -1.650   2.953  -2.562  0.00  0.00     0.058 C 
ATOM     17  HN  UNL d   1      -3.658   3.380  -3.073  1.00  0.00     0.194 HD
ATOM     18  C   UNL d   1      -1.384   2.054  -3.708  0.00  0.00     0.072 C 
ENDBRANCH   2  11
BRANCH   4  19
ATOM     19  C   UNL d   1       6.172   0.531   0.844  0.00  0.00     0.159 A 
ATOM     20  N   UNL d   1       6.596   0.634   2.117  0.00  0.00    -0.343 N 
ATOM     21  C   UNL d   1       7.670  -0.089   2.491  0.00  0.00     0.092 A 
ATOM     22  HN  UNL d   1       6.118   1.244   2.781  1.00  0.00     0.167 HD
ATOM     23  C   UNL d   1       8.358  -0.909   1.639  0.00  0.00     0.034 A 
ATOM     24  C   UNL d   1       7.863  -0.963   0.366  0.00  0.00     0.092 A 
ATOM     25  N   UNL d   1       6.777  -0.271  -0.049  0.00  0.00    -0.343 N 
ATOM     26  HN  UNL d   1       6.430  -0.355  -1.005  1.00  0.00     0.167 HD
ENDBRANCH   4  19
TORSDOF 2
