REMARK  3 active torsions:
REMARK  status: ('A' for Active; 'I' for Inactive)
REMARK    1  A    between atoms: C_2  and  C_1 
REMARK       I    between atoms: N_3  and  C_2 
REMARK    2  A    between atoms: C_14  and  N_3 
REMARK    3  A    between atoms: C_6  and  C_14 
ROOT
ATOM      1  C   UNL d   1       2.578   1.395   0.071  0.00  0.00     0.252 C 
ATOM      2  N   UNL d   1       3.877   0.949   0.076  0.00  0.00    -0.351 N 
ATOM      3  O   UNL d   1       1.624   0.622   0.092  0.00  0.00    -0.268 OA
ATOM      4  H   UNL d   1       4.647   1.583  -0.082  0.00  0.00     0.163 HD
ENDROOT
BRANCH   2   5
ATOM      5  C   UNL d   1       4.162  -0.463   0.017  0.00  0.00     0.187 C 
BRANCH   5   6
ATOM      6  C   UNL d   1       5.630  -0.687   0.021  0.00  0.00     0.070 A 
ATOM      7  O   UNL d   1       6.411   0.255  -0.591  0.00  0.00    -0.325 OA
ATOM      8  C   UNL d   1       7.697  -0.167  -0.486  0.00  0.00     0.142 A 
ATOM      9  C   UNL d   1       7.758  -1.366   0.183  0.00  0.00     0.027 A 
ATOM     10  C   UNL d   1       6.424  -1.703   0.513  0.00  0.00     0.036 A 
ENDBRANCH   5   6
ENDBRANCH   2   5
BRANCH   1  11
ATOM     11  C   UNL d   1       2.403   2.850   0.035  0.00  0.00     0.038 A 
ATOM     12  C   UNL d   1       1.138   3.418   0.006  0.00  0.00     0.066 A 
ATOM     13  S   UNL d   1       1.161   5.126  -0.020  0.00  0.00    -0.113 SA
ATOM     14  C   UNL d   1       2.867   5.152   0.003  0.00  0.00     0.050 A 
ATOM     15  C   UNL d   1       3.404   3.883   0.029  0.00  0.00     0.024 A 
ENDBRANCH   1  11
TORSDOF 3
