REMARK  5 active torsions:
REMARK  status: ('A' for Active; 'I' for Inactive)
REMARK    1  A    between atoms: S_8  and  C_1 
REMARK    2  A    between atoms: C_2  and  S_8 
REMARK    3  A    between atoms: C_3  and  S_19 
REMARK    4  A    between atoms: N_5  and  C_4 
REMARK    5  A    between atoms: S_19  and  C_22 
ROOT
ATOM      1  C   UNL d   1      -0.581   1.220   0.100  0.00  0.00     0.111 A 
ATOM      2  C   UNL d   1       0.804   1.217   0.201  0.00  0.00     0.136 A 
ATOM      3  N   UNL d   1      -1.270   0.054  -0.059  0.00  0.00    -0.343 N 
ATOM      4  HN  UNL d   1      -2.287   0.058  -0.129  1.00  0.00     0.167 HD
ATOM      5  C   UNL d   1      -0.576  -1.111  -0.122  0.00  0.00     0.077 A 
ATOM      6  C   UNL d   1       1.520   0.021   0.108  0.00  0.00     0.042 A 
ATOM      7  C   UNL d   1       0.812  -1.165  -0.060  0.00  0.00     0.040 A 
ENDROOT
BRANCH   1   8
ATOM      8  S   UNL d   1      -1.590   2.686   0.028  0.00  0.00    -0.043 SA
BRANCH   8   9
ATOM      9  C   UNL d   1      -2.101   2.812   1.691  0.00  0.00     0.134 A 
ATOM     10  S   UNL d   1      -3.325   3.919   2.169  0.00  0.00    -0.049 SA
ATOM     11  C   UNL d   1      -3.139   3.327   3.768  0.00  0.00     0.065 A 
ATOM     12  C   UNL d   1      -4.002   3.820   4.874  0.00  0.00     0.078 C 
ATOM     13  N   UNL d   1      -2.199   2.412   3.894  0.00  0.00    -0.297 N 
ATOM     14  N   UNL d   1      -1.586   2.120   2.685  0.00  0.00    -0.287 N 
ATOM     15  HN  UNL d   1      -1.950   1.971   4.779  1.00  0.00     0.187 HD
ATOM     16  HN  UNL d   1      -0.826   1.448   2.579  1.00  0.00     0.188 HD
ENDBRANCH   8   9
ENDBRANCH   1   8
BRANCH   2  17
ATOM     17  N   UNL d   1       1.551   2.435   0.406  0.00  0.00    -0.113 N 
ATOM     18  O   UNL d   1       1.469   3.312  -0.464  0.00  0.00    -0.532 OA
ATOM     19  O   UNL d   1       2.270   2.487   1.410  0.00  0.00    -0.532 OA
ENDBRANCH   2  17
BRANCH   5  20
ATOM     20  S   UNL d   1      -1.525  -2.614  -0.099  0.00  0.00    -0.046 SA
BRANCH  20  21
ATOM     21  C   UNL d   1      -1.748  -2.853  -1.812  0.00  0.00     0.134 A 
ATOM     22  S   UNL d   1      -3.148  -3.624  -2.441  0.00  0.00    -0.049 SA
ATOM     23  C   UNL d   1      -2.442  -3.477  -3.998  0.00  0.00     0.065 A 
ATOM     24  C   UNL d   1      -3.145  -3.972  -5.210  0.00  0.00     0.078 C 
ATOM     25  N   UNL d   1      -1.255  -2.904  -3.997  0.00  0.00    -0.297 N 
ATOM     26  N   UNL d   1      -0.848  -2.548  -2.722  0.00  0.00    -0.287 N 
ATOM     27  HN  UNL d   1      -0.701  -2.741  -4.838  1.00  0.00     0.187 HD
ATOM     28  HN  UNL d   1       0.045  -2.101  -2.513  1.00  0.00     0.188 HD
ENDBRANCH  20  21
ENDBRANCH   5  20
TORSDOF 5
