REMARK  6 active torsions:
REMARK  status: ('A' for Active; 'I' for Inactive)
REMARK    1  A    between atoms: N_11  and  N_1 
REMARK    2  A    between atoms: C_16  and  C_2 
REMARK    3  A    between atoms: C_6  and  C_17 
REMARK    4  A    between atoms: C_24  and  N_9 
REMARK    5  A    between atoms: C_21  and  C_10 
REMARK    6  A    between atoms: N_14  and  C_19 
ROOT
ATOM      1  N   UNL d   1       4.611  -5.141  -0.641  0.00  0.00    -0.292 N 
ATOM      2  HN  UNL d   1       5.050  -5.924  -1.126  1.00  0.00     0.187 HD
ATOM      3  C   UNL d   1       3.127  -3.542   0.015  0.00  0.00     0.027 A 
ATOM      4  N   UNL d   1       5.141  -4.405   0.364  0.00  0.00    -0.266 N 
ATOM      5  C   UNL d   1       3.390  -4.631  -0.872  0.00  0.00     0.072 A 
ATOM      6  C   UNL d   1       4.289  -3.396   0.743  0.00  0.00     0.132 A 
ENDROOT
BRANCH   3   7
ATOM      7  C   UNL d   1       1.947  -2.734   0.221  0.00  0.00     0.123 C 
ATOM      8  N   UNL d   1       0.808  -3.251  -0.089  0.00  0.00    -0.300 N 
ATOM      9  HN  UNL d   1       0.766  -4.198  -0.466  1.00  0.00     0.186 HD
BRANCH   8  10
ATOM     10  N   UNL d   1      -0.339  -2.539   0.086  0.00  0.00    -0.210 N 
ATOM     11  C   UNL d   1      -1.571  -3.139   0.237  0.00  0.00     0.161 A 
ATOM     12  N   UNL d   1      -2.572  -2.300   0.154  0.00  0.00    -0.281 N 
ATOM     13  N   UNL d   1      -1.994  -1.084  -0.087  0.00  0.00    -0.273 N 
ATOM     14  HN  UNL d   1      -3.567  -2.507   0.248  1.00  0.00     0.188 HD
ATOM     15  C   UNL d   1      -0.613  -1.215  -0.215  0.00  0.00     0.214 A 
ATOM     16  H   UNL d   1      -2.549  -0.261  -0.292  0.00  0.00     0.189 HD
ATOM     17  S   UNL d   1       0.357   0.038  -0.710  0.00  0.00    -0.037 SA
BRANCH  11  18
ATOM     18  C   UNL d   1      -1.732  -4.558   0.479  0.00  0.00     0.052 A 
ATOM     19  S   UNL d   1      -3.214  -5.322   0.060  0.00  0.00    -0.098 SA
ATOM     20  C   UNL d   1      -2.678  -6.844   0.621  0.00  0.00     0.050 A 
ATOM     21  C   UNL d   1      -1.399  -6.786   1.123  0.00  0.00     0.009 A 
ATOM     22  C   UNL d   1      -0.853  -5.472   1.035  0.00  0.00     0.023 A 
ENDBRANCH  11  18
ENDBRANCH   8  10
ENDBRANCH   3   7
BRANCH   5  23
ATOM     23  C   UNL d   1       2.544  -5.199  -1.933  0.00  0.00    -0.007 A 
ATOM     24  C   UNL d   1       2.590  -6.574  -2.220  0.00  0.00     0.016 A 
ATOM     25  C   UNL d   1       1.787  -7.124  -3.227  0.00  0.00     0.037 A 
ATOM     26  C   UNL d   1       0.921  -6.297  -3.953  0.00  0.00     0.102 A 
ATOM     27  C   UNL d   1       0.868  -4.925  -3.687  0.00  0.00     0.037 A 
ATOM     28  C   UNL d   1       1.695  -4.384  -2.697  0.00  0.00     0.016 A 
BRANCH  26  29
ATOM     29  N   UNL d   1       0.079  -6.863  -5.011  0.00  0.00    -0.116 N 
ATOM     30  O   UNL d   1       0.182  -8.073  -5.248  0.00  0.00    -0.532 OA
ATOM     31  O   UNL d   1      -0.686  -6.092  -5.615  0.00  0.00    -0.532 OA
ENDBRANCH  26  29
ENDBRANCH   5  23
BRANCH   4  32
ATOM     32  C   UNL d   1       6.416  -4.721   0.917  0.00  0.00     0.056 A 
ATOM     33  C   UNL d   1       6.920  -4.020   2.024  0.00  0.00     0.031 A 
ATOM     34  C   UNL d   1       8.165  -4.360   2.562  0.00  0.00     0.002 A 
ATOM     35  C   UNL d   1       8.914  -5.393   2.002  0.00  0.00     0.000 A 
ATOM     36  C   UNL d   1       8.421  -6.091   0.902  0.00  0.00     0.002 A 
ATOM     37  C   UNL d   1       7.175  -5.760   0.360  0.00  0.00     0.031 A 
ENDBRANCH   4  32
TORSDOF 6
