REMARK  4 active torsions:
REMARK  status: ('A' for Active; 'I' for Inactive)
REMARK    1  A    between atoms: C_3  and  C_2 
REMARK    2  A    between atoms: O_16  and  C_6 
REMARK    3  A    between atoms: O_17  and  C_9 
REMARK    4  A    between atoms: N_14  and  C_10 
ROOT
ATOM      1  C   UNL d   1      -0.033   0.556  -0.189  0.00  0.00    -0.012 A 
ATOM      2  C   UNL d   1       1.350   1.129  -0.522  0.00  0.00     0.288 C 
ATOM      3  C   UNL d   1      -1.183   1.366  -0.139  0.00  0.00     0.049 A 
ATOM      4  C   UNL d   1      -0.175  -0.812   0.061  0.00  0.00    -0.045 A 
ATOM      5  C   UNL d   1      -2.462   0.825   0.101  0.00  0.00     0.102 A 
ATOM      6  N   UNL d   1       2.452   0.486   0.244  0.00  0.00     0.097 N 
ATOM      7  C   UNL d   1      -1.443  -1.366   0.243  0.00  0.00     0.047 A 
ATOM      8  C   UNL d   1      -2.594  -0.565   0.256  0.00  0.00     0.102 A 
ATOM      9  C   UNL d   1       2.147  -0.811   0.867  0.00  0.00     0.275 C 
ATOM     10  C   UNL d   1       1.068  -1.645   0.171  0.00  0.00     0.069 C 
ATOM     11  H   UNL d   1       2.761   1.135   0.968  0.00  0.00     0.317 HD
ENDROOT
BRANCH   2  12
ATOM     12  C   UNL d   1       1.627   1.214  -2.045  0.00  0.00     0.002 A 
ATOM     13  C   UNL d   1       2.673   0.549  -2.728  0.00  0.00     0.014 A 
ATOM     14  C   UNL d   1       2.790   0.650  -4.126  0.00  0.00     0.025 A 
ATOM     15  C   UNL d   1       1.915   1.438  -4.868  0.00  0.00     0.026 A 
ATOM     16  C   UNL d   1       0.917   2.138  -4.210  0.00  0.00     0.034 A 
ATOM     17  C   UNL d   1       0.772   2.029  -2.825  0.00  0.00     0.035 A 
ATOM     18 CL   UNL d   1      -0.134   3.171  -5.101  0.00  0.00    -0.084 Cl
BRANCH  13  19
ATOM     19  N   UNL d   1       3.700  -0.138  -2.061  0.00  0.00    -0.302 NA
ATOM     20  H   UNL d   1       3.537  -0.118  -1.050  0.00  0.00     0.124 HD
ATOM     21  H   UNL d   1       3.842  -1.078  -2.412  0.00  0.00     0.124 HD
ENDBRANCH  13  19
ENDBRANCH   2  12
BRANCH   5  22
ATOM     22  O   UNL d   1      -3.591   1.595   0.186  0.00  0.00    -0.353 OA
ATOM     23  C   UNL d   1      -3.452   3.009   0.203  0.00  0.00     0.210 C 
ENDBRANCH   5  22
BRANCH   8  24
ATOM     24  O   UNL d   1      -3.730  -1.307   0.453  0.00  0.00    -0.353 OA
ATOM     25  C   UNL d   1      -4.992  -0.659   0.439  0.00  0.00     0.210 C 
ENDBRANCH   8  24
TORSDOF 4
