REMARK  4 active torsions:
REMARK  status: ('A' for Active; 'I' for Inactive)
REMARK    1  A    between atoms: O_2  and  C_1 
REMARK    2  A    between atoms: C_7  and  O_2 
REMARK    3  A    between atoms: C_11  and  N_3 
REMARK    4  A    between atoms: C_5  and  C_6 
ROOT
ATOM      1  C   UNL d   1       2.297   0.885   2.552  0.00  0.00     0.013 A 
ATOM      2  C   UNL d   1       0.975   1.030   2.098  0.00  0.00     0.089 A 
ATOM      3  C   UNL d   1       2.608   1.040   3.909  0.00  0.00     0.015 A 
ATOM      4  C   UNL d   1      -0.002   1.442   3.011  0.00  0.00     0.038 A 
ATOM      5  C   UNL d   1       1.610   1.377   4.819  0.00  0.00     0.001 A 
ATOM      6  C   UNL d   1       0.311   1.599   4.366  0.00  0.00     0.003 A 
ENDROOT
BRANCH   1   7
ATOM      7  C   UNL d   1       3.397   0.648   1.591  0.00  0.00     0.102 C 
ATOM      8  N   UNL d   1       4.606   1.009   1.877  0.00  0.00    -0.365 N 
ATOM      9  HN  UNL d   1       4.810   1.362   2.812  1.00  0.00     0.165 HD
BRANCH   8  10
ATOM     10  C   UNL d   1       5.642   0.929   0.940  0.00  0.00     0.032 A 
ATOM     11  C   UNL d   1       5.470   1.015  -0.453  0.00  0.00     0.031 A 
ATOM     12  C   UNL d   1       6.572   1.057  -1.310  0.00  0.00     0.026 A 
ATOM     13  C   UNL d   1       7.863   1.035  -0.787  0.00  0.00     0.034 A 
ATOM     14  C   UNL d   1       8.057   0.952   0.590  0.00  0.00     0.026 A 
ATOM     15 CL   UNL d   1       9.218   1.142  -1.838  0.00  0.00    -0.084 Cl
ATOM     16  C   UNL d   1       6.950   0.893   1.440  0.00  0.00     0.031 A 
ENDBRANCH   8  10
ENDBRANCH   1   7
BRANCH   2  17
ATOM     17  O   UNL d   1       0.746   0.802   0.771  0.00  0.00    -0.254 OA
BRANCH  17  18
ATOM     18  C   UNL d   1      -0.571   0.467   0.359  0.00  0.00     0.530 C 
ATOM     19  F   UNL d   1      -1.270  -0.192   1.308  0.00  0.00    -0.144 F 
ATOM     20  F   UNL d   1      -0.484  -0.341  -0.721  0.00  0.00    -0.144 F 
ATOM     21  F   UNL d   1      -1.240   1.583   0.004  0.00  0.00    -0.144 F 
ENDBRANCH  17  18
ENDBRANCH   2  17
TORSDOF 4
