REMARK  5 active torsions:
REMARK  status: ('A' for Active; 'I' for Inactive)
REMARK    1  A    between atoms: C_6  and  C_1 
REMARK    2  A    between atoms: C_5  and  C_4 
REMARK       I    between atoms: N_7  and  C_6 
REMARK       I    between atoms: C_8  and  N_7 
REMARK       I    between atoms: N_16  and  C_8 
REMARK    3  A    between atoms: C_10  and  C_13 
REMARK    4  A    between atoms: C_27  and  N_16 
REMARK    5  A    between atoms: C_17  and  C_18 
ROOT
ATOM      1  C   UNL d   1       2.092   1.843  -0.116  0.00  0.00     0.256 C 
ATOM      2  N   UNL d   1       1.703   3.130  -0.378  0.00  0.00    -0.174 NA
ATOM      3  C   UNL d   1       0.578   3.554   0.267  0.00  0.00     0.305 C 
ATOM      4  N   UNL d   1      -0.550   3.470  -0.499  0.00  0.00    -0.313 N 
ATOM      5  O   UNL d   1       0.689   4.098   1.362  0.00  0.00    -0.253 OA
ATOM      6  O   UNL d   1       2.971   1.643   0.726  0.00  0.00    -0.272 OA
ATOM      7  H   UNL d   1       2.414   3.648   0.131  0.00  0.00     0.141 HD
ATOM      8  H   UNL d   1      -0.415   3.078  -1.424  0.00  0.00     0.170 HD
ENDROOT
BRANCH   1   9
ATOM      9  C   UNL d   1       1.664   0.801  -1.045  0.00  0.00     0.103 A 
ATOM     10  N   UNL d   1       0.376   0.657  -1.579  0.00  0.00    -0.345 N 
ATOM     11  C   UNL d   1       0.310  -0.411  -2.376  0.00  0.00     0.086 A 
ATOM     12  HN  UNL d   1      -0.405   1.284  -1.385  1.00  0.00     0.167 HD
ATOM     13  S   UNL d   1       1.836  -1.185  -2.604  0.00  0.00    -0.081 SA
ATOM     14  C   UNL d   1       2.568  -0.136  -1.501  0.00  0.00     0.086 A 
BRANCH  11  15
ATOM     15  C   UNL d   1      -0.891  -0.784  -3.183  0.00  0.00     0.019 C 
ATOM     16  C   UNL d   1      -1.028  -1.898  -4.043  0.00  0.00     0.047 C 
ATOM     17  C   UNL d   1      -2.045  -1.936  -5.011  0.00  0.00     0.041 C 
ATOM     18 CL   UNL d   1      -0.047  -3.325  -3.998  0.00  0.00    -0.083 Cl
ATOM     19  C   UNL d   1      -2.997  -0.915  -5.104  0.00  0.00     0.049 C 
ATOM     20  C   UNL d   1      -2.990   0.081  -4.126  0.00  0.00     0.017 C 
ATOM     21  C   UNL d   1      -1.956   0.141  -3.183  0.00  0.00     0.017 C 
BRANCH  19  22
ATOM     22  C   UNL d   1      -3.959  -0.847  -6.265  0.00  0.00     0.417 C 
ATOM     23  F   UNL d   1      -3.921  -1.946  -7.069  0.00  0.00    -0.166 F 
ATOM     24  F   UNL d   1      -5.251  -0.706  -5.875  0.00  0.00    -0.166 F 
ATOM     25  F   UNL d   1      -3.691   0.214  -7.074  0.00  0.00    -0.166 F 
ENDBRANCH  19  22
ENDBRANCH  11  15
ENDBRANCH   1   9
BRANCH   4  26
ATOM     26  C   UNL d   1      -1.859   3.832  -0.131  0.00  0.00     0.035 C 
ATOM     27  C   UNL d   1      -2.838   3.787  -1.123  0.00  0.00     0.030 C 
ATOM     28  C   UNL d   1      -4.185   3.962  -0.793  0.00  0.00     0.010 C 
ATOM     29  C   UNL d   1      -4.593   4.150   0.540  0.00  0.00    -0.051 C 
ATOM     30  C   UNL d   1      -3.585   4.327   1.499  0.00  0.00     0.010 C 
ATOM     31  C   UNL d   1      -2.235   4.170   1.168  0.00  0.00     0.030 C 
BRANCH  29  32
ATOM     32  C   UNL d   1      -6.075   3.994   0.915  0.00  0.00    -0.024 C 
ATOM     33  C   UNL d   1      -6.365   4.134   2.427  0.00  0.00     0.019 C 
ATOM     34  C   UNL d   1      -6.961   5.017   0.178  0.00  0.00     0.019 C 
ATOM     35  C   UNL d   1      -6.498   2.561   0.505  0.00  0.00     0.019 C 
ENDBRANCH  29  32
ENDBRANCH   4  26
TORSDOF 5
