REMARK  0 active torsions:
REMARK  status: ('A' for Active; 'I' for Inactive)
ROOT
ATOM      1  C   UNL d   1       1.031  -0.769  -0.002  0.00  0.00     0.102 A 
ATOM      2  C   UNL d   1      -0.299  -1.126   0.002  0.00  0.00     0.039 A 
ATOM      3  C   UNL d   1       2.149  -1.656  -0.006  0.00  0.00     0.108 C 
ATOM      4  S   UNL d   1       1.206   0.937  -0.003  0.00  0.00    -0.090 SA
ATOM      5  N   UNL d   1       3.060  -2.375  -0.009  0.00  0.00    -0.191 NA
ATOM      6  C   UNL d   1      -1.181  -0.013   0.002  0.00  0.00     0.028 A 
ATOM      7  C   UNL d   1      -0.490   1.179  -0.000  0.00  0.00     0.052 A 
ATOM      8 BR   UNL d   1      -0.981  -2.891   0.006  0.00  0.00    -0.049 Br
ENDROOT
TORSDOF 0
