REMARK  4 active torsions:
REMARK  status: ('A' for Active; 'I' for Inactive)
REMARK    1  A    between atoms: N_6  and  C_1 
REMARK       I    between atoms: C_3  and  N_6 
REMARK    2  A    between atoms: C_5  and  C_3 
REMARK    3  A    between atoms: C_7  and  C_4 
REMARK    4  A    between atoms: O_13  and  C_7 
ROOT
ATOM      1  C   UNL d   1       5.261   0.857   0.580  0.00  0.00     0.246 C 
ATOM      2  N   UNL d   1       5.512  -0.493   0.576  0.00  0.00    -0.323 N 
ATOM      3  O   UNL d   1       6.007   1.766   0.921  0.00  0.00    -0.268 OA
ATOM      4  H   UNL d   1       4.723  -1.107   0.397  0.00  0.00     0.169 HD
ENDROOT
BRANCH   1   5
ATOM      5  C   UNL d   1       3.861   1.159   0.163  0.00  0.00     0.088 C 
ATOM      6  C   UNL d   1       3.509   2.300  -0.466  0.00  0.00     0.017 C 
ATOM      7  C   UNL d   1       4.470   3.342  -0.946  0.00  0.00     0.055 C 
BRANCH   6   8
ATOM      8  C   UNL d   1       2.062   2.427  -0.764  0.00  0.00     0.171 C 
ATOM      9  O   UNL d   1       1.317   1.468  -0.899  0.00  0.00    -0.646 OA
BRANCH   8  10
ATOM     10  O   UNL d   1       1.626   3.698  -0.858  0.00  0.00    -0.773 OA
ATOM     11  H   UNL d   1       2.268   4.388  -0.615  0.00  0.00     0.167 HD
ENDBRANCH   8  10
ENDBRANCH   6   8
ENDBRANCH   1   5
BRANCH   2  12
ATOM     12  C   UNL d   1       6.693  -1.158   0.907  0.00  0.00     0.048 A 
ATOM     13  C   UNL d   1       8.054  -0.692   1.065  0.00  0.00    -0.028 A 
ATOM     14  C   UNL d   1       8.885  -1.724   1.478  0.00  0.00     0.058 A 
ATOM     15  C   UNL d   1       8.618   0.671   0.821  0.00  0.00     0.051 C 
ATOM     16  S   UNL d   1       8.101  -3.228   1.585  0.00  0.00    -0.111 SA
ATOM     17  C   UNL d   1       6.625  -2.528   1.107  0.00  0.00     0.079 A 
ENDBRANCH   2  12
TORSDOF 4
