REMARK  5 active torsions:
REMARK  status: ('A' for Active; 'I' for Inactive)
REMARK    1  A    between atoms: N_3  and  C_1 
REMARK    2  A    between atoms: S_2  and  N_3 
REMARK    3  A    between atoms: C_9  and  S_2 
REMARK    4  A    between atoms: C_10  and  C_4 
REMARK    5  A    between atoms: S_15  and  C_7 
ROOT
ATOM      1  C   UNL d   1      -0.121   1.226  -0.136  0.00  0.00     0.124 A 
ATOM      2  C   UNL d   1       1.234   0.832  -0.355  0.00  0.00     0.066 A 
ATOM      3  N   UNL d   1      -0.935   0.193   0.079  0.00  0.00    -0.288 N 
ATOM      4  HN  UNL d   1      -1.934   0.208   0.288  1.00  0.00     0.188 HD
ATOM      5  C   UNL d   1       1.184  -0.547  -0.224  0.00  0.00     0.100 A 
ATOM      6  N   UNL d   1      -0.126  -0.872  -0.044  0.00  0.00    -0.292 N 
ATOM      7  H   UNL d   1      -0.511  -1.801   0.091  0.00  0.00     0.187 HD
ENDROOT
BRANCH   1   8
ATOM      8  N   UNL d   1      -0.613   2.501   0.108  0.00  0.00    -0.164 NA
ATOM      9  H   UNL d   1      -1.284   2.505   0.874  0.00  0.00     0.147 HD
BRANCH   8  10
ATOM     10  S   UNL d   1      -1.264   3.439  -1.135  0.00  0.00     0.247 S 
ATOM     11  O   UNL d   1      -2.009   4.500  -0.491  0.00  0.00    -0.205 OA
ATOM     12  O   UNL d   1      -0.215   3.726  -2.091  0.00  0.00    -0.205 OA
BRANCH  10  13
ATOM     13  C   UNL d   1      -2.467   2.387  -1.920  0.00  0.00     0.075 A 
ATOM     14  C   UNL d   1      -3.595   1.973  -1.198  0.00  0.00     0.026 A 
ATOM     15  C   UNL d   1      -4.526   1.125  -1.802  0.00  0.00     0.025 A 
ATOM     16  C   UNL d   1      -4.338   0.715  -3.122  0.00  0.00     0.034 A 
ATOM     17  C   UNL d   1      -3.241   1.170  -3.857  0.00  0.00     0.025 A 
ATOM     18 CL   UNL d   1      -5.461  -0.368  -3.848  0.00  0.00    -0.084 Cl
ATOM     19  C   UNL d   1      -2.301   2.012  -3.257  0.00  0.00     0.026 A 
ENDBRANCH  10  13
ENDBRANCH   8  10
ENDBRANCH   1   8
BRANCH   2  20
ATOM     20  C   UNL d   1       2.456   1.617  -0.473  0.00  0.00     0.048 A 
ATOM     21  N   UNL d   1       3.463   1.067  -1.197  0.00  0.00    -0.365 N 
ATOM     22  C   UNL d   1       4.616   1.763  -1.297  0.00  0.00     0.088 A 
ATOM     23  HN  UNL d   1       3.352   0.160  -1.649  1.00  0.00     0.165 HD
ATOM     24  C   UNL d   1       4.821   3.004  -0.717  0.00  0.00     0.017 A 
ATOM     25  C   UNL d   1       3.780   3.563   0.010  0.00  0.00     0.004 A 
ATOM     26  C   UNL d   1       2.583   2.861   0.140  0.00  0.00     0.030 A 
ENDBRANCH   2  20
BRANCH   5  27
ATOM     27  S   UNL d   1       2.354  -1.818  -0.064  0.00  0.00    -0.114 SA
ATOM     28  C   UNL d   1       2.643  -2.267  -1.787  0.00  0.00     0.097 C 
ENDBRANCH   5  27
TORSDOF 5
