REMARK  3 active torsions:
REMARK  status: ('A' for Active; 'I' for Inactive)
REMARK    1  A    between atoms: C_4  and  C_1 
REMARK    2  A    between atoms: N_2  and  C_3 
REMARK       I    between atoms: N_5  and  C_4 
REMARK    3  A    between atoms: C_6  and  N_5 
ROOT
ATOM      1  C   UNL d   1       5.926  -0.776   0.070  0.00  0.00     0.258 C 
ATOM      2  N   UNL d   1       4.592  -1.132  -0.052  0.00  0.00    -0.322 N 
ATOM      3  O   UNL d   1       6.880  -1.533  -0.025  0.00  0.00    -0.267 OA
ATOM      4  H   UNL d   1       3.950  -0.423  -0.379  0.00  0.00     0.169 HD
ENDROOT
BRANCH   1   5
ATOM      5  C   UNL d   1       6.208   0.680   0.183  0.00  0.00     0.065 A 
ATOM      6  C   UNL d   1       5.489   1.577   0.978  0.00  0.00     0.120 A 
ATOM      7  C   UNL d   1       5.764   2.952   0.985  0.00  0.00     0.060 A 
ATOM      8  C   UNL d   1       6.826   3.426   0.222  0.00  0.00     0.036 A 
ATOM      9  C   UNL d   1       7.608   2.542  -0.524  0.00  0.00     0.025 A 
ATOM     10 CL   UNL d   1       7.196   5.103   0.217  0.00  0.00    -0.084 Cl
ATOM     11  C   UNL d   1       7.295   1.178  -0.546  0.00  0.00     0.021 A 
BRANCH   6  12
ATOM     12  N   UNL d   1       4.511   1.094   1.919  0.00  0.00    -0.115 N 
ATOM     13  O   UNL d   1       4.938   0.508   2.921  0.00  0.00    -0.532 OA
ATOM     14  O   UNL d   1       3.326   1.338   1.658  0.00  0.00    -0.532 OA
ENDBRANCH   6  12
ENDBRANCH   1   5
BRANCH   2  15
ATOM     15  C   UNL d   1       4.113  -2.467  -0.149  0.00  0.00     0.047 A 
ATOM     16  C   UNL d   1       4.498  -3.490   0.744  0.00  0.00    -0.034 A 
ATOM     17  C   UNL d   1       3.840  -4.738   0.685  0.00  0.00     0.015 A 
ATOM     18  C   UNL d   1       5.492  -3.358   1.868  0.00  0.00     0.050 C 
ATOM     19  C   UNL d   1       2.798  -4.984  -0.211  0.00  0.00    -0.061 A 
ATOM     20  C   UNL d   1       2.463  -3.990  -1.126  0.00  0.00     0.015 A 
ATOM     21  C   UNL d   1       2.043  -6.277  -0.148  0.00  0.00     0.048 C 
ATOM     22  C   UNL d   1       3.113  -2.739  -1.117  0.00  0.00    -0.034 A 
ATOM     23  C   UNL d   1       2.711  -1.778  -2.207  0.00  0.00     0.050 C 
ENDBRANCH   2  15
TORSDOF 3
