REMARK  8 active torsions:
REMARK  status: ('A' for Active; 'I' for Inactive)
REMARK    1  A    between atoms: S_2  and  C_1 
REMARK    2  A    between atoms: N_14  and  S_2 
REMARK    3  A    between atoms: C_19  and  N_4 
REMARK    4  A    between atoms: C_15  and  C_5 
REMARK    5  A    between atoms: C_12  and  C_16 
REMARK    6  A    between atoms: C_16  and  N_14 
REMARK    7  A    between atoms: O_22  and  C_15 
REMARK    8  A    between atoms: C_27  and  O_22 
ROOT
ATOM      1  N   UNL d   1      -0.951   3.220  -1.334  0.00  0.00    -0.210 NA
ATOM      2  H   UNL d   1      -0.706   2.706  -2.183  0.00  0.00     0.140 HD
ENDROOT
BRANCH   1   3
ATOM      3  S   UNL d   1      -0.051   2.746  -0.001  0.00  0.00     0.244 S 
ATOM      4  O   UNL d   1      -0.759   3.158   1.192  0.00  0.00    -0.206 OA
ATOM      5  O   UNL d   1       1.324   3.106  -0.245  0.00  0.00    -0.206 OA
BRANCH   3   6
ATOM      6  C   UNL d   1      -0.018   1.001   0.043  0.00  0.00     0.105 A 
ATOM      7  C   UNL d   1       0.559   0.161  -0.968  0.00  0.00    -0.004 A 
ATOM      8  C   UNL d   1       0.401  -1.155  -0.545  0.00  0.00     0.116 A 
ATOM      9  C   UNL d   1       1.220   0.567  -2.245  0.00  0.00     0.052 C 
ATOM     10  N   UNL d   1      -0.229  -1.119   0.677  0.00  0.00    -0.353 N 
ATOM     11  C   UNL d   1      -0.508   0.173   1.044  0.00  0.00     0.029 A 
ATOM     12  H   UNL d   1      -0.459  -1.950   1.214  0.00  0.00     0.166 HD
ATOM     13  C   UNL d   1      -1.195   0.474   2.329  0.00  0.00     0.070 C 
BRANCH   8  14
ATOM     14  C   UNL d   1       0.770  -2.374  -1.235  0.00  0.00     0.310 C 
ATOM     15  O   UNL d   1       1.306  -2.433  -2.333  0.00  0.00    -0.258 OA
BRANCH  14  16
ATOM     16  O   UNL d   1       0.330  -3.450  -0.521  0.00  0.00    -0.317 OA
BRANCH  16  17
ATOM     17  C   UNL d   1       0.220  -4.660  -1.284  0.00  0.00     0.175 C 
ATOM     18  C   UNL d   1      -1.161  -4.686  -1.915  0.00  0.00     0.034 C 
ENDBRANCH  16  17
ENDBRANCH  14  16
ENDBRANCH   8  14
ENDBRANCH   3   6
ENDBRANCH   1   3
BRANCH   1  19
ATOM     19  C   UNL d   1      -2.407   3.289  -1.142  0.00  0.00     0.165 C 
BRANCH  19  20
ATOM     20  C   UNL d   1      -3.007   3.736  -2.434  0.00  0.00     0.065 A 
ATOM     21  N   UNL d   1      -2.880   2.999  -3.547  0.00  0.00    -0.280 N 
ATOM     22  N   UNL d   1      -3.483   3.780  -4.491  0.00  0.00    -0.197 N 
ATOM     23  HN  UNL d   1      -2.442   2.085  -3.660  1.00  0.00     0.189 HD
ATOM     24  N   UNL d   1      -4.015   4.948  -4.036  0.00  0.00    -0.282 N 
ATOM     25  C   UNL d   1      -3.725   4.914  -2.729  0.00  0.00     0.049 A 
ATOM     26  HN  UNL d   1      -4.511   5.668  -4.561  1.00  0.00     0.189 HD
ATOM     27  C   UNL d   1      -4.132   6.002  -1.810  0.00  0.00     0.072 C 
BRANCH  22  28
ATOM     28  C   UNL d   1      -3.536   3.385  -5.852  0.00  0.00     0.074 A 
ATOM     29  C   UNL d   1      -3.102   2.101  -6.217  0.00  0.00     0.033 A 
ATOM     30  C   UNL d   1      -3.131   1.705  -7.554  0.00  0.00     0.002 A 
ATOM     31  C   UNL d   1      -3.580   2.589  -8.533  0.00  0.00     0.000 A 
ATOM     32  C   UNL d   1      -4.014   3.867  -8.177  0.00  0.00     0.002 A 
ATOM     33  C   UNL d   1      -4.004   4.266  -6.836  0.00  0.00     0.033 A 
ENDBRANCH  22  28
ENDBRANCH  19  20
ENDBRANCH   1  19
TORSDOF 8
