REMARK  3 active torsions:
REMARK  status: ('A' for Active; 'I' for Inactive)
REMARK    1  A    between atoms: S_14  and  C_1 
REMARK    2  A    between atoms: C_4  and  C_13 
REMARK    3  A    between atoms: C_13  and  S_14 
ROOT
ATOM      1  C   UNL d   1      -4.810  -0.232  -0.025  0.00  0.00     0.121 C 
ENDROOT
BRANCH   1   2
ATOM      2  C   UNL d   1      -6.227  -0.797   0.032  0.00  0.00    -0.036 A 
ATOM      3  C   UNL d   1      -6.445  -2.207   0.081  0.00  0.00    -0.048 A 
ATOM      4  C   UNL d   1      -7.767  -2.719  -0.002  0.00  0.00    -0.049 A 
ATOM      5  C   UNL d   1      -5.290  -3.182   0.182  0.00  0.00     0.049 C 
ATOM      6  C   UNL d   1      -8.024  -4.215  -0.060  0.00  0.00     0.049 C 
ATOM      7  C   UNL d   1      -8.880  -1.838   0.012  0.00  0.00    -0.049 A 
ATOM      8  C   UNL d   1      -8.671  -0.438   0.017  0.00  0.00    -0.049 A 
ATOM      9  C   UNL d   1     -10.277  -2.423   0.005  0.00  0.00     0.049 C 
ATOM     10  C   UNL d   1      -7.348   0.085   0.031  0.00  0.00    -0.048 A 
ATOM     11  C   UNL d   1      -9.874   0.483   0.014  0.00  0.00     0.049 C 
ATOM     12  C   UNL d   1      -7.166   1.588   0.039  0.00  0.00     0.049 C 
ENDBRANCH   1   2
BRANCH   1  13
ATOM     13  S   UNL d   1      -4.374   0.422  -1.671  0.00  0.00    -0.100 SA
BRANCH  13  14
ATOM     14  C   UNL d   1      -2.672   0.759  -1.424  0.00  0.00     0.113 A 
ATOM     15  N   UNL d   1      -2.065   0.451  -0.302  0.00  0.00    -0.344 N 
ATOM     16  C   UNL d   1      -0.712   0.706  -0.417  0.00  0.00     0.050 A 
ATOM     17  HN  UNL d   1      -2.523   0.079   0.530  1.00  0.00     0.167 HD
ATOM     18  C   UNL d   1       0.263   0.437   0.565  0.00  0.00     0.031 A 
ATOM     19  C   UNL d   1      -0.307   1.261  -1.633  0.00  0.00     0.034 A 
ATOM     20  C   UNL d   1       1.609   0.708   0.302  0.00  0.00     0.002 A 
ATOM     21  C   UNL d   1       1.990   1.259  -0.918  0.00  0.00     0.002 A 
ATOM     22  C   UNL d   1       1.041   1.555  -1.901  0.00  0.00     0.021 A 
ATOM     23  S   UNL d   1      -1.692   1.466  -2.638  0.00  0.00    -0.063 SA
ENDBRANCH  13  14
ENDBRANCH   1  13
TORSDOF 3
