REMARK  5 active torsions:
REMARK  status: ('A' for Active; 'I' for Inactive)
REMARK    1  A    between atoms: C_2  and  C_1 
REMARK       I    between atoms: C_3  and  N_5 
REMARK       I    between atoms: N_7  and  C_3 
REMARK    2  A    between atoms: N_5  and  C_4 
REMARK    3  A    between atoms: C_9  and  N_7 
REMARK    4  A    between atoms: C_19  and  C_9 
REMARK    5  A    between atoms: C_20  and  C_9 
ROOT
ATOM      1  C   UNL d   1       0.177  -1.549   1.179  0.00  0.00    -0.086 C 
ATOM      2  C   UNL d   1       0.078  -2.288   2.128  0.00  0.00     0.015 C 
ATOM      3  C   UNL d   1       0.260  -0.503   0.114  0.00  0.00     0.096 C 
ENDROOT
BRANCH   3   4
ATOM      4  N   UNL d   1      -0.094   0.724   0.841  0.00  0.00    -0.323 N 
ATOM      5  C   UNL d   1      -0.185   1.998   0.364  0.00  0.00     0.322 C 
ATOM      6  N   UNL d   1      -0.296   2.909   1.411  0.00  0.00    -0.307 N 
ATOM      7  O   UNL d   1      -0.121   2.285  -0.821  0.00  0.00    -0.247 OA
ATOM      8  H   UNL d   1       0.042   2.575   2.306  0.00  0.00     0.170 HD
ATOM      9  H   UNL d   1      -0.157   0.622   1.845  0.00  0.00     0.166 HD
BRANCH   6  10
ATOM     10  C   UNL d   1      -0.332   4.312   1.218  0.00  0.00     0.066 C 
ATOM     11  C   UNL d   1       0.260   5.196   2.132  0.00  0.00     0.077 C 
ATOM     12  C   UNL d   1       0.421   6.540   1.750  0.00  0.00     0.035 C 
ATOM     13  C   UNL d   1      -0.124   6.973   0.555  0.00  0.00     0.088 C 
ATOM     14  N   UNL d   1      -0.843   6.180  -0.256  0.00  0.00    -0.373 N 
ATOM     15  C   UNL d   1      -0.919   4.871   0.082  0.00  0.00     0.117 C 
ATOM     16  HN  UNL d   1      -1.309   6.545  -1.086  1.00  0.00     0.164 HD
BRANCH  11  17
ATOM     17  C   UNL d   1       0.771   4.790   3.485  0.00  0.00     0.419 C 
ATOM     18  F   UNL d   1       0.306   3.577   3.905  0.00  0.00    -0.166 F 
ATOM     19  F   UNL d   1       0.420   5.674   4.462  0.00  0.00    -0.166 F 
ATOM     20  F   UNL d   1       2.127   4.702   3.534  0.00  0.00    -0.166 F 
ENDBRANCH  11  17
ENDBRANCH   6  10
ENDBRANCH   3   4
BRANCH   3  21
ATOM     21  C   UNL d   1      -0.755  -0.930  -0.995  0.00  0.00     0.040 C 
ATOM     22  C   UNL d   1      -0.723  -0.223  -2.348  0.00  0.00     0.009 C 
ENDBRANCH   3  21
BRANCH   3  23
ATOM     23  C   UNL d   1       1.709  -0.476  -0.440  0.00  0.00     0.040 C 
ATOM     24  C   UNL d   1       2.793  -0.104   0.571  0.00  0.00     0.009 C 
ENDBRANCH   3  23
TORSDOF 5
