REMARK  5 active torsions:
REMARK  status: ('A' for Active; 'I' for Inactive)
REMARK    1  A    between atoms: C_10  and  C_4 
REMARK    2  A    between atoms: C_8  and  N_9 
REMARK    3  A    between atoms: N_9  and  N_11 
REMARK    4  A    between atoms: C_16  and  C_10 
REMARK    5  A    between atoms: C_20  and  N_13 
ROOT
ATOM      1  N   UNL d   1       6.427   0.541  -1.251  0.00  0.00    -0.324 N 
ATOM      2  HN  UNL d   1       6.121   0.860  -2.170  1.00  0.00     0.169 HD
ATOM      3  C   UNL d   1       7.385  -0.336  -1.034  0.00  0.00     0.167 A 
ATOM      4  C   UNL d   1       5.898   0.964  -0.041  0.00  0.00     0.094 A 
ATOM      5  N   UNL d   1       6.453   0.550   1.100  0.00  0.00    -0.313 N 
ATOM      6  HN  UNL d   1       6.190   0.828   2.045  1.00  0.00     0.175 HD
ATOM      7  S   UNL d   1       7.665  -0.516   0.667  0.00  0.00     0.024 SA
ATOM      8  N   UNL d   1       8.070  -1.061  -1.950  0.00  0.00    -0.335 N 
ATOM      9  H   UNL d   1       8.635  -1.830  -1.616  0.00  0.00     0.168 HD
ENDROOT
BRANCH   4  10
ATOM     10  C   UNL d   1       4.754   1.913  -0.038  0.00  0.00     0.130 C 
BRANCH  10  11
ATOM     11  C   UNL d   1       3.430   1.175   0.045  0.00  0.00     0.002 C 
ATOM     12  N   UNL d   1       3.084   0.426  -0.961  0.00  0.00    -0.325 N 
ATOM     13  HN  UNL d   1       3.706   0.310  -1.761  1.00  0.00     0.180 HD
ATOM     14  C   UNL d   1       2.601   1.409   1.287  0.00  0.00     0.065 C 
BRANCH  12  15
ATOM     15  N   UNL d   1       1.879  -0.200  -0.926  0.00  0.00    -0.204 NA
ATOM     16  H   UNL d   1       1.060   0.380  -0.724  0.00  0.00     0.153 HD
BRANCH  15  17
ATOM     17  C   UNL d   1       1.604  -1.067  -2.021  0.00  0.00     0.051 A 
ATOM     18  C   UNL d   1       2.639  -1.765  -2.666  0.00  0.00     0.050 A 
ATOM     19  C   UNL d   1       2.361  -2.639  -3.716  0.00  0.00     0.035 A 
ATOM     20 CL   UNL d   1       3.645  -3.474  -4.500  0.00  0.00    -0.084 Cl
ATOM     21  C   UNL d   1       1.047  -2.848  -4.134  0.00  0.00     0.026 A 
ATOM     22  C   UNL d   1       0.002  -2.191  -3.484  0.00  0.00     0.027 A 
ATOM     23  C   UNL d   1       0.279  -1.320  -2.426  0.00  0.00     0.057 A 
ATOM     24 CL   UNL d   1      -1.048  -0.528  -1.648  0.00  0.00    -0.082 Cl
ENDBRANCH  15  17
ENDBRANCH  12  15
ENDBRANCH  10  11
ENDBRANCH   4  10
BRANCH   8  25
ATOM     25  C   UNL d   1       7.900  -1.025  -3.347  0.00  0.00     0.034 A 
ATOM     26  C   UNL d   1       7.467   0.116  -4.036  0.00  0.00     0.029 A 
ATOM     27  C   UNL d   1       7.263   0.095  -5.418  0.00  0.00     0.002 A 
ATOM     28  C   UNL d   1       7.466  -1.080  -6.134  0.00  0.00     0.000 A 
ATOM     29  C   UNL d   1       7.882  -2.230  -5.469  0.00  0.00     0.002 A 
ATOM     30  C   UNL d   1       8.099  -2.201  -4.088  0.00  0.00     0.029 A 
ENDBRANCH   8  25
TORSDOF 5
