REMARK  3 active torsions:
REMARK  status: ('A' for Active; 'I' for Inactive)
REMARK    1  A    between atoms: N_2  and  S_1 
REMARK    2  A    between atoms: C_5  and  S_1 
REMARK    3  A    between atoms: C_3  and  N_2 
ROOT
ATOM      1  N   UNL d   1       0.388   0.606  -1.392  0.00  0.00    -0.202 NA
ATOM      2  H   UNL d   1       0.122   0.178  -2.280  0.00  0.00     0.141 HD
ENDROOT
BRANCH   1   3
ATOM      3  S   UNL d   1      -0.882   0.457  -0.265  0.00  0.00     0.242 S 
ATOM      4  O   UNL d   1      -0.844   1.612   0.605  0.00  0.00    -0.206 OA
ATOM      5  O   UNL d   1      -0.819  -0.894   0.254  0.00  0.00    -0.206 OA
BRANCH   3   6
ATOM      6  C   UNL d   1      -2.365   0.529  -1.244  0.00  0.00     0.074 A 
ATOM      7  C   UNL d   1      -2.569  -0.428  -2.247  0.00  0.00     0.026 A 
ATOM      8  C   UNL d   1      -3.723  -0.368  -3.030  0.00  0.00     0.025 A 
ATOM      9  C   UNL d   1      -4.669   0.632  -2.797  0.00  0.00     0.034 A 
ATOM     10  C   UNL d   1      -4.470   1.580  -1.792  0.00  0.00     0.025 A 
ATOM     11 CL   UNL d   1      -6.101   0.687  -3.751  0.00  0.00    -0.084 Cl
ATOM     12  C   UNL d   1      -3.315   1.530  -1.007  0.00  0.00     0.026 A 
ENDBRANCH   3   6
ENDBRANCH   1   3
BRANCH   1  13
ATOM     13  C   UNL d   1       0.902   1.992  -1.609  0.00  0.00     0.163 C 
ATOM     14  C   UNL d   1      -0.127   2.863  -2.320  0.00  0.00     0.236 C 
ATOM     15  N   UNL d   1       0.053   4.213  -2.301  0.00  0.00    -0.360 N 
ATOM     16  O   UNL d   1      -1.064   2.393  -2.964  0.00  0.00    -0.272 OA
ATOM     17  C   UNL d   1       1.246   4.894  -1.854  0.00  0.00     0.122 C 
ATOM     18  H   UNL d   1      -0.657   4.732  -2.804  0.00  0.00     0.162 HD
ATOM     19  C   UNL d   1       2.470   4.499  -2.677  0.00  0.00     0.020 C 
ATOM     20  C   UNL d   1       3.077   3.145  -2.293  0.00  0.00     0.004 C 
ATOM     21  C   UNL d   1       2.162   1.930  -2.483  0.00  0.00     0.030 C 
ENDBRANCH   1  13
TORSDOF 3
