REMARK  4 active torsions:
REMARK  status: ('A' for Active; 'I' for Inactive)
REMARK    1  A    between atoms: N_2  and  C_1 
REMARK    2  A    between atoms: N_3  and  C_1 
REMARK    3  A    between atoms: C_6  and  N_2 
REMARK    4  A    between atoms: N_9  and  N_3 
ROOT
ATOM      1  N   UNL d   1       0.360   0.831  -1.042  0.00  0.00    -0.332 N 
ATOM      2  H   UNL d   1      -0.441   1.267  -0.591  0.00  0.00     0.168 HD
ENDROOT
BRANCH   1   3
ATOM      3  C   UNL d   1       0.369  -0.519  -0.776  0.00  0.00     0.186 C 
ATOM      4  S   UNL d   1       1.490  -1.703  -1.139  0.00  0.00    -0.040 SA
BRANCH   3   5
ATOM      5  N   UNL d   1      -0.757  -0.952  -0.098  0.00  0.00    -0.296 N 
ATOM      6  H   UNL d   1      -0.807  -1.956   0.064  0.00  0.00     0.183 HD
BRANCH   5   7
ATOM      7  N   UNL d   1      -1.923  -0.162   0.056  0.00  0.00    -0.238 NA
ATOM      8  C   UNL d   1      -2.808  -0.361  -1.103  0.00  0.00     0.135 C 
ATOM      9  C   UNL d   1      -2.627  -0.565   1.282  0.00  0.00     0.135 C 
ENDBRANCH   5   7
ENDBRANCH   3   5
ENDBRANCH   1   3
BRANCH   1  10
ATOM     10  C   UNL d   1       1.180   1.676  -1.821  0.00  0.00     0.034 A 
ATOM     11  C   UNL d   1       2.271   1.254  -2.581  0.00  0.00     0.036 A 
ATOM     12  C   UNL d   1       3.001   2.140  -3.398  0.00  0.00    -0.054 A 
ATOM     13  C   UNL d   1       4.152   1.601  -4.205  0.00  0.00     0.049 C 
ATOM     14  C   UNL d   1       2.636   3.494  -3.446  0.00  0.00    -0.056 A 
ATOM     15  C   UNL d   1       1.558   3.931  -2.665  0.00  0.00     0.009 A 
ATOM     16  C   UNL d   1       3.368   4.469  -4.327  0.00  0.00     0.049 C 
ATOM     17  C   UNL d   1       0.842   3.032  -1.865  0.00  0.00     0.030 A 
ENDBRANCH   1  10
TORSDOF 4
