REMARK  1 active torsions:
REMARK  status: ('A' for Active; 'I' for Inactive)
REMARK    1  A    between atoms: N_7  and  C_2 
REMARK       I    between atoms: C_11  and  N_7 
ROOT
ATOM      1  C   UNL d   1      -1.025  -0.579   0.031  0.00  0.00     0.058 A 
ATOM      2  C   UNL d   1      -3.124  -1.057  -0.040  0.00  0.00     0.152 A 
ATOM      3  C   UNL d   1      -1.528   0.696  -0.004  0.00  0.00     0.018 A 
ATOM      4  N   UNL d   1      -1.920  -1.601   0.038  0.00  0.00    -0.335 N 
ATOM      5  HN  UNL d   1      -1.706  -2.597   0.092  1.00  0.00     0.168 HD
ATOM      6  S   UNL d   1      -3.196   0.671  -0.067  0.00  0.00    -0.056 SA
ATOM      7  C   UNL d   1       0.405  -0.486   0.040  0.00  0.00    -0.002 A 
ATOM      8  C   UNL d   1       0.756   0.894   0.015  0.00  0.00    -0.041 A 
ATOM      9  C   UNL d   1      -0.496   1.764  -0.008  0.00  0.00     0.088 A 
ATOM     10  C   UNL d   1       1.356  -1.483   0.044  0.00  0.00     0.014 A 
ATOM     11  C   UNL d   1       2.083   1.283   0.003  0.00  0.00     0.008 A 
ATOM     12  C   UNL d   1       2.697  -1.088   0.029  0.00  0.00     0.001 A 
ATOM     13  C   UNL d   1       3.055   0.276   0.010  0.00  0.00     0.001 A 
ENDROOT
BRANCH   2  14
ATOM     14  N   UNL d   1      -4.250  -1.842  -0.060  0.00  0.00    -0.307 N 
ATOM     15  C   UNL d   1      -5.537  -1.433  -0.316  0.00  0.00     0.219 C 
ATOM     16  O   UNL d   1      -5.916  -0.305  -0.612  0.00  0.00    -0.274 OA
ATOM     17  C   UNL d   1      -6.537  -2.561  -0.230  0.00  0.00     0.117 C 
ATOM     18  H   UNL d   1      -4.041  -2.825   0.037  0.00  0.00     0.171 HD
ENDBRANCH   2  14
TORSDOF 1
