REMARK  8 active torsions:
REMARK  status: ('A' for Active; 'I' for Inactive)
REMARK    1  A    between atoms: N_2  and  C_1 
REMARK    2  A    between atoms: N_3  and  C_1 
REMARK    3  A    between atoms: C_12  and  N_3 
REMARK    4  A    between atoms: C_5  and  C_8 
REMARK    5  A    between atoms: O_18  and  C_9 
REMARK    6  A    between atoms: C_21  and  C_13 
REMARK    7  A    between atoms: C_23  and  C_21 
REMARK    8  A    between atoms: C_24  and  C_23 
ROOT
ATOM      1  N   UNL d   1      -0.158  -0.910   0.457  0.00  0.00    -0.358 N 
ATOM      2  C   UNL d   1      -0.947  -1.254  -0.734  0.00  0.00     0.126 C 
ATOM      3  C   UNL d   1       0.183  -2.040   1.329  0.00  0.00     0.126 C 
ATOM      4  C   UNL d   1      -1.768  -3.431   0.451  0.00  0.00     0.024 C 
ATOM      5  C   UNL d   1      -2.069  -2.264  -0.504  0.00  0.00     0.029 C 
ATOM      6  C   UNL d   1      -0.998  -2.929   1.673  0.00  0.00     0.029 C 
ENDROOT
BRANCH   1   7
ATOM      7  C   UNL d   1       0.757   0.179   0.378  0.00  0.00     0.174 C 
ATOM      8  S   UNL d   1       2.142   0.328   1.338  0.00  0.00    -0.041 SA
BRANCH   7   9
ATOM      9  N   UNL d   1       0.347   1.164  -0.529  0.00  0.00    -0.333 N 
ATOM     10  H   UNL d   1      -0.594   1.485  -0.346  0.00  0.00     0.168 HD
BRANCH   9  11
ATOM     11  C   UNL d   1       1.211   2.100  -1.139  0.00  0.00     0.034 A 
ATOM     12  C   UNL d   1       2.438   1.695  -1.659  0.00  0.00     0.030 A 
ATOM     13  C   UNL d   1       3.371   2.641  -2.094  0.00  0.00     0.009 A 
ATOM     14  C   UNL d   1       3.064   4.007  -2.021  0.00  0.00    -0.058 A 
ATOM     15  C   UNL d   1       1.777   4.395  -1.630  0.00  0.00     0.009 A 
ATOM     16  C   UNL d   1       0.845   3.446  -1.196  0.00  0.00     0.030 A 
BRANCH  14  17
ATOM     17  C   UNL d   1       4.141   5.021  -2.321  0.00  0.00     0.038 C 
BRANCH  17  18
ATOM     18  C   UNL d   1       4.455   5.956  -1.142  0.00  0.00     0.004 C 
BRANCH  18  19
ATOM     19  C   UNL d   1       4.970   5.224   0.104  0.00  0.00    -0.004 C 
ATOM     20  C   UNL d   1       5.295   6.205   1.222  0.00  0.00     0.005 C 
ENDBRANCH  18  19
ENDBRANCH  17  18
ENDBRANCH  14  17
ENDBRANCH   9  11
ENDBRANCH   7   9
ENDBRANCH   1   7
BRANCH   4  21
ATOM     21  C   UNL d   1      -1.169  -4.697  -0.152  0.00  0.00    -0.021 A 
ATOM     22  C   UNL d   1      -1.628  -5.997   0.161  0.00  0.00     0.074 A 
ATOM     23  C   UNL d   1      -1.082  -7.114  -0.499  0.00  0.00     0.037 A 
ATOM     24  C   UNL d   1      -0.082  -6.976  -1.457  0.00  0.00     0.003 A 
ATOM     25  C   UNL d   1       0.393  -5.711  -1.761  0.00  0.00     0.001 A 
ATOM     26  C   UNL d   1      -0.134  -4.593  -1.108  0.00  0.00     0.010 A 
BRANCH  22  27
ATOM     27  O   UNL d   1      -2.686  -6.348   0.959  0.00  0.00    -0.355 OA
ATOM     28  C   UNL d   1      -2.822  -5.748   2.238  0.00  0.00     0.210 C 
ENDBRANCH  22  27
ENDBRANCH   4  21
TORSDOF 8
