REMARK  4 active torsions:
REMARK  status: ('A' for Active; 'I' for Inactive)
REMARK    1  A    between atoms: C_2  and  C_1 
REMARK    2  A    between atoms: O_9  and  C_2 
REMARK    3  A    between atoms: C_6  and  C_5 
REMARK    4  A    between atoms: C_10  and  C_8 
ROOT
ATOM      1  C   UNL d   1       1.030   0.024   0.173  0.00  0.00     0.119 C 
ATOM      2  C   UNL d   1       0.380   1.090   0.872  0.00  0.00     0.105 C 
ATOM      3  N   UNL d   1      -0.152   1.955   1.434  0.00  0.00    -0.191 NA
ATOM      4  C   UNL d   1       2.381   0.004   0.098  0.00  0.00     0.029 C 
ENDROOT
BRANCH   1   5
ATOM      5  C   UNL d   1       0.156  -1.016  -0.447  0.00  0.00     0.303 C 
ATOM      6  O   UNL d   1       0.465  -1.758  -1.366  0.00  0.00    -0.258 OA
BRANCH   5   7
ATOM      7  O   UNL d   1      -1.058  -1.023   0.171  0.00  0.00    -0.322 OA
ATOM      8  C   UNL d   1      -1.998  -1.969  -0.344  0.00  0.00     0.213 C 
ENDBRANCH   5   7
ENDBRANCH   1   5
BRANCH   4   9
ATOM      9  C   UNL d   1       3.210  -1.004  -0.541  0.00  0.00     0.003 C 
ATOM     10  C   UNL d   1       4.552  -0.972  -0.630  0.00  0.00     0.011 C 
BRANCH  10  11
ATOM     11  C   UNL d   1       5.326  -2.022  -1.330  0.00  0.00    -0.036 A 
ATOM     12  C   UNL d   1       4.820  -2.685  -2.460  0.00  0.00     0.011 A 
ATOM     13  C   UNL d   1       5.562  -3.676  -3.109  0.00  0.00     0.001 A 
ATOM     14  C   UNL d   1       6.835  -4.004  -2.652  0.00  0.00     0.000 A 
ATOM     15  C   UNL d   1       7.366  -3.336  -1.551  0.00  0.00     0.001 A 
ATOM     16  C   UNL d   1       6.619  -2.347  -0.897  0.00  0.00     0.011 A 
ENDBRANCH  10  11
ENDBRANCH   4   9
TORSDOF 4
