REMARK  3 active torsions:
REMARK  status: ('A' for Active; 'I' for Inactive)
REMARK    1  A    between atoms: N_6  and  C_2 
REMARK    2  A    between atoms: C_10  and  C_3 
REMARK       I    between atoms: C_9  and  N_6 
REMARK    3  A    between atoms: C_11  and  C_9 
ROOT
ATOM      1  S   UNL d   1       0.910  -0.283   0.357  0.00  0.00    -0.037 SA
ATOM      2  C   UNL d   1      -0.093   1.022  -0.086  0.00  0.00     0.167 A 
ATOM      3  C   UNL d   1      -0.429  -1.309   0.076  0.00  0.00     0.074 A 
ATOM      4  N   UNL d   1      -1.531  -0.682  -0.274  0.00  0.00    -0.296 N 
ATOM      5  HN  UNL d   1      -2.420  -1.146  -0.463  1.00  0.00     0.187 HD
ATOM      6  N   UNL d   1      -1.335   0.684  -0.353  0.00  0.00    -0.279 N 
ATOM      7  HN  UNL d   1      -2.068   1.352  -0.592  1.00  0.00     0.189 HD
ENDROOT
BRANCH   2   8
ATOM      8  N   UNL d   1       0.335   2.324  -0.156  0.00  0.00    -0.306 N 
ATOM      9  C   UNL d   1       1.616   2.778   0.017  0.00  0.00     0.227 C 
ATOM     10  O   UNL d   1       2.609   2.111   0.272  0.00  0.00    -0.273 OA
ATOM     11  H   UNL d   1      -0.399   2.968  -0.403  0.00  0.00     0.171 HD
BRANCH   9  12
ATOM     12  C   UNL d   1       1.804   4.254  -0.138  0.00  0.00     0.078 A 
ATOM     13  C   UNL d   1       1.264   5.173   0.935  0.00  0.00     0.015 A 
ATOM     14  C   UNL d   1       0.738   5.271  -0.466  0.00  0.00     0.015 A 
ENDBRANCH   9  12
ENDBRANCH   2   8
BRANCH   3  15
ATOM     15  C   UNL d   1      -0.337  -2.830   0.193  0.00  0.00     0.044 A 
ATOM     16  C   UNL d   1      -1.080  -3.659  -0.836  0.00  0.00     0.012 A 
ATOM     17  C   UNL d   1      -1.575  -3.619   0.569  0.00  0.00     0.012 A 
ENDBRANCH   3  15
TORSDOF 3
