REMARK  9 active torsions:
REMARK  status: ('A' for Active; 'I' for Inactive)
REMARK    1  A    between atoms: S_2  and  C_1 
REMARK    2  A    between atoms: N_9  and  S_2 
REMARK    3  A    between atoms: C_8  and  C_3 
REMARK    4  A    between atoms: O_17  and  C_4 
REMARK    5  A    between atoms: S_5  and  C_10 
REMARK    6  A    between atoms: N_15  and  S_5 
REMARK    7  A    between atoms: O_21  and  C_8 
REMARK    8  A    between atoms: C_20  and  N_9 
REMARK    9  A    between atoms: C_22  and  C_20 
ROOT
ATOM      1  N   UNL d   1      -1.383   3.282  -1.386  0.00  0.00    -0.211 NA
ATOM      2  H   UNL d   1      -0.820   3.059  -2.207  0.00  0.00     0.140 HD
ENDROOT
BRANCH   1   3
ATOM      3  S   UNL d   1      -0.531   2.986   0.041  0.00  0.00     0.251 S 
ATOM      4  O   UNL d   1      -1.489   2.917   1.120  0.00  0.00    -0.205 OA
ATOM      5  O   UNL d   1       0.583   3.907   0.048  0.00  0.00    -0.205 OA
BRANCH   3   6
ATOM      6  C   UNL d   1       0.250   1.377  -0.005  0.00  0.00     0.149 A 
ATOM      7  C   UNL d   1       0.994   0.594   0.876  0.00  0.00     0.114 A 
ATOM      8  C   UNL d   1       1.404  -0.664   0.280  0.00  0.00     0.081 A 
ATOM      9  C   UNL d   1       0.956  -0.766  -1.024  0.00  0.00     0.071 A 
ATOM     10  S   UNL d   1       0.107   0.604  -1.538  0.00  0.00    -0.085 SA
BRANCH   7  11
ATOM     11  O   UNL d   1       1.357   0.843   2.164  0.00  0.00    -0.353 OA
ATOM     12  C   UNL d   1       1.074   2.100   2.743  0.00  0.00     0.210 C 
ENDBRANCH   7  11
BRANCH   8  13
ATOM     13  C   UNL d   1       2.191  -1.750   0.876  0.00  0.00     0.296 C 
ATOM     14  O   UNL d   1       2.451  -2.783   0.268  0.00  0.00    -0.259 OA
BRANCH  13  15
ATOM     15  O   UNL d   1       2.606  -1.498   2.148  0.00  0.00    -0.322 OA
ATOM     16  C   UNL d   1       3.386  -2.539   2.734  0.00  0.00     0.213 C 
ENDBRANCH  13  15
ENDBRANCH   8  13
ENDBRANCH   3   6
ENDBRANCH   1   3
BRANCH   1  17
ATOM     17  C   UNL d   1      -2.757   2.764  -1.445  0.00  0.00     0.143 C 
BRANCH  17  18
ATOM     18  C   UNL d   1      -3.350   2.955  -2.824  0.00  0.00    -0.044 A 
ATOM     19  C   UNL d   1      -3.810   1.855  -3.564  0.00  0.00     0.010 A 
ATOM     20  C   UNL d   1      -4.350   2.036  -4.840  0.00  0.00     0.025 A 
ATOM     21  C   UNL d   1      -4.421   3.322  -5.382  0.00  0.00     0.074 A 
ATOM     22  C   UNL d   1      -3.993   4.430  -4.649  0.00  0.00     0.025 A 
ATOM     23  C   UNL d   1      -3.455   4.243  -3.375  0.00  0.00     0.010 A 
BRANCH  21  24
ATOM     24  S   UNL d   1      -5.066   3.549  -7.012  0.00  0.00     0.239 S 
ATOM     25  O   UNL d   1      -5.883   2.409  -7.364  0.00  0.00    -0.206 OA
ATOM     26  O   UNL d   1      -5.523   4.909  -7.162  0.00  0.00    -0.206 OA
BRANCH  24  27
ATOM     27  N   UNL d   1      -3.671   3.420  -7.937  0.00  0.00    -0.225 NA
ATOM     28  H   UNL d   1      -3.737   2.614  -8.559  0.00  0.00     0.136 HD
ATOM     29  H   UNL d   1      -3.487   4.302  -8.414  0.00  0.00     0.136 HD
ENDBRANCH  24  27
ENDBRANCH  21  24
ENDBRANCH  17  18
ENDBRANCH   1  17
TORSDOF 9
