REMARK  12 active torsions:
REMARK  status: ('A' for Active; 'I' for Inactive)
REMARK    1  A    between atoms: N_3  and  C_1 
REMARK    2  A    between atoms: N_5  and  C_2 
REMARK    3  A    between atoms: N_4  and  C_8 
REMARK    4  A    between atoms: C_10  and  N_13 
REMARK    5  A    between atoms: N_19  and  C_11 
REMARK    6  A    between atoms: N_27  and  C_12 
REMARK    7  A    between atoms: O_31  and  C_17 
REMARK       I    between atoms: C_23  and  N_19 
REMARK    8  A    between atoms: C_32  and  N_27 
REMARK    9  A    between atoms: C_34  and  N_27 
REMARK   10  A    between atoms: C_30  and  C_32 
REMARK   11  A    between atoms: O_33  and  C_36 
REMARK   12  A    between atoms: C_36  and  C_34 
ROOT
ATOM      1  N   UNL d   1      -4.312   9.828   3.817  0.00  0.00    -0.197 NA
ATOM      2  C   UNL d   1      -4.072   9.308   2.812  0.00  0.00     0.060 C 
ATOM      3  C   UNL d   1      -3.756   8.642   1.543  0.00  0.00     0.143 C 
ENDROOT
BRANCH   3   4
ATOM      4  C   UNL d   1      -4.931   7.783   1.083  0.00  0.00     0.137 C 
BRANCH   4   5
ATOM      5  N   UNL d   1      -4.583   7.095  -0.169  0.00  0.00    -0.376 N 
BRANCH   5   6
ATOM      6  C   UNL d   1      -3.857   5.903  -0.204  0.00  0.00     0.066 C 
ATOM      7  C   UNL d   1      -4.046   4.818   0.677  0.00  0.00     0.097 C 
ATOM      8  C   UNL d   1      -3.319   3.631   0.495  0.00  0.00     0.072 C 
ATOM      9  C   UNL d   1      -2.284   3.518  -0.443  0.00  0.00     0.077 C 
ATOM     10  C   UNL d   1      -2.081   4.595  -1.331  0.00  0.00     0.065 C 
ATOM     11  C   UNL d   1      -2.877   5.746  -1.207  0.00  0.00     0.064 C 
BRANCH   7  12
ATOM     12  O   UNL d   1      -5.005   4.941   1.648  0.00  0.00    -0.354 OA
ATOM     13  C   UNL d   1      -5.088   3.951   2.663  0.00  0.00     0.210 C 
ENDBRANCH   7  12
BRANCH   9  14
ATOM     14  N   UNL d   1      -1.532   2.326  -0.618  0.00  0.00    -0.298 N 
ATOM     15  N   UNL d   1      -1.040   1.634   0.314  0.00  0.00    -0.296 N 
ATOM     16  HN  UNL d   1      -0.588   0.749   0.080  1.00  0.00     0.187 HD
ATOM     17  HN  UNL d   1      -1.377   2.004  -1.573  1.00  0.00     0.187 HD
BRANCH  15  18
ATOM     18  C   UNL d   1      -1.087   2.031   1.667  0.00  0.00     0.103 A 
ATOM     19  C   UNL d   1      -0.331   3.095   2.181  0.00  0.00     0.135 A 
ATOM     20  C   UNL d   1      -0.487   3.573   3.494  0.00  0.00     0.074 A 
ATOM     21  C   UNL d   1      -1.385   2.920   4.340  0.00  0.00     0.107 A 
ATOM     22  C   UNL d   1      -2.065   1.776   3.907  0.00  0.00     0.062 A 
ATOM     23  C   UNL d   1      -1.902   1.337   2.585  0.00  0.00     0.067 A 
ATOM     24 CL   UNL d   1      -2.800  -0.061   2.101  0.00  0.00    -0.082 Cl
BRANCH  19  25
ATOM     25  N   UNL d   1       0.661   3.723   1.340  0.00  0.00    -0.113 N 
ATOM     26  O   UNL d   1       1.542   2.998   0.866  0.00  0.00    -0.532 OA
ATOM     27  O   UNL d   1       0.572   4.949   1.197  0.00  0.00    -0.532 OA
ENDBRANCH  19  25
BRANCH  21  28
ATOM     28  N   UNL d   1      -1.643   3.448   5.685  0.00  0.00    -0.116 N 
ATOM     29  O   UNL d   1      -0.869   4.313   6.114  0.00  0.00    -0.532 OA
ATOM     30  O   UNL d   1      -2.628   3.006   6.290  0.00  0.00    -0.532 OA
ENDBRANCH  21  28
ENDBRANCH  15  18
ENDBRANCH   9  14
BRANCH  10  31
ATOM     31  N   UNL d   1      -1.067   4.471  -2.321  0.00  0.00    -0.325 N 
ATOM     32  C   UNL d   1      -0.755   5.369  -3.327  0.00  0.00     0.218 C 
ATOM     33  O   UNL d   1      -1.364   6.397  -3.607  0.00  0.00    -0.274 OA
ATOM     34  C   UNL d   1       0.463   4.980  -4.129  0.00  0.00     0.117 C 
ATOM     35  H   UNL d   1      -0.536   3.607  -2.283  0.00  0.00     0.169 HD
ENDBRANCH  10  31
ENDBRANCH   5   6
BRANCH   5  36
ATOM     36  C   UNL d   1      -5.315   7.519  -1.383  0.00  0.00     0.149 C 
BRANCH  36  37
ATOM     37  C   UNL d   1      -6.536   6.635  -1.675  0.00  0.00     0.183 C 
BRANCH  37  38
ATOM     38  O   UNL d   1      -7.520   6.748  -0.647  0.00  0.00    -0.399 OA
ATOM     39  H   UNL d   1      -8.140   6.010  -0.776  0.00  0.00     0.209 HD
ENDBRANCH  37  38
ENDBRANCH  36  37
ENDBRANCH   5  36
ENDBRANCH   4   5
ENDBRANCH   3   4
TORSDOF 12
