REMARK  6 active torsions:
REMARK  status: ('A' for Active; 'I' for Inactive)
REMARK    1  A    between atoms: C_9  and  N_1 
REMARK    2  A    between atoms: S_8  and  C_2 
REMARK    3  A    between atoms: O_16  and  C_3 
REMARK    4  A    between atoms: C_15  and  S_8 
REMARK    5  A    between atoms: C_10  and  C_15 
REMARK       I    between atoms: N_11  and  C_10 
REMARK    6  A    between atoms: C_17  and  N_11 
ROOT
ATOM      1  N   UNL d   1       3.374   0.726  -1.239  0.00  0.00    -0.254 N 
ATOM      2  C   UNL d   1       3.317  -0.582  -0.776  0.00  0.00     0.169 C 
ATOM      3  C   UNL d   1       4.539   1.211  -0.643  0.00  0.00     0.245 C 
ATOM      4  N   UNL d   1       4.254  -0.786   0.121  0.00  0.00    -0.276 N 
ATOM      5  HN  UNL d   1       4.385  -1.640   0.662  1.00  0.00     0.189 HD
ATOM      6  N   UNL d   1       5.020   0.337   0.206  0.00  0.00    -0.263 N 
ATOM      7  HN  UNL d   1       5.823   0.472   0.820  1.00  0.00     0.190 HD
ENDROOT
BRANCH   2   8
ATOM      8  S   UNL d   1       2.260  -1.851  -1.306  0.00  0.00    -0.083 SA
BRANCH   8   9
ATOM      9  C   UNL d   1       2.536  -3.156  -0.068  0.00  0.00     0.185 C 
BRANCH   9  10
ATOM     10  C   UNL d   1       3.805  -3.999  -0.217  0.00  0.00     0.231 C 
ATOM     11  N   UNL d   1       4.886  -3.370  -0.794  0.00  0.00    -0.327 N 
ATOM     12  H   UNL d   1       4.752  -2.396  -1.025  0.00  0.00     0.169 HD
ATOM     13  O   UNL d   1       3.817  -5.141   0.245  0.00  0.00    -0.272 OA
BRANCH  11  14
ATOM     14  C   UNL d   1       6.223  -3.800  -0.868  0.00  0.00     0.034 A 
ATOM     15  C   UNL d   1       6.665  -5.061  -0.477  0.00  0.00     0.029 A 
ATOM     16  C   UNL d   1       8.030  -5.366  -0.505  0.00  0.00     0.002 A 
ATOM     17  C   UNL d   1       8.957  -4.418  -0.935  0.00  0.00     0.000 A 
ATOM     18  C   UNL d   1       8.520  -3.164  -1.353  0.00  0.00     0.002 A 
ATOM     19  C   UNL d   1       7.159  -2.859  -1.322  0.00  0.00     0.029 A 
ENDBRANCH  11  14
ENDBRANCH   9  10
ENDBRANCH   8   9
ENDBRANCH   2   8
BRANCH   1  20
ATOM     20  C   UNL d   1       2.515   1.465  -2.088  0.00  0.00     0.060 A 
ATOM     21  C   UNL d   1       2.407   2.845  -1.918  0.00  0.00     0.117 A 
ATOM     22  N   UNL d   1       1.653   3.651  -2.699  0.00  0.00    -0.373 N 
ATOM     23  C   UNL d   1       0.941   3.056  -3.679  0.00  0.00     0.088 A 
ATOM     24  HN  UNL d   1       1.624   4.660  -2.555  1.00  0.00     0.164 HD
ATOM     25  C   UNL d   1       0.956   1.692  -3.913  0.00  0.00     0.019 A 
ATOM     26  C   UNL d   1       1.757   0.884  -3.106  0.00  0.00     0.033 A 
ENDBRANCH   1  20
BRANCH   3  27
ATOM     27  O   UNL d   1       5.180   2.329  -0.946  0.00  0.00    -0.331 OA
ATOM     28  H   UNL d   1       4.989   2.571  -1.868  0.00  0.00     0.221 HD
ENDBRANCH   3  27
TORSDOF 6
