REMARK  5 active torsions:
REMARK  status: ('A' for Active; 'I' for Inactive)
REMARK    1  A    between atoms: N_3  and  C_1 
REMARK    2  A    between atoms: N_7  and  C_1 
REMARK    3  A    between atoms: C_5  and  C_2 
REMARK    4  A    between atoms: C_4  and  N_3 
REMARK    5  A    between atoms: O_9  and  C_5 
ROOT
ATOM      1  C   UNL d   1       2.015   2.882  -0.158  0.00  0.00     0.066 A 
ATOM      2  C   UNL d   1       0.976   2.302   0.601  0.00  0.00     0.050 A 
ATOM      3  C   UNL d   1       2.586   4.098   0.270  0.00  0.00     0.020 A 
ATOM      4  C   UNL d   1       0.531   2.962   1.758  0.00  0.00     0.030 A 
ATOM      5  C   UNL d   1       2.150   4.725   1.435  0.00  0.00     0.001 A 
ATOM      6  C   UNL d   1       1.122   4.158   2.177  0.00  0.00     0.002 A 
ENDROOT
BRANCH   2   7
ATOM      7  N   UNL d   1       0.455   1.024   0.266  0.00  0.00    -0.332 N 
ATOM      8  H   UNL d   1       1.135   0.401  -0.164  0.00  0.00     0.168 HD
BRANCH   7   9
ATOM      9  C   UNL d   1      -0.653   0.395   0.769  0.00  0.00     0.173 C 
ATOM     10  S   UNL d   1      -0.480  -1.213   1.216  0.00  0.00    -0.041 SA
BRANCH   9  11
ATOM     11  N   UNL d   1      -1.848   1.105   0.760  0.00  0.00    -0.367 N 
ATOM     12  C   UNL d   1      -2.108   2.130  -0.249  0.00  0.00     0.151 C 
ATOM     13  C   UNL d   1      -3.023   0.699   1.527  0.00  0.00     0.151 C 
ENDBRANCH   9  11
ENDBRANCH   7   9
ENDBRANCH   2   7
BRANCH   1  14
ATOM     14  C   UNL d   1       2.542   2.351  -1.454  0.00  0.00     0.295 C 
ATOM     15  O   UNL d   1       3.269   2.999  -2.185  0.00  0.00    -0.259 OA
BRANCH  14  16
ATOM     16  O   UNL d   1       2.118   1.086  -1.698  0.00  0.00    -0.322 OA
ATOM     17  C   UNL d   1       2.556   0.531  -2.942  0.00  0.00     0.213 C 
ENDBRANCH  14  16
ENDBRANCH   1  14
TORSDOF 5
