REMARK  4 active torsions:
REMARK  status: ('A' for Active; 'I' for Inactive)
REMARK    1  A    between atoms: C_2  and  S_1 
REMARK    2  A    between atoms: N_4  and  S_1 
REMARK    3  A    between atoms: C_9  and  C_3 
REMARK    4  A    between atoms: O_15  and  C_9 
ROOT
ATOM      1  S   UNL d   1       0.963   0.068  -0.017  0.00  0.00     0.268 S 
ATOM      2  O   UNL d   1       0.269   0.941  -0.945  0.00  0.00    -0.200 OA
ATOM      3  O   UNL d   1       2.402  -0.062  -0.128  0.00  0.00    -0.200 OA
ENDROOT
BRANCH   1   4
ATOM      4  C   UNL d   1       0.383  -1.515  -0.409  0.00  0.00     0.128 A 
ATOM      5  C   UNL d   1      -0.815  -1.878  -1.122  0.00  0.00     0.094 A 
ATOM      6  C   UNL d   1      -0.794  -3.267  -1.170  0.00  0.00     0.067 A 
ATOM      7  C   UNL d   1      -1.724  -4.314  -1.650  0.00  0.00     0.078 C 
ATOM      8  O   UNL d   1       0.324  -3.750  -0.571  0.00  0.00    -0.318 OA
ATOM      9  C   UNL d   1       1.035  -2.693  -0.098  0.00  0.00     0.073 A 
ATOM     10  C   UNL d   1       2.277  -3.063   0.615  0.00  0.00     0.078 C 
BRANCH   5  11
ATOM     11  C   UNL d   1      -1.893  -1.048  -1.639  0.00  0.00     0.297 C 
ATOM     12  O   UNL d   1      -2.296  -0.036  -1.083  0.00  0.00    -0.259 OA
BRANCH  11  13
ATOM     13  O   UNL d   1      -2.471  -1.568  -2.762  0.00  0.00    -0.322 OA
ATOM     14  C   UNL d   1      -3.603  -0.840  -3.249  0.00  0.00     0.213 C 
ENDBRANCH  11  13
ENDBRANCH   5  11
ENDBRANCH   1   4
BRANCH   1  15
ATOM     15  N   UNL d   1       0.498   0.461   1.579  0.00  0.00    -0.271 N 
ATOM     16  C   UNL d   1       1.266   0.035   2.733  0.00  0.00     0.051 A 
ATOM     17  C   UNL d   1       0.606  -0.407   3.897  0.00  0.00    -0.031 A 
ATOM     18  C   UNL d   1       2.659   0.185   2.780  0.00  0.00     0.031 A 
ATOM     19  C   UNL d   1       1.347  -0.744   5.045  0.00  0.00     0.009 A 
ATOM     20  C   UNL d   1      -0.897  -0.429   3.997  0.00  0.00     0.042 C 
ATOM     21  C   UNL d   1       2.733  -0.635   5.053  0.00  0.00     0.001 A 
ATOM     22  C   UNL d   1       3.386  -0.159   3.922  0.00  0.00     0.002 A 
ATOM     23  C   UNL d   1      -1.565  -0.381   2.634  0.00  0.00     0.026 C 
ATOM     24  C   UNL d   1      -0.943   0.728   1.801  0.00  0.00     0.142 C 
ENDBRANCH   1  15
TORSDOF 4
