REMARK  8 active torsions:
REMARK  status: ('A' for Active; 'I' for Inactive)
REMARK    1  A    between atoms: C_15  and  C_7 
REMARK    2  A    between atoms: C_20  and  C_15 
REMARK    3  A    between atoms: C_17  and  O_21 
REMARK    4  A    between atoms: C_27  and  C_17 
REMARK    5  A    between atoms: C_19  and  C_28 
REMARK    6  A    between atoms: O_31  and  C_19 
REMARK    7  A    between atoms: O_21  and  C_20 
REMARK    8  A    between atoms: C_28  and  C_27 
ROOT
ATOM      1  C   UNL d   1       2.381   2.146  -1.001  0.00  0.00    -0.030 C 
ATOM      2  C   UNL d   1      -0.149  -1.403  -0.364  0.00  0.00    -0.016 C 
ATOM      3  C   UNL d   1      -1.675  -1.118  -0.479  0.00  0.00    -0.068 C 
ATOM      4  C   UNL d   1       0.945   2.373  -0.513  0.00  0.00    -0.001 C 
ATOM      5  C   UNL d   1       0.696  -0.124   0.084  0.00  0.00     0.002 C 
ATOM      6  C   UNL d   1       0.102   1.121  -0.632  0.00  0.00    -0.004 C 
ATOM      7  C   UNL d   1       2.909   3.604  -1.024  0.00  0.00     0.066 C 
ATOM      8  C   UNL d   1      -2.603  -2.080  -0.380  0.00  0.00     0.053 C 
ATOM      9  C   UNL d   1       3.021   1.114  -0.058  0.00  0.00     0.011 C 
ATOM     10  C   UNL d   1       2.249  -0.236  -0.058  0.00  0.00     0.007 C 
ATOM     11  C   UNL d   1       0.460   3.565  -1.340  0.00  0.00     0.006 C 
ATOM     12  C   UNL d   1      -0.026  -2.543   0.686  0.00  0.00     0.022 C 
ATOM     13  C   UNL d   1       1.712   4.418  -1.576  0.00  0.00     0.013 C 
ATOM     14  C   UNL d   1      -1.301   1.337  -0.066  0.00  0.00     0.010 C 
ATOM     15  C   UNL d   1      -2.193   0.289  -0.695  0.00  0.00     0.035 C 
ATOM     16  C   UNL d   1      -2.240  -3.485  -0.105  0.00  0.00     0.149 C 
ATOM     17  O   UNL d   1      -3.096  -4.359  -0.228  0.00  0.00    -0.293 OA
ATOM     18  C   UNL d   1      -0.818  -3.798   0.286  0.00  0.00     0.084 C 
ATOM     19  C   UNL d   1       2.484   1.612  -2.463  0.00  0.00     0.016 C 
ATOM     20  C   UNL d   1       0.377  -1.932  -1.726  0.00  0.00     0.020 C 
ENDROOT
BRANCH   7  21
ATOM     21  C   UNL d   1       3.358   4.240   0.297  0.00  0.00     0.155 C 
ATOM     22  O   UNL d   1       2.907   3.908   1.393  0.00  0.00    -0.295 OA
BRANCH  21  23
ATOM     23  C   UNL d   1       4.395   5.357   0.160  0.00  0.00     0.257 C 
BRANCH  23  24
ATOM     24  O   UNL d   1       4.455   6.249   1.270  0.00  0.00    -0.314 OA
BRANCH  24  25
ATOM     25  C   UNL d   1       3.421   7.133   1.319  0.00  0.00     0.259 C 
ATOM     26  O   UNL d   1       2.460   7.129   0.557  0.00  0.00    -0.265 OA
BRANCH  25  27
ATOM     27  C   UNL d   1       3.559   8.094   2.475  0.00  0.00     0.121 C 
BRANCH  27  28
ATOM     28  C   UNL d   1       5.001   8.459   2.815  0.00  0.00     0.119 C 
BRANCH  28  29
ATOM     29  C   UNL d   1       5.716   9.098   1.648  0.00  0.00     0.139 C 
ATOM     30  O   UNL d   1       5.240   9.273   0.539  0.00  0.00    -0.650 OA
BRANCH  29  31
ATOM     31  O   UNL d   1       6.982   9.462   1.955  0.00  0.00    -0.776 OA
ATOM     32  H   UNL d   1       7.244   9.259   2.873  0.00  0.00     0.167 HD
ENDBRANCH  29  31
ENDBRANCH  28  29
ENDBRANCH  27  28
ENDBRANCH  25  27
ENDBRANCH  24  25
ENDBRANCH  23  24
ENDBRANCH  21  23
ENDBRANCH   7  21
TORSDOF 8
