REMARK  3 active torsions:
REMARK  status: ('A' for Active; 'I' for Inactive)
REMARK    1  A    between atoms: C_8  and  C_1 
REMARK    2  A    between atoms: C_10  and  N_2 
REMARK    3  A    between atoms: S_11  and  C_5 
ROOT
ATOM      1  C   UNL d   1      -0.183  -1.311   0.061  0.00  0.00     0.140 A 
ATOM      2  N   UNL d   1       0.975  -0.679   0.548  0.00  0.00    -0.274 N 
ATOM      3  N   UNL d   1      -1.049  -0.375  -0.291  0.00  0.00    -0.282 N 
ATOM      4  HN  UNL d   1      -1.985  -0.546  -0.659  1.00  0.00     0.188 HD
ATOM      5  C   UNL d   1       0.705   0.675   0.405  0.00  0.00     0.165 A 
ATOM      6  N   UNL d   1      -0.496   0.854  -0.084  0.00  0.00    -0.278 N 
ATOM      7  HN  UNL d   1      -0.938   1.753  -0.277  1.00  0.00     0.189 HD
ENDROOT
BRANCH   1   8
ATOM      8  C   UNL d   1      -0.483  -2.760   0.029  0.00  0.00     0.021 A 
ATOM      9  C   UNL d   1      -1.138  -3.377  -1.088  0.00  0.00    -0.012 A 
ATOM     10  C   UNL d   1      -1.326  -4.785  -1.074  0.00  0.00    -0.025 A 
ATOM     11  C   UNL d   1      -1.632  -2.682  -2.223  0.00  0.00     0.013 A 
ATOM     12  C   UNL d   1      -1.972  -5.431  -2.142  0.00  0.00     0.012 A 
ATOM     13  C   UNL d   1      -0.881  -5.545   0.013  0.00  0.00     0.012 A 
ATOM     14  C   UNL d   1      -2.465  -4.711  -3.228  0.00  0.00     0.001 A 
ATOM     15  C   UNL d   1      -2.296  -3.336  -3.267  0.00  0.00     0.001 A 
ATOM     16  C   UNL d   1      -0.310  -4.935   1.123  0.00  0.00     0.002 A 
ATOM     17  C   UNL d   1      -0.145  -3.555   1.143  0.00  0.00     0.016 A 
ENDBRANCH   1   8
BRANCH   2  18
ATOM     18  C   UNL d   1       2.136  -1.281   1.100  0.00  0.00     0.058 A 
ATOM     19  C   UNL d   1       2.686  -2.425   0.537  0.00  0.00     0.117 A 
ATOM     20  N   UNL d   1       3.740  -3.087   1.073  0.00  0.00    -0.373 N 
ATOM     21  C   UNL d   1       4.272  -2.587   2.208  0.00  0.00     0.088 A 
ATOM     22  HN  UNL d   1       4.115  -3.929   0.636  1.00  0.00     0.164 HD
ATOM     23  C   UNL d   1       3.807  -1.442   2.831  0.00  0.00     0.019 A 
ATOM     24  C   UNL d   1       2.719  -0.779   2.268  0.00  0.00     0.033 A 
ENDBRANCH   2  18
BRANCH   5  25
ATOM     25  S   UNL d   1       1.820   1.984   0.643  0.00  0.00    -0.105 SA
ATOM     26  H   UNL d   1       2.976   1.308   0.659  0.00  0.00     0.110 HD
ENDBRANCH   5  25
TORSDOF 3
