REMARK  6 active torsions:
REMARK  status: ('A' for Active; 'I' for Inactive)
REMARK    1  A    between atoms: C_9  and  C_3 
REMARK    2  A    between atoms: C_10  and  C_4 
REMARK    3  A    between atoms: C_8  and  C_11 
REMARK    4  A    between atoms: C_12  and  C_9 
REMARK    5  A    between atoms: C_25  and  C_22 
REMARK    6  A    between atoms: C_27  and  C_25 
ROOT
ATOM      1  N   UNL d   1       1.173   0.185  -0.223  0.00  0.00    -0.322 N 
ATOM      2  HN  UNL d   1       2.096   0.332  -0.632  1.00  0.00     0.169 HD
ATOM      3  C   UNL d   1       0.620  -0.939   0.174  0.00  0.00     0.156 A 
ATOM      4  C   UNL d   1       0.195   1.115   0.054  0.00  0.00     0.137 A 
ATOM      5  N   UNL d   1      -0.907   0.594   0.618  0.00  0.00    -0.242 N 
ATOM      6  HN  UNL d   1      -1.751   1.082   0.920  1.00  0.00     0.196 HD
ATOM      7  O   UNL d   1      -0.629  -0.769   0.694  0.00  0.00    -0.222 OA
ENDROOT
BRANCH   3   8
ATOM      8  C   UNL d   1       1.133  -2.339   0.090  0.00  0.00     0.092 C 
ATOM      9  C   UNL d   1       2.659  -2.375   0.237  0.00  0.00     0.023 C 
BRANCH   8  10
ATOM     10  C   UNL d   1       0.693  -3.014  -1.200  0.00  0.00    -0.046 A 
ATOM     11  C   UNL d   1       1.054  -2.485  -2.449  0.00  0.00     0.008 A 
ATOM     12  C   UNL d   1       0.635  -3.095  -3.631  0.00  0.00     0.007 A 
ATOM     13  C   UNL d   1      -0.154  -4.250  -3.596  0.00  0.00    -0.058 A 
ATOM     14  C   UNL d   1      -0.510  -4.786  -2.352  0.00  0.00     0.007 A 
ATOM     15  C   UNL d   1      -0.095  -4.173  -1.166  0.00  0.00     0.008 A 
BRANCH  13  16
ATOM     16  C   UNL d   1      -0.578  -4.909  -4.888  0.00  0.00     0.042 C 
BRANCH  16  17
ATOM     17  C   UNL d   1      -2.101  -5.029  -5.091  0.00  0.00    -0.019 C 
ATOM     18  C   UNL d   1      -2.790  -3.663  -5.144  0.00  0.00     0.010 C 
ATOM     19  C   UNL d   1      -2.384  -5.796  -6.385  0.00  0.00     0.010 C 
ENDBRANCH  16  17
ENDBRANCH  13  16
ENDBRANCH   8  10
ENDBRANCH   3   8
BRANCH   4  20
ATOM     20  C   UNL d   1       0.377   2.533  -0.239  0.00  0.00     0.010 A 
ATOM     21  C   UNL d   1       1.573   2.984  -0.816  0.00  0.00     0.016 A 
ATOM     22  C   UNL d   1       1.773   4.343  -1.079  0.00  0.00     0.017 A 
ATOM     23  C   UNL d   1       0.778   5.281  -0.770  0.00  0.00     0.048 A 
ATOM     24  C   UNL d   1      -0.426   4.828  -0.209  0.00  0.00     0.017 A 
ATOM     25  C   UNL d   1      -0.625   3.468   0.053  0.00  0.00     0.016 A 
BRANCH  23  26
ATOM     26  C   UNL d   1       0.983   6.754  -1.024  0.00  0.00     0.417 C 
ATOM     27  F   UNL d   1       2.204   7.051  -1.551  0.00  0.00    -0.166 F 
ATOM     28  F   UNL d   1       0.068   7.267  -1.889  0.00  0.00    -0.166 F 
ATOM     29  F   UNL d   1       0.879   7.495   0.115  0.00  0.00    -0.166 F 
ENDBRANCH  23  26
ENDBRANCH   4  20
TORSDOF 6
