REMARK  6 active torsions:
REMARK  status: ('A' for Active; 'I' for Inactive)
REMARK       I    between atoms: N_4  and  C_1 
REMARK    1  A    between atoms: C_11  and  C_1 
REMARK    2  A    between atoms: C_8  and  N_4 
REMARK    3  A    between atoms: C_5  and  C_11 
REMARK    4  A    between atoms: C_13  and  C_5 
REMARK    5  A    between atoms: C_7  and  C_13 
REMARK    6  A    between atoms: O_17  and  C_7 
ROOT
ATOM      1  C   UNL d   1       0.982   0.091   0.153  0.00  0.00     0.222 C 
ATOM      2  N   UNL d   1       2.349   0.323   0.054  0.00  0.00    -0.327 N 
ATOM      3  O   UNL d   1       0.442  -0.705   0.910  0.00  0.00    -0.273 OA
ATOM      4  H   UNL d   1       2.638   1.157  -0.444  0.00  0.00     0.169 HD
ENDROOT
BRANCH   1   5
ATOM      5  C   UNL d   1       0.193   0.982  -0.797  0.00  0.00     0.113 C 
BRANCH   5   6
ATOM      6  C   UNL d   1      -1.360   0.832  -0.804  0.00  0.00    -0.023 C 
ATOM      7  C   UNL d   1      -1.802  -0.595  -1.253  0.00  0.00     0.010 C 
ATOM      8  C   UNL d   1      -1.531  -0.917  -2.719  0.00  0.00     0.001 C 
ATOM      9  C   UNL d   1      -2.139   0.133  -3.637  0.00  0.00     0.000 C 
ATOM     10  C   UNL d   1      -1.654   1.531  -3.280  0.00  0.00     0.001 C 
ATOM     11  C   UNL d   1      -1.941   1.867  -1.814  0.00  0.00     0.010 C 
BRANCH   6  12
ATOM     12  C   UNL d   1      -2.008   1.058   0.598  0.00  0.00     0.119 C 
BRANCH  12  13
ATOM     13  C   UNL d   1      -1.757   2.381   1.284  0.00  0.00     0.140 C 
ATOM     14  O   UNL d   1      -1.025   3.272   0.882  0.00  0.00    -0.650 OA
BRANCH  13  15
ATOM     15  O   UNL d   1      -2.457   2.490   2.439  0.00  0.00    -0.776 OA
ATOM     16  H   UNL d   1      -2.979   1.692   2.655  0.00  0.00     0.167 HD
ENDBRANCH  13  15
ENDBRANCH  12  13
ENDBRANCH   6  12
ENDBRANCH   5   6
ENDBRANCH   1   5
BRANCH   2  17
ATOM     17  C   UNL d   1       3.360  -0.389   0.731  0.00  0.00     0.037 A 
ATOM     18  C   UNL d   1       3.147  -1.641   1.310  0.00  0.00     0.069 A 
ATOM     19  C   UNL d   1       4.168  -2.294   2.006  0.00  0.00     0.104 A 
ATOM     20  O   UNL d   1       3.805  -3.500   2.552  0.00  0.00    -0.348 OA
ATOM     21  C   UNL d   1       5.441  -1.715   2.083  0.00  0.00     0.102 A 
ATOM     22  C   UNL d   1       4.411  -3.753   3.818  0.00  0.00     0.178 C 
ATOM     23  C   UNL d   1       5.778  -4.389   3.643  0.00  0.00     0.053 C 
ATOM     24  C   UNL d   1       6.589  -3.697   2.560  0.00  0.00     0.178 C 
ATOM     25  O   UNL d   1       6.533  -2.276   2.695  0.00  0.00    -0.348 OA
ATOM     26  C   UNL d   1       5.660  -0.463   1.505  0.00  0.00     0.042 A 
ATOM     27  C   UNL d   1       4.632   0.188   0.815  0.00  0.00     0.032 A 
ENDBRANCH   2  17
TORSDOF 6
