REMARK  1 active torsions:
REMARK  status: ('A' for Active; 'I' for Inactive)
REMARK    1  A    between atoms: O_19  and  C_6 
ROOT
ATOM      1  C   UNL d   1      12.771   9.693  -5.548  0.00  0.00    -0.033 C 
ATOM      2  C   UNL d   1      17.116   9.357  -4.284  0.00  0.00    -0.009 C 
ATOM      3  C   UNL d   1      14.188  10.110  -4.968  0.00  0.00    -0.001 C 
ATOM      4  C   UNL d   1      16.623   9.465  -5.761  0.00  0.00     0.001 C 
ATOM      5  C   UNL d   1      15.366  10.346  -5.986  0.00  0.00    -0.005 C 
ATOM      6  C   UNL d   1      18.368  10.299  -4.230  0.00  0.00     0.062 C 
ATOM      7  C   UNL d   1      16.019   9.695  -3.253  0.00  0.00     0.013 C 
ATOM      8  C   UNL d   1      14.637   9.270  -3.749  0.00  0.00     0.007 C 
ATOM      9  C   UNL d   1      17.844  10.003  -6.558  0.00  0.00     0.009 C 
ATOM     10  C   UNL d   1      11.627  10.341  -4.694  0.00  0.00     0.043 C 
ATOM     11  C   UNL d   1      15.020  10.413  -7.490  0.00  0.00     0.006 C 
ATOM     12  C   UNL d   1      12.638  10.248  -6.995  0.00  0.00    -0.005 C 
ATOM     13  C   UNL d   1      10.264  10.231  -5.363  0.00  0.00    -0.088 C 
ATOM     14  C   UNL d   1      19.017  10.050  -5.595  0.00  0.00     0.038 C 
ATOM     15  C   UNL d   1      13.744   9.703  -7.882  0.00  0.00     0.006 C 
ATOM     16  C   UNL d   1      11.254  10.062  -7.626  0.00  0.00     0.009 C 
ATOM     17  C   UNL d   1       9.197   9.677  -4.779  0.00  0.00     0.014 C 
ATOM     18  C   UNL d   1      10.209  10.766  -6.768  0.00  0.00     0.034 C 
ATOM     19  C   UNL d   1      12.572   8.155  -5.490  0.00  0.00     0.016 C 
ATOM     20  C   UNL d   1      17.544   7.877  -4.038  0.00  0.00     0.018 C 
ATOM     21  C   UNL d   1      18.073  11.797  -4.036  0.00  0.00     0.046 C 
ENDROOT
BRANCH   6  22
ATOM     22  O   UNL d   1      19.270   9.908  -3.200  0.00  0.00    -0.389 OA
ATOM     23  H   UNL d   1      20.071  10.453  -3.284  0.00  0.00     0.210 HD
ENDBRANCH   6  22
TORSDOF 1
