REMARK  10 active torsions:
REMARK  status: ('A' for Active; 'I' for Inactive)
REMARK    1  A    between atoms: C_7  and  C_1 
REMARK    2  A    between atoms: C_8  and  C_1 
REMARK    3  A    between atoms: C_2  and  C_5 
REMARK    4  A    between atoms: C_3  and  C_6 
REMARK    5  A    between atoms: N_10  and  C_4 
REMARK    6  A    between atoms: O_23  and  C_7 
REMARK    7  A    between atoms: O_22  and  C_8 
REMARK    8  A    between atoms: C_11  and  N_10 
REMARK    9  A    between atoms: C_24  and  O_22 
REMARK   10  A    between atoms: C_25  and  O_23 
ROOT
ATOM      1  C   UNL d   1       0.448   0.121  -6.026  0.00  0.00     0.050 A 
ATOM      2  C   UNL d   1      -1.380   1.325  -4.957  0.00  0.00     0.050 A 
ATOM      3  C   UNL d   1      -0.759   0.828  -6.112  0.00  0.00     0.032 A 
ATOM      4  C   UNL d   1       0.420   0.394  -3.591  0.00  0.00     0.033 A 
ATOM      5  C   UNL d   1      -0.797   1.070  -3.704  0.00  0.00     0.045 A 
ATOM      6  C   UNL d   1       1.022  -0.090  -4.761  0.00  0.00     0.045 A 
ENDROOT
BRANCH   4   7
ATOM      7  N   UNL d   1       1.045   0.146  -2.362  0.00  0.00    -0.365 N 
ATOM      8  H   UNL d   1       2.048  -0.066  -2.405  0.00  0.00     0.165 HD
BRANCH   7   9
ATOM      9  C   UNL d   1       0.513   0.176  -1.093  0.00  0.00     0.112 C 
ATOM     10  C   UNL d   1       1.162   0.083   0.087  0.00  0.00     0.129 C 
BRANCH  10  11
ATOM     11  C   UNL d   1       0.401  -0.084   1.351  0.00  0.00     0.300 C 
ATOM     12  O   UNL d   1       0.858  -0.608   2.355  0.00  0.00    -0.259 OA
BRANCH  11  13
ATOM     13  O   UNL d   1      -0.897   0.295   1.202  0.00  0.00    -0.318 OA
BRANCH  13  14
ATOM     14  C   UNL d   1      -1.804  -0.241   2.177  0.00  0.00     0.174 C 
ATOM     15  C   UNL d   1      -2.275  -1.602   1.693  0.00  0.00     0.034 C 
ENDBRANCH  13  14
ENDBRANCH  11  13
ENDBRANCH  10  11
BRANCH  10  16
ATOM     16  C   UNL d   1       2.634  -0.047   0.066  0.00  0.00     0.300 C 
ATOM     17  O   UNL d   1       3.272  -0.390  -0.928  0.00  0.00    -0.259 OA
BRANCH  16  18
ATOM     18  O   UNL d   1       3.172   0.239   1.272  0.00  0.00    -0.318 OA
BRANCH  18  19
ATOM     19  C   UNL d   1       4.494  -0.273   1.488  0.00  0.00     0.174 C 
ATOM     20  C   UNL d   1       4.372  -1.708   1.967  0.00  0.00     0.034 C 
ENDBRANCH  18  19
ENDBRANCH  16  18
ENDBRANCH  10  16
ENDBRANCH   7   9
ENDBRANCH   4   7
BRANCH   2  21
ATOM     21  C   UNL d   1      -2.624   2.175  -5.037  0.00  0.00     0.417 C 
ATOM     22  F   UNL d   1      -3.031   2.424  -6.312  0.00  0.00    -0.166 F 
ATOM     23  F   UNL d   1      -3.688   1.611  -4.404  0.00  0.00    -0.166 F 
ATOM     24  F   UNL d   1      -2.448   3.396  -4.458  0.00  0.00    -0.166 F 
ENDBRANCH   2  21
BRANCH   1  25
ATOM     25  C   UNL d   1       1.158  -0.375  -7.263  0.00  0.00     0.417 C 
ATOM     26  F   UNL d   1       0.505  -0.073  -8.419  0.00  0.00    -0.166 F 
ATOM     27  F   UNL d   1       2.405   0.158  -7.390  0.00  0.00    -0.166 F 
ATOM     28  F   UNL d   1       1.323  -1.726  -7.268  0.00  0.00    -0.166 F 
ENDBRANCH   1  25
TORSDOF 10
