REMARK  8 active torsions:
REMARK  status: ('A' for Active; 'I' for Inactive)
REMARK    1  A    between atoms: C_13  and  C_5 
REMARK    2  A    between atoms: N_12  and  C_7 
REMARK    3  A    between atoms: C_14  and  N_12 
REMARK    4  A    between atoms: C_15  and  N_12 
REMARK    5  A    between atoms: O_18  and  C_13 
REMARK    6  A    between atoms: C_19  and  C_14 
REMARK    7  A    between atoms: C_20  and  C_15 
REMARK    8  A    between atoms: C_22  and  O_18 
ROOT
ATOM      1  C   UNL d   1       0.572  -0.176   1.338  0.00  0.00     0.162 A 
ATOM      2  N   UNL d   1       0.101   0.836   0.531  0.00  0.00    -0.221 N 
ATOM      3  N   UNL d   1       0.212  -1.477   1.165  0.00  0.00    -0.325 N 
ATOM      4  HN  UNL d   1       0.591  -2.207   1.768  1.00  0.00     0.169 HD
ATOM      5  C   UNL d   1       1.361   0.492   2.257  0.00  0.00     0.167 A 
ATOM      6  N   UNL d   1       0.548   2.042   0.927  0.00  0.00    -0.013 NA
ATOM      7  C   UNL d   1      -0.634  -1.771   0.206  0.00  0.00     0.118 A 
ATOM      8  N   UNL d   1       1.307   1.849   1.997  0.00  0.00    -0.275 N 
ATOM      9  HN  UNL d   1       1.773   2.579   2.538  1.00  0.00     0.184 HD
ATOM     10  C   UNL d   1      -1.107  -0.724  -0.780  0.00  0.00     0.036 A 
ATOM     11  C   UNL d   1      -0.725   0.605  -0.571  0.00  0.00     0.070 A 
ATOM     12  C   UNL d   1      -1.849  -1.036  -1.924  0.00  0.00     0.017 A 
ATOM     13  C   UNL d   1      -1.112   1.627  -1.440  0.00  0.00     0.032 A 
ATOM     14  C   UNL d   1      -2.240  -0.022  -2.804  0.00  0.00     0.001 A 
ATOM     15  C   UNL d   1      -1.880   1.304  -2.559  0.00  0.00     0.002 A 
ENDROOT
BRANCH   7  16
ATOM     16  N   UNL d   1      -1.084  -3.076   0.091  0.00  0.00    -0.358 N 
BRANCH  16  17
ATOM     17  C   UNL d   1      -0.133  -4.188   0.230  0.00  0.00     0.163 C 
BRANCH  17  18
ATOM     18  C   UNL d   1      -0.115  -4.975  -1.066  0.00  0.00    -0.040 A 
ATOM     19  C   UNL d   1       0.066  -4.311  -2.291  0.00  0.00     0.009 A 
ATOM     20  C   UNL d   1      -0.056  -4.996  -3.497  0.00  0.00     0.001 A 
ATOM     21  C   UNL d   1      -0.314  -6.364  -3.491  0.00  0.00     0.000 A 
ATOM     22  C   UNL d   1      -0.424  -7.049  -2.280  0.00  0.00     0.001 A 
ATOM     23  C   UNL d   1      -0.323  -6.359  -1.071  0.00  0.00     0.009 A 
ENDBRANCH  17  18
ENDBRANCH  16  17
BRANCH  16  24
ATOM     24  C   UNL d   1      -2.505  -3.415   0.231  0.00  0.00     0.163 C 
BRANCH  24  25
ATOM     25  C   UNL d   1      -2.949  -3.754   1.639  0.00  0.00    -0.040 A 
ATOM     26  C   UNL d   1      -2.426  -3.116   2.772  0.00  0.00     0.009 A 
ATOM     27  C   UNL d   1      -2.914  -3.405   4.048  0.00  0.00     0.001 A 
ATOM     28  C   UNL d   1      -3.948  -4.322   4.208  0.00  0.00     0.000 A 
ATOM     29  C   UNL d   1      -4.494  -4.953   3.094  0.00  0.00     0.001 A 
ATOM     30  C   UNL d   1      -4.001  -4.669   1.818  0.00  0.00     0.009 A 
ENDBRANCH  24  25
ENDBRANCH  16  24
ENDBRANCH   7  16
BRANCH   5  31
ATOM     31  C   UNL d   1       2.154  -0.077   3.331  0.00  0.00     0.315 C 
ATOM     32  O   UNL d   1       2.580  -1.229   3.341  0.00  0.00    -0.257 OA
BRANCH  31  33
ATOM     33  O   UNL d   1       2.406   0.834   4.317  0.00  0.00    -0.317 OA
BRANCH  33  34
ATOM     34  C   UNL d   1       3.364   0.449   5.312  0.00  0.00     0.175 C 
ATOM     35  C   UNL d   1       2.777  -0.482   6.358  0.00  0.00     0.034 C 
ENDBRANCH  33  34
ENDBRANCH  31  33
ENDBRANCH   5  31
TORSDOF 8
