REMARK  7 active torsions:
REMARK  status: ('A' for Active; 'I' for Inactive)
REMARK    1  A    between atoms: N_2  and  S_1 
REMARK    2  A    between atoms: C_4  and  S_1 
REMARK    3  A    between atoms: C_3  and  N_2 
REMARK    4  A    between atoms: O_10  and  C_9 
REMARK    5  A    between atoms: C_22  and  O_10 
REMARK    6  A    between atoms: C_25  and  C_12 
REMARK    7  A    between atoms: C_17  and  C_22 
ROOT
ATOM      1  C   UNL d   1       0.851   1.403   2.397  0.00  0.00     0.128 A 
ATOM      2  N   UNL d   1      -0.145   0.845   3.111  0.00  0.00    -0.354 N 
ATOM      3  HN  UNL d   1      -1.010   0.527   2.674  1.00  0.00     0.166 HD
ATOM      4  C   UNL d   1       2.067   1.854   2.925  0.00  0.00     0.108 A 
ATOM      5  C   UNL d   1       0.068   0.731   4.438  0.00  0.00     0.089 A 
ATOM      6  C   UNL d   1       2.237   1.733   4.301  0.00  0.00     0.041 A 
ATOM      7  C   UNL d   1       1.228   1.152   5.070  0.00  0.00     0.020 A 
ENDROOT
BRANCH   1   8
ATOM      8  N   UNL d   1       0.571   1.420   1.003  0.00  0.00    -0.164 NA
ATOM      9  H   UNL d   1      -0.450   1.416   0.965  0.00  0.00     0.147 HD
BRANCH   8  10
ATOM     10  S   UNL d   1       1.023   0.028   0.140  0.00  0.00     0.247 S 
ATOM     11  O   UNL d   1       1.477   0.462  -1.164  0.00  0.00    -0.205 OA
ATOM     12  O   UNL d   1      -0.080  -0.905   0.246  0.00  0.00    -0.205 OA
BRANCH  10  13
ATOM     13  C   UNL d   1       2.409  -0.686   0.990  0.00  0.00     0.074 A 
ATOM     14  C   UNL d   1       2.190  -1.588   2.032  0.00  0.00     0.025 A 
ATOM     15  C   UNL d   1       3.271  -2.035   2.792  0.00  0.00     0.009 A 
ATOM     16  C   UNL d   1       4.579  -1.617   2.498  0.00  0.00    -0.055 A 
ATOM     17  C   UNL d   1       4.784  -0.778   1.389  0.00  0.00     0.009 A 
ATOM     18  C   UNL d   1       3.706  -0.320   0.628  0.00  0.00     0.025 A 
BRANCH  16  19
ATOM     19  C   UNL d   1       5.764  -1.988   3.375  0.00  0.00     0.010 C 
ATOM     20  C   UNL d   1       5.892  -0.993   4.534  0.00  0.00     0.015 C 
ATOM     21  C   UNL d   1       5.715  -3.421   3.908  0.00  0.00     0.015 C 
ENDBRANCH  16  19
ENDBRANCH  10  13
ENDBRANCH   8  10
ENDBRANCH   1   8
BRANCH   4  22
ATOM     22  O   UNL d   1       2.964   2.399   2.054  0.00  0.00    -0.343 OA
BRANCH  22  23
ATOM     23  C   UNL d   1       4.333   2.494   2.437  0.00  0.00     0.214 C 
BRANCH  23  24
ATOM     24  C   UNL d   1       4.696   3.929   2.698  0.00  0.00    -0.028 A 
ATOM     25  C   UNL d   1       5.320   4.315   3.889  0.00  0.00     0.051 A 
ATOM     26  C   UNL d   1       5.663   5.650   4.091  0.00  0.00     0.119 A 
ATOM     27  F   UNL d   1       6.258   6.005   5.236  0.00  0.00    -0.206 F 
ATOM     28  C   UNL d   1       5.405   6.615   3.129  0.00  0.00     0.084 A 
ATOM     29  C   UNL d   1       4.796   6.229   1.943  0.00  0.00     0.119 A 
ATOM     30  C   UNL d   1       4.443   4.904   1.718  0.00  0.00     0.051 A 
ATOM     31  F   UNL d   1       4.549   7.146   0.999  0.00  0.00    -0.206 F 
ENDBRANCH  23  24
ENDBRANCH  22  23
ENDBRANCH   4  22
TORSDOF 7
