REMARK  6 active torsions:
REMARK  status: ('A' for Active; 'I' for Inactive)
REMARK    1  A    between atoms: N_6  and  C_1 
REMARK    2  A    between atoms: C_8  and  C_2 
REMARK    3  A    between atoms: C_10  and  C_3 
REMARK       I    between atoms: C_7  and  N_6 
REMARK       I    between atoms: N_9  and  C_7 
REMARK    4  A    between atoms: O_14  and  C_8 
REMARK    5  A    between atoms: C_13  and  N_9 
REMARK    6  A    between atoms: C_24  and  O_14 
ROOT
ATOM      1  C   UNL d   1      -1.635  -0.274   0.071  0.00  0.00     0.075 C 
ATOM      2  C   UNL d   1      -1.227  -1.602   0.094  0.00  0.00     0.080 C 
ATOM      3  C   UNL d   1       0.209  -1.641  -0.287  0.00  0.00     0.005 C 
ATOM      4  S   UNL d   1      -0.371   0.845  -0.038  0.00  0.00    -0.081 SA
ATOM      5  C   UNL d   1       0.805  -0.386  -0.142  0.00  0.00    -0.007 C 
ATOM      6  C   UNL d   1       2.244   0.039  -0.132  0.00  0.00     0.057 C 
ENDROOT
BRANCH   1   7
ATOM      7  N   UNL d   1      -2.868   0.336  -0.108  0.00  0.00    -0.203 NA
ATOM      8  C   UNL d   1      -3.639   0.779   0.939  0.00  0.00     0.303 C 
ATOM      9  N   UNL d   1      -3.928  -0.130   1.921  0.00  0.00    -0.313 N 
ATOM     10  O   UNL d   1      -4.107   1.913   0.847  0.00  0.00    -0.253 OA
ATOM     11  H   UNL d   1      -3.767  -1.093   1.640  0.00  0.00     0.170 HD
ATOM     12  H   UNL d   1      -2.757   1.173  -0.667  0.00  0.00     0.139 HD
BRANCH   9  13
ATOM     13  C   UNL d   1      -4.940   0.081   2.879  0.00  0.00     0.035 A 
ATOM     14  C   UNL d   1      -5.744  -1.010   3.224  0.00  0.00     0.031 A 
ATOM     15  C   UNL d   1      -6.863  -0.824   4.038  0.00  0.00     0.026 A 
ATOM     16  C   UNL d   1      -7.144   0.440   4.554  0.00  0.00     0.034 A 
ATOM     17  C   UNL d   1      -6.303   1.516   4.279  0.00  0.00     0.026 A 
ATOM     18 CL   UNL d   1      -8.551   0.678   5.513  0.00  0.00    -0.084 Cl
ATOM     19  C   UNL d   1      -5.202   1.336   3.439  0.00  0.00     0.031 A 
ENDBRANCH   9  13
ENDBRANCH   1   7
BRANCH   2  20
ATOM     20  C   UNL d   1      -2.180  -2.689   0.385  0.00  0.00     0.296 C 
ATOM     21  O   UNL d   1      -3.277  -2.479   0.916  0.00  0.00    -0.259 OA
BRANCH  20  22
ATOM     22  O   UNL d   1      -1.748  -3.961   0.175  0.00  0.00    -0.318 OA
BRANCH  22  23
ATOM     23  C   UNL d   1      -2.212  -4.953   1.115  0.00  0.00     0.174 C 
ATOM     24  C   UNL d   1      -3.408  -5.746   0.630  0.00  0.00     0.034 C 
ENDBRANCH  22  23
ENDBRANCH  20  22
ENDBRANCH   2  20
BRANCH   3  25
ATOM     25  C   UNL d   1       0.955  -2.756  -0.904  0.00  0.00    -0.024 C 
ATOM     26  C   UNL d   1       0.888  -4.058  -0.413  0.00  0.00     0.012 C 
ATOM     27  C   UNL d   1       1.226  -5.145  -1.226  0.00  0.00     0.001 C 
ATOM     28  C   UNL d   1       1.782  -4.935  -2.484  0.00  0.00     0.000 C 
ATOM     29  C   UNL d   1       2.029  -3.637  -2.916  0.00  0.00     0.001 C 
ATOM     30  C   UNL d   1       1.593  -2.557  -2.143  0.00  0.00     0.012 C 
ENDBRANCH   3  25
TORSDOF 6
