REMARK  3 active torsions:
REMARK  status: ('A' for Active; 'I' for Inactive)
REMARK    1  A    between atoms: C_11  and  C_3 
REMARK    2  A    between atoms: O_15  and  N_8 
REMARK    3  A    between atoms: O_16  and  C_13 
ROOT
ATOM      1  C   UNL d   1       1.303  -1.460  -0.002  0.00  0.00     0.052 A 
ATOM      2  C   UNL d   1      -0.008  -0.760   0.004  0.00  0.00    -0.007 A 
ATOM      3  C   UNL d   1       2.453  -0.759   0.011  0.00  0.00    -0.018 A 
ATOM      4  C   UNL d   1      -0.058   0.643   0.011  0.00  0.00    -0.043 A 
ATOM      5  C   UNL d   1      -1.234  -1.452  -0.000  0.00  0.00     0.016 A 
ATOM      6  C   UNL d   1       2.514   0.743   0.034  0.00  0.00     0.046 A 
ATOM      7  C   UNL d   1      -1.301   1.309   0.007  0.00  0.00     0.044 A 
ATOM      8  C   UNL d   1       1.183   1.492   0.020  0.00  0.00     0.044 A 
ATOM      9 CL   UNL d   1       1.294  -3.200  -0.027  0.00  0.00    -0.083 Cl
ATOM     10  C   UNL d   1      -2.505   0.606   0.001  0.00  0.00     0.068 A 
ATOM     11  C   UNL d   1      -2.465  -0.782  -0.002  0.00  0.00     0.037 A 
ENDROOT
BRANCH   3  12
ATOM     12  C   UNL d   1       3.790  -1.426   0.004  0.00  0.00     0.122 C 
ATOM     13  N   UNL d   1       4.904  -0.761   0.016  0.00  0.00    -0.280 N 
ATOM     14  HN  UNL d   1       4.985   0.256   0.031  1.00  0.00     0.193 HD
BRANCH  13  15
ATOM     15  O   UNL d   1       5.976  -1.660   0.003  0.00  0.00    -0.290 OA
ATOM     16  H   UNL d   1       6.748  -1.064   0.011  0.00  0.00     0.244 HD
ENDBRANCH  13  15
ENDBRANCH   3  12
BRANCH  10  17
ATOM     17  O   UNL d   1      -3.628   1.382  -0.003  0.00  0.00    -0.356 OA
ATOM     18  C   UNL d   1      -4.877   0.701  -0.010  0.00  0.00     0.210 C 
ENDBRANCH  10  17
TORSDOF 3
