REMARK  7 active torsions:
REMARK  status: ('A' for Active; 'I' for Inactive)
REMARK    1  A    between atoms: S_8  and  C_2 
REMARK    2  A    between atoms: N_9  and  C_3 
REMARK    3  A    between atoms: C_10  and  S_8 
REMARK    4  A    between atoms: C_11  and  C_10 
REMARK    5  A    between atoms: C_14  and  C_11 
REMARK    6  A    between atoms: C_12  and  C_13 
REMARK    7  A    between atoms: C_13  and  C_14 
ROOT
ATOM      1  S   UNL d   1       0.225  -1.175   0.007  0.00  0.00    -0.027 SA
ATOM      2  C   UNL d   1       1.606  -0.154  -0.019  0.00  0.00     0.130 A 
ATOM      3  C   UNL d   1      -0.740   0.244   0.054  0.00  0.00     0.159 A 
ATOM      4  N   UNL d   1       1.329   1.127  -0.010  0.00  0.00    -0.286 N 
ATOM      5  HN  UNL d   1       2.033   1.865  -0.030  1.00  0.00     0.188 HD
ATOM      6  N   UNL d   1      -0.040   1.358   0.029  0.00  0.00    -0.279 N 
ATOM      7  HN  UNL d   1      -0.458   2.288   0.038  1.00  0.00     0.189 HD
ENDROOT
BRANCH   2   8
ATOM      8  S   UNL d   1       3.225  -0.816  -0.057  0.00  0.00    -0.103 SA
BRANCH   8   9
ATOM      9  C   UNL d   1       4.282   0.663  -0.074  0.00  0.00     0.081 C 
BRANCH   9  10
ATOM     10  C   UNL d   1       5.747   0.208  -0.105  0.00  0.00     0.010 C 
BRANCH  10  11
ATOM     11  C   UNL d   1       6.723   1.389  -0.122  0.00  0.00     0.001 C 
BRANCH  11  12
ATOM     12  C   UNL d   1       8.177   0.904  -0.153  0.00  0.00    -0.000 C 
BRANCH  12  13
ATOM     13  C   UNL d   1       9.159   2.075  -0.168  0.00  0.00    -0.005 C 
ATOM     14  C   UNL d   1      10.601   1.591  -0.200  0.00  0.00     0.005 C 
ENDBRANCH  12  13
ENDBRANCH  11  12
ENDBRANCH  10  11
ENDBRANCH   9  10
ENDBRANCH   8   9
ENDBRANCH   2   8
BRANCH   3  15
ATOM     15  N   UNL d   1      -2.081   0.176   0.117  0.00  0.00    -0.379 N 
ATOM     16  H   UNL d   1      -2.571  -0.696  -0.038  0.00  0.00     0.158 HD
ATOM     17  H   UNL d   1      -2.621   1.024  -0.009  0.00  0.00     0.158 HD
ENDBRANCH   3  15
TORSDOF 7
