REMARK  5 active torsions:
REMARK  status: ('A' for Active; 'I' for Inactive)
REMARK    1  A    between atoms: C_2  and  C_1 
REMARK       I    between atoms: N_3  and  C_1 
REMARK    2  A    between atoms: C_5  and  N_3 
REMARK    3  A    between atoms: O_6  and  C_4 
REMARK    4  A    between atoms: C_15  and  O_6 
REMARK    5  A    between atoms: C_11  and  C_12 
ROOT
ATOM      1  C   UNL d   1      -1.759  -2.014   0.812  0.00  0.00     0.175 A 
ATOM      2  C   UNL d   1      -3.062  -1.499   0.883  0.00  0.00     0.087 A 
ATOM      3  N   UNL d   1      -0.990  -1.936  -0.315  0.00  0.00    -0.345 N 
ATOM      4  HN  UNL d   1      -0.067  -2.369  -0.349  1.00  0.00     0.167 HD
ATOM      5  C   UNL d   1      -3.538  -0.851  -0.267  0.00  0.00     0.035 A 
ATOM      6  C   UNL d   1      -1.480  -1.275  -1.377  0.00  0.00     0.090 A 
ATOM      7  C   UNL d   1      -2.737  -0.715  -1.401  0.00  0.00     0.019 A 
ENDROOT
BRANCH   1   8
ATOM      8  O   UNL d   1      -1.222  -2.747   1.849  0.00  0.00    -0.292 OA
BRANCH   8   9
ATOM      9  C   UNL d   1       0.113  -2.553   2.145  0.00  0.00     0.077 A 
ATOM     10  C   UNL d   1       0.797  -1.357   1.933  0.00  0.00     0.038 A 
ATOM     11  C   UNL d   1       2.142  -1.236   2.292  0.00  0.00     0.011 A 
ATOM     12  C   UNL d   1       2.833  -2.289   2.918  0.00  0.00    -0.050 A 
ATOM     13  C   UNL d   1       2.124  -3.484   3.133  0.00  0.00     0.011 A 
ATOM     14  C   UNL d   1       0.779  -3.614   2.755  0.00  0.00     0.038 A 
BRANCH  12  15
ATOM     15  C   UNL d   1       4.289  -2.082   3.369  0.00  0.00    -0.024 C 
ATOM     16  C   UNL d   1       4.883  -3.300   4.109  0.00  0.00     0.019 C 
ATOM     17  C   UNL d   1       5.189  -1.795   2.148  0.00  0.00     0.019 C 
ATOM     18  C   UNL d   1       4.361  -0.880   4.337  0.00  0.00     0.019 C 
ENDBRANCH  12  15
ENDBRANCH   8   9
ENDBRANCH   1   8
BRANCH   2  19
ATOM     19  N   UNL d   1      -3.988  -1.577   1.956  0.00  0.00    -0.319 N 
ATOM     20  C   UNL d   1      -3.745  -1.865   3.285  0.00  0.00     0.259 C 
ATOM     21  O   UNL d   1      -2.641  -1.930   3.813  0.00  0.00    -0.267 OA
ATOM     22  H   UNL d   1      -4.941  -1.320   1.724  0.00  0.00     0.169 HD
BRANCH  20  23
ATOM     23  C   UNL d   1      -4.945  -2.058   4.162  0.00  0.00     0.070 A 
ATOM     24  C   UNL d   1      -6.260  -1.936   3.705  0.00  0.00     0.132 A 
ATOM     25  F   UNL d   1      -6.521  -1.587   2.435  0.00  0.00    -0.205 F 
ATOM     26  C   UNL d   1      -7.346  -2.165   4.553  0.00  0.00     0.043 A 
ATOM     27  C   UNL d   1      -7.126  -2.517   5.884  0.00  0.00     0.003 A 
ATOM     28  C   UNL d   1      -5.822  -2.631   6.363  0.00  0.00     0.001 A 
ATOM     29  C   UNL d   1      -4.739  -2.404   5.508  0.00  0.00     0.020 A 
ENDBRANCH  20  23
ENDBRANCH   2  19
TORSDOF 5
