REMARK  4 active torsions:
REMARK  status: ('A' for Active; 'I' for Inactive)
REMARK    1  A    between atoms: C_10  and  N_1 
REMARK    2  A    between atoms: C_9  and  C_2 
REMARK    3  A    between atoms: S_12  and  C_5 
REMARK    4  A    between atoms: C_8  and  C_11 
ROOT
ATOM      1  N   UNL d   1      -0.281  -1.291  -0.021  0.00  0.00    -0.274 N 
ATOM      2  C   UNL d   1       0.984  -0.689  -0.018  0.00  0.00     0.139 A 
ATOM      3  N   UNL d   1       0.829   0.624  -0.026  0.00  0.00    -0.282 N 
ATOM      4  HN  UNL d   1       1.582   1.310   0.021  1.00  0.00     0.188 HD
ATOM      5  C   UNL d   1      -1.159  -0.221  -0.108  0.00  0.00     0.165 A 
ATOM      6  N   UNL d   1      -0.501   0.913  -0.110  0.00  0.00    -0.278 N 
ATOM      7  HN  UNL d   1      -0.911   1.845  -0.164  1.00  0.00     0.189 HD
ENDROOT
BRANCH   2   8
ATOM      8  C   UNL d   1       2.301  -1.334  -0.075  0.00  0.00     0.010 A 
ATOM      9  C   UNL d   1       2.564  -2.441  -0.893  0.00  0.00     0.016 A 
ATOM     10  C   UNL d   1       3.834  -3.026  -0.917  0.00  0.00     0.017 A 
ATOM     11  C   UNL d   1       4.883  -2.494  -0.153  0.00  0.00     0.048 A 
ATOM     12  C   UNL d   1       4.634  -1.362   0.634  0.00  0.00     0.017 A 
ATOM     13  C   UNL d   1       3.359  -0.789   0.668  0.00  0.00     0.016 A 
BRANCH  11  14
ATOM     14  C   UNL d   1       6.247  -3.141  -0.189  0.00  0.00     0.417 C 
ATOM     15  F   UNL d   1       7.195  -2.457   0.509  0.00  0.00    -0.166 F 
ATOM     16  F   UNL d   1       6.236  -4.399   0.331  0.00  0.00    -0.166 F 
ATOM     17  F   UNL d   1       6.732  -3.264  -1.456  0.00  0.00    -0.166 F 
ENDBRANCH  11  14
ENDBRANCH   2   8
BRANCH   1  18
ATOM     18  C   UNL d   1      -0.582  -2.674   0.074  0.00  0.00     0.058 A 
ATOM     19  C   UNL d   1       0.144  -3.499   0.927  0.00  0.00     0.117 A 
ATOM     20  N   UNL d   1      -0.075  -4.828   1.050  0.00  0.00    -0.373 N 
ATOM     21  C   UNL d   1      -1.063  -5.361   0.299  0.00  0.00     0.088 A 
ATOM     22  HN  UNL d   1       0.481  -5.403   1.682  1.00  0.00     0.164 HD
ATOM     23  C   UNL d   1      -1.844  -4.622  -0.573  0.00  0.00     0.019 A 
ATOM     24  C   UNL d   1      -1.597  -3.256  -0.691  0.00  0.00     0.033 A 
ENDBRANCH   1  18
BRANCH   5  25
ATOM     25  S   UNL d   1      -2.892  -0.283  -0.020  0.00  0.00    -0.105 SA
ATOM     26  H   UNL d   1      -3.043  -1.447   0.624  0.00  0.00     0.110 HD
ENDBRANCH   5  25
TORSDOF 4
