REMARK  4 active torsions:
REMARK  status: ('A' for Active; 'I' for Inactive)
REMARK    1  A    between atoms: N_3  and  C_1 
REMARK    2  A    between atoms: N_5  and  C_1 
REMARK    3  A    between atoms: C_2  and  N_3 
REMARK    4  A    between atoms: C_10  and  N_5 
ROOT
ATOM      1  C   UNL d   1       1.083  -0.103   0.157  0.00  0.00     0.176 C 
ATOM      2  S   UNL d   1       2.654  -0.648   0.312  0.00  0.00    -0.041 SA
ENDROOT
BRANCH   1   3
ATOM      3  N   UNL d   1       0.607   1.127   0.547  0.00  0.00    -0.332 N 
ATOM      4  H   UNL d   1      -0.249   1.067   1.094  0.00  0.00     0.168 HD
BRANCH   3   5
ATOM      5  C   UNL d   1       1.280   2.365   0.601  0.00  0.00     0.058 A 
ATOM      6  C   UNL d   1       2.222   2.715  -0.372  0.00  0.00     0.057 A 
ATOM      7  C   UNL d   1       2.784   3.994  -0.384  0.00  0.00     0.058 A 
ATOM      8 CL   UNL d   1       3.881   4.376  -1.663  0.00  0.00    -0.082 Cl
ATOM      9  C   UNL d   1       2.423   4.928   0.596  0.00  0.00     0.057 A 
ATOM     10  C   UNL d   1       1.490   4.585   1.576  0.00  0.00     0.051 A 
ATOM     11 CL   UNL d   1       3.071   6.529   0.632  0.00  0.00    -0.082 Cl
ATOM     12  C   UNL d   1       0.907   3.316   1.565  0.00  0.00     0.062 A 
ATOM     13 CL   UNL d   1      -0.262   2.940   2.782  0.00  0.00    -0.082 Cl
ENDBRANCH   3   5
ENDBRANCH   1   3
BRANCH   1  14
ATOM     14  N   UNL d   1       0.111  -0.988  -0.241  0.00  0.00    -0.332 N 
ATOM     15  H   UNL d   1       0.344  -1.972  -0.134  0.00  0.00     0.168 HD
BRANCH  14  16
ATOM     16  C   UNL d   1      -1.044  -0.718  -1.014  0.00  0.00     0.051 A 
ATOM     17  C   UNL d   1      -2.051  -1.691  -1.125  0.00  0.00     0.037 A 
ATOM     18 BR   UNL d   1      -1.965  -3.322  -0.155  0.00  0.00    -0.049 Br
ATOM     19  C   UNL d   1      -3.165  -1.472  -1.941  0.00  0.00     0.021 A 
ATOM     20  C   UNL d   1      -3.273  -0.294  -2.676  0.00  0.00     0.002 A 
ATOM     21  C   UNL d   1      -2.271   0.670  -2.593  0.00  0.00     0.002 A 
ATOM     22  C   UNL d   1      -1.167   0.460  -1.763  0.00  0.00     0.031 A 
ENDBRANCH  14  16
ENDBRANCH   1  14
TORSDOF 4
