REMARK  3 active torsions:
REMARK  status: ('A' for Active; 'I' for Inactive)
REMARK    1  A    between atoms: C_11  and  C_1 
REMARK    2  A    between atoms: C_4  and  C_6 
REMARK       I    between atoms: C_6  and  N_10 
REMARK    3  A    between atoms: N_10  and  C_18 
ROOT
ATOM      1  C   UNL d   1      -4.011  -0.448   0.975  0.00  0.00    -0.002 A 
ATOM      2  C   UNL d   1      -4.290  -1.663   1.618  0.00  0.00     0.016 A 
ATOM      3  C   UNL d   1      -4.746  -0.135  -0.174  0.00  0.00     0.016 A 
ATOM      4  C   UNL d   1      -6.108  -2.131   0.061  0.00  0.00     0.035 A 
ATOM      5  C   UNL d   1      -5.332  -2.494   1.170  0.00  0.00     0.030 A 
ATOM      6  C   UNL d   1      -5.780  -0.961  -0.620  0.00  0.00     0.030 A 
ENDROOT
BRANCH   4   7
ATOM      7  N   UNL d   1      -7.199  -2.954  -0.297  0.00  0.00    -0.323 N 
ATOM      8  C   UNL d   1      -8.079  -2.756  -1.347  0.00  0.00     0.259 C 
ATOM      9  O   UNL d   1      -8.011  -1.843  -2.166  0.00  0.00    -0.267 OA
ATOM     10  H   UNL d   1      -7.374  -3.763   0.289  0.00  0.00     0.169 HD
BRANCH   8  11
ATOM     11  C   UNL d   1      -9.205  -3.735  -1.509  0.00  0.00     0.068 A 
ATOM     12  C   UNL d   1      -9.284  -4.987  -0.870  0.00  0.00     0.117 A 
ATOM     13  C   UNL d   1     -10.342  -5.860  -1.194  0.00  0.00     0.103 A 
ATOM     14  O   UNL d   1      -8.316  -5.297   0.058  0.00  0.00    -0.347 OA
ATOM     15  O   UNL d   1     -10.531  -7.127  -0.696  0.00  0.00    -0.348 OA
ATOM     16  C   UNL d   1     -11.298  -5.490  -2.146  0.00  0.00     0.040 A 
ATOM     17  C   UNL d   1     -10.100  -7.327   0.645  0.00  0.00     0.178 C 
ATOM     18  C   UNL d   1      -8.611  -7.615   0.711  0.00  0.00     0.053 C 
ATOM     19  C   UNL d   1      -7.801  -6.620  -0.099  0.00  0.00     0.178 C 
ATOM     20  C   UNL d   1     -11.239  -4.244  -2.758  0.00  0.00     0.004 A 
ATOM     21  C   UNL d   1     -10.199  -3.376  -2.443  0.00  0.00     0.020 A 
ENDBRANCH   8  11
ENDBRANCH   4   7
BRANCH   1  22
ATOM     22  C   UNL d   1      -3.001   0.479   1.520  0.00  0.00     0.085 A 
ATOM     23  N   UNL d   1      -1.955   0.131   2.244  0.00  0.00    -0.349 N 
ATOM     24  C   UNL d   1      -1.227   1.258   2.607  0.00  0.00     0.050 A 
ATOM     25  HN  UNL d   1      -1.716  -0.826   2.501  1.00  0.00     0.166 HD
ATOM     26  C   UNL d   1      -0.033   1.275   3.358  0.00  0.00     0.031 A 
ATOM     27  C   UNL d   1      -1.754   2.475   2.176  0.00  0.00     0.033 A 
ATOM     28  C   UNL d   1       0.590   2.496   3.648  0.00  0.00     0.002 A 
ATOM     29  C   UNL d   1       0.043   3.693   3.207  0.00  0.00     0.002 A 
ATOM     30  C   UNL d   1      -1.141   3.705   2.463  0.00  0.00     0.021 A 
ATOM     31  S   UNL d   1      -3.192   2.181   1.298  0.00  0.00    -0.070 SA
ENDBRANCH   1  22
TORSDOF 3
