REMARK  3 active torsions:
REMARK  status: ('A' for Active; 'I' for Inactive)
REMARK    1  A    between atoms: C_3  and  N_1 
REMARK    2  A    between atoms: C_5  and  C_3 
REMARK    3  A    between atoms: N_7  and  C_4 
ROOT
ATOM      1  C   UNL d   1       0.545   0.784   1.136  0.00  0.00     0.112 C 
ATOM      2  S   UNL d   1       1.164   2.003   2.156  0.00  0.00    -0.059 SA
ENDROOT
BRANCH   1   3
ATOM      3  N   UNL d   1       1.216   0.242   0.048  0.00  0.00    -0.337 N 
ATOM      4  C   UNL d   1       2.452  -0.187   0.037  0.00  0.00     0.075 C 
ATOM      5  C   UNL d   1       3.330  -0.253   1.283  0.00  0.00     0.089 C 
ATOM      6  HN  UNL d   1       0.695   0.171  -0.826  1.00  0.00     0.168 HD
BRANCH   4   7
ATOM      7  N   UNL d   1       3.025  -0.575  -1.176  0.00  0.00    -0.380 N 
ATOM      8  C   UNL d   1       4.431  -0.909  -1.354  0.00  0.00     0.150 C 
ATOM      9  C   UNL d   1       2.219  -0.733  -2.382  0.00  0.00     0.150 C 
ENDBRANCH   4   7
ENDBRANCH   1   3
BRANCH   1  10
ATOM     10  C   UNL d   1      -0.919   0.360   1.240  0.00  0.00     0.002 A 
ATOM     11  C   UNL d   1      -1.387  -0.777   0.553  0.00  0.00     0.016 A 
ATOM     12  C   UNL d   1      -2.727  -1.186   0.664  0.00  0.00     0.024 A 
ATOM     13  C   UNL d   1      -3.617  -0.464   1.456  0.00  0.00     0.034 A 
ATOM     14  C   UNL d   1      -3.192   0.680   2.116  0.00  0.00     0.024 A 
ATOM     15 CL   UNL d   1      -5.249  -0.987   1.621  0.00  0.00    -0.084 Cl
ATOM     16  C   UNL d   1      -1.856   1.089   2.003  0.00  0.00     0.016 A 
ENDBRANCH   1  10
TORSDOF 3
