REMARK  7 active torsions:
REMARK  status: ('A' for Active; 'I' for Inactive)
REMARK    1  A    between atoms: C_4  and  C_1 
REMARK    2  A    between atoms: N_6  and  N_2 
REMARK    3  A    between atoms: O_7  and  C_4 
REMARK    4  A    between atoms: C_8  and  N_6 
REMARK    5  A    between atoms: C_9  and  O_7 
REMARK    6  A    between atoms: C_12  and  C_9 
REMARK    7  A    between atoms: C_13  and  C_12 
ROOT
ATOM      1  C   UNL d   1       1.070  -0.076   0.093  0.00  0.00     0.189 C 
ATOM      2  N   UNL d   1       0.415  -0.830   0.918  0.00  0.00    -0.306 N 
ATOM      3  HN  UNL d   1       0.875  -1.545   1.482  1.00  0.00     0.186 HD
ENDROOT
BRANCH   2   4
ATOM      4  N   UNL d   1      -0.926  -0.606   0.986  0.00  0.00    -0.301 N 
ATOM      5  H   UNL d   1      -1.422  -0.400   0.119  0.00  0.00     0.187 HD
BRANCH   4   6
ATOM      6  C   UNL d   1      -1.659  -1.488   1.819  0.00  0.00     0.048 A 
ATOM      7  C   UNL d   1      -1.058  -2.162   2.893  0.00  0.00     0.031 A 
ATOM      8  C   UNL d   1      -1.810  -2.969   3.751  0.00  0.00     0.002 A 
ATOM      9  C   UNL d   1      -3.181  -3.102   3.554  0.00  0.00     0.000 A 
ATOM     10  C   UNL d   1      -3.799  -2.427   2.503  0.00  0.00     0.002 A 
ATOM     11  C   UNL d   1      -3.044  -1.616   1.650  0.00  0.00     0.031 A 
ENDBRANCH   4   6
ENDBRANCH   2   4
BRANCH   1  12
ATOM     12  C   UNL d   1       2.543  -0.319  -0.153  0.00  0.00     0.299 C 
ATOM     13  O   UNL d   1       3.084   0.107  -1.159  0.00  0.00    -0.259 OA
BRANCH  12  14
ATOM     14  O   UNL d   1       3.051  -1.136   0.784  0.00  0.00    -0.317 OA
BRANCH  14  15
ATOM     15  C   UNL d   1       4.140  -1.961   0.364  0.00  0.00     0.179 C 
BRANCH  15  16
ATOM     16  C   UNL d   1       5.462  -1.508   0.971  0.00  0.00     0.026 C 
BRANCH  16  17
ATOM     17  C   UNL d   1       6.559  -2.511   0.611  0.00  0.00    -0.002 C 
ATOM     18  C   UNL d   1       7.910  -2.134   1.191  0.00  0.00     0.005 C 
ENDBRANCH  16  17
ENDBRANCH  15  16
ENDBRANCH  14  15
ENDBRANCH  12  14
ENDBRANCH   1  12
TORSDOF 7
