REMARK  5 active torsions:
REMARK  status: ('A' for Active; 'I' for Inactive)
REMARK    1  A    between atoms: C_6  and  C_1 
REMARK    2  A    between atoms: C_2  and  C_3 
REMARK    3  A    between atoms: N_15  and  C_6 
REMARK    4  A    between atoms: O_16  and  C_7 
REMARK    5  A    between atoms: C_17  and  O_16 
ROOT
ATOM      1  C   UNL d   1      -0.528  -1.254   0.066  0.00  0.00     0.103 A 
ATOM      2  C   UNL d   1       0.687   1.203   0.021  0.00  0.00     0.066 A 
ATOM      3  N   UNL d   1      -1.317  -0.138   0.067  0.00  0.00    -0.360 N 
ATOM      4  HN  UNL d   1      -2.335  -0.205   0.083  1.00  0.00     0.165 HD
ATOM      5  C   UNL d   1       0.871  -1.224   0.015  0.00  0.00     0.099 A 
ATOM      6  C   UNL d   1       1.472   0.039  -0.001  0.00  0.00     0.056 A 
ATOM      7  C   UNL d   1      -0.691   1.057   0.047  0.00  0.00     0.105 A 
ENDROOT
BRANCH   1   8
ATOM      8  C   UNL d   1      -1.330  -2.535   0.115  0.00  0.00     0.101 C 
ATOM      9  N   UNL d   1      -2.630  -2.498   0.044  0.00  0.00    -0.388 N 
ATOM     10  H   UNL d   1      -2.897  -1.501  -0.016  0.00  0.00     0.157 HD
ATOM     11  HN  UNL d   1      -3.263  -3.299   0.047  1.00  0.00     0.157 HD
BRANCH   8  12
ATOM     12  N   UNL d   1      -0.761  -3.769   0.225  0.00  0.00    -0.287 NA
ATOM     13  H   UNL d   1       0.188  -3.863  -0.118  0.00  0.00     0.125 HD
ATOM     14  H   UNL d   1      -1.394  -4.513  -0.047  0.00  0.00     0.125 HD
ENDBRANCH   8  12
ENDBRANCH   1   8
BRANCH   5  15
ATOM     15  O   UNL d   1       1.554  -2.406  -0.038  0.00  0.00    -0.349 OA
BRANCH  15  16
ATOM     16  C   UNL d   1       2.981  -2.365  -0.030  0.00  0.00     0.171 C 
ATOM     17  C   UNL d   1       3.481  -3.798  -0.044  0.00  0.00     0.034 C 
ENDBRANCH  15  16
ENDBRANCH   5  15
BRANCH   2  18
ATOM     18  C   UNL d   1       1.282   2.578   0.013  0.00  0.00     0.418 C 
ATOM     19  F   UNL d   1       2.644   2.576   0.007  0.00  0.00    -0.166 F 
ATOM     20  F   UNL d   1       0.904   3.303  -1.074  0.00  0.00    -0.166 F 
ATOM     21  F   UNL d   1       0.915   3.310   1.100  0.00  0.00    -0.166 F 
ENDBRANCH   2  18
TORSDOF 5
