REMARK  4 active torsions:
REMARK  status: ('A' for Active; 'I' for Inactive)
REMARK    1  A    between atoms: C_14  and  C_3 
REMARK    2  A    between atoms: C_15  and  C_4 
REMARK    3  A    between atoms: C_9  and  C_16 
REMARK    4  A    between atoms: O_26  and  C_23 
ROOT
ATOM      1  N   UNL d   1       1.273   0.170  -0.016  0.00  0.00    -0.319 N 
ATOM      2  HN  UNL d   1       2.283   0.318  -0.010  1.00  0.00     0.169 HD
ATOM      3  C   UNL d   1       0.265   1.110  -0.035  0.00  0.00     0.138 A 
ATOM      4  C   UNL d   1       0.611  -0.965  -0.009  0.00  0.00     0.182 A 
ATOM      5  N   UNL d   1      -0.970   0.583  -0.048  0.00  0.00    -0.242 N 
ATOM      6  HN  UNL d   1      -1.865   1.073  -0.065  1.00  0.00     0.196 HD
ATOM      7  O   UNL d   1      -0.743  -0.792  -0.031  0.00  0.00    -0.217 OA
ENDROOT
BRANCH   3   8
ATOM      8  C   UNL d   1       0.544   2.541  -0.035  0.00  0.00     0.010 A 
ATOM      9  C   UNL d   1       1.869   2.999  -0.095  0.00  0.00     0.016 A 
ATOM     10  C   UNL d   1       2.156   4.369  -0.090  0.00  0.00     0.014 A 
ATOM     11  C   UNL d   1       1.122   5.313  -0.028  0.00  0.00    -0.008 A 
ATOM     12  C   UNL d   1      -0.202   4.856   0.040  0.00  0.00     0.014 A 
ATOM     13  C   UNL d   1      -0.488   3.486   0.030  0.00  0.00     0.016 A 
BRANCH  11  14
ATOM     14  C   UNL d   1       1.392   6.743  -0.012  0.00  0.00     0.063 A 
ATOM     15  N   UNL d   1       0.541   7.630   0.640  0.00  0.00    -0.292 N 
ATOM     16  N   UNL d   1       0.957   8.881   0.541  0.00  0.00    -0.061 NA
ATOM     17  HN  UNL d   1      -0.304   7.348   1.137  1.00  0.00     0.183 HD
ATOM     18  S   UNL d   1       2.362   9.029  -0.352  0.00  0.00    -0.010 SA
ATOM     19  C   UNL d   1       2.470   7.342  -0.644  0.00  0.00     0.096 A 
ENDBRANCH  11  14
ENDBRANCH   3   8
BRANCH   4  20
ATOM     20  C   UNL d   1       1.112  -2.333   0.035  0.00  0.00     0.017 A 
ATOM     21  C   UNL d   1       2.493  -2.560   0.140  0.00  0.00     0.018 A 
ATOM     22  C   UNL d   1       3.010  -3.861   0.192  0.00  0.00     0.037 A 
ATOM     23  C   UNL d   1       2.149  -4.955   0.137  0.00  0.00     0.068 A 
ATOM     24  C   UNL d   1       0.772  -4.742   0.050  0.00  0.00     0.037 A 
ATOM     25  C   UNL d   1       0.257  -3.442  -0.011  0.00  0.00     0.018 A 
BRANCH  23  26
ATOM     26  O   UNL d   1       2.531  -6.266   0.199  0.00  0.00    -0.356 OA
ATOM     27  C   UNL d   1       3.842  -6.549  -0.277  0.00  0.00     0.210 C 
ENDBRANCH  23  26
ENDBRANCH   4  20
TORSDOF 4
