REMARK  6 active torsions:
REMARK  status: ('A' for Active; 'I' for Inactive)
REMARK       I    between atoms: C_4  and  N_5 
REMARK    1  A    between atoms: C_13  and  C_4 
REMARK    2  A    between atoms: N_5  and  C_10 
REMARK    3  A    between atoms: C_6  and  C_13 
REMARK    4  A    between atoms: C_15  and  C_6 
REMARK    5  A    between atoms: C_8  and  C_15 
REMARK    6  A    between atoms: O_19  and  C_8 
ROOT
ATOM      1  C   UNL d   1      -2.410   4.701   0.179  0.00  0.00     0.222 C 
ATOM      2  N   UNL d   1      -3.786   4.854   0.147  0.00  0.00    -0.327 N 
ATOM      3  O   UNL d   1      -1.628   5.591   0.491  0.00  0.00    -0.273 OA
ATOM      4  H   UNL d   1      -4.323   4.083  -0.228  0.00  0.00     0.169 HD
ENDROOT
BRANCH   1   5
ATOM      5  C   UNL d   1      -1.933   3.280  -0.205  0.00  0.00     0.113 C 
BRANCH   5   6
ATOM      6  C   UNL d   1      -0.376   3.068  -0.117  0.00  0.00    -0.023 C 
ATOM      7  C   UNL d   1       0.312   3.918  -1.234  0.00  0.00     0.010 C 
ATOM      8  C   UNL d   1       0.007   3.405  -2.654  0.00  0.00     0.001 C 
ATOM      9  C   UNL d   1       0.382   1.939  -2.843  0.00  0.00     0.000 C 
ATOM     10  C   UNL d   1      -0.190   1.050  -1.749  0.00  0.00     0.001 C 
ATOM     11  C   UNL d   1       0.100   1.603  -0.364  0.00  0.00     0.010 C 
BRANCH   6  12
ATOM     12  C   UNL d   1       0.148   3.446   1.310  0.00  0.00     0.119 C 
BRANCH  12  13
ATOM     13  C   UNL d   1      -0.601   2.750   2.458  0.00  0.00     0.140 C 
ATOM     14  O   UNL d   1      -1.239   1.718   2.369  0.00  0.00    -0.650 OA
BRANCH  13  15
ATOM     15  O   UNL d   1      -0.460   3.395   3.629  0.00  0.00    -0.776 OA
ATOM     16  H   UNL d   1       0.044   4.224   3.576  0.00  0.00     0.167 HD
ENDBRANCH  13  15
ENDBRANCH  12  13
ENDBRANCH   6  12
ENDBRANCH   5   6
ENDBRANCH   1   5
BRANCH   2  17
ATOM     17  C   UNL d   1      -4.527   5.967   0.628  0.00  0.00     0.035 A 
ATOM     18  C   UNL d   1      -3.958   7.066   1.284  0.00  0.00     0.047 A 
ATOM     19  C   UNL d   1      -4.806   8.036   1.801  0.00  0.00     0.050 A 
ATOM     20  C   UNL d   1      -4.460   9.235   2.558  0.00  0.00     0.294 A 
ATOM     21  C   UNL d   1      -6.177   7.972   1.683  0.00  0.00    -0.018 A 
ATOM     22  O   UNL d   1      -5.640   9.848   2.881  0.00  0.00    -0.313 OA
ATOM     23  O   UNL d   1      -3.346   9.617   2.851  0.00  0.00    -0.259 OA
ATOM     24  C   UNL d   1      -6.783   9.115   2.392  0.00  0.00     0.218 A 
ATOM     25  C   UNL d   1      -6.764   6.923   1.002  0.00  0.00     0.012 A 
ATOM     26  C   UNL d   1      -5.931   5.922   0.476  0.00  0.00     0.030 A 
ENDBRANCH   2  17
TORSDOF 6
