REMARK  7 active torsions:
REMARK  status: ('A' for Active; 'I' for Inactive)
REMARK    1  A    between atoms: C_4  and  C_1 
REMARK    2  A    between atoms: C_6  and  C_1 
REMARK    3  A    between atoms: C_3  and  C_2 
REMARK    4  A    between atoms: C_9  and  C_3 
REMARK    5  A    between atoms: C_5  and  C_4 
REMARK    6  A    between atoms: C_10  and  C_5 
REMARK    7  A    between atoms: O_16  and  C_13 
ROOT
ATOM      1  C   UNL d   1       1.039  -0.086   0.168  0.00  0.00    -0.037 C 
ATOM      2  C   UNL d   1       0.370  -1.252   0.332  0.00  0.00     0.064 C 
ENDROOT
BRANCH   1   3
ATOM      3  C   UNL d   1       2.557   0.025   0.082  0.00  0.00     0.123 C 
BRANCH   3   4
ATOM      4  C   UNL d   1       3.212   0.071   1.466  0.00  0.00     0.163 C 
ATOM      5  O   UNL d   1       2.561   0.188   2.506  0.00  0.00    -0.292 OA
BRANCH   4   6
ATOM      6  C   UNL d   1       4.704   0.040   1.563  0.00  0.00     0.010 A 
ATOM      7  C   UNL d   1       5.538  -0.042   0.442  0.00  0.00     0.015 A 
ATOM      8  C   UNL d   1       6.926  -0.094   0.602  0.00  0.00     0.001 A 
ATOM      9  C   UNL d   1       7.490  -0.057   1.878  0.00  0.00     0.000 A 
ATOM     10  C   UNL d   1       6.669   0.047   2.997  0.00  0.00     0.001 A 
ATOM     11  C   UNL d   1       5.283   0.099   2.841  0.00  0.00     0.015 A 
ENDBRANCH   4   6
ENDBRANCH   3   4
ENDBRANCH   1   3
BRANCH   1  12
ATOM     12  C   UNL d   1       0.281   1.205   0.126  0.00  0.00    -0.029 A 
ATOM     13  C   UNL d   1       0.818   2.373   0.694  0.00  0.00     0.014 A 
ATOM     14  C   UNL d   1       0.136   3.596   0.661  0.00  0.00     0.037 A 
ATOM     15  C   UNL d   1      -1.117   3.680   0.065  0.00  0.00     0.068 A 
ATOM     16  C   UNL d   1      -1.663   2.539  -0.520  0.00  0.00     0.037 A 
ATOM     17  C   UNL d   1      -0.975   1.316  -0.492  0.00  0.00     0.014 A 
BRANCH  15  18
ATOM     18  O   UNL d   1      -1.873   4.815  -0.035  0.00  0.00    -0.356 OA
ATOM     19  C   UNL d   1      -1.606   5.827   0.930  0.00  0.00     0.210 C 
ENDBRANCH  15  18
ENDBRANCH   1  12
BRANCH   2  20
ATOM     20  C   UNL d   1       1.003  -2.605   0.463  0.00  0.00     0.182 C 
ATOM     21  O   UNL d   1       2.169  -2.801   0.117  0.00  0.00    -0.288 OA
BRANCH  20  22
ATOM     22  C   UNL d   1       0.210  -3.756   1.002  0.00  0.00     0.014 A 
ATOM     23  C   UNL d   1      -1.113  -3.662   1.456  0.00  0.00     0.015 A 
ATOM     24  C   UNL d   1      -1.773  -4.790   1.958  0.00  0.00     0.001 A 
ATOM     25  C   UNL d   1      -1.122  -6.020   2.022  0.00  0.00     0.000 A 
ATOM     26  C   UNL d   1       0.193  -6.128   1.580  0.00  0.00     0.001 A 
ATOM     27  C   UNL d   1       0.852  -5.005   1.073  0.00  0.00     0.015 A 
ENDBRANCH  20  22
ENDBRANCH   2  20
TORSDOF 7
