REMARK  4 active torsions:
REMARK  status: ('A' for Active; 'I' for Inactive)
REMARK    1  A    between atoms: S_5  and  C_1 
REMARK    2  A    between atoms: C_8  and  N_2 
REMARK    3  A    between atoms: C_11  and  S_5 
REMARK    4  A    between atoms: C_13  and  C_11 
ROOT
ATOM      1  C   UNL d   1       1.026  -0.747  -0.052  0.00  0.00     0.151 A 
ATOM      2  N   UNL d   1       1.000   0.642  -0.022  0.00  0.00    -0.300 N 
ATOM      3  N   UNL d   1      -0.183  -1.267  -0.061  0.00  0.00    -0.345 N 
ATOM      4  HN  UNL d   1      -0.431  -2.254  -0.130  1.00  0.00     0.167 HD
ATOM      5  C   UNL d   1      -1.034  -0.203   0.044  0.00  0.00     0.108 A 
ATOM      6  C   UNL d   1      -0.335   0.977   0.119  0.00  0.00     0.116 A 
ENDROOT
BRANCH   1   7
ATOM      7  S   UNL d   1       2.477  -1.675   0.159  0.00  0.00    -0.089 SA
BRANCH   7   8
ATOM      8  C   UNL d   1       1.921  -3.371  -0.151  0.00  0.00     0.121 C 
BRANCH   8   9
ATOM      9  C   UNL d   1       3.109  -4.306  -0.079  0.00  0.00    -0.048 A 
ATOM     10  C   UNL d   1       3.564  -4.779   1.163  0.00  0.00     0.009 A 
ATOM     11  C   UNL d   1       4.707  -5.577   1.244  0.00  0.00     0.019 A 
ATOM     12  C   UNL d   1       5.402  -5.908   0.084  0.00  0.00     0.011 A 
ATOM     13  C   UNL d   1       4.967  -5.447  -1.157  0.00  0.00     0.019 A 
ATOM     14 BR   UNL d   1       6.955  -6.982   0.195  0.00  0.00    -0.051 Br
ATOM     15  C   UNL d   1       3.825  -4.646  -1.238  0.00  0.00     0.009 A 
ENDBRANCH   8   9
ENDBRANCH   7   8
ENDBRANCH   1   7
BRANCH   2  16
ATOM     16  C   UNL d   1       2.071   1.574  -0.107  0.00  0.00     0.056 A 
ATOM     17  C   UNL d   1       3.220   1.294  -0.840  0.00  0.00     0.117 A 
ATOM     18  N   UNL d   1       4.279   2.134  -0.938  0.00  0.00    -0.373 N 
ATOM     19  C   UNL d   1       4.190   3.306  -0.278  0.00  0.00     0.088 A 
ATOM     20  HN  UNL d   1       5.104   1.890  -1.485  1.00  0.00     0.164 HD
ATOM     21  C   UNL d   1       3.079   3.690   0.452  0.00  0.00     0.019 A 
ATOM     22  C   UNL d   1       1.994   2.817   0.527  0.00  0.00     0.033 A 
ENDBRANCH   2  16
TORSDOF 4
