REMARK  4 active torsions:
REMARK  status: ('A' for Active; 'I' for Inactive)
REMARK    1  A    between atoms: C_3  and  C_1 
REMARK    2  A    between atoms: N_4  and  C_2 
REMARK    3  A    between atoms: C_14  and  N_5 
REMARK    4  A    between atoms: C_9  and  C_14 
ROOT
ATOM      1  N   UNL d   1      -1.288   2.409   0.438  0.00  0.00    -0.265 NA
ATOM      2  N   UNL d   1      -2.818   4.916   0.714  0.00  0.00     0.096 N 
ATOM      3  C   UNL d   1      -1.312   3.364  -0.684  0.00  0.00     0.127 C 
ATOM      4  C   UNL d   1      -2.576   2.392   1.153  0.00  0.00     0.127 C 
ATOM      5  C   UNL d   1      -2.847   3.815   1.714  0.00  0.00     0.287 C 
ATOM      6  C   UNL d   1      -1.589   4.778  -0.117  0.00  0.00     0.287 C 
ENDROOT
BRANCH   1   7
ATOM      7  C   UNL d   1      -0.719   1.173   0.164  0.00  0.00     0.097 A 
ATOM      8  C   UNL d   1      -0.105   0.415   1.165  0.00  0.00     0.086 A 
ATOM      9  C   UNL d   1       0.500  -0.806   0.808  0.00  0.00     0.021 A 
ATOM     10  C   UNL d   1       0.511  -1.225  -0.513  0.00  0.00     0.018 A 
ATOM     11  C   UNL d   1      -0.099  -0.410  -1.440  0.00  0.00     0.089 A 
ATOM     12  N   UNL d   1      -0.706   0.757  -1.126  0.00  0.00    -0.356 N 
ATOM     13  HN  UNL d   1      -1.148   1.320  -1.853  1.00  0.00     0.166 HD
BRANCH   8  14
ATOM     14  C   UNL d   1      -0.023   0.836   2.603  0.00  0.00     0.420 C 
ATOM     15  F   UNL d   1      -0.330   2.128   2.897  0.00  0.00    -0.166 F 
ATOM     16  F   UNL d   1      -0.847   0.082   3.393  0.00  0.00    -0.166 F 
ATOM     17  F   UNL d   1       1.229   0.647   3.122  0.00  0.00    -0.166 F 
ENDBRANCH   8  14
ENDBRANCH   1   7
BRANCH   2  18
ATOM     18  C   UNL d   1      -4.045   4.913  -0.091  0.00  0.00     0.329 C 
BRANCH  18  19
ATOM     19  C   UNL d   1      -4.118   6.110  -0.983  0.00  0.00     0.037 A 
ATOM     20  N   UNL d   1      -3.936   7.384  -0.498  0.00  0.00    -0.368 N 
ATOM     21  C   UNL d   1      -4.030   8.284  -1.527  0.00  0.00     0.088 A 
ATOM     22  H   UNL d   1      -3.717   7.601   0.466  0.00  0.00     0.165 HD
ATOM     23  C   UNL d   1      -4.277   7.582  -2.685  0.00  0.00     0.019 A 
ATOM     24  C   UNL d   1      -4.336   6.211  -2.341  0.00  0.00     0.028 A 
ENDBRANCH  18  19
ENDBRANCH   2  18
TORSDOF 4
