REMARK  4 active torsions:
REMARK  status: ('A' for Active; 'I' for Inactive)
REMARK    1  A    between atoms: N_8  and  C_1 
REMARK    2  A    between atoms: O_18  and  C_3 
REMARK    3  A    between atoms: N_7  and  C_14 
REMARK    4  A    between atoms: C_21  and  N_11 
ROOT
ATOM      1  C   UNL d   1      -0.747   1.220  -0.033  0.00  0.00     0.106 A 
ATOM      2  C   UNL d   1       1.413   0.045  -0.010  0.00  0.00     0.120 A 
ATOM      3  C   UNL d   1      -1.386   0.028  -0.006  0.00  0.00     0.172 A 
ATOM      4  C   UNL d   1       0.732   1.218  -0.015  0.00  0.00    -0.003 A 
ATOM      5  N   UNL d   1      -0.702  -1.146   0.006  0.00  0.00    -0.301 N 
ATOM      6  C   UNL d   1       0.662  -1.247  -0.006  0.00  0.00     0.268 A 
ATOM      7  C   UNL d   1       2.836  -0.036  -0.004  0.00  0.00     0.105 C 
ATOM      8  N   UNL d   1       3.996  -0.040   0.001  0.00  0.00    -0.191 NA
ATOM      9  O   UNL d   1       1.223  -2.337  -0.007  0.00  0.00    -0.266 OA
ATOM     10  C   UNL d   1       1.418   2.565  -0.004  0.00  0.00     0.052 C 
ATOM     11  H   UNL d   1      -1.232  -2.009   0.013  0.00  0.00     0.171 HD
ENDROOT
BRANCH   1  12
ATOM     12  N   UNL d   1      -1.359   2.460  -0.047  0.00  0.00    -0.296 N 
ATOM     13  N   UNL d   1      -2.505   2.519  -0.545  0.00  0.00    -0.300 N 
ATOM     14  HN  UNL d   1      -2.999   1.703  -0.906  1.00  0.00     0.187 HD
ATOM     15  HN  UNL d   1      -0.899   3.288   0.331  1.00  0.00     0.187 HD
BRANCH  13  16
ATOM     16  C   UNL d   1      -3.051   3.821  -0.561  0.00  0.00     0.048 A 
ATOM     17  C   UNL d   1      -3.937   4.144  -1.601  0.00  0.00     0.033 A 
ATOM     18  C   UNL d   1      -4.546   5.404  -1.676  0.00  0.00     0.038 A 
ATOM     19  C   UNL d   1      -4.273   6.359  -0.691  0.00  0.00     0.103 A 
ATOM     20  C   UNL d   1      -3.408   6.053   0.367  0.00  0.00     0.038 A 
ATOM     21  C   UNL d   1      -2.808   4.787   0.429  0.00  0.00     0.033 A 
BRANCH  19  22
ATOM     22  N   UNL d   1      -4.897   7.687  -0.769  0.00  0.00    -0.116 N 
ATOM     23  O   UNL d   1      -5.651   7.915  -1.726  0.00  0.00    -0.532 OA
ATOM     24  O   UNL d   1      -4.631   8.501   0.127  0.00  0.00    -0.532 OA
ENDBRANCH  19  22
ENDBRANCH  13  16
ENDBRANCH   1  12
BRANCH   3  25
ATOM     25  O   UNL d   1      -2.744  -0.140   0.011  0.00  0.00    -0.344 OA
ATOM     26  H   UNL d   1      -3.131   0.756  -0.032  0.00  0.00     0.219 HD
ENDBRANCH   3  25
TORSDOF 4
