REMARK  3 active torsions:
REMARK  status: ('A' for Active; 'I' for Inactive)
REMARK    1  A    between atoms: C_4  and  N_1 
REMARK    2  A    between atoms: C_2  and  C_3 
REMARK    3  A    between atoms: C_8  and  C_5 
ROOT
ATOM      1  C   UNL d   1      -1.071   3.660  -5.108  0.00  0.00     0.049 A 
ATOM      2  C   UNL d   1      -0.845   3.008  -2.774  0.00  0.00     0.045 A 
ATOM      3  C   UNL d   1      -1.484   3.753  -3.771  0.00  0.00     0.040 A 
ATOM      4  C   UNL d   1       0.221   2.154  -3.098  0.00  0.00    -0.013 A 
ATOM      5  C   UNL d   1      -0.006   2.806  -5.429  0.00  0.00     0.017 A 
ATOM      6  C   UNL d   1       0.633   2.060  -4.434  0.00  0.00     0.014 A 
ATOM      7 CL   UNL d   1      -1.406   3.179  -1.149  0.00  0.00    -0.083 Cl
ENDROOT
BRANCH   4   8
ATOM      8  C   UNL d   1       0.939   1.353  -2.100  0.00  0.00     0.036 C 
ATOM      9  C   UNL d   1       2.030   1.837  -1.495  0.00  0.00     0.168 C 
BRANCH   9  10
ATOM     10  N   UNL d   1       2.749   1.017  -0.549  0.00  0.00    -0.127 N 
ATOM     11  O   UNL d   1       3.732   1.547  -0.018  0.00  0.00    -0.532 OA
ATOM     12  O   UNL d   1       2.362  -0.141  -0.344  0.00  0.00    -0.532 OA
ENDBRANCH   9  10
ENDBRANCH   4   8
BRANCH   1  13
ATOM     13  C   UNL d   1      -1.747   4.461  -6.196  0.00  0.00     0.417 C 
ATOM     14  F   UNL d   1      -2.770   5.237  -5.744  0.00  0.00    -0.166 F 
ATOM     15  F   UNL d   1      -0.885   5.306  -6.825  0.00  0.00    -0.166 F 
ATOM     16  F   UNL d   1      -2.276   3.671  -7.169  0.00  0.00    -0.166 F 
ENDBRANCH   1  13
TORSDOF 3
