REMARK  2 active torsions:
REMARK  status: ('A' for Active; 'I' for Inactive)
REMARK    1  A    between atoms: C_2  and  C_1 
REMARK    2  A    between atoms: C_13  and  N_3 
ROOT
ATOM      1  C   UNL d   1      -0.122  -1.303  -0.044  0.00  0.00     0.153 C 
ATOM      2  N   UNL d   1       1.107  -0.723   0.213  0.00  0.00    -0.224 N 
ATOM      3  N   UNL d   1       0.908   0.590   0.468  0.00  0.00     0.001 NA
ATOM      4  N   UNL d   1      -0.354   0.826   0.140  0.00  0.00    -0.007 NA
ATOM      5  N   UNL d   1      -0.999  -0.333  -0.205  0.00  0.00    -0.269 N 
ATOM      6  HN  UNL d   1      -1.964  -0.426  -0.522  1.00  0.00     0.185 HD
ENDROOT
BRANCH   1   7
ATOM      7  C   UNL d   1      -0.460  -2.746  -0.028  0.00  0.00     0.065 A 
ATOM      8  C   UNL d   1      -1.446  -3.389  -0.754  0.00  0.00     0.131 A 
ATOM      9  C   UNL d   1      -2.302  -2.914  -1.805  0.00  0.00     0.041 A 
ATOM     10  O   UNL d   1      -1.433  -4.712  -0.372  0.00  0.00    -0.236 OA
ATOM     11  S   UNL d   1      -3.845  -3.611  -2.070  0.00  0.00    -0.099 SA
ATOM     12  C   UNL d   1      -2.030  -1.936  -2.745  0.00  0.00     0.022 A 
ATOM     13  C   UNL d   1      -4.151  -2.591  -3.408  0.00  0.00     0.050 A 
ATOM     14  C   UNL d   1      -3.097  -1.746  -3.667  0.00  0.00     0.008 A 
ATOM     15  N   UNL d   1      -0.430  -4.941   0.553  0.00  0.00    -0.271 N 
ATOM     16  C   UNL d   1       0.138  -3.755   0.754  0.00  0.00     0.132 A 
ATOM     17  HN  UNL d   1      -0.181  -5.829   0.989  1.00  0.00     0.194 HD
ENDBRANCH   1   7
BRANCH   2  18
ATOM     18  C   UNL d   1       2.408  -1.265   0.096  0.00  0.00     0.056 A 
ATOM     19  C   UNL d   1       2.650  -2.335  -0.783  0.00  0.00     0.033 A 
ATOM     20  C   UNL d   1       3.938  -2.862  -0.903  0.00  0.00     0.026 A 
ATOM     21  C   UNL d   1       4.979  -2.323  -0.148  0.00  0.00     0.034 A 
ATOM     22  C   UNL d   1       4.747  -1.245   0.705  0.00  0.00     0.026 A 
ATOM     23 CL   UNL d   1       6.559  -2.982  -0.290  0.00  0.00    -0.084 Cl
ATOM     24  C   UNL d   1       3.464  -0.701   0.817  0.00  0.00     0.033 A 
ENDBRANCH   2  18
TORSDOF 2
