REMARK  8 active torsions:
REMARK  status: ('A' for Active; 'I' for Inactive)
REMARK    1  A    between atoms: C_7  and  S_1 
REMARK    2  A    between atoms: N_12  and  S_1 
REMARK    3  A    between atoms: N_2  and  C_3 
REMARK    4  A    between atoms: C_4  and  C_6 
REMARK    5  A    between atoms: C_8  and  N_21 
REMARK    6  A    between atoms: C_22  and  N_12 
REMARK    7  A    between atoms: N_21  and  C_26 
REMARK    8  A    between atoms: C_26  and  C_22 
ROOT
ATOM      1  N   UNL d   1       5.002  -1.628   0.704  0.00  0.00    -0.387 N 
ATOM      2  H   UNL d   1       5.934  -1.688   0.282  0.00  0.00     0.159 HD
ENDROOT
BRANCH   1   3
ATOM      3  C   UNL d   1       4.611  -2.833   1.295  0.00  0.00     0.061 A 
ATOM      4  C   UNL d   1       4.361  -3.987   0.528  0.00  0.00     0.130 A 
ATOM      5  C   UNL d   1       3.856  -5.177   1.077  0.00  0.00     0.054 A 
ATOM      6  C   UNL d   1       3.624  -5.255   2.454  0.00  0.00     0.050 A 
ATOM      7  C   UNL d   1       3.944  -4.146   3.248  0.00  0.00     0.018 A 
ATOM      8  C   UNL d   1       4.431  -2.964   2.678  0.00  0.00     0.032 A 
BRANCH   4   9
ATOM      9  N   UNL d   1       4.573  -3.958  -0.905  0.00  0.00    -0.113 N 
ATOM     10  O   UNL d   1       3.568  -4.041  -1.624  0.00  0.00    -0.532 OA
ATOM     11  O   UNL d   1       5.746  -3.892  -1.298  0.00  0.00    -0.532 OA
ENDBRANCH   4   9
BRANCH   6  12
ATOM     12  C   UNL d   1       3.032  -6.486   3.095  0.00  0.00     0.417 C 
ATOM     13  F   UNL d   1       2.744  -7.474   2.206  0.00  0.00    -0.166 F 
ATOM     14  F   UNL d   1       3.864  -7.036   4.019  0.00  0.00    -0.166 F 
ATOM     15  F   UNL d   1       1.869  -6.213   3.748  0.00  0.00    -0.166 F 
ENDBRANCH   6  12
ENDBRANCH   1   3
BRANCH   1  16
ATOM     16  C   UNL d   1       4.760  -0.347   1.387  0.00  0.00     0.135 C 
BRANCH  16  17
ATOM     17  C   UNL d   1       3.260  -0.003   1.382  0.00  0.00     0.124 C 
BRANCH  17  18
ATOM     18  N   UNL d   1       2.668  -0.036   0.017  0.00  0.00    -0.214 NA
ATOM     19  H   UNL d   1       2.795  -0.959  -0.404  0.00  0.00     0.140 HD
BRANCH  18  20
ATOM     20  S   UNL d   1       3.120   1.192  -1.059  0.00  0.00     0.241 S 
ATOM     21  O   UNL d   1       2.075   1.304  -2.054  0.00  0.00    -0.206 OA
ATOM     22  O   UNL d   1       3.560   2.326  -0.276  0.00  0.00    -0.206 OA
BRANCH  20  23
ATOM     23  C   UNL d   1       4.534   0.506  -1.890  0.00  0.00     0.074 A 
ATOM     24  C   UNL d   1       4.375  -0.643  -2.667  0.00  0.00     0.025 A 
ATOM     25  C   UNL d   1       5.482  -1.190  -3.316  0.00  0.00     0.008 A 
ATOM     26  C   UNL d   1       6.743  -0.588  -3.205  0.00  0.00    -0.062 A 
ATOM     27  C   UNL d   1       6.887   0.570  -2.430  0.00  0.00     0.008 A 
ATOM     28  C   UNL d   1       7.916  -1.185  -3.928  0.00  0.00     0.048 C 
ATOM     29  C   UNL d   1       5.784   1.123  -1.778  0.00  0.00     0.025 A 
ENDBRANCH  20  23
ENDBRANCH  18  20
ENDBRANCH  17  18
ENDBRANCH  16  17
ENDBRANCH   1  16
TORSDOF 8
