REMARK  6 active torsions:
REMARK  status: ('A' for Active; 'I' for Inactive)
REMARK    1  A    between atoms: C_14  and  N_2 
REMARK    2  A    between atoms: N_13  and  C_4 
REMARK    3  A    between atoms: S_15  and  C_11 
REMARK    4  A    between atoms: C_16  and  N_13 
REMARK    5  A    between atoms: C_17  and  S_15 
REMARK    6  A    between atoms: C_19  and  C_17 
ROOT
ATOM      1  C   UNL d   1      -0.165  -0.721  -0.025  0.00  0.00     0.144 A 
ATOM      2  N   UNL d   1      -1.491  -1.143  -0.073  0.00  0.00    -0.239 N 
ATOM      3  C   UNL d   1      -0.179   0.662  -0.041  0.00  0.00     0.071 A 
ATOM      4  C   UNL d   1       1.051   1.327   0.047  0.00  0.00     0.123 A 
ATOM      5  N   UNL d   1       0.943  -1.481   0.025  0.00  0.00    -0.321 N 
ATOM      6  HN  UNL d   1       0.919  -2.500   0.025  1.00  0.00     0.169 HD
ATOM      7  N   UNL d   1      -2.340  -0.070  -0.158  0.00  0.00    -0.302 N 
ATOM      8  HN  UNL d   1      -3.357  -0.084  -0.230  1.00  0.00     0.186 HD
ATOM      9  N   UNL d   1       2.174   0.562   0.112  0.00  0.00    -0.322 N 
ATOM     10  HN  UNL d   1       3.090   1.006   0.189  1.00  0.00     0.169 HD
ATOM     11  C   UNL d   1       2.077  -0.777   0.076  0.00  0.00     0.147 A 
ATOM     12  C   UNL d   1      -1.539   0.995  -0.126  0.00  0.00     0.127 A 
ENDROOT
BRANCH  11  13
ATOM     13  S   UNL d   1       3.554  -1.755  -0.001  0.00  0.00    -0.089 SA
BRANCH  13  14
ATOM     14  C   UNL d   1       4.757  -0.617   0.744  0.00  0.00     0.121 C 
BRANCH  14  15
ATOM     15  C   UNL d   1       6.111  -1.287   0.834  0.00  0.00    -0.048 A 
ATOM     16  C   UNL d   1       7.025  -1.189  -0.227  0.00  0.00     0.009 A 
ATOM     17  C   UNL d   1       8.251  -1.856  -0.173  0.00  0.00     0.024 A 
ATOM     18  C   UNL d   1       8.570  -2.629   0.941  0.00  0.00     0.034 A 
ATOM     19  C   UNL d   1       7.674  -2.741   2.001  0.00  0.00     0.024 A 
ATOM     20 CL   UNL d   1      10.076  -3.461   1.002  0.00  0.00    -0.084 Cl
ATOM     21  C   UNL d   1       6.447  -2.073   1.948  0.00  0.00     0.009 A 
ENDBRANCH  14  15
ENDBRANCH  13  14
ENDBRANCH  11  13
BRANCH   4  22
ATOM     22  N   UNL d   1       1.146   2.724   0.023  0.00  0.00    -0.342 N 
ATOM     23  H   UNL d   1       0.316   3.216  -0.276  0.00  0.00     0.167 HD
BRANCH  22  24
ATOM     24  C   UNL d   1       2.143   3.553   0.566  0.00  0.00     0.033 A 
ATOM     25  C   UNL d   1       2.348   4.828   0.019  0.00  0.00     0.029 A 
ATOM     26  C   UNL d   1       3.360   5.661   0.505  0.00  0.00     0.002 A 
ATOM     27  C   UNL d   1       4.179   5.232   1.546  0.00  0.00     0.000 A 
ATOM     28  C   UNL d   1       3.993   3.967   2.095  0.00  0.00     0.002 A 
ATOM     29  C   UNL d   1       2.992   3.131   1.597  0.00  0.00     0.029 A 
ENDBRANCH  22  24
ENDBRANCH   4  22
BRANCH   2  30
ATOM     30  C   UNL d   1      -2.016  -2.471  -0.036  0.00  0.00     0.058 A 
ATOM     31  C   UNL d   1      -1.185  -3.593   0.096  0.00  0.00     0.031 A 
ATOM     32  C   UNL d   1      -1.732  -4.879   0.131  0.00  0.00     0.002 A 
ATOM     33  C   UNL d   1      -3.109  -5.059   0.036  0.00  0.00     0.000 A 
ATOM     34  C   UNL d   1      -3.945  -3.953  -0.092  0.00  0.00     0.002 A 
ATOM     35  C   UNL d   1      -3.405  -2.664  -0.127  0.00  0.00     0.031 A 
ENDBRANCH   2  30
TORSDOF 6
