REMARK  4 active torsions:
REMARK  status: ('A' for Active; 'I' for Inactive)
REMARK    1  A    between atoms: C_7  and  C_2 
REMARK    2  A    between atoms: C_8  and  N_3 
REMARK    3  A    between atoms: O_13  and  C_7 
REMARK    4  A    between atoms: C_18  and  O_13 
ROOT
ATOM      1  C   UNL d   1       1.024  -0.820  -0.056  0.00  0.00     0.139 A 
ATOM      2  C   UNL d   1      -0.289  -1.247   0.015  0.00  0.00     0.101 A 
ATOM      3  N   UNL d   1       0.996   0.572   0.078  0.00  0.00    -0.240 N 
ATOM      4  N   UNL d   1      -0.261   1.012   0.367  0.00  0.00    -0.302 N 
ATOM      5  HN  UNL d   1      -0.550   1.958   0.618  1.00  0.00     0.186 HD
ATOM      6  C   UNL d   1      -1.028  -0.072   0.249  0.00  0.00     0.129 A 
ATOM      7  N   UNL d   1       2.154  -1.571  -0.185  0.00  0.00    -0.383 N 
ATOM      8  H   UNL d   1       2.054  -2.589  -0.123  0.00  0.00     0.157 HD
ATOM      9  H   UNL d   1       3.026  -1.254   0.236  0.00  0.00     0.157 HD
ENDROOT
BRANCH   3  10
ATOM     10  C   UNL d   1       2.066   1.502  -0.043  0.00  0.00     0.058 A 
ATOM     11  C   UNL d   1       3.197   1.208  -0.820  0.00  0.00     0.034 A 
ATOM     12  C   UNL d   1       4.248   2.125  -0.897  0.00  0.00     0.044 A 
ATOM     13  C   UNL d   1       4.165   3.325  -0.203  0.00  0.00     0.116 A 
ATOM     14  C   UNL d   1       3.039   3.642   0.549  0.00  0.00     0.044 A 
ATOM     15  F   UNL d   1       5.182   4.194  -0.267  0.00  0.00    -0.206 F 
ATOM     16  C   UNL d   1       1.977   2.739   0.617  0.00  0.00     0.034 A 
ENDBRANCH   3  10
BRANCH   2  17
ATOM     17  C   UNL d   1      -0.753  -2.607  -0.121  0.00  0.00     0.298 C 
ATOM     18  O   UNL d   1       0.001  -3.562  -0.288  0.00  0.00    -0.259 OA
BRANCH  17  19
ATOM     19  O   UNL d   1      -2.113  -2.695  -0.106  0.00  0.00    -0.318 OA
BRANCH  19  20
ATOM     20  C   UNL d   1      -2.641  -3.925  -0.620  0.00  0.00     0.174 C 
ATOM     21  C   UNL d   1      -2.803  -3.770  -2.121  0.00  0.00     0.034 C 
ENDBRANCH  19  20
ENDBRANCH  17  19
ENDBRANCH   2  17
TORSDOF 4
