REMARK  3 active torsions:
REMARK  status: ('A' for Active; 'I' for Inactive)
REMARK    1  A    between atoms: C_3  and  C_1 
REMARK    2  A    between atoms: C_14  and  N_2 
REMARK    3  A    between atoms: C_15  and  C_10 
ROOT
ATOM      1  C   UNL d   1      -0.111  -1.418   0.093  0.00  0.00     0.065 C 
ATOM      2  N   UNL d   1       1.022   0.480   0.040  0.00  0.00    -0.260 N 
ATOM      3  N   UNL d   1      -0.284   0.841   0.154  0.00  0.00    -0.297 N 
ATOM      4  HN  UNL d   1      -0.658   1.784   0.263  1.00  0.00     0.187 HD
ATOM      5  C   UNL d   1       1.173  -0.901   0.098  0.00  0.00     0.047 C 
ATOM      6  C   UNL d   1      -0.974  -0.304   0.091  0.00  0.00     0.039 C 
ATOM      7  C   UNL d   1       2.475  -1.613   0.221  0.00  0.00     0.071 C 
ATOM      8  C   UNL d   1      -2.458  -0.279   0.077  0.00  0.00     0.071 C 
ENDROOT
BRANCH   1   9
ATOM      9  C   UNL d   1      -0.463  -2.863   0.119  0.00  0.00     0.186 A 
ATOM     10  N   UNL d   1      -1.685  -3.344   0.041  0.00  0.00    -0.318 N 
ATOM     11  C   UNL d   1      -1.485  -4.710   0.080  0.00  0.00     0.138 A 
ATOM     12  HN  UNL d   1      -2.565  -2.833  -0.031  1.00  0.00     0.169 HD
ATOM     13  N   UNL d   1      -0.200  -5.065   0.212  0.00  0.00    -0.242 N 
ATOM     14  O   UNL d   1       0.475  -3.856   0.222  0.00  0.00    -0.217 OA
ATOM     15  HN  UNL d   1       0.189  -6.005   0.287  1.00  0.00     0.196 HD
BRANCH  11  16
ATOM     16  C   UNL d   1      -2.570  -5.672  -0.067  0.00  0.00     0.010 A 
ATOM     17  C   UNL d   1      -3.872  -5.237  -0.349  0.00  0.00     0.015 A 
ATOM     18  C   UNL d   1      -4.901  -6.160  -0.545  0.00  0.00     0.001 A 
ATOM     19  C   UNL d   1      -4.641  -7.527  -0.457  0.00  0.00     0.000 A 
ATOM     20  C   UNL d   1      -3.355  -7.974  -0.165  0.00  0.00     0.001 A 
ATOM     21  C   UNL d   1      -2.325  -7.052   0.031  0.00  0.00     0.015 A 
ENDBRANCH  11  16
ENDBRANCH   1   9
BRANCH   2  22
ATOM     22  C   UNL d   1       2.022   1.484  -0.080  0.00  0.00     0.056 A 
ATOM     23  C   UNL d   1       3.204   1.250  -0.795  0.00  0.00     0.031 A 
ATOM     24  C   UNL d   1       4.204   2.223  -0.833  0.00  0.00     0.002 A 
ATOM     25  C   UNL d   1       4.027   3.432  -0.163  0.00  0.00     0.000 A 
ATOM     26  C   UNL d   1       2.834   3.688   0.512  0.00  0.00     0.002 A 
ATOM     27  C   UNL d   1       1.822   2.726   0.538  0.00  0.00     0.031 A 
ENDBRANCH   2  22
TORSDOF 3
