REMARK  4 active torsions:
REMARK  status: ('A' for Active; 'I' for Inactive)
REMARK    1  A    between atoms: C_7  and  N_1 
REMARK    2  A    between atoms: C_8  and  C_4 
REMARK    3  A    between atoms: C_9  and  C_11 
REMARK    4  A    between atoms: O_21  and  C_15 
ROOT
ATOM      1  N   UNL d   1      -0.234  -1.189   0.242  0.00  0.00    -0.180 N 
ATOM      2  N   UNL d   1       1.035  -0.740   0.505  0.00  0.00    -0.266 N 
ATOM      3  HN  UNL d   1       1.824  -1.251   0.901  1.00  0.00     0.190 HD
ATOM      4  C   UNL d   1       0.979   0.494   0.124  0.00  0.00     0.181 A 
ATOM      5  C   UNL d   1      -1.025  -0.187  -0.275  0.00  0.00     0.394 A 
ATOM      6  O   UNL d   1      -0.226   0.926  -0.321  0.00  0.00    -0.240 OA
ATOM      7  O   UNL d   1      -2.189  -0.176  -0.632  0.00  0.00    -0.236 OA
ENDROOT
BRANCH   1   8
ATOM      8  C   UNL d   1      -0.493  -2.570   0.230  0.00  0.00     0.133 A 
ATOM      9  C   UNL d   1       0.394  -3.426   0.881  0.00  0.00     0.066 A 
ATOM     10  C   UNL d   1       0.226  -4.811   0.783  0.00  0.00     0.052 A 
ATOM     11  C   UNL d   1      -0.824  -5.297   0.004  0.00  0.00     0.033 A 
ATOM     12  C   UNL d   1      -1.675  -4.385  -0.593  0.00  0.00     0.090 A 
ATOM     13  N   UNL d   1      -1.540  -3.047  -0.477  0.00  0.00    -0.351 N 
ATOM     14  HN  UNL d   1      -2.211  -2.414  -0.911  1.00  0.00     0.166 HD
BRANCH  10  15
ATOM     15  C   UNL d   1       1.159  -5.754   1.490  0.00  0.00     0.417 C 
ATOM     16  F   UNL d   1       2.109  -5.127   2.237  0.00  0.00    -0.166 F 
ATOM     17  F   UNL d   1       0.502  -6.585   2.345  0.00  0.00    -0.166 F 
ATOM     18  F   UNL d   1       1.835  -6.563   0.628  0.00  0.00    -0.166 F 
ENDBRANCH  10  15
ENDBRANCH   1   8
BRANCH   4  19
ATOM     19  C   UNL d   1       2.061   1.484   0.050  0.00  0.00     0.050 A 
ATOM     20  C   UNL d   1       3.386   1.099  -0.232  0.00  0.00     0.082 A 
ATOM     21  C   UNL d   1       4.364   2.095  -0.354  0.00  0.00     0.038 A 
ATOM     22  C   UNL d   1       4.038   3.442  -0.176  0.00  0.00     0.003 A 
ATOM     23  C   UNL d   1       2.731   3.813   0.125  0.00  0.00     0.001 A 
ATOM     24  C   UNL d   1       1.742   2.837   0.235  0.00  0.00     0.018 A 
BRANCH  20  25
ATOM     25  O   UNL d   1       3.642  -0.227  -0.461  0.00  0.00    -0.355 OA
ATOM     26  C   UNL d   1       4.981  -0.668  -0.248  0.00  0.00     0.210 C 
ENDBRANCH  20  25
ENDBRANCH   4  19
TORSDOF 4
