REMARK  2 active torsions:
REMARK  status: ('A' for Active; 'I' for Inactive)
REMARK    1  A    between atoms: C_12  and  N_2 
REMARK    2  A    between atoms: O_19  and  C_16 
ROOT
ATOM      1  C   UNL d   1       2.084   0.036   0.541  0.00  0.00     0.153 A 
ATOM      2  N   UNL d   1       1.567  -1.114  -0.016  0.00  0.00    -0.300 N 
ATOM      3  C   UNL d   1       1.151   1.014   0.290  0.00  0.00     0.140 A 
ATOM      4  N   UNL d   1       0.097   0.538  -0.419  0.00  0.00    -0.336 N 
ATOM      5  HN  UNL d   1      -0.726   1.051  -0.734  1.00  0.00     0.168 HD
ATOM      6  C   UNL d   1       0.377  -0.732  -0.607  0.00  0.00     0.191 A 
ATOM      7  C   UNL d   1       3.338   0.344   1.158  0.00  0.00     0.277 A 
ATOM      8  N   UNL d   1       1.323   2.349   0.665  0.00  0.00    -0.336 N 
ATOM      9  HN  UNL d   1       0.623   3.071   0.493  1.00  0.00     0.168 HD
ATOM     10  N   UNL d   1       3.429   1.662   1.525  0.00  0.00    -0.318 N 
ATOM     11  C   UNL d   1       2.450   2.586   1.250  0.00  0.00     0.185 A 
ATOM     12  O   UNL d   1       4.285  -0.414   1.345  0.00  0.00    -0.266 OA
ATOM     13  H   UNL d   1       4.298   1.942   1.954  0.00  0.00     0.169 HD
ENDROOT
BRANCH   2  14
ATOM     14  C   UNL d   1       2.101  -2.429  -0.031  0.00  0.00     0.041 A 
ATOM     15  C   UNL d   1       2.866  -2.898   1.040  0.00  0.00     0.033 A 
ATOM     16  C   UNL d   1       3.438  -4.173   0.999  0.00  0.00     0.039 A 
ATOM     17  C   UNL d   1       3.242  -4.995  -0.108  0.00  0.00     0.068 A 
ATOM     18  C   UNL d   1       2.433  -4.549  -1.155  0.00  0.00     0.039 A 
ATOM     19  C   UNL d   1       1.857  -3.274  -1.121  0.00  0.00     0.033 A 
BRANCH  17  20
ATOM     20  O   UNL d   1       3.739  -6.261  -0.246  0.00  0.00    -0.356 OA
ATOM     21  C   UNL d   1       4.971  -6.517   0.421  0.00  0.00     0.210 C 
ENDBRANCH  17  20
ENDBRANCH   2  14
TORSDOF 2
