REMARK  1 active torsions:
REMARK  status: ('A' for Active; 'I' for Inactive)
REMARK    1  A    between atoms: C_6  and  N_1 
ROOT
ATOM      1  N   UNL d   1      -2.371  -0.782   0.003  0.00  0.00    -0.241 N 
ATOM      2  C   UNL d   1      -1.287  -1.619   0.200  0.00  0.00     0.284 A 
ATOM      3  C   UNL d   1      -1.947   0.524  -0.181  0.00  0.00     0.284 A 
ATOM      4  C   UNL d   1      -0.094  -0.782   0.139  0.00  0.00     0.134 A 
ATOM      5  C   UNL d   1      -0.488   0.505  -0.088  0.00  0.00     0.134 A 
ATOM      6  N   UNL d   1       1.190  -1.178   0.242  0.00  0.00    -0.358 N 
ATOM      7  HN  UNL d   1       1.471  -2.145   0.405  1.00  0.00     0.165 HD
ATOM      8  N   UNL d   1       0.364   1.541  -0.219  0.00  0.00    -0.358 N 
ATOM      9  HN  UNL d   1       0.062   2.502  -0.383  1.00  0.00     0.165 HD
ATOM     10  O   UNL d   1      -1.232  -2.827   0.349  0.00  0.00    -0.265 OA
ATOM     11  O   UNL d   1      -2.584   1.546  -0.362  0.00  0.00    -0.265 OA
ATOM     12  C   UNL d   1       1.669   1.171  -0.111  0.00  0.00     0.105 A 
ATOM     13  C   UNL d   1       2.071  -0.152   0.108  0.00  0.00     0.105 A 
ENDROOT
BRANCH   1  14
ATOM     14  C   UNL d   1      -3.727  -1.222  -0.057  0.00  0.00     0.046 A 
ATOM     15  C   UNL d   1      -4.109  -2.470   0.469  0.00  0.00     0.033 A 
ATOM     16  C   UNL d   1      -5.424  -2.936   0.363  0.00  0.00     0.044 A 
ATOM     17  C   UNL d   1      -6.376  -2.158  -0.275  0.00  0.00     0.116 A 
ATOM     18  C   UNL d   1      -6.040  -0.914  -0.786  0.00  0.00     0.044 A 
ATOM     19  F   UNL d   1      -7.629  -2.613  -0.400  0.00  0.00    -0.206 F 
ATOM     20  C   UNL d   1      -4.726  -0.444  -0.668  0.00  0.00     0.033 A 
ENDBRANCH   1  14
TORSDOF 1
