REMARK  1 active torsions:
REMARK  status: ('A' for Active; 'I' for Inactive)
REMARK    1  A    between atoms: C_6  and  N_1 
ROOT
ATOM      1  N   UNL d   1      -2.342   0.026  -0.301  0.00  0.00    -0.236 N 
ATOM      2  C   UNL d   1      -1.562  -1.067  -0.725  0.00  0.00     0.238 C 
ATOM      3  C   UNL d   1      -1.584   0.921   0.481  0.00  0.00     0.238 C 
ATOM      4  C   UNL d   1      -0.392  -0.992   0.199  0.00  0.00     0.100 C 
ATOM      5  C   UNL d   1      -0.182   0.522   0.164  0.00  0.00     0.100 C 
ATOM      6  C   UNL d   1       1.028  -1.518   0.318  0.00  0.00     0.022 C 
ATOM      7  C   UNL d   1       1.156   0.677   0.887  0.00  0.00     0.022 C 
ATOM      8  C   UNL d   1       2.162   0.425  -0.231  0.00  0.00    -0.025 C 
ATOM      9  C   UNL d   1       2.027  -0.860  -0.610  0.00  0.00    -0.025 C 
ATOM     10  C   UNL d   1       1.381  -0.677   1.586  0.00  0.00     0.018 C 
ATOM     11  O   UNL d   1      -1.881   1.875   1.176  0.00  0.00    -0.272 OA
ATOM     12  O   UNL d   1      -1.794  -1.972  -1.504  0.00  0.00    -0.272 OA
ENDROOT
BRANCH   1  13
ATOM     13  C   UNL d   1      -3.730   0.169  -0.510  0.00  0.00     0.117 A 
ATOM     14  N   UNL d   1      -4.396   1.036   0.288  0.00  0.00    -0.346 N 
ATOM     15  C   UNL d   1      -5.734   1.167   0.171  0.00  0.00     0.007 A 
ATOM     16  HN  UNL d   1      -3.887   1.589   0.977  1.00  0.00     0.167 HD
ATOM     17  C   UNL d   1      -6.413   2.091   1.137  0.00  0.00     0.068 C 
ATOM     18  C   UNL d   1      -6.466   0.475  -0.780  0.00  0.00     0.025 A 
ATOM     19  C   UNL d   1      -5.791  -0.399  -1.619  0.00  0.00     0.006 A 
ATOM     20  C   UNL d   1      -4.412  -0.565  -1.476  0.00  0.00     0.049 A 
ENDBRANCH   1  13
TORSDOF 1
