REMARK  5 active torsions:
REMARK  status: ('A' for Active; 'I' for Inactive)
REMARK    1  A    between atoms: C_4  and  C_1 
REMARK    2  A    between atoms: C_10  and  C_5 
REMARK    3  A    between atoms: C_13  and  C_7 
REMARK    4  A    between atoms: S_14  and  C_13 
REMARK    5  A    between atoms: C_15  and  S_14 
ROOT
ATOM      1  C   UNL d   1       0.040  -2.627  -0.112  0.00  0.00     0.045 A 
ATOM      2  C   UNL d   1       0.467  -3.422   0.955  0.00  0.00    -0.028 A 
ATOM      3  S   UNL d   1      -0.752  -3.568  -1.324  0.00  0.00    -0.099 SA
ATOM      4  C   UNL d   1      -0.590  -5.005  -0.438  0.00  0.00     0.051 A 
ATOM      5  C   UNL d   1       0.043  -4.792   0.760  0.00  0.00     0.016 A 
ENDROOT
BRANCH   1   6
ATOM      6  C   UNL d   1       0.152  -1.188  -0.263  0.00  0.00     0.092 A 
ATOM      7  N   UNL d   1       0.192  -0.372   0.773  0.00  0.00    -0.352 N 
ATOM      8  C   UNL d   1       0.194   0.958   0.356  0.00  0.00     0.024 A 
ATOM      9  HN  UNL d   1       0.218  -0.673   1.748  1.00  0.00     0.166 HD
ATOM     10  C   UNL d   1       0.207   1.116  -1.019  0.00  0.00     0.077 A 
ATOM     11  S   UNL d   1       0.219  -0.402  -1.796  0.00  0.00    -0.081 SA
BRANCH   8  12
ATOM     12  C   UNL d   1       0.161   2.080   1.386  0.00  0.00    -0.008 C 
ATOM     13  C   UNL d   1       0.232   1.527   2.823  0.00  0.00     0.021 C 
ATOM     14  C   UNL d   1       1.357   3.030   1.177  0.00  0.00     0.021 C 
ATOM     15  C   UNL d   1      -1.147   2.885   1.244  0.00  0.00     0.021 C 
ENDBRANCH   8  12
ENDBRANCH   1   6
BRANCH   2  16
ATOM     16  C   UNL d   1       1.236  -2.926   2.170  0.00  0.00     0.119 C 
BRANCH  16  17
ATOM     17  S   UNL d   1       2.356  -4.233   2.828  0.00  0.00    -0.125 SA
BRANCH  17  18
ATOM     18  C   UNL d   1       3.066  -3.516   4.296  0.00  0.00     0.001 A 
ATOM     19  C   UNL d   1       3.373  -4.389   5.353  0.00  0.00     0.020 A 
ATOM     20  C   UNL d   1       4.048  -3.936   6.489  0.00  0.00     0.025 A 
ATOM     21  C   UNL d   1       4.425  -2.599   6.573  0.00  0.00     0.034 A 
ATOM     22  C   UNL d   1       4.117  -1.715   5.540  0.00  0.00     0.025 A 
ATOM     23 CL   UNL d   1       5.303  -2.045   7.945  0.00  0.00    -0.084 Cl
ATOM     24  C   UNL d   1       3.439  -2.174   4.404  0.00  0.00     0.020 A 
ENDBRANCH  17  18
ENDBRANCH  16  17
ENDBRANCH   2  16
TORSDOF 5
