REMARK  4 active torsions:
REMARK  status: ('A' for Active; 'I' for Inactive)
REMARK    1  A    between atoms: C_10  and  N_1 
REMARK    2  A    between atoms: C_11  and  N_2 
REMARK    3  A    between atoms: C_9  and  C_10 
REMARK    4  A    between atoms: C_18  and  C_11 
ROOT
ATOM      1  N   UNL d   1      -1.450   0.093   0.326  0.00  0.00     0.096 N 
ATOM      2  N   UNL d   1       1.509  -0.045  -0.337  0.00  0.00     0.096 N 
ATOM      3  C   UNL d   1       0.726  -1.190   0.173  0.00  0.00     0.303 C 
ATOM      4  C   UNL d   1      -0.773  -1.120  -0.185  0.00  0.00     0.303 C 
ATOM      5  C   UNL d   1      -0.683   1.280  -0.117  0.00  0.00     0.303 C 
ATOM      6  C   UNL d   1       0.854   1.208   0.111  0.00  0.00     0.303 C 
ENDROOT
BRANCH   1   7
ATOM      7  C   UNL d   1      -1.599   0.083   1.795  0.00  0.00     0.311 C 
BRANCH   7   8
ATOM      8  C   UNL d   1      -2.375  -1.116   2.314  0.00  0.00    -0.029 A 
ATOM      9  C   UNL d   1      -3.717  -1.302   1.926  0.00  0.00     0.023 A 
ATOM     10  C   UNL d   1      -4.405  -2.446   2.363  0.00  0.00     0.000 A 
ATOM     11  C   UNL d   1      -5.711  -2.975   2.186  0.00  0.00     0.039 A 
ATOM     12  C   UNL d   1      -3.732  -3.362   3.163  0.00  0.00     0.085 A 
ATOM     13  C   UNL d   1      -5.746  -4.167   2.876  0.00  0.00     0.143 A 
ATOM     14  O   UNL d   1      -4.549  -4.409   3.471  0.00  0.00    -0.322 OA
ATOM     15  C   UNL d   1      -2.413  -3.215   3.580  0.00  0.00     0.039 A 
ATOM     16  C   UNL d   1      -1.746  -2.064   3.142  0.00  0.00     0.012 A 
ENDBRANCH   7   8
ENDBRANCH   1   7
BRANCH   2  17
ATOM     17  C   UNL d   1       1.646  -0.064  -1.808  0.00  0.00     0.311 C 
BRANCH  17  18
ATOM     18  C   UNL d   1       2.320  -1.310  -2.350  0.00  0.00    -0.030 A 
ATOM     19  C   UNL d   1       1.620  -2.198  -3.185  0.00  0.00     0.009 A 
ATOM     20  C   UNL d   1       2.238  -3.355  -3.667  0.00  0.00     0.001 A 
ATOM     21  C   UNL d   1       3.560  -3.633  -3.327  0.00  0.00     0.000 A 
ATOM     22  C   UNL d   1       4.267  -2.759  -2.503  0.00  0.00     0.001 A 
ATOM     23  C   UNL d   1       3.649  -1.604  -2.015  0.00  0.00     0.009 A 
ENDBRANCH  17  18
ENDBRANCH   2  17
TORSDOF 4
