REMARK  2 active torsions:
REMARK  status: ('A' for Active; 'I' for Inactive)
REMARK    1  A    between atoms: C_2  and  C_1 
REMARK    2  A    between atoms: C_3  and  C_1 
ROOT
ATOM      1  C   UNL d   1       1.123  -1.393   0.005  0.00  0.00     0.112 A 
ATOM      2  C   UNL d   1       1.972  -0.090   0.025  0.00  0.00     0.238 A 
ATOM      3  N   UNL d   1       1.111   0.989  -0.059  0.00  0.00    -0.326 N 
ATOM      4  C   UNL d   1      -0.287  -0.805  -0.029  0.00  0.00    -0.011 A 
ATOM      5  C   UNL d   1      -0.212   0.588  -0.073  0.00  0.00     0.042 A 
ATOM      6  O   UNL d   1       3.184  -0.021   0.129  0.00  0.00    -0.272 OA
ATOM      7  C   UNL d   1      -1.523  -1.429   0.031  0.00  0.00     0.011 A 
ATOM      8  C   UNL d   1      -1.326   1.398  -0.087  0.00  0.00     0.030 A 
ATOM      9  C   UNL d   1      -2.669  -0.630   0.010  0.00  0.00     0.001 A 
ATOM     10  C   UNL d   1      -2.572   0.771  -0.050  0.00  0.00     0.002 A 
ATOM     11  H   UNL d   1       1.435   1.947  -0.061  0.00  0.00     0.169 HD
ENDROOT
BRANCH   1  12
ATOM     12  C   UNL d   1       1.446  -2.174  -1.310  0.00  0.00     0.194 C 
ATOM     13  C   UNL d   1       0.544  -3.375  -1.483  0.00  0.00     0.240 C 
ATOM     14  N   UNL d   1      -0.371  -3.334  -2.495  0.00  0.00    -0.278 N 
ATOM     15  O   UNL d   1       0.558  -4.335  -0.718  0.00  0.00    -0.272 OA
ATOM     16  C   UNL d   1      -0.538  -2.332  -3.398  0.00  0.00     0.329 C 
ATOM     17  H   UNL d   1      -0.975  -4.139  -2.598  0.00  0.00     0.173 HD
ATOM     18  N   UNL d   1       0.284  -1.260  -3.272  0.00  0.00    -0.278 N 
ATOM     19  O   UNL d   1      -1.349  -2.420  -4.313  0.00  0.00    -0.247 OA
ATOM     20  C   UNL d   1       1.432  -1.280  -2.538  0.00  0.00     0.240 C 
ATOM     21  H   UNL d   1       0.276  -0.631  -4.065  0.00  0.00     0.173 HD
ATOM     22  O   UNL d   1       2.386  -0.582  -2.866  0.00  0.00    -0.272 OA
ENDBRANCH   1  12
BRANCH   1  23
ATOM     23  C   UNL d   1       1.387  -2.183   1.326  0.00  0.00     0.194 C 
ATOM     24  C   UNL d   1       2.803  -2.713   1.406  0.00  0.00     0.240 C 
ATOM     25  N   UNL d   1       3.684  -2.025   2.187  0.00  0.00    -0.278 N 
ATOM     26  O   UNL d   1       3.169  -3.712   0.792  0.00  0.00    -0.272 OA
ATOM     27  C   UNL d   1       3.348  -1.153   3.172  0.00  0.00     0.329 C 
ATOM     28  H   UNL d   1       4.631  -2.378   2.216  0.00  0.00     0.173 HD
ATOM     29  N   UNL d   1       2.052  -0.746   3.210  0.00  0.00    -0.278 N 
ATOM     30  O   UNL d   1       4.145  -0.825   4.046  0.00  0.00    -0.247 OA
ATOM     31  C   UNL d   1       1.033  -1.385   2.568  0.00  0.00     0.240 C 
ATOM     32  H   UNL d   1       1.793  -0.235   4.043  0.00  0.00     0.173 HD
ATOM     33  O   UNL d   1      -0.116  -1.299   2.996  0.00  0.00    -0.272 OA
ENDBRANCH   1  23
TORSDOF 2
