REMARK  5 active torsions:
REMARK  status: ('A' for Active; 'I' for Inactive)
REMARK    1  A    between atoms: C_3  and  C_1 
REMARK    2  A    between atoms: C_11  and  C_2 
REMARK    3  A    between atoms: C_10  and  C_9 
REMARK    4  A    between atoms: O_18  and  C_15 
REMARK    5  A    between atoms: C_22  and  O_18 
ROOT
ATOM      1  C   UNL d   1      -0.828   2.355  -0.036  0.00  0.00     0.047 A 
ATOM      2  C   UNL d   1      -1.606   2.871   1.014  0.00  0.00     0.067 A 
ATOM      3  C   UNL d   1      -0.514   3.229  -1.079  0.00  0.00     0.106 A 
ATOM      4  N   UNL d   1      -0.887   4.526  -1.146  0.00  0.00    -0.346 N 
ATOM      5  HN  UNL d   1      -0.640   5.112  -1.942  1.00  0.00     0.167 HD
ATOM      6  C   UNL d   1      -1.601   5.006  -0.111  0.00  0.00     0.148 A 
ATOM      7  C   UNL d   1      -2.011   4.223   0.952  0.00  0.00     0.073 A 
ENDROOT
BRANCH   1   8
ATOM      8  C   UNL d   1      -0.333   0.995  -0.121  0.00  0.00     0.177 A 
ATOM      9  O   UNL d   1       0.922   0.846  -0.651  0.00  0.00    -0.272 OA
ATOM     10  C   UNL d   1       1.100  -0.510  -0.605  0.00  0.00     0.176 A 
ATOM     11  N   UNL d   1       0.037  -1.131  -0.132  0.00  0.00    -0.277 N 
ATOM     12  N   UNL d   1      -0.889  -0.156   0.184  0.00  0.00    -0.277 N 
ATOM     13  HN  UNL d   1      -0.079  -2.138  -0.020  1.00  0.00     0.189 HD
ATOM     14  HN  UNL d   1      -1.820  -0.300   0.575  1.00  0.00     0.189 HD
BRANCH  10  15
ATOM     15  C   UNL d   1       2.337  -1.070  -1.146  0.00  0.00     0.038 A 
ATOM     16  C   UNL d   1       3.553  -0.376  -1.280  0.00  0.00     0.048 A 
ATOM     17 CL   UNL d   1       3.782   1.267  -0.780  0.00  0.00    -0.083 Cl
ATOM     18  C   UNL d   1       4.683  -1.015  -1.816  0.00  0.00     0.025 A 
ATOM     19  C   UNL d   1       4.620  -2.347  -2.219  0.00  0.00     0.002 A 
ATOM     20  C   UNL d   1       3.430  -3.050  -2.087  0.00  0.00     0.001 A 
ATOM     21  C   UNL d   1       2.304  -2.419  -1.555  0.00  0.00     0.017 A 
ENDBRANCH  10  15
ENDBRANCH   1   8
BRANCH   2  22
ATOM     22  C   UNL d   1      -2.022   2.100   2.242  0.00  0.00     0.418 C 
ATOM     23  F   UNL d   1      -1.397   0.915   2.442  0.00  0.00    -0.166 F 
ATOM     24  F   UNL d   1      -1.780   2.818   3.379  0.00  0.00    -0.166 F 
ATOM     25  F   UNL d   1      -3.357   1.842   2.254  0.00  0.00    -0.166 F 
ENDBRANCH   2  22
BRANCH   6  26
ATOM     26  O   UNL d   1      -1.941   6.349  -0.085  0.00  0.00    -0.294 OA
BRANCH  26  27
ATOM     27  C   UNL d   1      -1.021   7.245  -0.588  0.00  0.00     0.077 A 
ATOM     28  C   UNL d   1      -1.534   8.388  -1.204  0.00  0.00     0.039 A 
ATOM     29  C   UNL d   1      -0.667   9.355  -1.719  0.00  0.00     0.026 A 
ATOM     30  C   UNL d   1       0.713   9.179  -1.609  0.00  0.00     0.034 A 
ATOM     31  C   UNL d   1       1.232   8.053  -0.974  0.00  0.00     0.026 A 
ATOM     32 CL   UNL d   1       1.783  10.362  -2.254  0.00  0.00    -0.084 Cl
ATOM     33  C   UNL d   1       0.365   7.096  -0.447  0.00  0.00     0.039 A 
ENDBRANCH  26  27
ENDBRANCH   6  26
TORSDOF 5
