REMARK  5 active torsions:
REMARK  status: ('A' for Active; 'I' for Inactive)
REMARK    1  A    between atoms: C_4  and  N_1 
REMARK    2  A    between atoms: C_10  and  C_3 
REMARK    3  A    between atoms: N_13  and  C_4 
REMARK    4  A    between atoms: C_22  and  N_13 
REMARK    5  A    between atoms: C_16  and  C_22 
ROOT
ATOM      1  N   UNL d   1      -2.613   0.306  -0.331  0.00  0.00    -0.345 N 
ATOM      2  C   UNL d   1      -0.243   0.793   0.027  0.00  0.00    -0.017 C 
ATOM      3  C   UNL d   1      -1.655   1.343   0.149  0.00  0.00     0.154 C 
ATOM      4  C   UNL d   1       0.040  -0.556  -0.081  0.00  0.00    -0.007 C 
ATOM      5  C   UNL d   1      -2.366  -1.066   0.191  0.00  0.00     0.131 C 
ATOM      6  S   UNL d   1       1.705  -0.898  -0.117  0.00  0.00    -0.106 SA
ATOM      7  C   UNL d   1      -0.994  -1.627  -0.208  0.00  0.00     0.067 C 
ATOM      8  C   UNL d   1       0.970   1.559  -0.099  0.00  0.00     0.018 C 
ATOM      9  C   UNL d   1       2.097   0.766  -0.107  0.00  0.00     0.051 C 
ENDROOT
BRANCH   1  10
ATOM     10  C   UNL d   1      -3.525   0.572  -1.365  0.00  0.00     0.171 C 
ATOM     11  S   UNL d   1      -4.125  -0.597  -2.411  0.00  0.00    -0.041 SA
BRANCH  10  12
ATOM     12  N   UNL d   1      -3.882   1.905  -1.451  0.00  0.00    -0.364 N 
ATOM     13  H   UNL d   1      -3.828   2.448  -0.602  0.00  0.00     0.162 HD
BRANCH  12  14
ATOM     14  C   UNL d   1      -4.512   2.592  -2.567  0.00  0.00     0.148 C 
BRANCH  14  15
ATOM     15  C   UNL d   1      -5.919   2.949  -2.205  0.00  0.00    -0.018 C 
ATOM     16  C   UNL d   1      -6.392   4.206  -2.175  0.00  0.00     0.008 C 
ENDBRANCH  14  15
ENDBRANCH  12  14
ENDBRANCH  10  12
ENDBRANCH   1  10
BRANCH   3  17
ATOM     17  C   UNL d   1      -1.913   1.777   1.603  0.00  0.00    -0.031 A 
ATOM     18  C   UNL d   1      -0.914   2.315   2.441  0.00  0.00     0.011 A 
ATOM     19  C   UNL d   1      -1.203   2.795   3.723  0.00  0.00     0.024 A 
ATOM     20  C   UNL d   1      -2.507   2.766   4.194  0.00  0.00     0.034 A 
ATOM     21  C   UNL d   1      -3.522   2.249   3.397  0.00  0.00     0.024 A 
ATOM     22 CL   UNL d   1      -2.866   3.386   5.756  0.00  0.00    -0.084 Cl
ATOM     23  C   UNL d   1      -3.227   1.765   2.116  0.00  0.00     0.011 A 
ENDBRANCH   3  17
TORSDOF 5
