REMARK  3 active torsions:
REMARK  status: ('A' for Active; 'I' for Inactive)
REMARK    1  A    between atoms: O_3  and  C_1 
REMARK    2  A    between atoms: N_2  and  C_4 
REMARK       I    between atoms: C_6  and  N_2 
REMARK    3  A    between atoms: C_5  and  O_3 
ROOT
ATOM      1  C   UNL d   1       2.210  -1.611   2.129  0.00  0.00     0.068 A 
ATOM      2  C   UNL d   1       0.831  -1.530   1.833  0.00  0.00     0.105 A 
ATOM      3  C   UNL d   1       2.670  -2.614   2.988  0.00  0.00     0.032 A 
ATOM      4  C   UNL d   1      -0.063  -2.406   2.458  0.00  0.00     0.039 A 
ATOM      5  C   UNL d   1       1.773  -3.502   3.582  0.00  0.00     0.002 A 
ATOM      6  C   UNL d   1       0.410  -3.389   3.330  0.00  0.00     0.003 A 
ENDROOT
BRANCH   1   7
ATOM      7  N   UNL d   1       3.065  -0.658   1.528  0.00  0.00    -0.325 N 
ATOM      8  C   UNL d   1       4.396  -0.427   1.806  0.00  0.00     0.218 C 
ATOM      9  O   UNL d   1       5.093  -1.014   2.626  0.00  0.00    -0.274 OA
ATOM     10  C   UNL d   1       4.967   0.688   0.967  0.00  0.00     0.117 C 
ATOM     11  H   UNL d   1       2.601  -0.021   0.889  0.00  0.00     0.169 HD
ENDBRANCH   1   7
BRANCH   2  12
ATOM     12  O   UNL d   1       0.479  -0.547   0.940  0.00  0.00    -0.253 OA
BRANCH  12  13
ATOM     13  C   UNL d   1      -0.854  -0.550   0.452  0.00  0.00     0.530 C 
ATOM     14  F   UNL d   1      -1.193  -1.750  -0.061  0.00  0.00    -0.144 F 
ATOM     15  F   UNL d   1      -0.945   0.367  -0.536  0.00  0.00    -0.144 F 
ATOM     16  F   UNL d   1      -1.722  -0.207   1.425  0.00  0.00    -0.144 F 
ENDBRANCH  12  13
ENDBRANCH   2  12
TORSDOF 3
