REMARK  6 active torsions:
REMARK  status: ('A' for Active; 'I' for Inactive)
REMARK    1  A    between atoms: C_7  and  C_1 
REMARK    2  A    between atoms: C_8  and  C_2 
REMARK    3  A    between atoms: O_16  and  C_7 
REMARK    4  A    between atoms: O_15  and  C_8 
REMARK    5  A    between atoms: C_19  and  O_15 
REMARK    6  A    between atoms: C_18  and  O_16 
ROOT
ATOM      1  C   UNL d   1       0.317  -1.419   0.068  0.00  0.00     0.115 C 
ATOM      2  C   UNL d   1       0.326   1.404  -0.203  0.00  0.00     0.115 C 
ATOM      3  C   UNL d   1       1.401   0.788   0.670  0.00  0.00     0.147 C 
ATOM      4  C   UNL d   1       0.471  -0.874  -1.345  0.00  0.00     0.147 C 
ATOM      5  C   UNL d   1       1.215  -0.651   1.055  0.00  0.00     0.107 C 
ATOM      6  C   UNL d   1       0.389   0.633  -1.533  0.00  0.00     0.107 C 
ATOM      7  O   UNL d   1       2.394   1.398   1.066  0.00  0.00    -0.297 OA
ATOM      8  O   UNL d   1       0.588  -1.607  -2.326  0.00  0.00    -0.297 OA
ATOM      9  C   UNL d   1      -1.173  -1.290   0.475  0.00  0.00     0.028 C 
ATOM     10  C   UNL d   1      -1.040   1.298   0.519  0.00  0.00     0.028 C 
ATOM     11  C   UNL d   1      -1.861   0.049   0.200  0.00  0.00     0.003 C 
ENDROOT
BRANCH   1  12
ATOM     12  C   UNL d   1       0.723  -2.886   0.177  0.00  0.00     0.275 C 
ATOM     13  O   UNL d   1       0.007  -3.760   0.651  0.00  0.00    -0.264 OA
BRANCH  12  14
ATOM     14  O   UNL d   1       2.040  -3.057  -0.133  0.00  0.00    -0.321 OA
BRANCH  14  15
ATOM     15  C   UNL d   1       2.651  -4.229   0.431  0.00  0.00     0.174 C 
ATOM     16  C   UNL d   1       3.084  -3.910   1.854  0.00  0.00     0.034 C 
ENDBRANCH  14  15
ENDBRANCH  12  14
ENDBRANCH   1  12
BRANCH   2  17
ATOM     17  C   UNL d   1       0.636   2.871  -0.480  0.00  0.00     0.275 C 
ATOM     18  O   UNL d   1       0.822   3.335  -1.600  0.00  0.00    -0.264 OA
BRANCH  17  19
ATOM     19  O   UNL d   1       0.707   3.589   0.673  0.00  0.00    -0.321 OA
BRANCH  19  20
ATOM     20  C   UNL d   1       1.410   4.837   0.570  0.00  0.00     0.174 C 
ATOM     21  C   UNL d   1       2.896   4.575   0.749  0.00  0.00     0.034 C 
ENDBRANCH  19  20
ENDBRANCH  17  19
ENDBRANCH   2  17
TORSDOF 6
