REMARK  4 active torsions:
REMARK  status: ('A' for Active; 'I' for Inactive)
REMARK    1  A    between atoms: C_8  and  C_1 
REMARK    2  A    between atoms: C_6  and  C_2 
REMARK    3  A    between atoms: O_17  and  C_8 
REMARK    4  A    between atoms: C_20  and  O_17 
ROOT
ATOM      1  C   UNL d   1       1.439   1.048   0.041  0.00  0.00     0.066 C 
ATOM      2  C   UNL d   1       0.189   1.898  -0.083  0.00  0.00     0.162 C 
ATOM      3  C   UNL d   1       1.366  -0.301  -0.004  0.00  0.00     0.024 C 
ATOM      4  C   UNL d   1      -1.070  -0.245  -0.058  0.00  0.00     0.321 C 
ATOM      5  N   UNL d   1       0.123  -0.891  -0.109  0.00  0.00    -0.312 N 
ATOM      6  N   UNL d   1      -1.014   1.095   0.087  0.00  0.00    -0.330 N 
ATOM      7  O   UNL d   1      -2.139  -0.848  -0.098  0.00  0.00    -0.247 OA
ATOM      8  C   UNL d   1       2.489  -1.306   0.023  0.00  0.00     0.069 C 
ATOM      9  H   UNL d   1       0.047  -1.901  -0.167  0.00  0.00     0.170 HD
ATOM     10  H   UNL d   1      -1.916   1.553   0.088  0.00  0.00     0.165 HD
ENDROOT
BRANCH   2  11
ATOM     11  C   UNL d   1       0.071   3.071   0.885  0.00  0.00    -0.009 A 
ATOM     12  C   UNL d   1      -0.107   4.400   0.453  0.00  0.00     0.044 A 
ATOM     13  C   UNL d   1      -0.295   5.435   1.374  0.00  0.00     0.048 A 
ATOM     14 CL   UNL d   1      -0.123   4.838  -1.220  0.00  0.00    -0.084 Cl
ATOM     15  C   UNL d   1      -0.311   5.155   2.737  0.00  0.00     0.035 A 
ATOM     16  C   UNL d   1      -0.123   3.854   3.191  0.00  0.00     0.024 A 
ATOM     17 CL   UNL d   1      -0.585   6.423   3.866  0.00  0.00    -0.084 Cl
ATOM     18  C   UNL d   1       0.067   2.819   2.273  0.00  0.00     0.013 A 
ENDBRANCH   2  11
BRANCH   1  19
ATOM     19  C   UNL d   1       2.754   1.733   0.163  0.00  0.00     0.293 C 
ATOM     20  O   UNL d   1       3.749   1.235   0.662  0.00  0.00    -0.259 OA
BRANCH  19  21
ATOM     21  O   UNL d   1       2.704   2.994  -0.341  0.00  0.00    -0.318 OA
BRANCH  21  22
ATOM     22  C   UNL d   1       3.923   3.751  -0.233  0.00  0.00     0.174 C 
ATOM     23  C   UNL d   1       4.169   4.224   1.192  0.00  0.00     0.034 C 
ENDBRANCH  21  22
ENDBRANCH  19  21
ENDBRANCH   1  19
TORSDOF 4
