REMARK  4 active torsions:
REMARK  status: ('A' for Active; 'I' for Inactive)
REMARK    1  A    between atoms: C_2  and  C_1 
REMARK    2  A    between atoms: C_13  and  N_3 
REMARK    3  A    between atoms: C_15  and  C_4 
REMARK    4  A    between atoms: C_14  and  N_5 
ROOT
ATOM      1  C   UNL d   1      -0.241   1.249   0.046  0.00  0.00     0.057 A 
ATOM      2  C   UNL d   1       1.081   0.840  -0.126  0.00  0.00     0.082 A 
ATOM      3  N   UNL d   1       1.032  -0.568  -0.096  0.00  0.00    -0.255 N 
ATOM      4  N   UNL d   1      -0.232  -1.017   0.149  0.00  0.00    -0.303 N 
ATOM      5  HN  UNL d   1      -0.529  -1.981   0.304  1.00  0.00     0.186 HD
ATOM      6  C   UNL d   1      -0.988   0.067   0.143  0.00  0.00     0.125 A 
ENDROOT
BRANCH   1   7
ATOM      7  C   UNL d   1      -0.803   2.630   0.122  0.00  0.00     0.152 C 
ATOM      8  N   UNL d   1      -2.011   3.020   0.692  0.00  0.00    -0.224 N 
ATOM      9  N   UNL d   1      -2.343   4.229   0.181  0.00  0.00     0.001 NA
ATOM     10  N   UNL d   1      -1.266   4.652  -0.461  0.00  0.00    -0.007 NA
ATOM     11  N   UNL d   1      -0.297   3.685  -0.484  0.00  0.00    -0.269 N 
ATOM     12  HN  UNL d   1       0.635   3.766  -0.890  1.00  0.00     0.185 HD
BRANCH   8  13
ATOM     13  C   UNL d   1      -2.792   2.414   1.706  0.00  0.00     0.056 A 
ATOM     14  C   UNL d   1      -2.199   1.568   2.656  0.00  0.00     0.032 A 
ATOM     15  C   UNL d   1      -2.981   0.965   3.642  0.00  0.00     0.021 A 
ATOM     16  C   UNL d   1      -4.351   1.213   3.688  0.00  0.00     0.011 A 
ATOM     17  C   UNL d   1      -4.944   2.077   2.768  0.00  0.00     0.021 A 
ATOM     18 BR   UNL d   1      -5.408   0.380   5.014  0.00  0.00    -0.051 Br
ATOM     19  C   UNL d   1      -4.164   2.693   1.785  0.00  0.00     0.032 A 
ENDBRANCH   8  13
ENDBRANCH   1   7
BRANCH   2  20
ATOM     20  C   UNL d   1       2.317   1.643  -0.130  0.00  0.00    -0.006 A 
ATOM     21  C   UNL d   1       3.347   1.379   0.789  0.00  0.00     0.014 A 
ATOM     22  C   UNL d   1       4.539   2.109   0.760  0.00  0.00     0.001 A 
ATOM     23  C   UNL d   1       4.696   3.149  -0.151  0.00  0.00     0.000 A 
ATOM     24  C   UNL d   1       3.669   3.448  -1.043  0.00  0.00     0.001 A 
ATOM     25  C   UNL d   1       2.496   2.687  -1.044  0.00  0.00     0.014 A 
ENDBRANCH   2  20
BRANCH   3  26
ATOM     26  C   UNL d   1       2.065  -1.544  -0.239  0.00  0.00     0.057 A 
ATOM     27  C   UNL d   1       1.878  -2.809   0.346  0.00  0.00     0.031 A 
ATOM     28  C   UNL d   1       2.890  -3.769   0.297  0.00  0.00     0.002 A 
ATOM     29  C   UNL d   1       4.084  -3.486  -0.360  0.00  0.00     0.000 A 
ATOM     30  C   UNL d   1       4.257  -2.252  -0.986  0.00  0.00     0.002 A 
ATOM     31  C   UNL d   1       3.249  -1.284  -0.935  0.00  0.00     0.031 A 
ENDBRANCH   3  26
TORSDOF 4
