REMARK  9 active torsions:
REMARK  status: ('A' for Active; 'I' for Inactive)
REMARK    1  A    between atoms: C_23  and  N_1 
REMARK    2  A    between atoms: C_10  and  C_2 
REMARK    3  A    between atoms: S_5  and  C_12 
REMARK    4  A    between atoms: N_21  and  S_5 
REMARK    5  A    between atoms: S_13  and  C_6 
REMARK    6  A    between atoms: N_9  and  C_11 
REMARK    7  A    between atoms: C_26  and  S_13 
REMARK    8  A    between atoms: C_17  and  C_26 
REMARK       I    between atoms: N_20  and  C_17 
REMARK    9  A    between atoms: C_27  and  N_20 
ROOT
ATOM      1  N   UNL d   1      -0.215  -1.385   0.274  0.00  0.00    -0.311 N 
ATOM      2  C   UNL d   1       0.940  -0.667  -0.009  0.00  0.00     0.134 C 
ATOM      3  N   UNL d   1       0.602   0.606  -0.131  0.00  0.00    -0.283 N 
ATOM      4  HN  UNL d   1       1.222   1.359  -0.430  1.00  0.00     0.188 HD
ATOM      5  C   UNL d   1      -1.186  -0.439   0.497  0.00  0.00     0.163 C 
ATOM      6  N   UNL d   1      -0.719   0.749   0.208  0.00  0.00    -0.278 N 
ATOM      7  HN  UNL d   1      -1.243   1.624   0.231  1.00  0.00     0.189 HD
ENDROOT
BRANCH   5   8
ATOM      8  S   UNL d   1      -2.781  -0.779   1.104  0.00  0.00    -0.083 SA
BRANCH   8   9
ATOM      9  C   UNL d   1      -3.487   0.890   1.029  0.00  0.00     0.185 C 
BRANCH   9  10
ATOM     10  C   UNL d   1      -4.867   1.071   1.639  0.00  0.00     0.231 C 
ATOM     11  N   UNL d   1      -5.418  -0.001   2.319  0.00  0.00    -0.327 N 
ATOM     12  H   UNL d   1      -4.812  -0.798   2.474  0.00  0.00     0.169 HD
ATOM     13  O   UNL d   1      -5.409   2.171   1.518  0.00  0.00    -0.272 OA
BRANCH  11  14
ATOM     14  C   UNL d   1      -6.735  -0.081   2.832  0.00  0.00     0.034 A 
ATOM     15  C   UNL d   1      -7.724   0.869   2.547  0.00  0.00     0.031 A 
ATOM     16  C   UNL d   1      -9.032   0.706   3.002  0.00  0.00     0.027 A 
ATOM     17  C   UNL d   1      -9.360  -0.426   3.741  0.00  0.00     0.074 A 
ATOM     18  C   UNL d   1      -8.385  -1.361   4.087  0.00  0.00     0.027 A 
ATOM     19  C   UNL d   1      -7.075  -1.190   3.619  0.00  0.00     0.031 A 
BRANCH  17  20
ATOM     20  S   UNL d   1     -11.056  -0.717   4.137  0.00  0.00     0.239 S 
ATOM     21  O   UNL d   1     -11.136  -1.628   5.256  0.00  0.00    -0.206 OA
ATOM     22  O   UNL d   1     -11.789   0.522   4.082  0.00  0.00    -0.206 OA
BRANCH  20  23
ATOM     23  N   UNL d   1     -11.517  -1.600   2.782  0.00  0.00    -0.225 NA
ATOM     24  H   UNL d   1     -11.814  -2.538   3.046  0.00  0.00     0.136 HD
ATOM     25  H   UNL d   1     -12.185  -1.075   2.220  0.00  0.00     0.136 HD
ENDBRANCH  20  23
ENDBRANCH  17  20
ENDBRANCH  11  14
ENDBRANCH   9  10
ENDBRANCH   8   9
ENDBRANCH   5   8
BRANCH   1  26
ATOM     26  C   UNL d   1      -0.437  -2.809   0.114  0.00  0.00     0.128 C 
ATOM     27  C   UNL d   1      -0.471  -3.609   1.408  0.00  0.00     0.027 C 
ENDBRANCH   1  26
BRANCH   2  28
ATOM     28  C   UNL d   1       2.319  -1.162  -0.116  0.00  0.00     0.012 A 
ATOM     29  C   UNL d   1       2.788  -2.189   0.708  0.00  0.00     0.051 A 
ATOM     30  C   UNL d   1       4.125  -2.607   0.651  0.00  0.00     0.103 A 
ATOM     31  C   UNL d   1       5.033  -1.976  -0.202  0.00  0.00     0.036 A 
ATOM     32  C   UNL d   1       4.587  -0.925  -1.001  0.00  0.00     0.003 A 
ATOM     33  C   UNL d   1       3.243  -0.525  -0.960  0.00  0.00     0.015 A 
BRANCH  30  34
ATOM     34  N   UNL d   1       4.562  -3.711   1.514  0.00  0.00    -0.116 N 
ATOM     35  O   UNL d   1       3.700  -4.284   2.192  0.00  0.00    -0.532 OA
ATOM     36  O   UNL d   1       5.766  -4.011   1.502  0.00  0.00    -0.532 OA
ENDBRANCH  30  34
ENDBRANCH   2  28
TORSDOF 9
