REMARK  3 active torsions:
REMARK  status: ('A' for Active; 'I' for Inactive)
REMARK    1  A    between atoms: C_4  and  N_1 
REMARK    2  A    between atoms: C_3  and  C_2 
REMARK    3  A    between atoms: O_11  and  C_5 
ROOT
ATOM      1  C   UNL d   1      -1.724  -0.047  -0.178  0.00  0.00     0.040 A 
ATOM      2  C   UNL d   1      -1.546   1.327  -0.299  0.00  0.00     0.085 A 
ATOM      3  S   UNL d   1      -3.168  -0.397   0.706  0.00  0.00    -0.099 SA
ATOM      4  C   UNL d   1      -2.561   2.064   0.381  0.00  0.00     0.045 A 
ATOM      5  C   UNL d   1      -3.500   1.253   0.972  0.00  0.00     0.053 A 
ENDROOT
BRANCH   1   6
ATOM      6  C   UNL d   1      -0.958  -1.145  -0.660  0.00  0.00     0.052 C 
ATOM      7  C   UNL d   1       0.055  -1.675   0.049  0.00  0.00     0.078 C 
ATOM      8  C   UNL d   1       0.549  -1.310   1.413  0.00  0.00     0.075 C 
BRANCH   7   9
ATOM      9  N   UNL d   1       0.817  -2.748  -0.601  0.00  0.00    -0.120 N 
ATOM     10  O   UNL d   1       0.515  -3.070  -1.758  0.00  0.00    -0.532 OA
ATOM     11  O   UNL d   1       1.739  -3.263   0.047  0.00  0.00    -0.532 OA
ENDBRANCH   7   9
ENDBRANCH   1   6
BRANCH   2  12
ATOM     12  O   UNL d   1      -0.524   1.995  -0.897  0.00  0.00    -0.355 OA
ATOM     13  C   UNL d   1       0.091   1.358  -2.007  0.00  0.00     0.210 C 
ENDBRANCH   2  12
TORSDOF 3
