REMARK  4 active torsions:
REMARK  status: ('A' for Active; 'I' for Inactive)
REMARK    1  A    between atoms: C_7  and  N_1 
REMARK    2  A    between atoms: N_8  and  N_2 
REMARK    3  A    between atoms: C_14  and  C_12 
REMARK    4  A    between atoms: O_19  and  C_17 
ROOT
ATOM      1  N   UNL d   1      -0.709  -1.134   0.198  0.00  0.00    -0.305 N 
ATOM      2  N   UNL d   1       0.833   1.083   0.074  0.00  0.00    -0.251 N 
ATOM      3  C   UNL d   1      -1.390   0.087   0.129  0.00  0.00     0.244 C 
ATOM      4  C   UNL d   1       1.500  -0.143  -0.115  0.00  0.00     0.257 C 
ATOM      5  C   UNL d   1      -0.534   1.217  -0.425  0.00  0.00     0.255 C 
ATOM      6  C   UNL d   1       0.551  -1.272  -0.532  0.00  0.00     0.237 C 
ATOM      7  O   UNL d   1       2.713  -0.335  -0.054  0.00  0.00    -0.270 OA
ATOM      8  O   UNL d   1      -2.591   0.236   0.342  0.00  0.00    -0.271 OA
ENDROOT
BRANCH   2   9
ATOM      9  N   UNL d   1       1.379   2.250   0.572  0.00  0.00    -0.306 N 
ATOM     10  C   UNL d   1       2.587   2.291   1.029  0.00  0.00     0.118 C 
ATOM     11  HN  UNL d   1       0.815   3.099   0.579  1.00  0.00     0.186 HD
BRANCH  10  12
ATOM     12  C   UNL d   1       3.117   3.515   1.672  0.00  0.00    -0.017 A 
ATOM     13  C   UNL d   1       2.312   4.646   1.849  0.00  0.00     0.049 A 
ATOM     14  C   UNL d   1       2.808   5.751   2.544  0.00  0.00     0.069 A 
ATOM     15  C   UNL d   1       4.116   5.718   3.038  0.00  0.00     0.037 A 
ATOM     16  C   UNL d   1       4.926   4.595   2.847  0.00  0.00     0.004 A 
ATOM     17  C   UNL d   1       4.428   3.491   2.165  0.00  0.00     0.013 A 
BRANCH  14  18
ATOM     18  O   UNL d   1       2.120   6.901   2.817  0.00  0.00    -0.356 OA
ATOM     19  C   UNL d   1       0.773   6.965   2.363  0.00  0.00     0.210 C 
ENDBRANCH  14  18
ENDBRANCH  10  12
ENDBRANCH   2   9
BRANCH   1  20
ATOM     20  C   UNL d   1      -1.360  -2.287   0.713  0.00  0.00     0.076 A 
ATOM     21  C   UNL d   1      -1.370  -3.511   0.033  0.00  0.00     0.143 A 
ATOM     22  F   UNL d   1      -0.801  -3.621  -1.178  0.00  0.00    -0.204 F 
ATOM     23  C   UNL d   1      -2.024  -4.623   0.562  0.00  0.00     0.044 A 
ATOM     24  C   UNL d   1      -2.643  -4.534   1.808  0.00  0.00     0.003 A 
ATOM     25  C   UNL d   1      -2.618  -3.331   2.512  0.00  0.00     0.002 A 
ATOM     26  C   UNL d   1      -1.996  -2.209   1.959  0.00  0.00     0.033 A 
ENDBRANCH   1  20
TORSDOF 4
