REMARK  7 active torsions:
REMARK  status: ('A' for Active; 'I' for Inactive)
REMARK    1  A    between atoms: C_4  and  C_1 
REMARK    2  A    between atoms: C_5  and  C_1 
REMARK    3  A    between atoms: N_6  and  N_2 
REMARK    4  A    between atoms: O_7  and  C_4 
REMARK    5  A    between atoms: C_11  and  N_6 
REMARK    6  A    between atoms: C_10  and  O_7 
REMARK    7  A    between atoms: C_12  and  C_10 
ROOT
ATOM      1  C   UNL d   1       1.146  -0.044   0.170  0.00  0.00     0.169 C 
ATOM      2  N   UNL d   1       0.402  -0.210   1.236  0.00  0.00    -0.292 N 
ATOM      3  HN  UNL d   1      -0.584   0.054   1.244  1.00  0.00     0.187 HD
ENDROOT
BRANCH   1   4
ATOM      4  C   UNL d   1       0.500   0.562  -1.073  0.00  0.00     0.315 C 
ATOM      5  O   UNL d   1       1.133   0.726  -2.099  0.00  0.00    -0.257 OA
BRANCH   4   6
ATOM      6  O   UNL d   1      -0.793   0.862  -0.854  0.00  0.00    -0.312 OA
BRANCH   6   7
ATOM      7  C   UNL d   1      -1.511   1.499  -1.919  0.00  0.00     0.217 C 
BRANCH   7   8
ATOM      8  C   UNL d   1      -1.850   2.923  -1.543  0.00  0.00    -0.034 A 
ATOM      9  C   UNL d   1      -1.866   3.929  -2.521  0.00  0.00     0.009 A 
ATOM     10  C   UNL d   1      -2.228   5.236  -2.189  0.00  0.00     0.001 A 
ATOM     11  C   UNL d   1      -2.580   5.554  -0.880  0.00  0.00     0.000 A 
ATOM     12  C   UNL d   1      -2.578   4.564   0.100  0.00  0.00     0.001 A 
ATOM     13  C   UNL d   1      -2.221   3.255  -0.231  0.00  0.00     0.009 A 
ENDBRANCH   7   8
ENDBRANCH   6   7
ENDBRANCH   4   6
ENDBRANCH   1   4
BRANCH   1  14
ATOM     14  C   UNL d   1       2.608  -0.468   0.144  0.00  0.00     0.179 C 
ATOM     15  O   UNL d   1       2.913  -1.567   0.608  0.00  0.00    -0.291 OA
ATOM     16  C   UNL d   1       3.640   0.518  -0.313  0.00  0.00     0.099 C 
ENDBRANCH   1  14
BRANCH   2  17
ATOM     17  N   UNL d   1       1.003  -0.751   2.335  0.00  0.00    -0.300 N 
ATOM     18  H   UNL d   1       1.821  -1.362   2.201  0.00  0.00     0.187 HD
BRANCH  17  19
ATOM     19  C   UNL d   1       0.218  -1.193   3.423  0.00  0.00     0.048 A 
ATOM     20  C   UNL d   1      -1.179  -1.125   3.449  0.00  0.00     0.031 A 
ATOM     21  C   UNL d   1      -1.892  -1.536   4.582  0.00  0.00     0.002 A 
ATOM     22  C   UNL d   1      -1.213  -1.983   5.715  0.00  0.00     0.000 A 
ATOM     23  C   UNL d   1       0.178  -2.023   5.716  0.00  0.00     0.002 A 
ATOM     24  C   UNL d   1       0.884  -1.631   4.577  0.00  0.00     0.031 A 
ENDBRANCH  17  19
ENDBRANCH   2  17
TORSDOF 7
