REMARK  3 active torsions:
REMARK  status: ('A' for Active; 'I' for Inactive)
REMARK    1  A    between atoms: C_4  and  C_1 
REMARK    2  A    between atoms: N_6  and  C_2 
REMARK       I    between atoms: C_3  and  N_5 
REMARK       I    between atoms: N_7  and  C_3 
REMARK    3  A    between atoms: C_18  and  N_7 
ROOT
ATOM      1  C   UNL d   1      -3.123   6.243  -0.397  0.00  0.00     0.323 C 
ATOM      2  N   UNL d   1      -2.533   4.992  -0.225  0.00  0.00    -0.332 N 
ATOM      3  N   UNL d   1      -1.015   2.561   0.034  0.00  0.00    -0.266 NA
ATOM      4  N   UNL d   1      -4.186   6.518   0.433  0.00  0.00    -0.309 N 
ATOM      5  O   UNL d   1      -2.717   7.013  -1.266  0.00  0.00    -0.247 OA
ATOM      6  C   UNL d   1      -1.305   4.756  -1.001  0.00  0.00     0.142 C 
ATOM      7  C   UNL d   1      -2.739   4.093   0.928  0.00  0.00     0.142 C 
ATOM      8  C   UNL d   1      -2.350   2.620   0.661  0.00  0.00     0.117 C 
ATOM      9  C   UNL d   1      -1.030   3.269  -1.262  0.00  0.00     0.117 C 
ATOM     10  H   UNL d   1      -4.240   6.001   1.293  0.00  0.00     0.170 HD
ENDROOT
BRANCH   4  11
ATOM     11  C   UNL d   1      -5.125   7.562   0.284  0.00  0.00     0.036 A 
ATOM     12  C   UNL d   1      -5.196   8.388  -0.844  0.00  0.00     0.031 A 
ATOM     13  C   UNL d   1      -6.187   9.368  -0.952  0.00  0.00     0.026 A 
ATOM     14  C   UNL d   1      -7.118   9.527   0.067  0.00  0.00     0.034 A 
ATOM     15  C   UNL d   1      -7.062   8.718   1.198  0.00  0.00     0.026 A 
ATOM     16 CL   UNL d   1      -8.350  10.719  -0.076  0.00  0.00    -0.084 Cl
ATOM     17  C   UNL d   1      -6.068   7.738   1.305  0.00  0.00     0.031 A 
ENDBRANCH   4  11
BRANCH   3  18
ATOM     18  C   UNL d   1      -0.448   1.286  -0.027  0.00  0.00     0.097 A 
ATOM     19  C   UNL d   1       0.934   1.110  -0.141  0.00  0.00     0.086 A 
ATOM     20  C   UNL d   1       1.442  -0.204  -0.195  0.00  0.00     0.021 A 
ATOM     21  C   UNL d   1       0.588  -1.289  -0.103  0.00  0.00     0.018 A 
ATOM     22  C   UNL d   1      -0.757  -1.027   0.037  0.00  0.00     0.089 A 
ATOM     23  N   UNL d   1      -1.278   0.219   0.076  0.00  0.00    -0.356 N 
ATOM     24  HN  UNL d   1      -2.284   0.355   0.183  1.00  0.00     0.166 HD
BRANCH  19  25
ATOM     25  C   UNL d   1       1.907   2.251  -0.216  0.00  0.00     0.420 C 
ATOM     26  F   UNL d   1       1.510   3.424   0.350  0.00  0.00    -0.166 F 
ATOM     27  F   UNL d   1       3.099   1.959   0.385  0.00  0.00    -0.166 F 
ATOM     28  F   UNL d   1       2.231   2.557  -1.509  0.00  0.00    -0.166 F 
ENDBRANCH  19  25
ENDBRANCH   3  18
TORSDOF 3
