REMARK  5 active torsions:
REMARK  status: ('A' for Active; 'I' for Inactive)
REMARK       I    between atoms: N_3  and  C_1 
REMARK       I    between atoms: N_6  and  C_1 
REMARK    1  A    between atoms: C_2  and  C_4 
REMARK    2  A    between atoms: O_10  and  C_2 
REMARK    3  A    between atoms: C_9  and  N_3 
REMARK    4  A    between atoms: C_4  and  C_8 
REMARK    5  A    between atoms: C_8  and  N_6 
ROOT
ATOM      1  C   UNL d   1       1.135  -0.020  -0.036  0.00  0.00     0.320 C 
ATOM      2  N   UNL d   1       0.482   1.120  -0.448  0.00  0.00    -0.309 N 
ATOM      3  O   UNL d   1       0.626  -1.060   0.367  0.00  0.00    -0.247 OA
ATOM      4  N   UNL d   1       2.504   0.133  -0.100  0.00  0.00    -0.342 N 
ATOM      5  H   UNL d   1       1.075   1.894  -0.713  0.00  0.00     0.170 HD
ATOM      6  H   UNL d   1       2.879   0.805  -0.760  0.00  0.00     0.164 HD
ENDROOT
BRANCH   2   7
ATOM      7  C   UNL d   1      -0.908   1.337  -0.523  0.00  0.00     0.036 A 
ATOM      8  C   UNL d   1      -1.865   0.396  -0.138  0.00  0.00     0.029 A 
ATOM      9  C   UNL d   1      -3.230   0.664  -0.285  0.00  0.00     0.002 A 
ATOM     10  C   UNL d   1      -3.653   1.881  -0.812  0.00  0.00     0.000 A 
ATOM     11  C   UNL d   1      -2.711   2.839  -1.175  0.00  0.00     0.002 A 
ATOM     12  C   UNL d   1      -1.346   2.572  -1.025  0.00  0.00     0.029 A 
ENDBRANCH   2   7
BRANCH   4  13
ATOM     13  C   UNL d   1       3.407  -0.925   0.313  0.00  0.00     0.134 C 
BRANCH  13  14
ATOM     14  C   UNL d   1       3.685  -1.951  -0.782  0.00  0.00     0.129 C 
BRANCH  14  15
ATOM     15  C   UNL d   1       4.488  -1.351  -1.907  0.00  0.00     0.140 C 
ATOM     16  O   UNL d   1       4.731  -0.161  -2.042  0.00  0.00    -0.650 OA
BRANCH  15  17
ATOM     17  O   UNL d   1       4.918  -2.278  -2.795  0.00  0.00    -0.776 OA
ATOM     18  H   UNL d   1       4.632  -3.189  -2.587  0.00  0.00     0.167 HD
ENDBRANCH  15  17
ENDBRANCH  14  15
ENDBRANCH  13  14
ENDBRANCH   4  13
TORSDOF 5
