REMARK  14 active torsions:
REMARK  status: ('A' for Active; 'I' for Inactive)
REMARK    1  A    between atoms: C_1  and  O_7 
REMARK    2  A    between atoms: C_1  and  C_3 
REMARK    3  A    between atoms: C_1  and  C_2 
REMARK    4  A    between atoms: C_2  and  O_6 
REMARK    5  A    between atoms: C_2  and  C_4 
REMARK    6  A    between atoms: C_3  and  O_10 
REMARK    7  A    between atoms: C_5  and  C_3 
REMARK    8  A    between atoms: S_8  and  C_4 
REMARK    9  A    between atoms: S_9  and  C_4 
REMARK   10  A    between atoms: C_13  and  C_5 
REMARK   11  A    between atoms: C_5  and  O_11 
REMARK   12  A    between atoms: C_14  and  S_8 
REMARK   13  A    between atoms: C_15  and  S_9 
REMARK   14  A    between atoms: O_12  and  C_13 
ROOT
ATOM      1  C   UNL d   1      -0.218  -3.166   0.978  0.00  0.00     0.180 C 
ENDROOT
BRANCH   1   2
ATOM      2  O   UNL d   1      -0.798  -4.391   0.505  0.00  0.00    -0.390 OA
ATOM      3  H   UNL d   1      -0.378  -5.136   0.964  0.00  0.00     0.210 HD
ENDBRANCH   1   2
BRANCH   1   4
ATOM      4  C   UNL d   1      -0.212  -3.184   2.538  0.00  0.00     0.180 C 
BRANCH   4   5
ATOM      5  O   UNL d   1       0.560  -2.125   3.098  0.00  0.00    -0.390 OA
ATOM      6  H   UNL d   1       0.190  -1.294   2.749  0.00  0.00     0.210 HD
ENDBRANCH   4   5
BRANCH   4   7
ATOM      7  C   UNL d   1      -1.667  -3.128   3.082  0.00  0.00     0.173 C 
BRANCH   7   8
ATOM      8  C   UNL d   1      -1.796  -3.402   4.590  0.00  0.00     0.198 C 
BRANCH   8   9
ATOM      9  O   UNL d   1      -1.379  -2.258   5.337  0.00  0.00    -0.398 OA
ATOM     10  H   UNL d   1      -1.358  -2.521   6.272  0.00  0.00     0.209 HD
ENDBRANCH   8   9
ENDBRANCH   7   8
BRANCH   7  11
ATOM     11  O   UNL d   1      -2.217  -1.823   2.826  0.00  0.00    -0.391 OA
ATOM     12  H   UNL d   1      -2.013  -1.310   3.638  0.00  0.00     0.210 HD
ENDBRANCH   7  11
ENDBRANCH   4   7
ENDBRANCH   1   4
BRANCH   1  13
ATOM     13  C   UNL d   1       1.161  -2.938   0.283  0.00  0.00     0.173 C 
BRANCH  13  14
ATOM     14  O   UNL d   1       1.661  -1.632   0.599  0.00  0.00    -0.391 OA
ATOM     15  H   UNL d   1       1.261  -1.014  -0.045  0.00  0.00     0.210 HD
ENDBRANCH  13  14
BRANCH  13  16
ATOM     16  C   UNL d   1       1.117  -3.164  -1.271  0.00  0.00     0.139 C 
BRANCH  16  17
ATOM     17  S   UNL d   1       2.651  -2.662  -2.194  0.00  0.00    -0.151 SA
BRANCH  17  18
ATOM     18  C   UNL d   1       3.966  -3.584  -1.347  0.00  0.00     0.070 C 
ATOM     19  C   UNL d   1       3.760  -5.086  -1.342  0.00  0.00     0.016 C 
ENDBRANCH  17  18
ENDBRANCH  16  17
BRANCH  16  20
ATOM     20  S   UNL d   1      -0.253  -2.170  -2.053  0.00  0.00    -0.151 SA
BRANCH  20  21
ATOM     21  C   UNL d   1      -0.448  -3.014  -3.662  0.00  0.00     0.070 C 
ATOM     22  C   UNL d   1      -0.817  -4.483  -3.554  0.00  0.00     0.016 C 
ENDBRANCH  20  21
ENDBRANCH  16  20
ENDBRANCH  13  16
ENDBRANCH   1  13
TORSDOF 14
