REMARK  6 active torsions:
REMARK  status: ('A' for Active; 'I' for Inactive)
REMARK    1  A    between atoms: C_3  and  C_1 
REMARK    2  A    between atoms: C_2  and  O_5 
REMARK    3  A    between atoms: C_4  and  C_2 
REMARK    4  A    between atoms: O_5  and  C_9 
REMARK    5  A    between atoms: C_6  and  C_7 
REMARK    6  A    between atoms: C_9  and  C_6 
ROOT
ATOM      1  C   UNL d   1       2.361  -0.482  -2.737  0.00  0.00     0.048 A 
ATOM      2  C   UNL d   1       0.185   0.426  -4.270  0.00  0.00     0.012 A 
ATOM      3  C   UNL d   1       2.568   0.353  -3.846  0.00  0.00     0.017 A 
ATOM      4  C   UNL d   1       1.053  -0.883  -2.424  0.00  0.00     0.017 A 
ATOM      5  C   UNL d   1       1.488   0.798  -4.613  0.00  0.00     0.016 A 
ATOM      6  C   UNL d   1      -0.028  -0.436  -3.189  0.00  0.00     0.016 A 
ENDROOT
BRANCH   2   7
ATOM      7  C   UNL d   1      -0.997   0.916  -5.030  0.00  0.00     0.183 C 
ATOM      8  O   UNL d   1      -1.991   0.193  -5.115  0.00  0.00    -0.290 OA
BRANCH   7   9
ATOM      9  C   UNL d   1      -0.926   2.272  -5.740  0.00  0.00     0.262 C 
BRANCH   9  10
ATOM     10  O   UNL d   1      -0.058   3.280  -5.228  0.00  0.00    -0.313 OA
BRANCH  10  11
ATOM     11  C   UNL d   1      -0.361   3.763  -3.991  0.00  0.00     0.266 C 
ATOM     12  O   UNL d   1      -1.299   3.368  -3.314  0.00  0.00    -0.264 OA
BRANCH  11  13
ATOM     13  C   UNL d   1       0.616   4.862  -3.547  0.00  0.00     0.037 C 
ATOM     14  C   UNL d   1       1.760   5.081  -4.551  0.00  0.00     0.025 C 
ATOM     15  C   UNL d   1      -0.174   6.169  -3.390  0.00  0.00     0.025 C 
ATOM     16  C   UNL d   1       1.225   4.466  -2.194  0.00  0.00     0.025 C 
ENDBRANCH  11  13
ENDBRANCH  10  11
ENDBRANCH   9  10
ENDBRANCH   7   9
ENDBRANCH   2   7
BRANCH   1  17
ATOM     17  C   UNL d   1       3.518  -0.945  -1.885  0.00  0.00     0.417 C 
ATOM     18  F   UNL d   1       4.724  -0.471  -2.306  0.00  0.00    -0.166 F 
ATOM     19  F   UNL d   1       3.639  -2.300  -1.858  0.00  0.00    -0.166 F 
ATOM     20  F   UNL d   1       3.397  -0.551  -0.587  0.00  0.00    -0.166 F 
ENDBRANCH   1  17
TORSDOF 6
