REMARK  4 active torsions:
REMARK  status: ('A' for Active; 'I' for Inactive)
REMARK    1  A    between atoms: S_12  and  C_4 
REMARK    2  A    between atoms: C_14  and  C_7 
REMARK    3  A    between atoms: C_15  and  S_12 
REMARK    4  A    between atoms: C_17  and  C_15 
ROOT
ATOM      1  C   UNL d   1       1.080  -0.901   0.037  0.00  0.00     0.135 A 
ATOM      2  N   UNL d   1       0.724   0.459   0.048  0.00  0.00    -0.288 N 
ATOM      3  C   UNL d   1       2.466  -1.260   0.043  0.00  0.00     0.100 A 
ATOM      4  C   UNL d   1       1.699   1.496   0.070  0.00  0.00     0.079 A 
ATOM      5  N   UNL d   1       0.025  -1.688   0.028  0.00  0.00    -0.339 N 
ATOM      6  HN  UNL d   1       0.019  -2.708   0.025  1.00  0.00     0.167 HD
ATOM      7  C   UNL d   1       3.409  -0.280   0.032  0.00  0.00     0.001 A 
ATOM      8  C   UNL d   1       3.003   1.133   0.054  0.00  0.00     0.051 A 
ATOM      9  C   UNL d   1      -0.677   0.481   0.032  0.00  0.00     0.068 A 
ATOM     10  C   UNL d   1      -1.058  -0.862   0.023  0.00  0.00     0.061 A 
ATOM     11  C   UNL d   1       2.808  -2.655   0.062  0.00  0.00     0.104 C 
ATOM     12  N   UNL d   1       3.113  -3.774   0.082  0.00  0.00    -0.191 NA
ATOM     13  C   UNL d   1      -1.648   1.498   0.015  0.00  0.00     0.032 A 
ATOM     14  C   UNL d   1      -2.418  -1.214   0.005  0.00  0.00     0.032 A 
ATOM     15  C   UNL d   1      -3.001   1.131  -0.001  0.00  0.00     0.002 A 
ATOM     16  C   UNL d   1      -3.384  -0.206  -0.005  0.00  0.00     0.002 A 
ENDROOT
BRANCH   7  17
ATOM     17  C   UNL d   1       4.849  -0.638   0.015  0.00  0.00    -0.024 A 
ATOM     18  C   UNL d   1       5.517  -0.784  -1.209  0.00  0.00     0.012 A 
ATOM     19  C   UNL d   1       6.860  -1.169  -1.240  0.00  0.00     0.001 A 
ATOM     20  C   UNL d   1       7.551  -1.393  -0.050  0.00  0.00     0.000 A 
ATOM     21  C   UNL d   1       6.903  -1.223   1.172  0.00  0.00     0.001 A 
ATOM     22  C   UNL d   1       5.556  -0.848   1.208  0.00  0.00     0.012 A 
ENDBRANCH   7  17
BRANCH   4  23
ATOM     23  S   UNL d   1       1.215   3.163   0.268  0.00  0.00    -0.107 SA
BRANCH  23  24
ATOM     24  C   UNL d   1       2.435   4.185  -0.605  0.00  0.00     0.119 C 
BRANCH  24  25
ATOM     25  C   UNL d   1       2.058   5.655  -0.551  0.00  0.00    -0.048 A 
ATOM     26  C   UNL d   1       2.523   6.484   0.484  0.00  0.00     0.009 A 
ATOM     27  C   UNL d   1       2.151   7.833   0.546  0.00  0.00     0.024 A 
ATOM     28  C   UNL d   1       1.300   8.363  -0.419  0.00  0.00     0.034 A 
ATOM     29  C   UNL d   1       0.830   7.559  -1.456  0.00  0.00     0.024 A 
ATOM     30 CL   UNL d   1       0.817  10.012  -0.327  0.00  0.00    -0.084 Cl
ATOM     31  C   UNL d   1       1.210   6.214  -1.522  0.00  0.00     0.009 A 
ENDBRANCH  24  25
ENDBRANCH  23  24
ENDBRANCH   4  23
TORSDOF 4
