REMARK  3 active torsions:
REMARK  status: ('A' for Active; 'I' for Inactive)
REMARK    1  A    between atoms: C_3  and  C_1 
REMARK    2  A    between atoms: N_7  and  C_2 
REMARK       I    between atoms: C_4  and  N_7 
REMARK       I    between atoms: N_10  and  C_4 
REMARK    3  A    between atoms: N_11  and  N_10 
ROOT
ATOM      1  C   UNL d   1      -3.645   0.294   2.011  0.00  0.00     0.079 A 
ATOM      2  C   UNL d   1      -3.453  -0.481   0.797  0.00  0.00     0.072 A 
ATOM      3  N   UNL d   1      -4.582   1.245   1.928  0.00  0.00    -0.324 N 
ATOM      4  HN  UNL d   1      -4.807   1.915   2.664  1.00  0.00     0.174 HD
ATOM      5  S   UNL d   1      -5.321   1.167   0.451  0.00  0.00    -0.024 SA
ATOM      6  C   UNL d   1      -4.369  -0.107  -0.164  0.00  0.00     0.100 A 
ENDROOT
BRANCH   2   7
ATOM      7  N   UNL d   1      -2.459  -1.436   0.614  0.00  0.00    -0.305 N 
ATOM      8  C   UNL d   1      -2.636  -2.627  -0.065  0.00  0.00     0.335 C 
ATOM      9  N   UNL d   1      -1.411  -3.301  -0.127  0.00  0.00    -0.271 N 
ATOM     10  O   UNL d   1      -3.706  -3.053  -0.470  0.00  0.00    -0.246 OA
ATOM     11  H   UNL d   1      -0.580  -2.719  -0.167  0.00  0.00     0.185 HD
ATOM     12  H   UNL d   1      -1.726  -1.463   1.307  0.00  0.00     0.171 HD
BRANCH   9  13
ATOM     13  N   UNL d   1      -1.251  -4.639  -0.516  0.00  0.00    -0.227 NA
ATOM     14  C   UNL d   1      -1.677  -5.581   0.526  0.00  0.00     0.113 C 
ATOM     15  C   UNL d   1      -1.204  -6.993   0.174  0.00  0.00     0.016 C 
ATOM     16  C   UNL d   1      -1.677  -7.418  -1.214  0.00  0.00     0.002 C 
ATOM     17  C   UNL d   1      -1.352  -6.351  -2.258  0.00  0.00     0.016 C 
ATOM     18  C   UNL d   1      -1.842  -4.971  -1.819  0.00  0.00     0.113 C 
ENDBRANCH   9  13
ENDBRANCH   2   7
BRANCH   1  19
ATOM     19  C   UNL d   1      -2.963   0.072   3.297  0.00  0.00     0.037 A 
ATOM     20  C   UNL d   1      -1.566   0.191   3.425  0.00  0.00     0.048 A 
ATOM     21 CL   UNL d   1      -0.533   0.646   2.111  0.00  0.00    -0.083 Cl
ATOM     22  C   UNL d   1      -0.929  -0.069   4.647  0.00  0.00     0.025 A 
ATOM     23  C   UNL d   1      -1.672  -0.419   5.769  0.00  0.00     0.003 A 
ATOM     24  C   UNL d   1      -3.055  -0.532   5.667  0.00  0.00     0.025 A 
ATOM     25  C   UNL d   1      -3.697  -0.305   4.442  0.00  0.00     0.048 A 
ATOM     26 CL   UNL d   1      -5.410  -0.575   4.422  0.00  0.00    -0.083 Cl
ENDBRANCH   1  19
TORSDOF 3
