REMARK  1 active torsions:
REMARK  status: ('A' for Active; 'I' for Inactive)
REMARK    1  A    between atoms: C_16  and  C_9 
ROOT
ATOM      1  C   UNL d   1      -0.316  -1.076  -0.001  0.00  0.00     0.181 A 
ATOM      2  C   UNL d   1      -0.763  -2.441  -0.061  0.00  0.00     0.059 A 
ATOM      3  O   UNL d   1      -1.137   0.024  -0.131  0.00  0.00    -0.277 OA
ATOM      4  N   UNL d   1       0.941  -0.720   0.200  0.00  0.00    -0.277 N 
ATOM      5  HN  UNL d   1       1.735  -1.348   0.326  1.00  0.00     0.189 HD
ATOM      6  N   UNL d   1       0.979   0.658   0.208  0.00  0.00    -0.281 N 
ATOM      7  HN  UNL d   1       1.801   1.247   0.340  1.00  0.00     0.189 HD
ATOM      8  S   UNL d   1      -2.411  -2.812  -0.368  0.00  0.00    -0.085 SA
ATOM      9  C   UNL d   1      -0.257   1.061   0.013  0.00  0.00     0.144 A 
ATOM     10  C   UNL d   1       0.023  -3.563   0.111  0.00  0.00     0.043 A 
ATOM     11  C   UNL d   1      -0.750  -4.758   0.005  0.00  0.00     0.023 A 
ATOM     12  C   UNL d   1      -2.071  -4.518  -0.252  0.00  0.00     0.023 A 
ATOM     13  S   UNL d   1      -0.408  -6.465   0.129  0.00  0.00    -0.101 SA
ATOM     14  C   UNL d   1      -2.846  -5.712  -0.362  0.00  0.00     0.027 A 
ATOM     15  C   UNL d   1      -2.057  -6.824  -0.172  0.00  0.00     0.052 A 
ENDROOT
BRANCH   9  16
ATOM     16  C   UNL d   1      -0.793   2.449  -0.058  0.00  0.00     0.054 C 
ATOM     17  C   UNL d   1      -1.454   2.721  -1.407  0.00  0.00     0.018 C 
ATOM     18  C   UNL d   1      -1.763   2.724   1.090  0.00  0.00     0.018 C 
ENDBRANCH   9  16
TORSDOF 1
