REMARK  3 active torsions:
REMARK  status: ('A' for Active; 'I' for Inactive)
REMARK    1  A    between atoms: N_11  and  C_1 
REMARK    2  A    between atoms: N_10  and  C_4 
REMARK    3  A    between atoms: N_14  and  C_9 
REMARK       I    between atoms: C_12  and  N_10 
ROOT
ATOM      1  C   UNL d   1       1.165  -1.156  -0.007  0.00  0.00     0.697 A 
ATOM      2  N   UNL d   1      -0.153  -1.285  -0.009  0.00  0.00    -0.022 N 
ATOM      3  HN  UNL d   1      -0.602  -2.193  -0.129  1.00  0.00     0.203 HD
ATOM      4  C   UNL d   1      -0.860  -0.179   0.154  0.00  0.00     0.701 A 
ATOM      5  N   UNL d   1       1.767   0.014   0.173  0.00  0.00    -0.165 N 
ATOM      6  HN  UNL d   1       2.783   0.097   0.211  1.00  0.00     0.187 HD
ATOM      7  N   UNL d   1      -0.343   1.036   0.269  0.00  0.00    -0.165 N 
ATOM      8  HN  UNL d   1      -0.915   1.878   0.329  1.00  0.00     0.187 HD
ATOM      9  C   UNL d   1       0.977   1.063   0.299  0.00  0.00     0.184 A 
ENDROOT
BRANCH   1  10
ATOM     10  N   UNL d   1       1.956  -2.251  -0.321  0.00  0.00    -0.217 N 
ATOM     11  C   UNL d   1       1.274  -3.490  -0.680  0.00  0.00     0.141 C 
ATOM     12  C   UNL d   1       2.224  -4.313  -1.553  0.00  0.00     0.020 C 
ATOM     13  C   UNL d   1       3.567  -4.543  -0.859  0.00  0.00     0.003 C 
ATOM     14  C   UNL d   1       4.176  -3.231  -0.360  0.00  0.00     0.020 C 
ATOM     15  C   UNL d   1       3.178  -2.411   0.460  0.00  0.00     0.141 C 
ENDBRANCH   1  10
BRANCH   4  16
ATOM     16  N   UNL d   1      -2.248  -0.215   0.171  0.00  0.00    -0.159 N 
ATOM     17  C   UNL d   1      -3.020  -1.349   0.205  0.00  0.00     0.231 C 
ATOM     18  O   UNL d   1      -2.625  -2.508   0.292  0.00  0.00    -0.273 OA
ATOM     19  C   UNL d   1      -4.497  -1.054   0.164  0.00  0.00     0.118 C 
ATOM     20  H   UNL d   1      -2.670   0.700   0.229  0.00  0.00     0.187 HD
ENDBRANCH   4  16
BRANCH   9  21
ATOM     21  N   UNL d   1       1.590   2.300   0.393  0.00  0.00    -0.273 NA
ATOM     22  H   UNL d   1       0.997   3.017   0.001  0.00  0.00     0.127 HD
ATOM     23  H   UNL d   1       2.529   2.234   0.022  0.00  0.00     0.127 HD
ENDBRANCH   9  21
TORSDOF 3
