REMARK  4 active torsions:
REMARK  status: ('A' for Active; 'I' for Inactive)
REMARK    1  A    between atoms: C_9  and  N_1 
REMARK    2  A    between atoms: C_7  and  C_2 
REMARK    3  A    between atoms: N_11  and  C_8 
REMARK    4  A    between atoms: C_12  and  N_11 
ROOT
ATOM      1  N   UNL d   1       0.922   0.621  -0.134  0.00  0.00    -0.225 N 
ATOM      2  C   UNL d   1       1.103  -0.752   0.006  0.00  0.00     0.139 C 
ATOM      3  N   UNL d   1      -0.978  -0.266   0.290  0.00  0.00    -0.007 NA
ATOM      4  N   UNL d   1      -0.368   0.902   0.175  0.00  0.00     0.001 NA
ATOM      5  N   UNL d   1      -0.088  -1.298   0.178  0.00  0.00    -0.270 N 
ATOM      6  HN  UNL d   1      -0.302  -2.294   0.220  1.00  0.00     0.185 HD
ENDROOT
BRANCH   2   7
ATOM      7  C   UNL d   1       2.387  -1.347   0.099  0.00  0.00     0.068 C 
ATOM      8  C   UNL d   1       2.550  -2.646  -0.188  0.00  0.00     0.092 C 
BRANCH   8   9
ATOM      9  N   UNL d   1       3.705  -3.374  -0.052  0.00  0.00    -0.366 N 
ATOM     10  H   UNL d   1       4.457  -2.948   0.478  0.00  0.00     0.165 HD
BRANCH   9  11
ATOM     11  C   UNL d   1       3.901  -4.716  -0.425  0.00  0.00     0.033 A 
ATOM     12  C   UNL d   1       3.181  -5.319  -1.464  0.00  0.00     0.053 A 
ATOM     13  C   UNL d   1       3.361  -6.671  -1.761  0.00  0.00     0.036 A 
ATOM     14 CL   UNL d   1       2.485  -7.381  -3.062  0.00  0.00    -0.084 Cl
ATOM     15  C   UNL d   1       4.241  -7.449  -1.015  0.00  0.00     0.024 A 
ATOM     16  C   UNL d   1       4.955  -6.867   0.030  0.00  0.00     0.004 A 
ATOM     17  C   UNL d   1       4.786  -5.510   0.319  0.00  0.00     0.029 A 
ENDBRANCH   9  11
ENDBRANCH   8   9
ENDBRANCH   2   7
BRANCH   1  18
ATOM     18  C   UNL d   1       1.814   1.646  -0.540  0.00  0.00     0.056 A 
ATOM     19  C   UNL d   1       2.896   1.371  -1.389  0.00  0.00     0.031 A 
ATOM     20  C   UNL d   1       3.768   2.396  -1.759  0.00  0.00     0.002 A 
ATOM     21  C   UNL d   1       3.568   3.691  -1.284  0.00  0.00     0.000 A 
ATOM     22  C   UNL d   1       2.478   3.974  -0.463  0.00  0.00     0.002 A 
ATOM     23  C   UNL d   1       1.588   2.959  -0.106  0.00  0.00     0.031 A 
ENDBRANCH   1  18
TORSDOF 4
