REMARK  10 active torsions:
REMARK  status: ('A' for Active; 'I' for Inactive)
REMARK    1  A    between atoms: C_2  and  S_1 
REMARK    2  A    between atoms: N_3  and  S_1 
REMARK    3  A    between atoms: C_26  and  N_3 
REMARK    4  A    between atoms: C_27  and  N_3 
REMARK    5  A    between atoms: C_4  and  C_10 
REMARK       I    between atoms: N_12  and  C_4 
REMARK    6  A    between atoms: N_7  and  N_12 
REMARK       I    between atoms: C_9  and  N_11 
REMARK    7  A    between atoms: N_11  and  C_20 
REMARK    8  A    between atoms: C_21  and  C_19 
REMARK    9  A    between atoms: C_29  and  C_26 
REMARK   10  A    between atoms: C_30  and  C_27 
ROOT
ATOM      1  C   UNL d   1      -0.937  -5.180  -2.536  0.00  0.00     0.270 C 
ATOM      2  N   UNL d   1      -2.079  -5.211  -3.332  0.00  0.00    -0.266 N 
ATOM      3  O   UNL d   1      -0.252  -6.172  -2.290  0.00  0.00    -0.266 OA
ATOM      4  H   UNL d   1      -2.639  -4.395  -3.529  0.00  0.00     0.190 HD
ENDROOT
BRANCH   1   5
ATOM      5  C   UNL d   1      -0.512  -3.863  -1.956  0.00  0.00     0.033 A 
ATOM      6  C   UNL d   1      -1.211  -2.663  -2.138  0.00  0.00     0.018 A 
ATOM      7  C   UNL d   1      -0.746  -1.477  -1.553  0.00  0.00     0.026 A 
ATOM      8  C   UNL d   1       0.438  -1.467  -0.811  0.00  0.00     0.074 A 
ATOM      9  C   UNL d   1       1.138  -2.659  -0.607  0.00  0.00     0.026 A 
ATOM     10  C   UNL d   1       0.659  -3.846  -1.175  0.00  0.00     0.018 A 
BRANCH   8  11
ATOM     11  S   UNL d   1       0.981   0.037  -0.010  0.00  0.00     0.243 S 
ATOM     12  O   UNL d   1       2.125  -0.315   0.800  0.00  0.00    -0.206 OA
ATOM     13  O   UNL d   1      -0.191   0.635   0.593  0.00  0.00    -0.206 OA
BRANCH  11  14
ATOM     14  N   UNL d   1       1.483   1.036  -1.349  0.00  0.00    -0.206 NA
BRANCH  14  15
ATOM     15  C   UNL d   1       0.363   1.925  -1.835  0.00  0.00     0.107 C 
BRANCH  15  16
ATOM     16  C   UNL d   1       0.653   2.719  -3.110  0.00  0.00     0.011 C 
ATOM     17  C   UNL d   1       1.020   1.853  -4.303  0.00  0.00     0.006 C 
ENDBRANCH  15  16
ENDBRANCH  14  15
BRANCH  14  18
ATOM     18  C   UNL d   1       2.771   1.776  -1.148  0.00  0.00     0.107 C 
BRANCH  18  19
ATOM     19  C   UNL d   1       4.015   0.887  -1.119  0.00  0.00     0.011 C 
ATOM     20  C   UNL d   1       4.148  -0.017  -2.335  0.00  0.00     0.006 C 
ENDBRANCH  18  19
ENDBRANCH  14  18
ENDBRANCH  11  14
ENDBRANCH   8  11
ENDBRANCH   1   5
BRANCH   2  21
ATOM     21  N   UNL d   1      -2.435  -6.404  -3.894  0.00  0.00    -0.308 N 
ATOM     22  C   UNL d   1      -3.494  -6.426  -4.636  0.00  0.00     0.118 C 
ATOM     23  HN  UNL d   1      -1.885  -7.248  -3.735  1.00  0.00     0.186 HD
BRANCH  22  24
ATOM     24  C   UNL d   1      -3.935  -7.682  -5.284  0.00  0.00    -0.019 A 
ATOM     25  C   UNL d   1      -3.205  -8.864  -5.131  0.00  0.00     0.015 A 
ATOM     26  C   UNL d   1      -3.640 -10.046  -5.743  0.00  0.00     0.030 A 
ATOM     27  C   UNL d   1      -4.810 -10.064  -6.517  0.00  0.00     0.034 A 
ATOM     28  C   UNL d   1      -5.526  -8.870  -6.667  0.00  0.00     0.030 A 
ATOM     29  C   UNL d   1      -5.095  -7.686  -6.057  0.00  0.00     0.015 A 
BRANCH  27  30
ATOM     30  N   UNL d   1      -5.200 -11.291  -7.095  0.00  0.00    -0.328 N 
ATOM     31  C   UNL d   1      -6.322 -11.528  -7.876  0.00  0.00     0.218 C 
ATOM     32  O   UNL d   1      -7.163 -10.706  -8.211  0.00  0.00    -0.274 OA
ATOM     33  C   UNL d   1      -6.463 -12.963  -8.320  0.00  0.00     0.117 C 
ATOM     34  H   UNL d   1      -4.595 -12.083  -6.905  0.00  0.00     0.169 HD
ENDBRANCH  27  30
ENDBRANCH  22  24
ENDBRANCH   2  21
TORSDOF 10
