REMARK  7 active torsions:
REMARK  status: ('A' for Active; 'I' for Inactive)
REMARK    1  A    between atoms: C_2  and  S_1 
REMARK    2  A    between atoms: N_3  and  S_1 
REMARK    3  A    between atoms: C_11  and  N_3 
REMARK    4  A    between atoms: C_13  and  N_3 
REMARK    5  A    between atoms: C_8  and  C_5 
REMARK    6  A    between atoms: O_14  and  C_8 
REMARK    7  A    between atoms: C_15  and  C_11 
ROOT
ATOM      1  S   UNL d   1       1.112   0.155   0.021  0.00  0.00     0.283 S 
ATOM      2  O   UNL d   1       2.412   0.725  -0.250  0.00  0.00    -0.198 OA
ATOM      3  O   UNL d   1       0.124   0.908   0.760  0.00  0.00    -0.198 OA
ENDROOT
BRANCH   1   4
ATOM      4  C   UNL d   1       1.511  -1.217   1.133  0.00  0.00     0.191 A 
ATOM      5  O   UNL d   1       0.552  -2.100   1.591  0.00  0.00    -0.291 OA
ATOM      6  C   UNL d   1       1.149  -2.967   2.471  0.00  0.00     0.152 A 
ATOM      7  C   UNL d   1       2.492  -2.671   2.566  0.00  0.00     0.047 A 
ATOM      8  C   UNL d   1       2.724  -1.567   1.717  0.00  0.00     0.054 A 
BRANCH   6   9
ATOM      9  C   UNL d   1       0.370  -3.983   3.143  0.00  0.00     0.317 C 
ATOM     10  O   UNL d   1       0.817  -4.801   3.939  0.00  0.00    -0.257 OA
BRANCH   9  11
ATOM     11  O   UNL d   1      -0.940  -3.904   2.769  0.00  0.00    -0.321 OA
ATOM     12  C   UNL d   1      -1.784  -4.864   3.403  0.00  0.00     0.213 C 
ENDBRANCH   9  11
ENDBRANCH   6   9
ENDBRANCH   1   4
BRANCH   1  13
ATOM     13  N   UNL d   1       0.426  -0.519  -1.402  0.00  0.00    -0.297 N 
BRANCH  13  14
ATOM     14  C   UNL d   1      -1.014  -0.905  -1.274  0.00  0.00     0.174 C 
BRANCH  14  15
ATOM     15  C   UNL d   1      -2.052   0.205  -1.292  0.00  0.00    -0.040 A 
ATOM     16  C   UNL d   1      -2.459   0.845  -2.472  0.00  0.00     0.009 A 
ATOM     17  C   UNL d   1      -3.437   1.845  -2.453  0.00  0.00     0.001 A 
ATOM     18  C   UNL d   1      -4.022   2.229  -1.251  0.00  0.00     0.000 A 
ATOM     19  C   UNL d   1      -3.635   1.608  -0.068  0.00  0.00     0.001 A 
ATOM     20  C   UNL d   1      -2.669   0.599  -0.092  0.00  0.00     0.009 A 
ENDBRANCH  14  15
ENDBRANCH  13  14
BRANCH  13  21
ATOM     21  C   UNL d   1       0.911  -0.075  -2.757  0.00  0.00     0.088 C 
ATOM     22  C   UNL d   1       2.436  -0.188  -2.910  0.00  0.00     0.032 C 
ATOM     23  C   UNL d   1       0.348  -0.950  -3.893  0.00  0.00     0.032 C 
ENDBRANCH  13  21
ENDBRANCH   1  13
TORSDOF 7
