REMARK  6 active torsions:
REMARK  status: ('A' for Active; 'I' for Inactive)
REMARK    1  A    between atoms: C_15  and  N_1 
REMARK    2  A    between atoms: C_2  and  C_13 
REMARK    3  A    between atoms: S_14  and  C_3 
REMARK    4  A    between atoms: O_22  and  C_6 
REMARK    5  A    between atoms: C_13  and  C_17 
REMARK    6  A    between atoms: C_17  and  S_14 
ROOT
ATOM      1  N   UNL d   1       0.472   0.537  -0.216  0.00  0.00    -0.254 N 
ATOM      2  C   UNL d   1       1.022  -0.727  -0.044  0.00  0.00     0.169 A 
ATOM      3  C   UNL d   1      -0.762   0.434   0.407  0.00  0.00     0.245 A 
ATOM      4  N   UNL d   1       0.177  -1.518   0.577  0.00  0.00    -0.276 N 
ATOM      5  HN  UNL d   1       0.325  -2.502   0.801  1.00  0.00     0.189 HD
ATOM      6  N   UNL d   1      -0.951  -0.770   0.874  0.00  0.00    -0.263 N 
ATOM      7  HN  UNL d   1      -1.779  -1.101   1.367  1.00  0.00     0.190 HD
ENDROOT
BRANCH   2   8
ATOM      8  S   UNL d   1       2.687  -1.087  -0.334  0.00  0.00    -0.084 SA
BRANCH   8   9
ATOM      9  C   UNL d   1       2.748  -2.897  -0.205  0.00  0.00     0.166 C 
BRANCH   9  10
ATOM     10  C   UNL d   1       4.199  -3.353  -0.408  0.00  0.00     0.176 C 
ATOM     11  O   UNL d   1       4.905  -2.808  -1.262  0.00  0.00    -0.291 OA
BRANCH  10  12
ATOM     12  C   UNL d   1       4.638  -4.545   0.311  0.00  0.00     0.059 C 
ATOM     13  S   UNL d   1       6.066  -5.365  -0.201  0.00  0.00    -0.085 SA
ATOM     14  C   UNL d   1       5.540  -6.817   0.552  0.00  0.00     0.016 C 
ATOM     15  C   UNL d   1       6.113  -8.093   0.447  0.00  0.00     0.021 C 
ATOM     16  C   UNL d   1       4.365  -6.588   1.270  0.00  0.00    -0.010 C 
ATOM     17  C   UNL d   1       5.300  -9.183   0.755  0.00  0.00     0.025 C 
ATOM     18  C   UNL d   1       4.046  -8.986   1.320  0.00  0.00     0.035 C 
ATOM     19  C   UNL d   1       3.624  -7.711   1.707  0.00  0.00     0.037 C 
ATOM     20 CL   UNL d   1       2.977 -10.324   1.496  0.00  0.00    -0.084 Cl
ATOM     21  C   UNL d   1       4.193  -5.171   1.465  0.00  0.00    -0.029 C 
ATOM     22  C   UNL d   1       3.538  -4.534   2.640  0.00  0.00     0.050 C 
ENDBRANCH  10  12
ENDBRANCH   9  10
ENDBRANCH   8   9
ENDBRANCH   2   8
BRANCH   1  23
ATOM     23  C   UNL d   1       1.041   1.681  -0.831  0.00  0.00     0.060 A 
ATOM     24  C   UNL d   1       1.788   1.566  -2.003  0.00  0.00     0.117 A 
ATOM     25  N   UNL d   1       2.365   2.617  -2.630  0.00  0.00    -0.373 N 
ATOM     26  C   UNL d   1       2.210   3.830  -2.061  0.00  0.00     0.088 A 
ATOM     27  HN  UNL d   1       2.892   2.497  -3.495  1.00  0.00     0.164 HD
ATOM     28  C   UNL d   1       1.479   4.044  -0.903  0.00  0.00     0.019 A 
ATOM     29  C   UNL d   1       0.873   2.952  -0.283  0.00  0.00     0.033 A 
ENDBRANCH   1  23
BRANCH   3  30
ATOM     30  O   UNL d   1      -1.700   1.371   0.465  0.00  0.00    -0.331 OA
ATOM     31  H   UNL d   1      -1.530   2.030  -0.218  0.00  0.00     0.221 HD
ENDBRANCH   3  30
TORSDOF 6
