REMARK  4 active torsions:
REMARK  status: ('A' for Active; 'I' for Inactive)
REMARK       I    between atoms: C_4  and  N_1 
REMARK    1  A    between atoms: C_3  and  N_8 
REMARK    2  A    between atoms: N_8  and  C_15 
REMARK    3  A    between atoms: C_10  and  C_20 
REMARK    4  A    between atoms: C_20  and  N_12 
ROOT
ATOM      1  N   UNL d   1       1.588   1.135  -0.016  0.00  0.00    -0.318 N 
ATOM      2  C   UNL d   1       0.229   0.774   0.040  0.00  0.00     0.043 A 
ATOM      3  C   UNL d   1       2.072   2.432  -0.070  0.00  0.00     0.220 C 
ATOM      4  C   UNL d   1       0.091  -0.614   0.040  0.00  0.00    -0.027 A 
ATOM      5  C   UNL d   1       2.389  -0.099   0.066  0.00  0.00     0.137 C 
ATOM      6  C   UNL d   1      -0.886   1.586   0.079  0.00  0.00     0.032 A 
ATOM      7  C   UNL d   1      -1.166  -1.214   0.087  0.00  0.00     0.039 A 
ATOM      8  C   UNL d   1       1.423  -1.284  -0.072  0.00  0.00     0.061 C 
ATOM      9  C   UNL d   1      -2.308  -0.403   0.160  0.00  0.00     0.034 A 
ATOM     10  O   UNL d   1       1.368   3.444  -0.132  0.00  0.00    -0.273 OA
ATOM     11  C   UNL d   1      -2.153   0.992   0.132  0.00  0.00     0.032 A 
ATOM     12  C   UNL d   1       3.572   2.595  -0.100  0.00  0.00     0.117 C 
ENDROOT
BRANCH   9  13
ATOM     13  N   UNL d   1      -3.573  -1.040   0.171  0.00  0.00    -0.333 N 
ATOM     14  H   UNL d   1      -3.545  -2.032  -0.016  0.00  0.00     0.168 HD
BRANCH  13  15
ATOM     15  C   UNL d   1      -4.806  -0.556   0.544  0.00  0.00     0.172 C 
ATOM     16  S   UNL d   1      -5.146   0.696   1.601  0.00  0.00    -0.041 SA
ATOM     17  N   UNL d   1      -5.885  -1.203   0.016  0.00  0.00    -0.362 N 
ATOM     18  H   UNL d   1      -6.778  -0.818   0.306  0.00  0.00     0.162 HD
BRANCH  17  19
ATOM     19  C   UNL d   1      -5.909  -2.381  -0.825  0.00  0.00     0.168 C 
BRANCH  19  20
ATOM     20  C   UNL d   1      -7.244  -2.515  -1.483  0.00  0.00     0.000 A 
ATOM     21  S   UNL d   1      -7.465  -1.966  -3.092  0.00  0.00    -0.105 SA
ATOM     22  C   UNL d   1      -9.076  -2.536  -3.136  0.00  0.00     0.050 A 
ATOM     23  C   UNL d   1      -9.455  -3.106  -1.942  0.00  0.00     0.008 A 
ATOM     24  C   UNL d   1      -8.401  -3.082  -0.981  0.00  0.00     0.017 A 
ENDBRANCH  19  20
ENDBRANCH  17  19
ENDBRANCH  13  15
ENDBRANCH   9  13
TORSDOF 4
