REMARK  4 active torsions:
REMARK  status: ('A' for Active; 'I' for Inactive)
REMARK    1  A    between atoms: C_3  and  C_1 
REMARK    2  A    between atoms: C_7  and  C_1 
REMARK    3  A    between atoms: C_12  and  C_2 
REMARK    4  A    between atoms: N_4  and  C_3 
ROOT
ATOM      1  C   UNL d   1       1.066   0.036   0.066  0.00  0.00     0.055 C 
ATOM      2  C   UNL d   1       0.418  -1.148   0.106  0.00  0.00     0.053 C 
ENDROOT
BRANCH   1   3
ATOM      3  C   UNL d   1       2.586   0.036   0.066  0.00  0.00    -0.035 C 
BRANCH   3   4
ATOM      4  N   UNL d   1       3.847   0.036   0.066  0.00  0.00    -0.365 N 
ATOM      5  HN2 UNL d   1       2.827   0.036   0.066  1.00  0.00     0.165 HD
ATOM      6  HN1 UNL d   1       4.867   0.036   0.066  1.00  0.00     0.165 HD
ENDBRANCH   3   4
ENDBRANCH   1   3
BRANCH   1   7
ATOM      7  C   UNL d   1       0.351   1.335   0.055  0.00  0.00     0.051 A 
ATOM      8  N   UNL d   1      -1.006   1.282   0.092  0.00  0.00    -0.365 N 
ATOM      9  C   UNL d   1      -1.687   2.451   0.101  0.00  0.00     0.088 A 
ATOM     10  HN  UNL d   1      -1.496   0.388   0.112  1.00  0.00     0.165 HD
ATOM     11  C   UNL d   1      -1.084   3.695   0.087  0.00  0.00     0.017 A 
ATOM     12  C   UNL d   1       0.301   3.745   0.054  0.00  0.00     0.004 A 
ATOM     13  C   UNL d   1       1.030   2.555   0.037  0.00  0.00     0.031 A 
ENDBRANCH   1   7
BRANCH   2  14
ATOM     14  C   UNL d   1       1.108  -2.438   0.150  0.00  0.00     0.033 A 
ATOM     15  N   UNL d   1       1.398  -2.986  -1.050  0.00  0.00    -0.366 N 
ATOM     16  C   UNL d   1       2.105  -4.138  -1.040  0.00  0.00     0.088 A 
ATOM     17  HN  UNL d   1       1.099  -2.550  -1.922  1.00  0.00     0.165 HD
ATOM     18  C   UNL d   1       2.533  -4.774   0.114  0.00  0.00     0.017 A 
ATOM     19  C   UNL d   1       2.214  -4.197   1.337  0.00  0.00     0.004 A 
ATOM     20  C   UNL d   1       1.488  -3.008   1.361  0.00  0.00     0.029 A 
ENDBRANCH   2  14
TORSDOF 4
