REMARK  2 active torsions:
REMARK  status: ('A' for Active; 'I' for Inactive)
REMARK    1  A    between atoms: C_12  and  N_3 
REMARK    2  A    between atoms: C_14  and  C_12 
ROOT
ATOM      1  C   UNL d   1       1.117   0.361  -1.140  0.00  0.00     0.155 A 
ATOM      2  C   UNL d   1       0.566  -0.773  -0.588  0.00  0.00     0.160 A 
ATOM      3  N   UNL d   1       1.440   1.120  -0.049  0.00  0.00    -0.254 N 
ATOM      4  N   UNL d   1       0.594  -0.706   0.772  0.00  0.00    -0.276 N 
ATOM      5  HN  UNL d   1       0.254  -1.417   1.419  1.00  0.00     0.184 HD
ATOM      6  N   UNL d   1       1.149   0.461   1.100  0.00  0.00    -0.018 NA
ATOM      7  N   UNL d   1       1.268   0.665  -2.455  0.00  0.00    -0.335 N 
ATOM      8  HN  UNL d   1       1.696   1.526  -2.795  1.00  0.00     0.168 HD
ATOM      9  C   UNL d   1       0.059  -1.789  -1.466  0.00  0.00     0.278 A 
ATOM     10  N   UNL d   1       0.217  -1.449  -2.804  0.00  0.00    -0.318 N 
ATOM     11  C   UNL d   1       0.801  -0.269  -3.233  0.00  0.00     0.185 A 
ATOM     12  O   UNL d   1      -0.465  -2.845  -1.123  0.00  0.00    -0.265 OA
ATOM     13  H   UNL d   1      -0.134  -2.124  -3.469  0.00  0.00     0.169 HD
ENDROOT
BRANCH   3  14
ATOM     14  C   UNL d   1       1.973   2.469  -0.011  0.00  0.00     0.187 C 
BRANCH  14  15
ATOM     15  C   UNL d   1       0.847   3.477   0.026  0.00  0.00    -0.039 A 
ATOM     16  C   UNL d   1       0.305   3.895   1.252  0.00  0.00     0.010 A 
ATOM     17  C   UNL d   1      -0.833   4.704   1.284  0.00  0.00     0.024 A 
ATOM     18  C   UNL d   1      -1.432   5.101   0.091  0.00  0.00     0.034 A 
ATOM     19  C   UNL d   1      -0.881   4.730  -1.133  0.00  0.00     0.024 A 
ATOM     20 CL   UNL d   1      -2.882   6.027   0.129  0.00  0.00    -0.084 Cl
ATOM     21  C   UNL d   1       0.258   3.924  -1.167  0.00  0.00     0.010 A 
ENDBRANCH  14  15
ENDBRANCH   3  14
TORSDOF 2
