REMARK  6 active torsions:
REMARK  status: ('A' for Active; 'I' for Inactive)
REMARK    1  A    between atoms: C_2  and  C_1 
REMARK       I    between atoms: N_5  and  C_1 
REMARK    2  A    between atoms: O_7  and  C_3 
REMARK    3  A    between atoms: C_4  and  C_6 
REMARK    4  A    between atoms: C_14  and  C_4 
REMARK    5  A    between atoms: C_12  and  N_5 
REMARK    6  A    between atoms: C_15  and  O_7 
ROOT
ATOM      1  C   UNL d   1       0.913  -0.504  -0.489  0.00  0.00     0.260 C 
ATOM      2  N   UNL d   1       0.115  -0.926   0.559  0.00  0.00    -0.323 N 
ATOM      3  O   UNL d   1       0.541  -0.057  -1.566  0.00  0.00    -0.267 OA
ATOM      4  H   UNL d   1       0.550  -1.001   1.468  0.00  0.00     0.169 HD
ENDROOT
BRANCH   1   5
ATOM      5  C   UNL d   1       2.357  -0.646  -0.260  0.00  0.00     0.083 A 
ATOM      6  C   UNL d   1       3.229   0.433  -0.329  0.00  0.00     0.163 A 
ATOM      7  N   UNL d   1       4.574   0.293  -0.168  0.00  0.00    -0.346 N 
ATOM      8  C   UNL d   1       5.058  -0.956  -0.008  0.00  0.00     0.090 A 
ATOM      9  HN  UNL d   1       5.193   1.104  -0.169  1.00  0.00     0.167 HD
ATOM     10  C   UNL d   1       4.260  -2.088   0.047  0.00  0.00     0.018 A 
ATOM     11  C   UNL d   1       2.884  -1.931  -0.073  0.00  0.00     0.023 A 
BRANCH   6  12
ATOM     12  O   UNL d   1       2.700   1.712  -0.475  0.00  0.00    -0.293 OA
BRANCH  12  13
ATOM     13  C   UNL d   1       3.555   2.695  -0.915  0.00  0.00     0.077 A 
ATOM     14  C   UNL d   1       4.240   2.589  -2.128  0.00  0.00     0.037 A 
ATOM     15  C   UNL d   1       5.082   3.623  -2.543  0.00  0.00     0.003 A 
ATOM     16  C   UNL d   1       5.218   4.770  -1.761  0.00  0.00     0.000 A 
ATOM     17  C   UNL d   1       4.505   4.891  -0.568  0.00  0.00     0.003 A 
ATOM     18  C   UNL d   1       3.665   3.856  -0.147  0.00  0.00     0.037 A 
ENDBRANCH  12  13
ENDBRANCH   6  12
ENDBRANCH   1   5
BRANCH   2  19
ATOM     19  C   UNL d   1      -1.290  -1.059   0.507  0.00  0.00     0.035 A 
ATOM     20  C   UNL d   1      -1.988  -1.262  -0.687  0.00  0.00     0.045 A 
ATOM     21  C   UNL d   1      -3.386  -1.395  -0.690  0.00  0.00     0.017 A 
ATOM     22  C   UNL d   1      -4.088  -1.245   0.510  0.00  0.00     0.015 A 
ATOM     23  C   UNL d   1      -3.394  -1.079   1.709  0.00  0.00     0.003 A 
ATOM     24  C   UNL d   1      -1.998  -1.015   1.711  0.00  0.00     0.029 A 
BRANCH  21  25
ATOM     25  C   UNL d   1      -4.064  -1.663  -1.993  0.00  0.00     0.192 C 
ATOM     26  O   UNL d   1      -3.496  -1.344  -3.035  0.00  0.00    -0.287 OA
BRANCH  25  27
ATOM     27  C   UNL d   1      -5.400  -2.311  -2.097  0.00  0.00     0.015 A 
ATOM     28  C   UNL d   1      -5.859  -3.261  -1.175  0.00  0.00     0.015 A 
ATOM     29  C   UNL d   1      -7.129  -3.826  -1.324  0.00  0.00     0.001 A 
ATOM     30  C   UNL d   1      -7.929  -3.475  -2.411  0.00  0.00     0.000 A 
ATOM     31  C   UNL d   1      -7.460  -2.567  -3.358  0.00  0.00     0.001 A 
ATOM     32  C   UNL d   1      -6.199  -1.988  -3.202  0.00  0.00     0.015 A 
ENDBRANCH  25  27
ENDBRANCH  21  25
ENDBRANCH   2  19
TORSDOF 6
