REMARK  1 active torsions:
REMARK  status: ('A' for Active; 'I' for Inactive)
REMARK    1  A    between atoms: N_10  and  C_6 
ROOT
ATOM      1  C   UNL d   1       1.141   0.983  -0.060  0.00  0.00     0.073 A 
ATOM      2  S   UNL d   1      -0.190   2.067  -0.136  0.00  0.00    -0.066 SA
ATOM      3  C   UNL d   1      -1.314   0.799  -0.106  0.00  0.00     0.088 A 
ATOM      4  C   UNL d   1      -0.731  -0.461  -0.090  0.00  0.00     0.032 A 
ATOM      5  C   UNL d   1       0.712  -0.340  -0.109  0.00  0.00     0.067 A 
ATOM      6  C   UNL d   1       2.514   1.276   0.022  0.00  0.00     0.103 A 
ATOM      7  N   UNL d   1      -2.627   1.097  -0.091  0.00  0.00    -0.354 N 
ATOM      8  HN  UNL d   1      -2.972   2.057  -0.113  1.00  0.00     0.166 HD
ATOM      9  C   UNL d   1      -1.624  -1.569  -0.051  0.00  0.00    -0.045 A 
ATOM     10  N   UNL d   1       3.376   0.241  -0.045  0.00  0.00    -0.342 N 
ATOM     11  HN  UNL d   1       4.384   0.401  -0.037  1.00  0.00     0.167 HD
ATOM     12  N   UNL d   1       1.597  -1.372  -0.136  0.00  0.00    -0.350 N 
ATOM     13  HN  UNL d   1       1.304  -2.349  -0.164  1.00  0.00     0.166 HD
ATOM     14  C   UNL d   1       2.881  -1.003  -0.123  0.00  0.00     0.182 A 
ATOM     15  C   UNL d   1      -3.001  -1.281  -0.025  0.00  0.00     0.032 A 
ATOM     16  C   UNL d   1      -3.447   0.034  -0.045  0.00  0.00     0.006 A 
ATOM     17  C   UNL d   1      -1.210  -3.015  -0.015  0.00  0.00     0.049 C 
ATOM     18  C   UNL d   1      -4.919   0.324  -0.010  0.00  0.00     0.068 C 
ENDROOT
BRANCH   6  19
ATOM     19  N   UNL d   1       2.967   2.589   0.141  0.00  0.00    -0.264 NA
ATOM     20  C   UNL d   1       4.324   2.859  -0.361  0.00  0.00     0.123 C 
ATOM     21  C   UNL d   1       4.512   4.388  -0.380  0.00  0.00     0.182 C 
ATOM     22  O   UNL d   1       4.351   4.951   0.937  0.00  0.00    -0.389 OA
ATOM     23  C   UNL d   1       3.046   4.646   1.462  0.00  0.00     0.182 C 
ATOM     24  C   UNL d   1       2.795   3.130   1.506  0.00  0.00     0.123 C 
ENDBRANCH   6  19
TORSDOF 1
