REMARK  3 active torsions:
REMARK  status: ('A' for Active; 'I' for Inactive)
REMARK    1  A    between atoms: C_15  and  C_7 
REMARK    2  A    between atoms: C_16  and  C_8 
REMARK    3  A    between atoms: C_9  and  C_10 
ROOT
ATOM      1  N   UNL d   1      -1.023   1.490  -0.548  0.00  0.00    -0.355 N 
ATOM      2  HN  UNL d   1      -0.979   2.288  -1.182  1.00  0.00     0.166 HD
ATOM      3  N   UNL d   1      -0.894  -1.538  -0.485  0.00  0.00    -0.357 N 
ATOM      4  HN  UNL d   1      -0.773  -2.365  -1.070  1.00  0.00     0.166 HD
ATOM      5  C   UNL d   1       0.151   0.741  -0.288  0.00  0.00     0.081 A 
ATOM      6  C   UNL d   1       0.200  -0.676  -0.264  0.00  0.00     0.062 A 
ATOM      7  C   UNL d   1      -2.154   1.178   0.008  0.00  0.00     0.025 C 
ATOM      8  C   UNL d   1      -2.056  -1.293   0.048  0.00  0.00     0.025 C 
ATOM      9  C   UNL d   1       2.607  -0.609   0.222  0.00  0.00     0.051 A 
ATOM     10  C   UNL d   1      -2.326  -0.052   0.875  0.00  0.00     0.115 C 
ATOM     11  C   UNL d   1       1.350   1.448  -0.054  0.00  0.00     0.063 A 
ATOM     12  C   UNL d   1       1.425  -1.322  -0.020  0.00  0.00     0.048 A 
ATOM     13  C   UNL d   1       2.556   0.787   0.203  0.00  0.00     0.042 A 
ATOM     14 CL   UNL d   1       1.385   3.182  -0.049  0.00  0.00    -0.082 Cl
ENDROOT
BRANCH   7  15
ATOM     15  C   UNL d   1      -3.341   2.053  -0.238  0.00  0.00    -0.013 A 
ATOM     16  C   UNL d   1      -3.443   2.732  -1.459  0.00  0.00     0.013 A 
ATOM     17  C   UNL d   1      -4.536   3.564  -1.711  0.00  0.00     0.001 A 
ATOM     18  C   UNL d   1      -5.528   3.727  -0.745  0.00  0.00     0.000 A 
ATOM     19  C   UNL d   1      -5.425   3.066   0.478  0.00  0.00     0.001 A 
ATOM     20  C   UNL d   1      -4.330   2.237   0.736  0.00  0.00     0.013 A 
ENDBRANCH   7  15
BRANCH   8  21
ATOM     21  C   UNL d   1      -3.180  -2.252  -0.202  0.00  0.00    -0.013 A 
ATOM     22  C   UNL d   1      -3.182  -3.001  -1.385  0.00  0.00     0.013 A 
ATOM     23  C   UNL d   1      -4.230  -3.882  -1.661  0.00  0.00     0.001 A 
ATOM     24  C   UNL d   1      -5.280  -4.024  -0.756  0.00  0.00     0.000 A 
ATOM     25  C   UNL d   1      -5.274  -3.300   0.434  0.00  0.00     0.001 A 
ATOM     26  C   UNL d   1      -4.224  -2.425   0.717  0.00  0.00     0.013 A 
ENDBRANCH   8  21
BRANCH   9  27
ATOM     27  C   UNL d   1       3.908  -1.316   0.501  0.00  0.00     0.417 C 
ATOM     28  F   UNL d   1       3.806  -2.673   0.501  0.00  0.00    -0.166 F 
ATOM     29  F   UNL d   1       4.870  -1.012  -0.413  0.00  0.00    -0.166 F 
ATOM     30  F   UNL d   1       4.426  -0.981   1.715  0.00  0.00    -0.166 F 
ENDBRANCH   9  27
TORSDOF 3
