REMARK  2 active torsions:
REMARK  status: ('A' for Active; 'I' for Inactive)
REMARK    1  A    between atoms: C_2  and  C_1 
REMARK    2  A    between atoms: C_10  and  C_6 
ROOT
ATOM      1  C   UNL d   1      -2.020  -2.569  -0.028  0.00  0.00     0.058 C 
ATOM      2  C   UNL d   1      -3.346  -2.824  -0.102  0.00  0.00     0.035 C 
ATOM      3  C   UNL d   1      -1.556  -1.210  -0.035  0.00  0.00     0.100 C 
ATOM      4  N   UNL d   1      -1.188  -0.109  -0.029  0.00  0.00    -0.191 NA
ENDROOT
BRANCH   1   5
ATOM      5  C   UNL d   1      -1.030  -3.620   0.047  0.00  0.00     0.013 A 
ATOM      6  C   UNL d   1      -1.166  -4.871  -0.528  0.00  0.00     0.102 A 
ATOM      7  N   UNL d   1      -0.028  -5.591  -0.274  0.00  0.00    -0.364 N 
ATOM      8  C   UNL d   1       0.852  -4.843   0.470  0.00  0.00     0.043 A 
ATOM      9  H   UNL d   1       0.148  -6.537  -0.585  0.00  0.00     0.165 HD
ATOM     10  C   UNL d   1       0.255  -3.598   0.693  0.00  0.00     0.004 A 
ATOM     11  C   UNL d   1       2.123  -5.179   0.956  0.00  0.00     0.030 A 
ATOM     12  C   UNL d   1       0.977  -2.652   1.455  0.00  0.00     0.014 A 
ATOM     13  C   UNL d   1       2.249  -2.972   1.947  0.00  0.00     0.001 A 
ATOM     14  C   UNL d   1       2.812  -4.218   1.699  0.00  0.00     0.002 A 
ENDBRANCH   1   5
BRANCH   2  15
ATOM     15  C   UNL d   1      -4.408  -1.814  -0.205  0.00  0.00    -0.035 A 
ATOM     16  C   UNL d   1      -4.819  -1.355  -1.464  0.00  0.00     0.014 A 
ATOM     17  C   UNL d   1      -5.846  -0.415  -1.567  0.00  0.00     0.043 A 
ATOM     18  C   UNL d   1      -6.457   0.063  -0.413  0.00  0.00     0.116 A 
ATOM     19  C   UNL d   1      -6.053  -0.374   0.843  0.00  0.00     0.043 A 
ATOM     20  F   UNL d   1      -7.453   0.953  -0.514  0.00  0.00    -0.206 F 
ATOM     21  C   UNL d   1      -5.024  -1.313   0.950  0.00  0.00     0.014 A 
ENDBRANCH   2  15
TORSDOF 2
