REMARK  2 active torsions:
REMARK  status: ('A' for Active; 'I' for Inactive)
REMARK    1  A    between atoms: C_10  and  N_1 
REMARK    2  A    between atoms: C_7  and  C_5 
ROOT
ATOM      1  N   UNL d   1      -3.065   1.096  -0.009  0.00  0.00    -0.282 N 
ATOM      2  N   UNL d   1      -1.777   1.515  -0.249  0.00  0.00    -0.300 N 
ATOM      3  HN  UNL d   1      -1.480   2.433  -0.581  1.00  0.00     0.187 HD
ATOM      4  C   UNL d   1      -1.016   0.503   0.034  0.00  0.00     0.043 C 
ATOM      5  C   UNL d   1      -3.162  -0.360   0.221  0.00  0.00     0.153 C 
ATOM      6  C   UNL d   1      -1.716  -0.695   0.618  0.00  0.00     0.068 C 
ATOM      7  C   UNL d   1       0.443   0.466  -0.070  0.00  0.00    -0.005 A 
ATOM      8  C   UNL d   1      -1.083  -2.046   0.300  0.00  0.00     0.018 C 
ATOM      9  C   UNL d   1       1.035  -0.789  -0.278  0.00  0.00    -0.046 A 
ATOM     10  C   UNL d   1       0.161  -1.976  -0.587  0.00  0.00     0.040 C 
ATOM     11  C   UNL d   1       1.213   1.615   0.094  0.00  0.00     0.014 A 
ATOM     12  C   UNL d   1       2.430  -0.881  -0.291  0.00  0.00     0.008 A 
ATOM     13  C   UNL d   1       2.602   1.509   0.088  0.00  0.00     0.001 A 
ATOM     14  C   UNL d   1       3.209   0.262  -0.094  0.00  0.00     0.001 A 
ENDROOT
BRANCH   5  15
ATOM     15  C   UNL d   1      -3.752  -1.095  -0.979  0.00  0.00    -0.011 A 
ATOM     16  C   UNL d   1      -4.531  -2.256  -0.815  0.00  0.00     0.042 A 
ATOM     17 CL   UNL d   1      -4.747  -3.005   0.730  0.00  0.00    -0.084 Cl
ATOM     18  C   UNL d   1      -5.175  -2.853  -1.905  0.00  0.00     0.024 A 
ATOM     19  C   UNL d   1      -5.054  -2.305  -3.180  0.00  0.00     0.002 A 
ATOM     20  C   UNL d   1      -4.263  -1.179  -3.373  0.00  0.00     0.001 A 
ATOM     21  C   UNL d   1      -3.607  -0.590  -2.288  0.00  0.00     0.011 A 
ENDBRANCH   5  15
BRANCH   1  22
ATOM     22  C   UNL d   1      -4.156   1.954  -0.158  0.00  0.00     0.051 A 
ATOM     23  C   UNL d   1      -3.999   3.248  -0.678  0.00  0.00     0.031 A 
ATOM     24  C   UNL d   1      -5.088   4.111  -0.850  0.00  0.00     0.002 A 
ATOM     25  C   UNL d   1      -6.367   3.701  -0.490  0.00  0.00     0.000 A 
ATOM     26  C   UNL d   1      -6.554   2.430   0.039  0.00  0.00     0.002 A 
ATOM     27  C   UNL d   1      -5.461   1.571   0.200  0.00  0.00     0.031 A 
ENDBRANCH   1  22
TORSDOF 2
