REMARK  2 active torsions:
REMARK  status: ('A' for Active; 'I' for Inactive)
REMARK    1  A    between atoms: S_18  and  C_9 
REMARK    2  A    between atoms: C_23  and  S_18 
ROOT
ATOM      1  N   UNL d   1      -3.506   0.963  -0.061  0.00  0.00    -0.060 N 
ATOM      2  C   UNL d   1      -2.906   1.790  -1.002  0.00  0.00     0.721 C 
ATOM      3  C   UNL d   1      -1.615  -0.179   0.240  0.00  0.00     0.088 C 
ATOM      4  N   UNL d   1      -2.895  -0.130   0.536  0.00  0.00    -0.275 N 
ATOM      5  HN  UNL d   1      -3.377  -0.808   1.127  1.00  0.00     0.188 HD
ATOM      6  C   UNL d   1      -0.898   1.007  -0.387  0.00  0.00     0.089 C 
ATOM      7  N   UNL d   1      -1.552   1.912  -1.056  0.00  0.00    -0.185 N 
ATOM      8  HN  UNL d   1      -1.086   2.654  -1.579  1.00  0.00     0.184 HD
ATOM      9  C   UNL d   1      -4.819   1.403  -0.036  0.00  0.00     0.199 C 
ATOM     10  N   UNL d   1      -3.838   2.396  -1.703  0.00  0.00    -0.128 N 
ATOM     11  HN  UNL d   1      -3.692   2.947  -2.549  1.00  0.00     0.205 HD
ATOM     12  N   UNL d   1      -5.047   2.155  -1.091  0.00  0.00    -0.263 N 
ATOM     13  HN  UNL d   1      -5.957   2.497  -1.400  1.00  0.00     0.189 HD
ATOM     14  C   UNL d   1      -0.801  -1.419   0.370  0.00  0.00     0.005 A 
ATOM     15  C   UNL d   1       0.556   1.117  -0.195  0.00  0.00     0.005 A 
ATOM     16  C   UNL d   1       0.603  -1.348   0.211  0.00  0.00    -0.012 A 
ATOM     17  C   UNL d   1       1.290  -0.041   0.108  0.00  0.00    -0.012 A 
ATOM     18  C   UNL d   1      -1.462  -2.653   0.442  0.00  0.00     0.014 A 
ATOM     19  C   UNL d   1       1.165   2.376  -0.297  0.00  0.00     0.014 A 
ATOM     20  C   UNL d   1       1.301  -2.567   0.094  0.00  0.00     0.013 A 
ATOM     21  C   UNL d   1       2.678   0.121   0.289  0.00  0.00     0.013 A 
ATOM     22  C   UNL d   1      -0.741  -3.839   0.312  0.00  0.00     0.001 A 
ATOM     23  C   UNL d   1       0.636  -3.796   0.132  0.00  0.00     0.001 A 
ATOM     24  C   UNL d   1       2.537   2.503  -0.115  0.00  0.00     0.001 A 
ATOM     25  C   UNL d   1       3.294   1.374   0.171  0.00  0.00     0.001 A 
ENDROOT
BRANCH   9  26
ATOM     26  S   UNL d   1      -5.927   1.133   1.262  0.00  0.00    -0.090 SA
BRANCH  26  27
ATOM     27  C   UNL d   1      -7.535   1.503   0.475  0.00  0.00     0.078 C 
ATOM     28  C   UNL d   1      -8.204   2.789   0.944  0.00  0.00     0.016 C 
ENDBRANCH  26  27
ENDBRANCH   9  26
TORSDOF 2
