REMARK  3 active torsions:
REMARK  status: ('A' for Active; 'I' for Inactive)
REMARK    1  A    between atoms: C_3  and  C_1 
REMARK       I    between atoms: N_4  and  C_3 
REMARK    2  A    between atoms: C_12  and  N_4 
REMARK    3  A    between atoms: C_11  and  C_12 
ROOT
ATOM      1  C   UNL d   1       1.576  -2.820   0.356  0.00  0.00     0.254 C 
ATOM      2  N   UNL d   1       0.431  -3.574   0.442  0.00  0.00    -0.352 N 
ATOM      3  O   UNL d   1       2.697  -3.316   0.430  0.00  0.00    -0.268 OA
ATOM      4  H   UNL d   1      -0.461  -3.094   0.404  0.00  0.00     0.163 HD
ENDROOT
BRANCH   1   5
ATOM      5  C   UNL d   1       1.421  -1.335   0.168  0.00  0.00     0.068 A 
ATOM      6  C   UNL d   1       0.184  -0.663   0.078  0.00  0.00     0.117 A 
ATOM      7  C   UNL d   1       0.164   0.740  -0.069  0.00  0.00     0.103 A 
ATOM      8  O   UNL d   1      -0.965  -1.418   0.161  0.00  0.00    -0.347 OA
ATOM      9  O   UNL d   1      -0.960   1.529  -0.120  0.00  0.00    -0.348 OA
ATOM     10  C   UNL d   1       1.359   1.450  -0.207  0.00  0.00     0.040 A 
ATOM     11  C   UNL d   1      -2.051   1.062   0.673  0.00  0.00     0.178 C 
ATOM     12  C   UNL d   1      -2.874   0.040  -0.091  0.00  0.00     0.053 C 
ATOM     13  C   UNL d   1      -1.988  -1.002  -0.746  0.00  0.00     0.178 C 
ATOM     14  C   UNL d   1       2.581   0.789  -0.143  0.00  0.00     0.004 A 
ATOM     15  C   UNL d   1       2.611  -0.591   0.053  0.00  0.00     0.020 A 
ENDBRANCH   1   5
BRANCH   2  16
ATOM     16  C   UNL d   1       0.429  -4.996   0.702  0.00  0.00     0.162 C 
BRANCH  16  17
ATOM     17  C   UNL d   1      -0.279  -5.761  -0.378  0.00  0.00    -0.025 A 
ATOM     18  C   UNL d   1      -1.376  -6.570  -0.091  0.00  0.00     0.096 A 
ATOM     19  N   UNL d   1      -2.028  -7.324  -1.006  0.00  0.00    -0.375 N 
ATOM     20  C   UNL d   1      -1.560  -7.282  -2.272  0.00  0.00     0.087 A 
ATOM     21  HN  UNL d   1      -2.834  -7.896  -0.752  1.00  0.00     0.164 HD
ATOM     22  C   UNL d   1      -0.479  -6.513  -2.666  0.00  0.00     0.018 A 
ATOM     23  C   UNL d   1       0.168  -5.742  -1.703  0.00  0.00     0.011 A 
ENDBRANCH  16  17
ENDBRANCH   2  16
TORSDOF 3
