REMARK  3 active torsions:
REMARK  status: ('A' for Active; 'I' for Inactive)
REMARK    1  A    between atoms: C_9  and  N_1 
REMARK    2  A    between atoms: C_7  and  N_3 
REMARK    3  A    between atoms: C_15  and  C_9 
ROOT
ATOM      1  N   UNL d   1      -0.366   1.001  -0.085  0.00  0.00    -0.293 N 
ATOM      2  C   UNL d   1       0.918   0.529  -0.036  0.00  0.00     0.150 C 
ATOM      3  N   UNL d   1       1.930   1.312   0.148  0.00  0.00    -0.335 N 
ATOM      4  HN  UNL d   1       1.753   2.301   0.325  1.00  0.00     0.168 HD
ATOM      5  C   UNL d   1      -1.378   0.076  -0.205  0.00  0.00     0.235 C 
ATOM      6  S   UNL d   1       0.936  -1.199  -0.283  0.00  0.00    -0.084 SA
ATOM      7  C   UNL d   1      -0.857  -1.337  -0.217  0.00  0.00     0.185 C 
ATOM      8  O   UNL d   1      -2.572   0.338  -0.289  0.00  0.00    -0.272 OA
ENDROOT
BRANCH   1   9
ATOM      9  C   UNL d   1      -0.674   2.422  -0.122  0.00  0.00     0.174 C 
BRANCH   9  10
ATOM     10  C   UNL d   1      -0.906   3.014   1.240  0.00  0.00    -0.024 A 
ATOM     11  C   UNL d   1      -2.177   3.046   1.805  0.00  0.00     0.096 A 
ATOM     12  N   UNL d   1      -2.454   3.583   3.016  0.00  0.00    -0.375 N 
ATOM     13  C   UNL d   1      -1.416   4.110   3.700  0.00  0.00     0.087 A 
ATOM     14  HN  UNL d   1      -3.401   3.590   3.394  1.00  0.00     0.164 HD
ATOM     15  C   UNL d   1      -0.112   4.118   3.233  0.00  0.00     0.018 A 
ATOM     16  C   UNL d   1       0.144   3.558   1.986  0.00  0.00     0.011 A 
ENDBRANCH   9  10
ENDBRANCH   1   9
BRANCH   3  17
ATOM     17  C   UNL d   1       3.269   0.864   0.116  0.00  0.00     0.057 A 
ATOM     18  C   UNL d   1       4.200   1.472  -0.755  0.00  0.00     0.082 A 
ATOM     19  C   UNL d   1       5.526   1.014  -0.802  0.00  0.00     0.058 A 
ATOM     20 CL   UNL d   1       3.684   2.800  -1.753  0.00  0.00    -0.080 Cl
ATOM     21 CL   UNL d   1       6.718   1.712  -1.842  0.00  0.00    -0.082 Cl
ATOM     22  C   UNL d   1       5.932  -0.045   0.015  0.00  0.00     0.026 A 
ATOM     23  C   UNL d   1       5.036  -0.614   0.914  0.00  0.00     0.004 A 
ATOM     24  C   UNL d   1       3.726  -0.137   0.985  0.00  0.00     0.031 A 
ENDBRANCH   3  17
TORSDOF 3
