REMARK  6 active torsions:
REMARK  status: ('A' for Active; 'I' for Inactive)
REMARK    1  A    between atoms: C_9  and  C_1 
REMARK    2  A    between atoms: N_17  and  C_3 
REMARK    3  A    between atoms: C_12  and  C_6 
REMARK       I    between atoms: N_16  and  C_9 
REMARK    4  A    between atoms: C_21  and  C_10 
REMARK    5  A    between atoms: N_13  and  N_16 
REMARK    6  A    between atoms: C_24  and  C_23 
ROOT
ATOM      1  C   UNL d   1       2.418   0.053   0.024  0.00  0.00     0.174 A 
ATOM      2  C   UNL d   1       0.294   0.850   0.030  0.00  0.00     0.058 A 
ATOM      3  C   UNL d   1       1.666   1.207   0.080  0.00  0.00     0.081 A 
ATOM      4  C   UNL d   1       0.293  -0.547  -0.022  0.00  0.00     0.162 A 
ATOM      5  O   UNL d   1       1.579  -1.031  -0.032  0.00  0.00    -0.285 OA
ATOM      6  C   UNL d   1      -0.961   1.492   0.047  0.00  0.00     0.017 A 
ATOM      7  N   UNL d   1      -0.784  -1.359  -0.059  0.00  0.00    -0.335 N 
ATOM      8  HN  UNL d   1      -0.707  -2.376  -0.091  1.00  0.00     0.168 HD
ATOM      9  C   UNL d   1      -1.977  -0.714  -0.051  0.00  0.00     0.045 A 
ATOM     10  C   UNL d   1      -2.098   0.676   0.018  0.00  0.00     0.045 A 
ENDROOT
BRANCH   1  11
ATOM     11  C   UNL d   1       3.861  -0.083   0.006  0.00  0.00     0.296 C 
ATOM     12  N   UNL d   1       4.359  -1.379  -0.022  0.00  0.00    -0.264 N 
ATOM     13  H   UNL d   1       3.728  -2.172  -0.050  0.00  0.00     0.190 HD
ATOM     14  O   UNL d   1       4.604   0.907   0.003  0.00  0.00    -0.264 OA
BRANCH  12  15
ATOM     15  N   UNL d   1       5.713  -1.541  -0.081  0.00  0.00    -0.308 N 
ATOM     16  C   UNL d   1       6.180  -2.743  -0.138  0.00  0.00     0.118 C 
ATOM     17  HN  UNL d   1       6.338  -0.735  -0.080  1.00  0.00     0.186 HD
BRANCH  16  18
ATOM     18  C   UNL d   1       7.640  -2.970  -0.249  0.00  0.00    -0.019 A 
ATOM     19  C   UNL d   1       8.534  -1.889  -0.239  0.00  0.00     0.016 A 
ATOM     20  C   UNL d   1       9.903  -2.113  -0.405  0.00  0.00     0.043 A 
ATOM     21  C   UNL d   1      10.366  -3.412  -0.578  0.00  0.00     0.116 A 
ATOM     22  C   UNL d   1       9.488  -4.493  -0.575  0.00  0.00     0.043 A 
ATOM     23  F   UNL d   1      11.675  -3.627  -0.760  0.00  0.00    -0.206 F 
ATOM     24  C   UNL d   1       8.118  -4.275  -0.406  0.00  0.00     0.016 A 
ENDBRANCH  16  18
ENDBRANCH  12  15
ENDBRANCH   1  11
BRANCH   3  25
ATOM     25  N   UNL d   1       2.184   2.450   0.166  0.00  0.00    -0.396 N 
ATOM     26  H   UNL d   1       1.612   3.259  -0.069  0.00  0.00     0.156 HD
ATOM     27  H   UNL d   1       3.185   2.598   0.016  0.00  0.00     0.156 HD
ENDBRANCH   3  25
BRANCH   6  28
ATOM     28  C   UNL d   1      -1.093   2.940   0.127  0.00  0.00     0.086 A 
ATOM     29  O   UNL d   1      -0.123   3.694  -0.472  0.00  0.00    -0.322 OA
ATOM     30  C   UNL d   1      -0.429   5.000  -0.263  0.00  0.00     0.142 A 
ATOM     31  C   UNL d   1      -1.609   5.107   0.428  0.00  0.00     0.027 A 
ATOM     32  C   UNL d   1      -2.050   3.782   0.663  0.00  0.00     0.040 A 
ENDBRANCH   6  28
BRANCH   9  33
ATOM     33  C   UNL d   1      -3.187  -1.571  -0.134  0.00  0.00    -0.009 A 
ATOM     34  C   UNL d   1      -3.243  -2.819   0.510  0.00  0.00     0.013 A 
ATOM     35  C   UNL d   1      -4.380  -3.632   0.426  0.00  0.00     0.001 A 
ATOM     36  C   UNL d   1      -5.489  -3.215  -0.306  0.00  0.00     0.000 A 
ATOM     37  C   UNL d   1      -5.465  -1.982  -0.948  0.00  0.00     0.001 A 
ATOM     38  C   UNL d   1      -4.328  -1.171  -0.862  0.00  0.00     0.013 A 
ENDBRANCH   9  33
TORSDOF 6
