REMARK  4 active torsions:
REMARK  status: ('A' for Active; 'I' for Inactive)
REMARK    1  A    between atoms: C_2  and  S_1 
REMARK    2  A    between atoms: C_9  and  S_1 
REMARK    3  A    between atoms: C_3  and  C_5 
REMARK    4  A    between atoms: C_4  and  C_6 
ROOT
ATOM      1  C   UNL d   1       0.451   0.507   1.510  0.00  0.00     0.065 A 
ATOM      2  C   UNL d   1      -0.157  -0.154   3.767  0.00  0.00     0.050 A 
ATOM      3  C   UNL d   1       0.276   2.203   3.240  0.00  0.00     0.050 A 
ATOM      4  C   UNL d   1       0.114  -0.491   2.432  0.00  0.00     0.040 A 
ATOM      5  C   UNL d   1       0.535   1.846   1.907  0.00  0.00     0.040 A 
ATOM      6  C   UNL d   1      -0.080   1.196   4.156  0.00  0.00     0.032 A 
ENDROOT
BRANCH   1   7
ATOM      7  S   UNL d   1       0.968   0.044  -0.134  0.00  0.00     0.206 S 
ATOM      8  O   UNL d   1       1.519  -1.294  -0.037  0.00  0.00    -0.217 OA
ATOM      9  O   UNL d   1       1.784   1.133  -0.643  0.00  0.00    -0.217 OA
BRANCH   7  10
ATOM     10  C   UNL d   1      -0.483  -0.053  -1.158  0.00  0.00     0.064 A 
ATOM     11  C   UNL d   1      -0.869   1.056  -1.918  0.00  0.00     0.025 A 
ATOM     12  C   UNL d   1      -1.951   0.947  -2.795  0.00  0.00     0.020 A 
ATOM     13  C   UNL d   1      -2.630  -0.267  -2.912  0.00  0.00     0.011 A 
ATOM     14  C   UNL d   1      -2.240  -1.375  -2.160  0.00  0.00     0.020 A 
ATOM     15 BR   UNL d   1      -4.077  -0.418  -4.120  0.00  0.00    -0.051 Br
ATOM     16  C   UNL d   1      -1.158  -1.272  -1.282  0.00  0.00     0.025 A 
ENDBRANCH   7  10
ENDBRANCH   1   7
BRANCH   2  17
ATOM     17  C   UNL d   1      -0.484  -1.217   4.794  0.00  0.00     0.417 C 
ATOM     18  F   UNL d   1      -0.480  -2.480   4.286  0.00  0.00    -0.166 F 
ATOM     19  F   UNL d   1       0.399  -1.223   5.829  0.00  0.00    -0.166 F 
ATOM     20  F   UNL d   1      -1.713  -1.038   5.348  0.00  0.00    -0.166 F 
ENDBRANCH   2  17
BRANCH   3  21
ATOM     21  C   UNL d   1       0.421   3.634   3.708  0.00  0.00     0.417 C 
ATOM     22  F   UNL d   1       0.819   4.489   2.727  0.00  0.00    -0.166 F 
ATOM     23  F   UNL d   1      -0.744   4.139   4.198  0.00  0.00    -0.166 F 
ATOM     24  F   UNL d   1       1.335   3.758   4.709  0.00  0.00    -0.166 F 
ENDBRANCH   3  21
TORSDOF 4
