REMARK  5 active torsions:
REMARK  status: ('A' for Active; 'I' for Inactive)
REMARK    1  A    between atoms: C_2  and  S_1 
REMARK    2  A    between atoms: N_7  and  S_1 
REMARK    3  A    between atoms: N_6  and  C_3 
REMARK    4  A    between atoms: C_18  and  N_7 
REMARK    5  A    between atoms: C_8  and  C_18 
ROOT
ATOM      1  C   UNL d   1       0.422   0.391  -1.819  0.00  0.00     0.095 A 
ATOM      2  C   UNL d   1      -0.499   1.214  -4.303  0.00  0.00     0.103 A 
ATOM      3  N   UNL d   1       0.135   2.098  -3.499  0.00  0.00    -0.351 N 
ATOM      4  HN  UNL d   1       0.288   3.060  -3.803  1.00  0.00     0.166 HD
ATOM      5  C   UNL d   1       0.566   1.683  -2.277  0.00  0.00     0.115 A 
ATOM      6  C   UNL d   1      -0.228  -0.526  -2.634  0.00  0.00     0.030 A 
ATOM      7  C   UNL d   1      -0.681  -0.108  -3.888  0.00  0.00     0.050 A 
ENDROOT
BRANCH   1   8
ATOM      8  S   UNL d   1       0.876  -0.026  -0.170  0.00  0.00     0.260 S 
ATOM      9  O   UNL d   1       0.067  -1.160   0.216  0.00  0.00    -0.200 OA
ATOM     10  O   UNL d   1       0.896   1.190   0.612  0.00  0.00    -0.200 OA
BRANCH   8  11
ATOM     11  N   UNL d   1       2.448  -0.587  -0.312  0.00  0.00    -0.311 N 
ATOM     12  H   UNL d   1       2.550  -1.368  -0.960  0.00  0.00     0.172 HD
BRANCH  11  13
ATOM     13  C   UNL d   1       3.520   0.408  -0.345  0.00  0.00     0.171 C 
BRANCH  13  14
ATOM     14  C   UNL d   1       4.829  -0.315  -0.471  0.00  0.00    -0.033 A 
ATOM     15  C   UNL d   1       5.767  -0.083  -1.462  0.00  0.00     0.058 A 
ATOM     16  S   UNL d   1       7.163  -1.060  -1.305  0.00  0.00    -0.113 SA
ATOM     17  C   UNL d   1       6.545  -1.811   0.100  0.00  0.00     0.050 A 
ATOM     18  C   UNL d   1       5.302  -1.324   0.439  0.00  0.00     0.016 A 
ENDBRANCH  13  14
ENDBRANCH  11  13
ENDBRANCH   8  11
ENDBRANCH   1   8
BRANCH   2  19
ATOM     19  N   UNL d   1      -1.067   1.651  -5.487  0.00  0.00    -0.363 N 
ATOM     20  C   UNL d   1      -1.315   3.090  -5.664  0.00  0.00     0.150 C 
ATOM     21  C   UNL d   1      -0.312   3.721  -6.635  0.00  0.00     0.187 C 
ATOM     22  O   UNL d   1      -0.279   3.012  -7.886  0.00  0.00    -0.388 OA
ATOM     23  C   UNL d   1       0.126   1.653  -7.665  0.00  0.00     0.187 C 
ATOM     24  C   UNL d   1      -0.849   0.907  -6.736  0.00  0.00     0.150 C 
ENDBRANCH   2  19
TORSDOF 5
