REMARK  3 active torsions:
REMARK  status: ('A' for Active; 'I' for Inactive)
REMARK    1  A    between atoms: C_13  and  C_3 
REMARK    2  A    between atoms: C_14  and  C_6 
REMARK    3  A    between atoms: C_11  and  C_10 
ROOT
ATOM      1  N   UNL d   1      -0.122   0.288  -0.139  0.00  0.00    -0.254 N 
ATOM      2  C   UNL d   1       0.565   1.458  -0.141  0.00  0.00     0.160 A 
ATOM      3  C   UNL d   1      -1.478   0.610  -0.108  0.00  0.00     0.082 A 
ATOM      4  N   UNL d   1      -0.177   2.517  -0.075  0.00  0.00    -0.333 N 
ATOM      5  HN  UNL d   1       0.118   3.493  -0.060  1.00  0.00     0.168 HD
ATOM      6  C   UNL d   1      -1.460   2.015  -0.031  0.00  0.00     0.073 A 
ATOM      7  C   UNL d   1       0.654  -0.863  -0.184  0.00  0.00     0.271 A 
ATOM      8  C   UNL d   1       2.087  -0.440  -0.160  0.00  0.00     0.078 A 
ATOM      9  S   UNL d   1       2.263   1.299  -0.225  0.00  0.00    -0.048 SA
ATOM     10  C   UNL d   1       3.094  -1.319  -0.047  0.00  0.00     0.043 C 
ATOM     11  O   UNL d   1       0.199  -1.992  -0.211  0.00  0.00    -0.266 OA
ENDROOT
BRANCH   3  12
ATOM     12  C   UNL d   1      -2.590  -0.344  -0.208  0.00  0.00    -0.006 A 
ATOM     13  C   UNL d   1      -2.641  -1.511   0.565  0.00  0.00     0.014 A 
ATOM     14  C   UNL d   1      -3.726  -2.390   0.468  0.00  0.00     0.001 A 
ATOM     15  C   UNL d   1      -4.789  -2.102  -0.384  0.00  0.00     0.000 A 
ATOM     16  C   UNL d   1      -4.761  -0.942  -1.150  0.00  0.00     0.001 A 
ATOM     17  C   UNL d   1      -3.665  -0.078  -1.072  0.00  0.00     0.014 A 
ENDBRANCH   3  12
BRANCH   6  18
ATOM     18  C   UNL d   1      -2.568   2.955   0.067  0.00  0.00    -0.007 A 
ATOM     19  C   UNL d   1      -3.724   2.696   0.809  0.00  0.00     0.014 A 
ATOM     20  C   UNL d   1      -4.721   3.671   0.922  0.00  0.00     0.001 A 
ATOM     21  C   UNL d   1      -4.566   4.916   0.309  0.00  0.00     0.000 A 
ATOM     22  C   UNL d   1      -3.412   5.190  -0.419  0.00  0.00     0.001 A 
ATOM     23  C   UNL d   1      -2.423   4.215  -0.539  0.00  0.00     0.014 A 
ENDBRANCH   6  18
BRANCH  10  24
ATOM     24  C   UNL d   1       4.444  -0.875   0.028  0.00  0.00     0.006 A 
ATOM     25  S   UNL d   1       5.173  -0.582   1.560  0.00  0.00    -0.102 SA
ATOM     26  C   UNL d   1       6.560   0.112   0.842  0.00  0.00     0.050 A 
ATOM     27  C   UNL d   1       6.519   0.045  -0.532  0.00  0.00     0.008 A 
ATOM     28  C   UNL d   1       5.310  -0.549  -1.000  0.00  0.00     0.019 A 
ENDBRANCH  10  24
TORSDOF 3
