REMARK  5 active torsions:
REMARK  status: ('A' for Active; 'I' for Inactive)
REMARK    1  A    between atoms: C_5  and  C_1 
REMARK    2  A    between atoms: C_2  and  C_4 
REMARK    3  A    between atoms: O_8  and  C_2 
REMARK    4  A    between atoms: C_4  and  C_5 
REMARK    5  A    between atoms: C_11  and  O_8 
ROOT
ATOM      1  C   UNL d   1       0.526   5.079  -0.190  0.00  0.00     0.288 C 
ATOM      2  O   UNL d   1       1.426   5.905  -0.253  0.00  0.00    -0.260 OA
ENDROOT
BRANCH   1   3
ATOM      3  C   UNL d   1       0.836   3.641  -0.031  0.00  0.00     0.084 C 
BRANCH   3   4
ATOM      4  C   UNL d   1      -0.056   2.643   0.049  0.00  0.00     0.025 C 
BRANCH   4   5
ATOM      5  C   UNL d   1       0.355   1.280   0.194  0.00  0.00     0.005 A 
ATOM      6  S   UNL d   1      -0.855   0.044   0.212  0.00  0.00    -0.102 SA
ATOM      7  C   UNL d   1       0.297  -1.201   0.409  0.00  0.00     0.050 A 
ATOM      8  C   UNL d   1       1.580  -0.711   0.459  0.00  0.00     0.008 A 
ATOM      9  C   UNL d   1       1.612   0.709   0.333  0.00  0.00     0.019 A 
ENDBRANCH   4   5
ENDBRANCH   3   4
ENDBRANCH   1   3
BRANCH   1  10
ATOM     10  O   UNL d   1      -0.838   5.312  -0.273  0.00  0.00    -0.276 OA
BRANCH  10  11
ATOM     11  C   UNL d   1      -1.435   6.582  -0.482  0.00  0.00     0.079 A 
ATOM     12  C   UNL d   1      -2.803   6.549  -0.771  0.00  0.00     0.039 A 
ATOM     13  C   UNL d   1      -3.498   7.740  -0.998  0.00  0.00     0.026 A 
ATOM     14  C   UNL d   1      -2.825   8.958  -0.930  0.00  0.00     0.034 A 
ATOM     15  C   UNL d   1      -1.463   8.993  -0.633  0.00  0.00     0.026 A 
ATOM     16 CL   UNL d   1      -3.679  10.425  -1.208  0.00  0.00    -0.084 Cl
ATOM     17  C   UNL d   1      -0.764   7.803  -0.403  0.00  0.00     0.039 A 
ENDBRANCH  10  11
ENDBRANCH   1  10
TORSDOF 5
