REMARK  0 active torsions:
REMARK  status: ('A' for Active; 'I' for Inactive)
ROOT
ATOM      1  N   UNL d   1      -0.718   1.206   0.001  0.00  0.00    -0.347 N 
ATOM      2  HN  UNL d   1      -1.226   2.091   0.003  1.00  0.00     0.166 HD
ATOM      3  N   UNL d   1       0.678  -1.247  -0.004  0.00  0.00    -0.347 N 
ATOM      4  HN  UNL d   1       1.181  -2.134  -0.005  1.00  0.00     0.166 HD
ATOM      5  C   UNL d   1      -1.368   0.007  -0.000  0.00  0.00     0.152 A 
ATOM      6  C   UNL d   1      -0.683  -1.196  -0.001  0.00  0.00     0.152 A 
ATOM      7  C   UNL d   1       0.641   1.161  -0.000  0.00  0.00     0.028 A 
ATOM      8  C   UNL d   1       1.333  -0.055  -0.004  0.00  0.00     0.028 A 
ATOM      9  C   UNL d   1      -2.799   0.075  -0.002  0.00  0.00     0.120 C 
ATOM     10  C   UNL d   1      -1.353  -2.463  -0.001  0.00  0.00     0.120 C 
ATOM     11  N   UNL d   1      -3.961   0.105  -0.004  0.00  0.00    -0.190 NA
ATOM     12  N   UNL d   1      -1.916  -3.479   0.000  0.00  0.00    -0.190 NA
ATOM     13  C   UNL d   1       1.369   2.473   0.004  0.00  0.00     0.070 C 
ATOM     14  C   UNL d   1       2.832  -0.100  -0.009  0.00  0.00     0.070 C 
ENDROOT
TORSDOF 0
