REMARK  5 active torsions:
REMARK  status: ('A' for Active; 'I' for Inactive)
REMARK    1  A    between atoms: C_2  and  C_1 
REMARK    2  A    between atoms: C_5  and  C_1 
REMARK       I    between atoms: N_6  and  C_2 
REMARK    3  A    between atoms: C_3  and  C_8 
REMARK    4  A    between atoms: C_7  and  C_4 
REMARK    5  A    between atoms: C_13  and  N_6 
ROOT
ATOM      1  C   UNL d   1      -0.081   1.130  -0.515  0.00  0.00     0.257 C 
ATOM      2  N   UNL d   1       0.485   2.370  -0.787  0.00  0.00    -0.323 N 
ATOM      3  O   UNL d   1      -1.276   0.888  -0.626  0.00  0.00    -0.267 OA
ATOM      4  H   UNL d   1       1.431   2.533  -0.467  0.00  0.00     0.169 HD
ENDROOT
BRANCH   1   5
ATOM      5  C   UNL d   1       0.918   0.084  -0.017  0.00  0.00     0.044 C 
ATOM      6  C   UNL d   1       0.575  -1.129   0.471  0.00  0.00     0.036 C 
BRANCH   6   7
ATOM      7  C   UNL d   1      -0.721  -1.689   0.612  0.00  0.00     0.005 A 
ATOM      8  S   UNL d   1      -1.585  -2.279  -0.754  0.00  0.00    -0.102 SA
ATOM      9  C   UNL d   1      -2.840  -2.910   0.220  0.00  0.00     0.050 A 
ATOM     10  C   UNL d   1      -2.597  -2.721   1.560  0.00  0.00     0.008 A 
ATOM     11  C   UNL d   1      -1.378  -2.019   1.785  0.00  0.00     0.019 A 
ENDBRANCH   6   7
BRANCH   5  12
ATOM     12  C   UNL d   1       2.331   0.360  -0.130  0.00  0.00    -0.013 A 
ATOM     13  C   UNL d   1       3.115   0.770   0.927  0.00  0.00     0.062 A 
ATOM     14  S   UNL d   1       4.760   0.931   0.476  0.00  0.00    -0.113 SA
ATOM     15  C   UNL d   1       4.428   0.441  -1.129  0.00  0.00     0.050 A 
ATOM     16  C   UNL d   1       3.090   0.179  -1.324  0.00  0.00     0.020 A 
ENDBRANCH   5  12
ENDBRANCH   1   5
BRANCH   2  17
ATOM     17  C   UNL d   1      -0.116   3.455  -1.465  0.00  0.00     0.035 A 
ATOM     18  C   UNL d   1      -1.311   3.354  -2.183  0.00  0.00     0.045 A 
ATOM     19  C   UNL d   1      -1.817   4.453  -2.901  0.00  0.00     0.050 A 
ATOM     20  C   UNL d   1      -1.121   5.671  -2.867  0.00  0.00     0.016 A 
ATOM     21  C   UNL d   1       0.065   5.783  -2.146  0.00  0.00     0.003 A 
ATOM     22  C   UNL d   1       0.570   4.676  -1.459  0.00  0.00     0.029 A 
BRANCH  19  23
ATOM     23  C   UNL d   1      -3.076   4.334  -3.724  0.00  0.00     0.417 C 
ATOM     24  F   UNL d   1      -3.646   3.098  -3.697  0.00  0.00    -0.166 F 
ATOM     25  F   UNL d   1      -4.046   5.204  -3.324  0.00  0.00    -0.166 F 
ATOM     26  F   UNL d   1      -2.855   4.609  -5.042  0.00  0.00    -0.166 F 
ENDBRANCH  19  23
ENDBRANCH   2  17
TORSDOF 5
