REMARK  2 active torsions:
REMARK  status: ('A' for Active; 'I' for Inactive)
REMARK    1  A    between atoms: C_7  and  C_3 
REMARK    2  A    between atoms: C_9  and  C_4 
ROOT
ATOM      1  N   UNL d   1       1.200   0.124   0.214  0.00  0.00    -0.319 N 
ATOM      2  HN  UNL d   1       2.171   0.218   0.512  1.00  0.00     0.169 HD
ATOM      3  C   UNL d   1       0.523  -0.977  -0.035  0.00  0.00     0.182 A 
ATOM      4  C   UNL d   1       0.277   1.119  -0.026  0.00  0.00     0.138 A 
ATOM      5  N   UNL d   1      -0.938   0.660  -0.367  0.00  0.00    -0.242 N 
ATOM      6  HN  UNL d   1      -1.781   1.198  -0.567  1.00  0.00     0.196 HD
ATOM      7  O   UNL d   1      -0.776  -0.721  -0.381  0.00  0.00    -0.217 OA
ENDROOT
BRANCH   4   8
ATOM      8  C   UNL d   1       0.627   2.534   0.031  0.00  0.00     0.011 A 
ATOM      9  C   UNL d   1       1.936   2.922   0.353  0.00  0.00     0.039 A 
ATOM     10  C   UNL d   1       2.286   4.272   0.353  0.00  0.00     0.035 A 
ATOM     11 CL   UNL d   1       3.901   4.735   0.730  0.00  0.00    -0.084 Cl
ATOM     12  C   UNL d   1       1.345   5.251   0.041  0.00  0.00     0.024 A 
ATOM     13  C   UNL d   1       0.037   4.877  -0.267  0.00  0.00     0.003 A 
ATOM     14  C   UNL d   1      -0.319   3.526  -0.270  0.00  0.00     0.015 A 
ENDBRANCH   4   8
BRANCH   3  15
ATOM     15  C   UNL d   1       1.114  -2.345   0.023  0.00  0.00     0.024 A 
ATOM     16  C   UNL d   1       0.411  -3.477  -0.328  0.00  0.00     0.065 A 
ATOM     17  S   UNL d   1       1.366  -4.893  -0.183  0.00  0.00    -0.113 SA
ATOM     18  C   UNL d   1       2.718  -3.994   0.358  0.00  0.00     0.050 A 
ATOM     19  C   UNL d   1       2.450  -2.643   0.422  0.00  0.00     0.023 A 
ENDBRANCH   3  15
TORSDOF 2
