REMARK  5 active torsions:
REMARK  status: ('A' for Active; 'I' for Inactive)
REMARK    1  A    between atoms: C_10  and  C_1 
REMARK    2  A    between atoms: O_13  and  C_9 
REMARK    3  A    between atoms: O_16  and  C_10 
REMARK    4  A    between atoms: C_15  and  O_13 
REMARK    5  A    between atoms: C_22  and  O_16 
ROOT
ATOM      1  C   UNL d   1      -2.347  -0.202   0.037  0.00  0.00     0.127 A 
ATOM      2  N   UNL d   1      -0.207  -0.677   0.008  0.00  0.00    -0.247 N 
ATOM      3  N   UNL d   1      -1.664   1.010   0.016  0.00  0.00    -0.335 N 
ATOM      4  HN  UNL d   1      -2.069   1.946   0.024  1.00  0.00     0.168 HD
ATOM      5  C   UNL d   1      -0.387   0.697  -0.016  0.00  0.00     0.127 A 
ATOM      6  C   UNL d   1      -1.446  -1.247   0.048  0.00  0.00     0.154 A 
ATOM      7  N   UNL d   1       0.962  -1.362   0.003  0.00  0.00    -0.272 N 
ATOM      8  HN  UNL d   1       1.028  -2.380   0.031  1.00  0.00     0.189 HD
ATOM      9  C   UNL d   1       1.984  -0.573  -0.043  0.00  0.00     0.163 A 
ATOM     10  C   UNL d   1       0.777   1.498  -0.091  0.00  0.00     0.054 A 
ATOM     11  C   UNL d   1       1.978   0.906  -0.129  0.00  0.00     0.061 A 
ENDROOT
BRANCH   9  12
ATOM     12  O   UNL d   1       3.300  -1.004   0.002  0.00  0.00    -0.293 OA
BRANCH  12  13
ATOM     13  C   UNL d   1       3.593  -2.254   0.586  0.00  0.00     0.077 A 
ATOM     14  C   UNL d   1       4.631  -2.993   0.024  0.00  0.00     0.038 A 
ATOM     15  C   UNL d   1       5.048  -4.173   0.646  0.00  0.00     0.009 A 
ATOM     16  C   UNL d   1       4.438  -4.608   1.833  0.00  0.00    -0.062 A 
ATOM     17  C   UNL d   1       3.387  -3.860   2.375  0.00  0.00     0.009 A 
ATOM     18  C   UNL d   1       4.926  -5.846   2.525  0.00  0.00     0.048 C 
ATOM     19  C   UNL d   1       2.973  -2.678   1.762  0.00  0.00     0.038 A 
ENDBRANCH  12  13
ENDBRANCH   9  12
BRANCH   1  20
ATOM     20  C   UNL d   1      -3.797  -0.339  -0.034  0.00  0.00     0.311 C 
ATOM     21  O   UNL d   1      -4.362  -1.426  -0.098  0.00  0.00    -0.258 OA
BRANCH  20  22
ATOM     22  O   UNL d   1      -4.425   0.867  -0.133  0.00  0.00    -0.317 OA
BRANCH  22  23
ATOM     23  C   UNL d   1      -5.736   0.823  -0.706  0.00  0.00     0.175 C 
ATOM     24  C   UNL d   1      -5.589   0.905  -2.215  0.00  0.00     0.034 C 
ENDBRANCH  22  23
ENDBRANCH  20  22
ENDBRANCH   1  20
TORSDOF 5
