REMARK  1 active torsions:
REMARK  status: ('A' for Active; 'I' for Inactive)
REMARK    1  A    between atoms: C_5  and  C_1 
ROOT
ATOM      1  C   UNL d   1      -2.016  -0.866  -0.038  0.00  0.00     0.087 A 
ATOM      2  N   UNL d   1      -0.941  -1.624   0.033  0.00  0.00    -0.349 N 
ATOM      3  HN  UNL d   1      -0.950  -2.642   0.088  1.00  0.00     0.166 HD
ATOM      4  S   UNL d   1      -1.712   0.829  -0.035  0.00  0.00    -0.069 SA
ATOM      5  C   UNL d   1       0.201  -0.842   0.024  0.00  0.00     0.050 A 
ATOM      6  C   UNL d   1      -0.019   0.535  -0.005  0.00  0.00     0.033 A 
ATOM      7  C   UNL d   1       1.528  -1.316   0.038  0.00  0.00     0.031 A 
ATOM      8  C   UNL d   1       1.041   1.458  -0.012  0.00  0.00     0.021 A 
ATOM      9  C   UNL d   1       2.348   0.962  -0.001  0.00  0.00     0.002 A 
ATOM     10  C   UNL d   1       2.592  -0.408   0.022  0.00  0.00     0.002 A 
ENDROOT
BRANCH   1  11
ATOM     11  C   UNL d   1      -3.384  -1.389  -0.086  0.00  0.00     0.013 A 
ATOM     12  C   UNL d   1      -3.690  -2.592   0.546  0.00  0.00     0.101 A 
ATOM     13  N   UNL d   1      -4.918  -3.173   0.548  0.00  0.00    -0.374 N 
ATOM     14  C   UNL d   1      -5.891  -2.531  -0.132  0.00  0.00     0.087 A 
ATOM     15  HN  UNL d   1      -5.095  -4.050   1.038  1.00  0.00     0.164 HD
ATOM     16  C   UNL d   1      -5.696  -1.338  -0.804  0.00  0.00     0.018 A 
ATOM     17  C   UNL d   1      -4.426  -0.761  -0.779  0.00  0.00     0.017 A 
ENDBRANCH   1  11
TORSDOF 1
