REMARK  1 active torsions:
REMARK  status: ('A' for Active; 'I' for Inactive)
REMARK    1  A    between atoms: C_2  and  N_1 
REMARK       I    between atoms: C_4  and  N_1 
ROOT
ATOM      1  C   UNL d   1       0.230  -1.382   0.203  0.00  0.00     0.056 A 
ATOM      2  C   UNL d   1       0.675  -2.610   0.734  0.00  0.00     0.062 A 
ATOM      3  C   UNL d   1      -0.040  -3.790   0.522  0.00  0.00     0.050 A 
ATOM      4  C   UNL d   1      -0.910  -1.382  -0.605  0.00  0.00     0.033 A 
ATOM      5  C   UNL d   1      -1.193  -3.759  -0.255  0.00  0.00     0.035 A 
ATOM      6 CL   UNL d   1       2.106  -2.695   1.706  0.00  0.00    -0.082 Cl
ATOM      7  C   UNL d   1      -1.622  -2.565  -0.830  0.00  0.00     0.026 A 
ATOM      8 CL   UNL d   1      -2.086  -5.204  -0.521  0.00  0.00    -0.084 Cl
ENDROOT
BRANCH   1   9
ATOM      9  N   UNL d   1       0.990  -0.221   0.459  0.00  0.00    -0.326 N 
ATOM     10  C   UNL d   1       0.679   1.107   0.438  0.00  0.00     0.218 C 
ATOM     11  O   UNL d   1       1.589   1.932   0.539  0.00  0.00    -0.274 OA
ATOM     12  C   UNL d   1      -0.754   1.557   0.371  0.00  0.00     0.117 C 
ATOM     13  H   UNL d   1       1.946  -0.381   0.768  0.00  0.00     0.169 HD
ENDBRANCH   1   9
TORSDOF 1
