REMARK  5 active torsions:
REMARK  status: ('A' for Active; 'I' for Inactive)
REMARK    1  A    between atoms: N_8  and  C_1 
REMARK    2  A    between atoms: C_11  and  C_2 
REMARK       I    between atoms: C_7  and  N_8 
REMARK       I    between atoms: N_9  and  C_7 
REMARK    3  A    between atoms: C_14  and  N_9 
REMARK    4  A    between atoms: C_10  and  O_13 
REMARK    5  A    between atoms: O_13  and  C_15 
ROOT
ATOM      1  C   UNL d   1       1.735  -2.531   0.124  0.00  0.00     0.325 C 
ATOM      2  N   UNL d   1       0.478  -2.308  -0.331  0.00  0.00    -0.304 N 
ATOM      3  N   UNL d   1       2.056  -3.780   0.565  0.00  0.00    -0.309 N 
ATOM      4  O   UNL d   1       2.617  -1.670   0.163  0.00  0.00    -0.247 OA
ATOM      5  H   UNL d   1       0.120  -3.026  -0.938  0.00  0.00     0.171 HD
ATOM      6  H   UNL d   1       3.021  -3.771   0.884  0.00  0.00     0.170 HD
ENDROOT
BRANCH   2   7
ATOM      7  C   UNL d   1      -0.096  -1.049  -0.502  0.00  0.00     0.097 A 
ATOM      8  C   UNL d   1      -1.062  -0.698  -1.498  0.00  0.00     0.094 A 
ATOM      9  N   UNL d   1      -1.514   0.549  -1.303  0.00  0.00    -0.258 N 
ATOM     10  O   UNL d   1      -0.775   1.059  -0.257  0.00  0.00    -0.240 OA
ATOM     11  HN  UNL d   1      -2.253   1.023  -1.823  1.00  0.00     0.195 HD
ATOM     12  C   UNL d   1       0.094   0.117   0.206  0.00  0.00     0.101 A 
ATOM     13  C   UNL d   1       0.955   0.571   1.315  0.00  0.00     0.081 C 
BRANCH   8  14
ATOM     14  C   UNL d   1      -1.468  -1.482  -2.661  0.00  0.00    -0.005 A 
ATOM     15  C   UNL d   1      -2.802  -1.542  -3.073  0.00  0.00     0.014 A 
ATOM     16  C   UNL d   1      -3.146  -2.262  -4.221  0.00  0.00     0.001 A 
ATOM     17  C   UNL d   1      -2.162  -2.919  -4.959  0.00  0.00     0.000 A 
ATOM     18  C   UNL d   1      -0.831  -2.862  -4.558  0.00  0.00     0.001 A 
ATOM     19  C   UNL d   1      -0.484  -2.140  -3.417  0.00  0.00     0.014 A 
ENDBRANCH   8  14
ENDBRANCH   2   7
BRANCH   3  20
ATOM     20  C   UNL d   1       1.292  -4.888   0.983  0.00  0.00     0.036 A 
ATOM     21  C   UNL d   1      -0.024  -5.176   0.619  0.00  0.00     0.032 A 
ATOM     22  C   UNL d   1      -0.712  -6.257   1.199  0.00  0.00     0.039 A 
ATOM     23  C   UNL d   1      -0.101  -7.045   2.171  0.00  0.00     0.075 A 
ATOM     24  C   UNL d   1       1.233  -6.807   2.488  0.00  0.00     0.039 A 
ATOM     25  C   UNL d   1       1.926  -5.751   1.889  0.00  0.00     0.032 A 
BRANCH  23  26
ATOM     26  O   UNL d   1      -0.685  -8.068   2.861  0.00  0.00    -0.290 OA
BRANCH  26  27
ATOM     27  C   UNL d   1      -2.102  -8.100   2.853  0.00  0.00     0.505 C 
ATOM     28  F   UNL d   1      -2.518  -8.660   1.691  0.00  0.00    -0.184 F 
ATOM     29  F   UNL d   1      -2.496  -8.931   3.851  0.00  0.00    -0.184 F 
ENDBRANCH  26  27
ENDBRANCH  23  26
ENDBRANCH   3  20
TORSDOF 5
