REMARK  3 active torsions:
REMARK  status: ('A' for Active; 'I' for Inactive)
REMARK    1  A    between atoms: N_4  and  C_1 
REMARK       I    between atoms: C_6  and  N_4 
REMARK    2  A    between atoms: C_9  and  C_5 
REMARK    3  A    between atoms: C_14  and  C_6 
ROOT
ATOM      1  C   UNL d   1       0.387  -1.266  -0.010  0.00  0.00     0.151 A 
ATOM      2  N   UNL d   1       1.517  -0.609  -0.006  0.00  0.00    -0.335 N 
ATOM      3  HN  UNL d   1       2.441  -1.041   0.015  1.00  0.00     0.168 HD
ATOM      4  C   UNL d   1       1.284   0.752  -0.034  0.00  0.00     0.051 A 
ATOM      5  S   UNL d   1      -1.029  -0.320  -0.070  0.00  0.00    -0.063 SA
ATOM      6  C   UNL d   1      -0.055   1.101  -0.028  0.00  0.00     0.083 A 
ENDROOT
BRANCH   1   7
ATOM      7  N   UNL d   1       0.190  -2.620   0.026  0.00  0.00    -0.303 N 
ATOM      8  C   UNL d   1       1.241  -3.470   0.289  0.00  0.00     0.257 C 
ATOM      9  O   UNL d   1       2.388  -3.140   0.571  0.00  0.00    -0.267 OA
ATOM     10  H   UNL d   1      -0.761  -2.950  -0.035  0.00  0.00     0.171 HD
BRANCH   8  11
ATOM     11  C   UNL d   1       0.940  -4.927   0.275  0.00  0.00     0.032 A 
ATOM     12  C   UNL d   1      -0.023  -5.496  -0.566  0.00  0.00     0.017 A 
ATOM     13  C   UNL d   1      -0.183  -6.886  -0.593  0.00  0.00     0.001 A 
ATOM     14  C   UNL d   1       0.610  -7.704   0.214  0.00  0.00     0.000 A 
ATOM     15  C   UNL d   1       1.562  -7.140   1.060  0.00  0.00     0.001 A 
ATOM     16  C   UNL d   1       1.726  -5.756   1.089  0.00  0.00     0.017 A 
ENDBRANCH   8  11
ENDBRANCH   1   7
BRANCH   4  17
ATOM     17  C   UNL d   1       2.403   1.688  -0.053  0.00  0.00    -0.006 A 
ATOM     18  C   UNL d   1       2.275   2.987  -0.564  0.00  0.00     0.059 A 
ATOM     19  C   UNL d   1       3.381   3.833  -0.594  0.00  0.00     0.155 A 
ATOM     20  F   UNL d   1       3.242   5.068  -1.095  0.00  0.00    -0.203 F 
ATOM     21  C   UNL d   1       4.618   3.407  -0.122  0.00  0.00     0.154 A 
ATOM     22  C   UNL d   1       4.765   2.124   0.385  0.00  0.00     0.046 A 
ATOM     23  F   UNL d   1       5.673   4.230  -0.159  0.00  0.00    -0.203 F 
ATOM     24  C   UNL d   1       3.662   1.266   0.415  0.00  0.00     0.017 A 
ENDBRANCH   4  17
TORSDOF 3
