REMARK  4 active torsions:
REMARK  status: ('A' for Active; 'I' for Inactive)
REMARK    1  A    between atoms: C_5  and  N_1 
REMARK    2  A    between atoms: C_2  and  C_7 
REMARK    3  A    between atoms: C_9  and  C_2 
REMARK    4  A    between atoms: C_10  and  C_2 
ROOT
ATOM      1  C   UNL d   1      -2.272   3.624   2.906  0.00  0.00     0.130 C 
ATOM      2  C   UNL d   1      -3.617   3.765   2.225  0.00  0.00     0.084 C 
ATOM      3  N   UNL d   1      -4.651   3.852   1.704  0.00  0.00    -0.195 NA
ENDROOT
BRANCH   1   4
ATOM      4  C   UNL d   1      -1.386   2.572   2.140  0.00  0.00    -0.026 A 
ATOM      5  C   UNL d   1      -1.828   1.938   0.957  0.00  0.00     0.012 A 
ATOM      6  C   UNL d   1      -1.013   1.043   0.250  0.00  0.00     0.037 A 
ATOM      7  C   UNL d   1       0.275   0.768   0.711  0.00  0.00     0.102 A 
ATOM      8  C   UNL d   1       0.741   1.361   1.887  0.00  0.00     0.037 A 
ATOM      9  C   UNL d   1      -0.089   2.239   2.598  0.00  0.00     0.012 A 
BRANCH   7  10
ATOM     10  N   UNL d   1       1.141  -0.139  -0.052  0.00  0.00    -0.116 N 
ATOM     11  O   UNL d   1       2.295  -0.319   0.364  0.00  0.00    -0.532 OA
ATOM     12  O   UNL d   1       0.672  -0.667  -1.069  0.00  0.00    -0.532 OA
ENDBRANCH   7  10
ENDBRANCH   1   4
BRANCH   1  13
ATOM     13  C   UNL d   1      -2.494   3.135   4.383  0.00  0.00    -0.026 A 
ATOM     14  C   UNL d   1      -1.611   3.517   5.418  0.00  0.00     0.009 A 
ATOM     15  C   UNL d   1      -1.863   3.182   6.750  0.00  0.00     0.001 A 
ATOM     16  C   UNL d   1      -2.992   2.442   7.080  0.00  0.00     0.000 A 
ATOM     17  C   UNL d   1      -3.848   2.002   6.074  0.00  0.00     0.001 A 
ATOM     18  C   UNL d   1      -3.595   2.328   4.738  0.00  0.00     0.009 A 
ENDBRANCH   1  13
BRANCH   1  19
ATOM     19  C   UNL d   1      -1.675   5.078   2.903  0.00  0.00    -0.026 A 
ATOM     20  C   UNL d   1      -0.461   5.425   2.285  0.00  0.00     0.009 A 
ATOM     21  C   UNL d   1       0.053   6.723   2.382  0.00  0.00     0.001 A 
ATOM     22  C   UNL d   1      -0.648   7.711   3.067  0.00  0.00     0.000 A 
ATOM     23  C   UNL d   1      -1.872   7.409   3.651  0.00  0.00     0.001 A 
ATOM     24  C   UNL d   1      -2.379   6.111   3.572  0.00  0.00     0.009 A 
ENDBRANCH   1  19
TORSDOF 4
