REMARK  1 active torsions:
REMARK  status: ('A' for Active; 'I' for Inactive)
REMARK       I    between atoms: C_4  and  N_1 
REMARK       I    between atoms: N_6  and  C_3 
REMARK       I    between atoms: N_14  and  C_3 
REMARK       I    between atoms: N_15  and  C_4 
REMARK    1  A    between atoms: C_5  and  N_6 
ROOT
ATOM      1  N   UNL d   1       0.889   0.153   0.151  0.00  0.00    -0.310 N 
ATOM      2  HN  UNL d   1       1.901   0.222   0.037  1.00  0.00     0.171 HD
ATOM      3  C   UNL d   1       0.385  -0.912   0.684  0.00  0.00     0.157 C 
ATOM      4  C   UNL d   1       0.110   1.174  -0.257  0.00  0.00     0.150 C 
ATOM      5  N   UNL d   1       1.118  -1.960   1.186  0.00  0.00    -0.333 N 
ATOM      6  N   UNL d   1       0.553   2.348   0.014  0.00  0.00    -0.376 N 
ATOM      7  HN  UNL d   1       0.130   3.247  -0.217  1.00  0.00     0.158 HD
ATOM      8  N   UNL d   1      -0.942  -1.166   0.889  0.00  0.00    -0.274 NA
ATOM      9  N   UNL d   1      -1.030   1.035  -0.970  0.00  0.00    -0.274 NA
ATOM     10  H   UNL d   1       0.636  -2.438   1.938  0.00  0.00     0.168 HD
ATOM     11  H   UNL d   1       1.432   2.172   0.518  0.00  0.00     0.158 HD
ATOM     12  H   UNL d   1      -1.539  -0.463   0.448  0.00  0.00     0.127 HD
ATOM     13  H   UNL d   1      -1.226  -2.097   0.608  0.00  0.00     0.127 HD
ATOM     14  H   UNL d   1      -0.905   0.370  -1.722  0.00  0.00     0.127 HD
ATOM     15  H   UNL d   1      -1.278   1.949  -1.339  0.00  0.00     0.127 HD
ENDROOT
BRANCH   5  16
ATOM     16  C   UNL d   1       2.525  -2.012   1.302  0.00  0.00     0.037 A 
ATOM     17  C   UNL d   1       3.096  -2.711   2.377  0.00  0.00     0.053 A 
ATOM     18  C   UNL d   1       4.484  -2.767   2.535  0.00  0.00     0.037 A 
ATOM     19 CL   UNL d   1       5.152  -3.607   3.881  0.00  0.00    -0.084 Cl
ATOM     20  C   UNL d   1       5.330  -2.148   1.623  0.00  0.00     0.048 A 
ATOM     21  C   UNL d   1       4.774  -1.478   0.540  0.00  0.00     0.037 A 
ATOM     22  C   UNL d   1       3.388  -1.416   0.374  0.00  0.00     0.053 A 
ATOM     23 CL   UNL d   1       5.804  -0.717  -0.611  0.00  0.00    -0.084 Cl
ENDBRANCH   5  16
TORSDOF 1
