REMARK  5 active torsions:
REMARK  status: ('A' for Active; 'I' for Inactive)
REMARK    1  A    between atoms: N_7  and  C_1 
REMARK    2  A    between atoms: N_10  and  C_1 
REMARK    3  A    between atoms: C_2  and  N_8 
REMARK    4  A    between atoms: C_3  and  C_4 
REMARK    5  A    between atoms: C_18  and  N_10 
ROOT
ATOM      1  N   UNL d   1       0.280   0.049  -1.374  0.00  0.00    -0.355 N 
ATOM      2  N   UNL d   1      -0.438   0.749  -4.011  0.00  0.00    -0.363 N 
ATOM      3  C   UNL d   1       0.757  -0.751  -2.519  0.00  0.00     0.145 C 
ATOM      4  C   UNL d   1      -0.909   0.896  -1.626  0.00  0.00     0.145 C 
ATOM      5  C   UNL d   1       0.853   0.081  -3.805  0.00  0.00     0.144 C 
ATOM      6  C   UNL d   1      -0.784   1.695  -2.945  0.00  0.00     0.144 C 
ENDROOT
BRANCH   2   7
ATOM      7  C   UNL d   1      -1.088   0.787  -5.219  0.00  0.00     0.125 A 
ATOM      8  N   UNL d   1      -1.570   1.994  -5.616  0.00  0.00    -0.350 N 
ATOM      9  C   UNL d   1      -2.248   2.085  -6.785  0.00  0.00     0.106 A 
ATOM     10  HN  UNL d   1      -1.422   2.822  -5.039  1.00  0.00     0.166 HD
ATOM     11  C   UNL d   1      -2.500   1.013  -7.622  0.00  0.00     0.065 A 
ATOM     12  C   UNL d   1      -2.029  -0.232  -7.213  0.00  0.00     0.045 A 
ATOM     13  C   UNL d   1      -1.329  -0.354  -6.008  0.00  0.00     0.078 A 
ATOM     14 CL   UNL d   1      -0.938  -1.970  -5.521  0.00  0.00    -0.080 Cl
BRANCH  11  15
ATOM     15  C   UNL d   1      -3.271   1.205  -8.887  0.00  0.00     0.418 C 
ATOM     16  F   UNL d   1      -3.427   0.060  -9.605  0.00  0.00    -0.166 F 
ATOM     17  F   UNL d   1      -4.527   1.680  -8.665  0.00  0.00    -0.166 F 
ATOM     18  F   UNL d   1      -2.677   2.095  -9.729  0.00  0.00    -0.166 F 
ENDBRANCH  11  15
ENDBRANCH   2   7
BRANCH   1  19
ATOM     19  C   UNL d   1       0.834  -0.053  -0.120  0.00  0.00     0.174 C 
ATOM     20  S   UNL d   1       2.461   0.203   0.176  0.00  0.00    -0.041 SA
BRANCH  19  21
ATOM     21  N   UNL d   1      -0.017  -0.222   0.939  0.00  0.00    -0.333 N 
ATOM     22  H   UNL d   1       0.341   0.092   1.834  0.00  0.00     0.168 HD
BRANCH  21  23
ATOM     23  C   UNL d   1      -1.202  -0.986   0.967  0.00  0.00     0.035 A 
ATOM     24  C   UNL d   1      -1.448  -2.022   0.060  0.00  0.00     0.053 A 
ATOM     25  C   UNL d   1      -2.653  -2.724   0.101  0.00  0.00     0.036 A 
ATOM     26 CL   UNL d   1      -2.946  -3.981  -1.035  0.00  0.00    -0.084 Cl
ATOM     27  C   UNL d   1      -3.613  -2.410   1.058  0.00  0.00     0.024 A 
ATOM     28  C   UNL d   1      -3.353  -1.417   1.998  0.00  0.00     0.004 A 
ATOM     29  C   UNL d   1      -2.139  -0.719   1.969  0.00  0.00     0.029 A 
ENDBRANCH  21  23
ENDBRANCH  19  21
ENDBRANCH   1  19
TORSDOF 5
