REMARK  1 active torsions:
REMARK  status: ('A' for Active; 'I' for Inactive)
REMARK    1  A    between atoms: C_3  and  C_6 
ROOT
ATOM      1  C   UNL d   1       0.292   0.730  -0.008  0.00  0.00     0.029 A 
ATOM      2  C   UNL d   1       0.254  -0.672  -0.006  0.00  0.00     0.019 A 
ATOM      3  C   UNL d   1      -0.969   1.385  -0.010  0.00  0.00     0.048 A 
ATOM      4  S   UNL d   1       1.829  -1.368  -0.001  0.00  0.00    -0.099 SA
ATOM      5  C   UNL d   1      -2.186  -0.705  -0.006  0.00  0.00     0.050 A 
ATOM      6  C   UNL d   1       1.665   1.183  -0.007  0.00  0.00     0.045 A 
ATOM      7  C   UNL d   1       2.578   0.158  -0.002  0.00  0.00     0.080 A 
ATOM      8  C   UNL d   1      -0.962  -1.390  -0.005  0.00  0.00     0.036 A 
ATOM      9  C   UNL d   1      -2.182   0.689  -0.010  0.00  0.00     0.041 A 
ATOM     10 CL   UNL d   1      -0.977   3.100  -0.005  0.00  0.00    -0.083 Cl
ATOM     11  N   UNL d   1       2.056   2.472  -0.009  0.00  0.00    -0.398 N 
ATOM     12  H   UNL d   1       1.385   3.237  -0.004  0.00  0.00     0.156 HD
ATOM     13  H   UNL d   1       3.027   2.765   0.002  0.00  0.00     0.156 HD
ENDROOT
BRANCH   5  14
ATOM     14  C   UNL d   1      -3.485  -1.473   0.002  0.00  0.00     0.417 C 
ATOM     15  F   UNL d   1      -3.316  -2.824   0.003  0.00  0.00    -0.166 F 
ATOM     16  F   UNL d   1      -4.248  -1.192   1.094  0.00  0.00    -0.166 F 
ATOM     17  F   UNL d   1      -4.261  -1.196  -1.081  0.00  0.00    -0.166 F 
ENDBRANCH   5  14
TORSDOF 1
