REMARK  6 active torsions:
REMARK  status: ('A' for Active; 'I' for Inactive)
REMARK    1  A    between atoms: C_8  and  N_1 
REMARK    2  A    between atoms: S_11  and  C_2 
REMARK    3  A    between atoms: O_21  and  C_3 
REMARK    4  A    between atoms: C_20  and  S_11 
REMARK    5  A    between atoms: C_12  and  C_20 
REMARK       I    between atoms: N_14  and  C_12 
REMARK    6  A    between atoms: C_22  and  N_14 
ROOT
ATOM      1  N   UNL d   1      -0.318  -1.441  -0.216  0.00  0.00    -0.255 N 
ATOM      2  C   UNL d   1       0.911  -0.898  -0.564  0.00  0.00     0.169 A 
ATOM      3  C   UNL d   1      -1.100  -0.327   0.044  0.00  0.00     0.245 A 
ATOM      4  N   UNL d   1       0.879   0.411  -0.452  0.00  0.00    -0.276 N 
ATOM      5  HN  UNL d   1       1.661   1.046  -0.612  1.00  0.00     0.189 HD
ATOM      6  N   UNL d   1      -0.391   0.771  -0.081  0.00  0.00    -0.263 N 
ATOM      7  HN  UNL d   1      -0.726   1.722   0.071  1.00  0.00     0.190 HD
ENDROOT
BRANCH   2   8
ATOM      8  S   UNL d   1       2.220  -1.783  -1.298  0.00  0.00    -0.083 SA
BRANCH   8   9
ATOM      9  C   UNL d   1       3.528  -0.532  -1.260  0.00  0.00     0.185 C 
BRANCH   9  10
ATOM     10  C   UNL d   1       4.854  -0.980  -1.865  0.00  0.00     0.231 C 
ATOM     11  N   UNL d   1       4.832  -2.150  -2.603  0.00  0.00    -0.327 N 
ATOM     12  H   UNL d   1       3.933  -2.615  -2.672  0.00  0.00     0.169 HD
ATOM     13  O   UNL d   1       5.842  -0.261  -1.705  0.00  0.00    -0.272 OA
BRANCH  11  14
ATOM     14  C   UNL d   1       5.899  -2.730  -3.324  0.00  0.00     0.034 A 
ATOM     15  C   UNL d   1       7.210  -2.249  -3.295  0.00  0.00     0.029 A 
ATOM     16  C   UNL d   1       8.207  -2.840  -4.077  0.00  0.00     0.002 A 
ATOM     17  C   UNL d   1       7.904  -3.924  -4.894  0.00  0.00     0.000 A 
ATOM     18  C   UNL d   1       6.608  -4.431  -4.915  0.00  0.00     0.002 A 
ATOM     19  C   UNL d   1       5.612  -3.841  -4.129  0.00  0.00     0.029 A 
ENDBRANCH  11  14
ENDBRANCH   9  10
ENDBRANCH   8   9
ENDBRANCH   2   8
BRANCH   1  20
ATOM     20  C   UNL d   1      -0.704  -2.807  -0.179  0.00  0.00     0.048 A 
ATOM     21  C   UNL d   1       0.207  -3.774   0.263  0.00  0.00     0.069 A 
ATOM     22  C   UNL d   1      -0.106  -5.125   0.154  0.00  0.00     0.104 A 
ATOM     23  O   UNL d   1       0.880  -6.008   0.512  0.00  0.00    -0.346 OA
ATOM     24  C   UNL d   1      -1.355  -5.523  -0.322  0.00  0.00     0.102 A 
ATOM     25  C   UNL d   1       0.653  -7.282  -0.102  0.00  0.00     0.202 C 
ATOM     26  C   UNL d   1      -0.778  -7.730   0.143  0.00  0.00     0.202 C 
ATOM     27  O   UNL d   1      -1.718  -6.836  -0.469  0.00  0.00    -0.346 OA
ATOM     28  C   UNL d   1      -2.288  -4.562  -0.710  0.00  0.00     0.042 A 
ATOM     29  C   UNL d   1      -1.968  -3.201  -0.643  0.00  0.00     0.033 A 
ENDBRANCH   1  20
BRANCH   3  30
ATOM     30  O   UNL d   1      -2.361  -0.313   0.463  0.00  0.00    -0.331 OA
ATOM     31  H   UNL d   1      -2.581  -1.185   0.828  0.00  0.00     0.221 HD
ENDBRANCH   3  30
TORSDOF 6
