REMARK  8 active torsions:
REMARK  status: ('A' for Active; 'I' for Inactive)
REMARK    1  A    between atoms: C_3  and  C_1 
REMARK    2  A    between atoms: C_4  and  C_1 
REMARK    3  A    between atoms: N_5  and  C_2 
REMARK    4  A    between atoms: O_13  and  C_3 
REMARK    5  A    between atoms: O_12  and  C_4 
REMARK    6  A    between atoms: C_6  and  N_5 
REMARK    7  A    between atoms: C_18  and  O_12 
REMARK    8  A    between atoms: C_17  and  O_13 
ROOT
ATOM      1  C   UNL d   1       1.076  -0.010  -0.054  0.00  0.00     0.129 C 
ATOM      2  C   UNL d   1       0.428   1.142  -0.328  0.00  0.00     0.112 C 
ENDROOT
BRANCH   1   3
ATOM      3  C   UNL d   1       0.350  -1.284   0.106  0.00  0.00     0.300 C 
ATOM      4  O   UNL d   1       0.806  -2.269   0.673  0.00  0.00    -0.259 OA
BRANCH   3   5
ATOM      5  O   UNL d   1      -0.851  -1.251  -0.539  0.00  0.00    -0.318 OA
BRANCH   5   6
ATOM      6  C   UNL d   1      -1.447  -2.531  -0.805  0.00  0.00     0.174 C 
ATOM      7  C   UNL d   1      -1.002  -2.968  -2.189  0.00  0.00     0.034 C 
ENDBRANCH   5   6
ENDBRANCH   3   5
ENDBRANCH   1   3
BRANCH   1   8
ATOM      8  C   UNL d   1       2.558   0.017   0.007  0.00  0.00     0.300 C 
ATOM      9  O   UNL d   1       3.242   0.981   0.333  0.00  0.00    -0.259 OA
BRANCH   8  10
ATOM     10  O   UNL d   1       3.040  -1.150  -0.486  0.00  0.00    -0.318 OA
BRANCH  10  11
ATOM     11  C   UNL d   1       4.383  -1.115  -0.979  0.00  0.00     0.174 C 
ATOM     12  C   UNL d   1       4.284  -0.942  -2.481  0.00  0.00     0.034 C 
ENDBRANCH  10  11
ENDBRANCH   8  10
ENDBRANCH   1   8
BRANCH   2  13
ATOM     13  N   UNL d   1       0.979   2.383  -0.556  0.00  0.00    -0.364 N 
ATOM     14  H   UNL d   1       0.868   3.039   0.209  0.00  0.00     0.165 HD
BRANCH  13  15
ATOM     15  C   UNL d   1       1.242   2.976  -1.813  0.00  0.00     0.038 A 
ATOM     16  C   UNL d   1       1.842   4.251  -1.899  0.00  0.00    -0.035 A 
ATOM     17  C   UNL d   1       2.124   4.804  -3.163  0.00  0.00     0.009 A 
ATOM     18  C   UNL d   1       2.216   5.090  -0.705  0.00  0.00     0.050 C 
ATOM     19  C   UNL d   1       1.872   4.093  -4.334  0.00  0.00     0.007 A 
ATOM     20  C   UNL d   1       1.341   2.806  -4.266  0.00  0.00    -0.060 A 
ATOM     21  C   UNL d   1       1.037   2.260  -3.009  0.00  0.00     0.036 A 
ATOM     22  C   UNL d   1       1.097   2.032  -5.526  0.00  0.00     0.048 C 
ENDBRANCH  13  15
ENDBRANCH   2  13
TORSDOF 8
