REMARK  2 active torsions:
REMARK  status: ('A' for Active; 'I' for Inactive)
REMARK    1  A    between atoms: C_6  and  N_1 
REMARK    2  A    between atoms: C_9  and  C_6 
ROOT
ATOM      1  N   UNL d   1      -0.150   0.827  -0.060  0.00  0.00    -0.277 N 
ATOM      2  C   UNL d   1       0.004   0.042   1.033  0.00  0.00     0.250 A 
ATOM      3  C   UNL d   1      -0.369   0.070  -1.161  0.00  0.00     0.250 A 
ATOM      4  C   UNL d   1      -0.130  -1.348   0.586  0.00  0.00     0.080 A 
ATOM      5  C   UNL d   1      -0.359  -1.332  -0.729  0.00  0.00     0.080 A 
ATOM      6  O   UNL d   1       0.234   0.363   2.185  0.00  0.00    -0.268 OA
ATOM      7  O   UNL d   1      -0.528   0.418  -2.317  0.00  0.00    -0.268 OA
ENDROOT
BRANCH   1   8
ATOM      8  C   UNL d   1      -0.068   2.270  -0.058  0.00  0.00     0.174 C 
BRANCH   8   9
ATOM      9  C   UNL d   1      -1.429   2.914   0.048  0.00  0.00    -0.040 A 
ATOM     10  C   UNL d   1      -1.972   3.236   1.300  0.00  0.00     0.009 A 
ATOM     11  C   UNL d   1      -3.240   3.812   1.393  0.00  0.00     0.001 A 
ATOM     12  C   UNL d   1      -3.981   4.064   0.239  0.00  0.00     0.000 A 
ATOM     13  C   UNL d   1      -3.454   3.741  -1.010  0.00  0.00     0.001 A 
ATOM     14  C   UNL d   1      -2.186   3.167  -1.106  0.00  0.00     0.009 A 
ENDBRANCH   8   9
ENDBRANCH   1   8
TORSDOF 2
