REMARK  2 active torsions:
REMARK  status: ('A' for Active; 'I' for Inactive)
REMARK    1  A    between atoms: C_9  and  C_3 
REMARK    2  A    between atoms: C_10  and  C_6 
ROOT
ATOM      1  N   UNL d   1      -1.185  -0.037   0.078  0.00  0.00    -0.338 N 
ATOM      2  HN  UNL d   1      -2.204  -0.012   0.122  1.00  0.00     0.167 HD
ATOM      3  C   UNL d   1      -0.378  -1.159   0.008  0.00  0.00     0.072 A 
ATOM      4  C   UNL d   1      -0.364   0.989   0.077  0.00  0.00     0.141 A 
ATOM      5  N   UNL d   1       0.937   0.573   0.047  0.00  0.00    -0.338 N 
ATOM      6  C   UNL d   1       0.971  -0.806   0.011  0.00  0.00     0.072 A 
ATOM      7  C   UNL d   1      -0.736   2.366   0.102  0.00  0.00     0.118 A 
ATOM      8  O   UNL d   1       0.181   3.388   0.037  0.00  0.00    -0.319 OA
ATOM      9  C   UNL d   1      -2.003   2.916   0.185  0.00  0.00     0.043 A 
ATOM     10  C   UNL d   1      -0.505   4.558   0.071  0.00  0.00     0.142 A 
ATOM     11  C   UNL d   1      -1.855   4.323   0.165  0.00  0.00     0.027 A 
ATOM     12  H   UNL d   1       1.735   1.192   0.075  0.00  0.00     0.167 HD
ENDROOT
BRANCH   3  13
ATOM     13  C   UNL d   1      -0.941  -2.500  -0.012  0.00  0.00    -0.007 A 
ATOM     14  C   UNL d   1      -0.387  -3.526  -0.791  0.00  0.00     0.014 A 
ATOM     15  C   UNL d   1      -0.875  -4.832  -0.698  0.00  0.00     0.001 A 
ATOM     16  C   UNL d   1      -1.952  -5.116   0.139  0.00  0.00     0.000 A 
ATOM     17  C   UNL d   1      -2.554  -4.092   0.868  0.00  0.00     0.001 A 
ATOM     18  C   UNL d   1      -2.052  -2.790   0.790  0.00  0.00     0.014 A 
ENDBRANCH   3  13
BRANCH   6  19
ATOM     19  C   UNL d   1       2.224  -1.565  -0.005  0.00  0.00    -0.007 A 
ATOM     20  C   UNL d   1       3.321  -1.119  -0.756  0.00  0.00     0.014 A 
ATOM     21  C   UNL d   1       4.485  -1.887  -0.844  0.00  0.00     0.001 A 
ATOM     22  C   UNL d   1       4.567  -3.114  -0.189  0.00  0.00     0.000 A 
ATOM     23  C   UNL d   1       3.499  -3.556   0.586  0.00  0.00     0.001 A 
ATOM     24  C   UNL d   1       2.345  -2.774   0.695  0.00  0.00     0.014 A 
ENDBRANCH   6  19
TORSDOF 2
