REMARK  4 active torsions:
REMARK  status: ('A' for Active; 'I' for Inactive)
REMARK    1  A    between atoms: C_6  and  N_1 
REMARK    2  A    between atoms: C_8  and  C_3 
REMARK    3  A    between atoms: O_16  and  C_8 
REMARK    4  A    between atoms: C_17  and  O_16 
ROOT
ATOM      1  N   UNL d   1       0.941   0.630  -0.038  0.00  0.00    -0.262 N 
ATOM      2  C   UNL d   1       0.721  -0.733  -0.190  0.00  0.00     0.153 A 
ATOM      3  C   UNL d   1      -1.411   0.590   0.036  0.00  0.00     0.098 A 
ATOM      4  C   UNL d   1      -0.188   1.425   0.148  0.00  0.00     0.273 A 
ATOM      5  S   UNL d   1      -1.009  -1.057  -0.216  0.00  0.00    -0.053 SA
ATOM      6  S   UNL d   1       1.826  -1.990  -0.243  0.00  0.00    -0.052 SA
ATOM      7  O   UNL d   1      -0.230   2.632   0.344  0.00  0.00    -0.266 OA
ENDROOT
BRANCH   1   8
ATOM      8  C   UNL d   1       2.233   1.224  -0.040  0.00  0.00     0.044 A 
ATOM      9  C   UNL d   1       2.648   2.024   1.035  0.00  0.00     0.032 A 
ATOM     10  C   UNL d   1       3.938   2.563   1.056  0.00  0.00     0.026 A 
ATOM     11  C   UNL d   1       4.803   2.339  -0.013  0.00  0.00     0.034 A 
ATOM     12  C   UNL d   1       4.389   1.582  -1.106  0.00  0.00     0.026 A 
ATOM     13 CL   UNL d   1       6.390   3.000   0.016  0.00  0.00    -0.084 Cl
ATOM     14  C   UNL d   1       3.109   1.020  -1.116  0.00  0.00     0.032 A 
ENDBRANCH   1   8
BRANCH   3  15
ATOM     15  C   UNL d   1      -2.646   1.096   0.103  0.00  0.00     0.159 C 
BRANCH  15  16
ATOM     16  O   UNL d   1      -3.774   0.330  -0.043  0.00  0.00    -0.362 OA
BRANCH  16  17
ATOM     17  C   UNL d   1      -4.898   0.858   0.664  0.00  0.00     0.170 C 
ATOM     18  C   UNL d   1      -6.034  -0.142   0.544  0.00  0.00     0.034 C 
ENDBRANCH  16  17
ENDBRANCH  15  16
ENDBRANCH   3  15
TORSDOF 4
