REMARK  6 active torsions:
REMARK  status: ('A' for Active; 'I' for Inactive)
REMARK    1  A    between atoms: C_3  and  C_1 
REMARK    2  A    between atoms: C_11  and  N_2 
REMARK    3  A    between atoms: C_10  and  C_3 
REMARK    4  A    between atoms: N_9  and  C_8 
REMARK    5  A    between atoms: C_12  and  N_9 
REMARK    6  A    between atoms: O_15  and  C_14 
ROOT
ATOM      1  C   UNL d   1      -0.429  -2.750  -0.199  0.00  0.00     0.066 C 
ATOM      2  C   UNL d   1      -1.633  -3.353  -0.129  0.00  0.00     0.081 C 
ENDROOT
BRANCH   1   3
ATOM      3  C   UNL d   1       0.739  -3.545  -0.116  0.00  0.00     0.153 A 
ATOM      4  N   UNL d   1       1.178  -4.180   1.050  0.00  0.00    -0.224 N 
ATOM      5  N   UNL d   1       2.274  -4.912   0.711  0.00  0.00     0.001 NA
ATOM      6  N   UNL d   1       2.513  -4.679  -0.567  0.00  0.00    -0.007 NA
ATOM      7  N   UNL d   1       1.580  -3.841  -1.091  0.00  0.00    -0.269 N 
ATOM      8  HN  UNL d   1       1.538  -3.505  -2.053  1.00  0.00     0.185 HD
BRANCH   4   9
ATOM      9  C   UNL d   1       0.692  -4.210   2.390  0.00  0.00     0.056 A 
ATOM     10  C   UNL d   1       1.203  -5.190   3.264  0.00  0.00     0.031 A 
ATOM     11  C   UNL d   1       0.704  -5.319   4.562  0.00  0.00     0.002 A 
ATOM     12  C   UNL d   1      -0.297  -4.465   5.011  0.00  0.00     0.000 A 
ATOM     13  C   UNL d   1      -0.778  -3.463   4.173  0.00  0.00     0.002 A 
ATOM     14  C   UNL d   1      -0.279  -3.324   2.873  0.00  0.00     0.031 A 
ENDBRANCH   4   9
ENDBRANCH   1   3
BRANCH   1  15
ATOM     15  C   UNL d   1      -0.272  -1.268  -0.393  0.00  0.00     0.160 C 
ATOM     16  O   UNL d   1      -1.122  -0.474   0.009  0.00  0.00    -0.293 OA
ATOM     17  C   UNL d   1       1.007  -0.765  -1.024  0.00  0.00     0.097 C 
ENDBRANCH   1  15
BRANCH   2  18
ATOM     18  N   UNL d   1      -2.913  -2.835  -0.201  0.00  0.00    -0.266 NA
ATOM     19  H   UNL d   1      -3.601  -3.442   0.255  0.00  0.00     0.133 HD
BRANCH  18  20
ATOM     20  C   UNL d   1      -3.517  -2.398  -1.415  0.00  0.00     0.045 A 
ATOM     21  C   UNL d   1      -4.807  -1.842  -1.353  0.00  0.00     0.087 A 
ATOM     22  C   UNL d   1      -5.503  -1.462  -2.495  0.00  0.00     0.038 A 
ATOM     23  C   UNL d   1      -4.888  -1.595  -3.739  0.00  0.00     0.003 A 
ATOM     24  C   UNL d   1      -3.591  -2.099  -3.824  0.00  0.00     0.002 A 
ATOM     25  C   UNL d   1      -2.906  -2.497  -2.669  0.00  0.00     0.026 A 
BRANCH  21  26
ATOM     26  O   UNL d   1      -5.402  -1.638  -0.137  0.00  0.00    -0.359 OA
ATOM     27  H   UNL d   1      -4.657  -1.483   0.475  0.00  0.00     0.217 HD
ENDBRANCH  21  26
ENDBRANCH  18  20
ENDBRANCH   2  18
TORSDOF 6
