REMARK  3 active torsions:
REMARK  status: ('A' for Active; 'I' for Inactive)
REMARK    1  A    between atoms: C_7  and  N_1 
REMARK    2  A    between atoms: C_10  and  C_4 
REMARK    3  A    between atoms: C_9  and  C_8 
ROOT
ATOM      1  N   UNL d   1      -0.242  -1.207   0.180  0.00  0.00    -0.179 N 
ATOM      2  N   UNL d   1       1.035  -0.733   0.368  0.00  0.00    -0.266 N 
ATOM      3  HN  UNL d   1       1.861  -1.227   0.705  1.00  0.00     0.190 HD
ATOM      4  C   UNL d   1       0.914   0.505   0.003  0.00  0.00     0.180 A 
ATOM      5  C   UNL d   1      -1.057  -0.250  -0.377  0.00  0.00     0.394 A 
ATOM      6  O   UNL d   1      -0.301   0.884  -0.454  0.00  0.00    -0.240 OA
ATOM      7  O   UNL d   1      -2.231  -0.307  -0.700  0.00  0.00    -0.236 OA
ENDROOT
BRANCH   1   8
ATOM      8  C   UNL d   1      -0.467  -2.587   0.167  0.00  0.00     0.147 A 
ATOM      9  C   UNL d   1      -0.173  -3.364   1.286  0.00  0.00     0.093 A 
ATOM     10  C   UNL d   1      -0.320  -4.758   1.171  0.00  0.00     0.021 A 
ATOM     11  C   UNL d   1      -0.754  -5.324  -0.021  0.00  0.00     0.018 A 
ATOM     12  C   UNL d   1      -1.046  -4.473  -1.068  0.00  0.00     0.090 A 
ATOM     13  N   UNL d   1      -0.923  -3.129  -0.989  0.00  0.00    -0.350 N 
ATOM     14  HN  UNL d   1      -1.169  -2.536  -1.781  1.00  0.00     0.166 HD
BRANCH   9  15
ATOM     15  C   UNL d   1       0.196  -2.777   2.615  0.00  0.00     0.421 C 
ATOM     16  F   UNL d   1       0.015  -1.437   2.761  0.00  0.00    -0.166 F 
ATOM     17  F   UNL d   1      -0.551  -3.330   3.620  0.00  0.00    -0.166 F 
ATOM     18  F   UNL d   1       1.490  -3.029   2.955  0.00  0.00    -0.166 F 
ENDBRANCH   9  15
ENDBRANCH   1   8
BRANCH   4  19
ATOM     19  C   UNL d   1       1.961   1.519  -0.095  0.00  0.00     0.038 A 
ATOM     20  C   UNL d   1       1.786   2.838   0.340  0.00  0.00     0.048 A 
ATOM     21 CL   UNL d   1       0.363   3.376   1.157  0.00  0.00    -0.083 Cl
ATOM     22  C   UNL d   1       2.815   3.768   0.159  0.00  0.00     0.025 A 
ATOM     23  C   UNL d   1       4.013   3.385  -0.446  0.00  0.00     0.002 A 
ATOM     24  C   UNL d   1       4.196   2.067  -0.860  0.00  0.00     0.001 A 
ATOM     25  C   UNL d   1       3.175   1.131  -0.681  0.00  0.00     0.017 A 
ENDBRANCH   4  19
TORSDOF 3
