REMARK  8 active torsions:
REMARK  status: ('A' for Active; 'I' for Inactive)
REMARK    1  A    between atoms: O_10  and  C_2 
REMARK       I    between atoms: N_5  and  C_6 
REMARK    2  A    between atoms: C_11  and  N_5 
REMARK    3  A    between atoms: C_12  and  N_5 
REMARK    4  A    between atoms: C_6  and  C_16 
REMARK    5  A    between atoms: C_16  and  O_10 
REMARK    6  A    between atoms: C_13  and  C_11 
REMARK    7  A    between atoms: O_24  and  C_13 
REMARK    8  A    between atoms: C_28  and  O_24 
ROOT
ATOM      1  C   UNL d   1      -3.103   1.654  -1.371  0.00  0.00     0.101 A 
ATOM      2  C   UNL d   1      -1.909   1.972  -0.731  0.00  0.00     0.164 A 
ATOM      3  N   UNL d   1      -1.268   1.120   0.104  0.00  0.00    -0.340 N 
ATOM      4  HN  UNL d   1      -0.394   1.387   0.557  1.00  0.00     0.167 HD
ATOM      5  C   UNL d   1      -3.734   0.444  -1.036  0.00  0.00    -0.035 A 
ATOM      6  C   UNL d   1      -3.616   2.503  -2.398  0.00  0.00     0.104 C 
ATOM      7  N   UNL d   1      -4.042   3.119  -3.288  0.00  0.00    -0.191 NA
ATOM      8  C   UNL d   1      -1.819  -0.095   0.320  0.00  0.00     0.008 A 
ATOM      9  C   UNL d   1      -3.064  -0.446  -0.187  0.00  0.00     0.033 A 
ATOM     10  C   UNL d   1      -5.065   0.032  -1.607  0.00  0.00     0.050 C 
ATOM     11  C   UNL d   1      -0.996  -1.074   1.100  0.00  0.00     0.068 C 
ENDROOT
BRANCH   2  12
ATOM     12  O   UNL d   1      -1.341   3.213  -0.966  0.00  0.00    -0.325 OA
BRANCH  12  13
ATOM     13  C   UNL d   1      -0.183   3.437  -0.169  0.00  0.00     0.280 C 
BRANCH  13  14
ATOM     14  C   UNL d   1       0.461   4.822  -0.394  0.00  0.00     0.249 C 
ATOM     15  N   UNL d   1       1.833   4.915  -0.132  0.00  0.00    -0.307 N 
ATOM     16  O   UNL d   1      -0.222   5.818  -0.649  0.00  0.00    -0.271 OA
BRANCH  15  17
ATOM     17  C   UNL d   1       2.462   6.246  -0.136  0.00  0.00     0.243 C 
BRANCH  17  18
ATOM     18  C   UNL d   1       3.076   6.657  -1.476  0.00  0.00     0.277 C 
ATOM     19  O   UNL d   1       2.990   6.043  -2.531  0.00  0.00    -0.263 OA
BRANCH  18  20
ATOM     20  O   UNL d   1       3.809   7.798  -1.293  0.00  0.00    -0.321 OA
BRANCH  20  21
ATOM     21  C   UNL d   1       4.690   8.162  -2.367  0.00  0.00     0.174 C 
ATOM     22  C   UNL d   1       6.071   7.618  -2.048  0.00  0.00     0.034 C 
ENDBRANCH  20  21
ENDBRANCH  18  20
ENDBRANCH  17  18
ENDBRANCH  15  17
BRANCH  15  23
ATOM     23  C   UNL d   1       2.711   3.814  -0.301  0.00  0.00     0.037 A 
ATOM     24  C   UNL d   1       2.777   3.154  -1.538  0.00  0.00     0.033 A 
ATOM     25  C   UNL d   1       3.652   2.085  -1.714  0.00  0.00     0.044 A 
ATOM     26  C   UNL d   1       4.439   1.666  -0.647  0.00  0.00     0.116 A 
ATOM     27  C   UNL d   1       4.377   2.310   0.585  0.00  0.00     0.044 A 
ATOM     28  F   UNL d   1       5.274   0.633  -0.812  0.00  0.00    -0.206 F 
ATOM     29  C   UNL d   1       3.522   3.400   0.758  0.00  0.00     0.033 A 
ENDBRANCH  15  23
ENDBRANCH  13  14
ENDBRANCH  12  13
ENDBRANCH   2  12
TORSDOF 8
