REMARK  7 active torsions:
REMARK  status: ('A' for Active; 'I' for Inactive)
REMARK    1  A    between atoms: C_10  and  N_1 
REMARK    2  A    between atoms: C_12  and  C_3 
REMARK    3  A    between atoms: S_9  and  C_6 
REMARK    4  A    between atoms: C_15  and  S_9 
REMARK    5  A    between atoms: C_13  and  C_15 
REMARK    6  A    between atoms: O_16  and  C_13 
REMARK    7  A    between atoms: C_21  and  O_16 
ROOT
ATOM      1  N   UNL d   1      -0.758   1.281  -0.047  0.00  0.00    -0.256 N 
ATOM      2  C   UNL d   1      -1.449   0.093   0.102  0.00  0.00     0.283 C 
ATOM      3  C   UNL d   1      -0.628  -1.164  -0.053  0.00  0.00     0.127 C 
ATOM      4  N   UNL d   1       0.667  -1.113  -0.145  0.00  0.00    -0.293 N 
ATOM      5  HN  UNL d   1       1.210  -1.970  -0.248  1.00  0.00     0.187 HD
ATOM      6  C   UNL d   1       0.623   1.230  -0.081  0.00  0.00     0.169 C 
ATOM      7  N   UNL d   1       1.308   0.129  -0.102  0.00  0.00    -0.279 N 
ATOM      8  HN  UNL d   1       2.327   0.169  -0.088  1.00  0.00     0.189 HD
ATOM      9  O   UNL d   1      -2.645  -0.019   0.354  0.00  0.00    -0.265 OA
ENDROOT
BRANCH   6  10
ATOM     10  S   UNL d   1       1.511   2.748   0.100  0.00  0.00    -0.082 SA
BRANCH  10  11
ATOM     11  C   UNL d   1       3.140   2.320  -0.548  0.00  0.00     0.193 C 
BRANCH  11  12
ATOM     12  C   UNL d   1       3.130   1.960  -2.017  0.00  0.00     0.268 C 
ATOM     13  O   UNL d   1       2.148   1.833  -2.735  0.00  0.00    -0.264 OA
BRANCH  12  14
ATOM     14  O   UNL d   1       4.426   1.766  -2.411  0.00  0.00    -0.321 OA
BRANCH  14  15
ATOM     15  C   UNL d   1       4.611   1.112  -3.674  0.00  0.00     0.174 C 
ATOM     16  C   UNL d   1       4.670  -0.383  -3.421  0.00  0.00     0.034 C 
ENDBRANCH  14  15
ENDBRANCH  12  14
ENDBRANCH  11  12
ENDBRANCH  10  11
ENDBRANCH   6  10
BRANCH   1  17
ATOM     17  C   UNL d   1      -1.516   2.493  -0.053  0.00  0.00     0.044 A 
ATOM     18  C   UNL d   1      -2.450   2.748   0.964  0.00  0.00     0.030 A 
ATOM     19  C   UNL d   1      -3.229   3.905   0.936  0.00  0.00     0.002 A 
ATOM     20  C   UNL d   1      -3.098   4.806  -0.115  0.00  0.00     0.000 A 
ATOM     21  C   UNL d   1      -2.185   4.554  -1.140  0.00  0.00     0.002 A 
ATOM     22  C   UNL d   1      -1.397   3.402  -1.111  0.00  0.00     0.030 A 
ENDBRANCH   1  17
BRANCH   3  23
ATOM     23  C   UNL d   1      -1.328  -2.481  -0.056  0.00  0.00    -0.003 A 
ATOM     24  C   UNL d   1      -2.576  -2.644  -0.674  0.00  0.00     0.014 A 
ATOM     25  C   UNL d   1      -3.266  -3.853  -0.566  0.00  0.00     0.001 A 
ATOM     26  C   UNL d   1      -2.703  -4.914   0.138  0.00  0.00     0.000 A 
ATOM     27  C   UNL d   1      -1.442  -4.775   0.718  0.00  0.00     0.001 A 
ATOM     28  C   UNL d   1      -0.750  -3.564   0.617  0.00  0.00     0.014 A 
ENDBRANCH   3  23
TORSDOF 7
