REMARK  2 active torsions:
REMARK  status: ('A' for Active; 'I' for Inactive)
REMARK    1  A    between atoms: N_15  and  N_4 
REMARK    2  A    between atoms: C_17  and  C_18 
ROOT
ATOM      1  C   UNL d   1       1.225   0.937  -0.012  0.00  0.00     0.107 A 
ATOM      2  C   UNL d   1       0.779  -0.347  -0.007  0.00  0.00     0.086 A 
ATOM      3  C   UNL d   1       2.616   1.260  -0.017  0.00  0.00     0.302 A 
ATOM      4  N   UNL d   1       3.433   0.107  -0.011  0.00  0.00    -0.141 N 
ATOM      5  C   UNL d   1      -0.650  -0.462  -0.003  0.00  0.00     0.033 A 
ATOM      6  S   UNL d   1      -0.030   2.066  -0.007  0.00  0.00    -0.064 SA
ATOM      7  N   UNL d   1       1.691  -1.410  -0.008  0.00  0.00    -0.282 N 
ATOM      8  HN  UNL d   1       1.352  -2.372  -0.010  1.00  0.00     0.188 HD
ATOM      9  N   UNL d   1       2.931  -1.180  -0.005  0.00  0.00    -0.218 N 
ATOM     10  HN  UNL d   1       3.581  -1.966   0.002  1.00  0.00     0.210 HD
ATOM     11  C   UNL d   1      -1.205   0.822  -0.003  0.00  0.00     0.088 A 
ATOM     12  N   UNL d   1      -2.514   1.146  -0.002  0.00  0.00    -0.354 N 
ATOM     13  HN  UNL d   1      -2.840   2.112  -0.003  1.00  0.00     0.166 HD
ATOM     14  C   UNL d   1      -1.568  -1.546  -0.000  0.00  0.00    -0.045 A 
ATOM     15  O   UNL d   1       3.049   2.415  -0.023  0.00  0.00    -0.263 OA
ATOM     16  C   UNL d   1      -2.939  -1.227   0.001  0.00  0.00     0.032 A 
ATOM     17  C   UNL d   1      -3.357   0.098  -0.001  0.00  0.00     0.006 A 
ATOM     18  C   UNL d   1      -1.195  -3.003  -0.003  0.00  0.00     0.049 C 
ATOM     19  C   UNL d   1      -4.830   0.401  -0.006  0.00  0.00     0.068 C 
ENDROOT
BRANCH   4  20
ATOM     20  N   UNL d   1       4.791   0.332   0.018  0.00  0.00    -0.286 N 
ATOM     21  C   UNL d   1       5.630  -0.653   0.009  0.00  0.00     0.122 C 
ATOM     22  HN  UNL d   1       5.142   1.289   0.047  1.00  0.00     0.188 HD
BRANCH  21  23
ATOM     23  C   UNL d   1       7.093  -0.368   0.069  0.00  0.00     0.003 A 
ATOM     24  C   UNL d   1       8.063  -1.380   0.065  0.00  0.00     0.047 A 
ATOM     25  C   UNL d   1       9.421  -1.052   0.161  0.00  0.00     0.048 A 
ATOM     26 CL   UNL d   1       7.670  -3.056  -0.079  0.00  0.00    -0.083 Cl
ATOM     27  C   UNL d   1       9.812   0.284   0.241  0.00  0.00     0.035 A 
ATOM     28  C   UNL d   1       8.860   1.298   0.228  0.00  0.00     0.025 A 
ATOM     29 CL   UNL d   1      11.481   0.684   0.349  0.00  0.00    -0.084 Cl
ATOM     30  C   UNL d   1       7.504   0.974   0.144  0.00  0.00     0.016 A 
ENDBRANCH  21  23
ENDBRANCH   4  20
TORSDOF 2
