REMARK  13 active torsions:
REMARK  status: ('A' for Active; 'I' for Inactive)
REMARK    1  A    between atoms: C_1  and  O_14 
REMARK    2  A    between atoms: C_18  and  C_1 
REMARK    3  A    between atoms: C_2  and  O_15 
REMARK    4  A    between atoms: C_3  and  O_16 
REMARK    5  A    between atoms: C_4  and  O_17 
REMARK    6  A    between atoms: C_6  and  O_12 
REMARK    7  A    between atoms: C_8  and  O_19 
REMARK    8  A    between atoms: C_9  and  O_20 
REMARK    9  A    between atoms: C_10  and  C_13 
REMARK   10  A    between atoms: C_11  and  C_21 
REMARK   11  A    between atoms: O_12  and  C_13 
REMARK   12  A    between atoms: O_22  and  C_18 
REMARK   13  A    between atoms: O_23  and  C_21 
ROOT
ATOM      1  O   UNL d   1       0.637   2.583  -1.966  0.00  0.00    -0.356 OA
ENDROOT
BRANCH   1   2
ATOM      2  C   UNL d   1       0.613   2.888  -3.369  0.00  0.00     0.291 C 
ATOM      3  C   UNL d   1       1.240   4.275  -3.595  0.00  0.00     0.204 C 
ATOM      4  C   UNL d   1       0.382   5.330  -2.889  0.00  0.00     0.183 C 
ATOM      5  C   UNL d   1      -1.086   5.233  -3.328  0.00  0.00     0.180 C 
ATOM      6  C   UNL d   1      -1.597   3.792  -3.244  0.00  0.00     0.179 C 
ATOM      7  O   UNL d   1      -0.710   2.864  -3.905  0.00  0.00    -0.348 OA
BRANCH   3   8
ATOM      8  O   UNL d   1       2.590   4.319  -3.116  0.00  0.00    -0.388 OA
ATOM      9  H   UNL d   1       2.550   4.192  -2.150  0.00  0.00     0.210 HD
ENDBRANCH   3   8
BRANCH   4  10
ATOM     10  O   UNL d   1       0.846   6.669  -3.136  0.00  0.00    -0.390 OA
ATOM     11  H   UNL d   1       1.063   6.744  -4.083  0.00  0.00     0.210 HD
ENDBRANCH   4  10
BRANCH   5  12
ATOM     12  O   UNL d   1      -1.873   6.077  -2.470  0.00  0.00    -0.390 OA
ATOM     13  H   UNL d   1      -1.308   6.846  -2.246  0.00  0.00     0.210 HD
ENDBRANCH   5  12
BRANCH   6  14
ATOM     14  C   UNL d   1      -2.974   3.633  -3.899  0.00  0.00     0.198 C 
BRANCH  14  15
ATOM     15  O   UNL d   1      -2.880   3.801  -5.313  0.00  0.00    -0.398 OA
ATOM     16  H   UNL d   1      -2.220   3.144  -5.608  0.00  0.00     0.209 HD
ENDBRANCH  14  15
ENDBRANCH   6  14
ENDBRANCH   1   2
BRANCH   1  17
ATOM     17  C   UNL d   1       0.139   1.268  -1.714  0.00  0.00     0.205 C 
BRANCH  17  18
ATOM     18  C   UNL d   1       0.178   0.964  -0.211  0.00  0.00     0.180 C 
ATOM     19  O   UNL d   1      -0.445  -0.307   0.046  0.00  0.00    -0.341 OA
ATOM     20  C   UNL d   1       0.552  -1.323  -0.141  0.00  0.00     0.213 C 
ATOM     21  C   UNL d   1       1.937  -0.649   0.055  0.00  0.00     0.213 C 
ATOM     22  C   UNL d   1       1.586   0.806   0.357  0.00  0.00     0.183 C 
BRANCH  20  23
ATOM     23  O   UNL d   1       0.451  -1.851  -1.473  0.00  0.00    -0.362 OA
ATOM     24  H   UNL d   1       1.296  -1.598  -1.903  0.00  0.00     0.213 HD
ENDBRANCH  20  23
BRANCH  20  25
ATOM     25  C   UNL d   1       0.289  -2.483   0.822  0.00  0.00     0.235 C 
BRANCH  25  26
ATOM     26  O   UNL d   1       1.175  -3.573   0.565  0.00  0.00    -0.395 OA
ATOM     27  H   UNL d   1       1.041  -3.790  -0.381  0.00  0.00     0.209 HD
ENDBRANCH  25  26
ENDBRANCH  20  25
BRANCH  21  28
ATOM     28  O   UNL d   1       2.702  -0.727  -1.162  0.00  0.00    -0.387 OA
ATOM     29  H   UNL d   1       3.590  -0.379  -0.950  0.00  0.00     0.210 HD
ENDBRANCH  21  28
BRANCH  22  30
ATOM     30  O   UNL d   1       1.585   1.005   1.776  0.00  0.00    -0.390 OA
ATOM     31  H   UNL d   1       0.740   0.673   2.134  0.00  0.00     0.210 HD
ENDBRANCH  22  30
ENDBRANCH  17  18
ENDBRANCH   1  17
TORSDOF 13
