REMARK  3 active torsions:
REMARK  status: ('A' for Active; 'I' for Inactive)
REMARK    1  A    between atoms: N_7  and  C_1 
REMARK       I    between atoms: C_10  and  N_7 
REMARK    2  A    between atoms: N_8  and  C_11 
REMARK    3  A    between atoms: C_13  and  C_10 
ROOT
ATOM      1  C   UNL d   1       2.349   0.616   0.111  0.00  0.00     0.688 A 
ATOM      2  N   UNL d   1       2.368  -0.714   0.364  0.00  0.00    -0.155 N 
ATOM      3  C   UNL d   1       1.235  -1.485   0.390  0.00  0.00     0.272 A 
ATOM      4  C   UNL d   1      -0.032  -0.752   0.204  0.00  0.00     0.060 A 
ATOM      5  N   UNL d   1       1.275   1.311  -0.049  0.00  0.00    -0.191 N 
ATOM      6  HN  UNL d   1       1.316   2.315  -0.222  1.00  0.00     0.184 HD
ATOM      7  C   UNL d   1       0.046   0.632   0.026  0.00  0.00     0.065 A 
ATOM      8  C   UNL d   1      -1.261  -1.419   0.205  0.00  0.00     0.026 A 
ATOM      9  O   UNL d   1       1.263  -2.699   0.546  0.00  0.00    -0.267 OA
ATOM     10  C   UNL d   1      -1.139   1.354  -0.114  0.00  0.00     0.031 A 
ATOM     11  C   UNL d   1      -2.447  -0.693   0.048  0.00  0.00    -0.061 A 
ATOM     12  C   UNL d   1      -2.377   0.700  -0.100  0.00  0.00     0.009 A 
ATOM     13  C   UNL d   1      -3.778  -1.385   0.024  0.00  0.00     0.048 C 
ATOM     14  H   UNL d   1       3.260  -1.183   0.484  0.00  0.00     0.187 HD
ENDROOT
BRANCH   1  15
ATOM     15  N   UNL d   1       3.529   1.276  -0.028  0.00  0.00    -0.155 N 
ATOM     16  C   UNL d   1       4.802   0.732  -0.051  0.00  0.00     0.269 C 
ATOM     17  O   UNL d   1       5.064  -0.418   0.288  0.00  0.00    -0.267 OA
ATOM     18  H   UNL d   1       3.379   2.219  -0.355  0.00  0.00     0.187 HD
BRANCH  16  19
ATOM     19  C   UNL d   1       5.868   1.624  -0.591  0.00  0.00     0.033 A 
ATOM     20  C   UNL d   1       5.793   3.021  -0.482  0.00  0.00     0.019 A 
ATOM     21  C   UNL d   1       6.718   3.829  -1.150  0.00  0.00     0.037 A 
ATOM     22  C   UNL d   1       7.732   3.236  -1.914  0.00  0.00     0.102 A 
ATOM     23  C   UNL d   1       7.862   1.841  -1.964  0.00  0.00     0.037 A 
ATOM     24  C   UNL d   1       6.931   1.039  -1.296  0.00  0.00     0.019 A 
BRANCH  22  25
ATOM     25  N   UNL d   1       8.638   4.085  -2.700  0.00  0.00    -0.116 N 
ATOM     26  O   UNL d   1       8.446   5.309  -2.671  0.00  0.00    -0.532 OA
ATOM     27  O   UNL d   1       9.525   3.526  -3.359  0.00  0.00    -0.532 OA
ENDBRANCH  22  25
ENDBRANCH  16  19
ENDBRANCH   1  15
TORSDOF 3
