REMARK  8 active torsions:
REMARK  status: ('A' for Active; 'I' for Inactive)
REMARK    1  A    between atoms: C_3  and  C_1 
REMARK    2  A    between atoms: C_4  and  C_1 
REMARK    3  A    between atoms: N_5  and  C_2 
REMARK    4  A    between atoms: O_9  and  C_3 
REMARK    5  A    between atoms: O_10  and  C_4 
REMARK    6  A    between atoms: C_8  and  N_5 
REMARK    7  A    between atoms: C_14  and  O_9 
REMARK    8  A    between atoms: C_15  and  O_10 
ROOT
ATOM      1  C   UNL d   1       1.022  -0.254  -0.190  0.00  0.00     0.130 C 
ATOM      2  C   UNL d   1       0.446  -0.608   0.979  0.00  0.00     0.114 C 
ENDROOT
BRANCH   1   3
ATOM      3  C   UNL d   1       0.220   0.450  -1.220  0.00  0.00     0.300 C 
ATOM      4  O   UNL d   1       0.475   0.434  -2.416  0.00  0.00    -0.259 OA
BRANCH   3   5
ATOM      5  O   UNL d   1      -0.785   1.168  -0.650  0.00  0.00    -0.318 OA
BRANCH   5   6
ATOM      6  C   UNL d   1      -1.348   2.206  -1.469  0.00  0.00     0.174 C 
ATOM      7  C   UNL d   1      -0.625   3.495  -1.122  0.00  0.00     0.034 C 
ENDBRANCH   5   6
ENDBRANCH   3   5
ENDBRANCH   1   3
BRANCH   1   8
ATOM      8  C   UNL d   1       2.450  -0.484  -0.503  0.00  0.00     0.300 C 
ATOM      9  O   UNL d   1       3.102   0.237  -1.242  0.00  0.00    -0.259 OA
BRANCH   8  10
ATOM     10  O   UNL d   1       2.927  -1.605   0.101  0.00  0.00    -0.318 OA
BRANCH  10  11
ATOM     11  C   UNL d   1       4.296  -1.933  -0.166  0.00  0.00     0.174 C 
ATOM     12  C   UNL d   1       5.254  -1.012   0.568  0.00  0.00     0.034 C 
ENDBRANCH  10  11
ENDBRANCH   8  10
ENDBRANCH   1   8
BRANCH   2  13
ATOM     13  N   UNL d   1       0.967  -1.229   2.110  0.00  0.00    -0.360 N 
ATOM     14  C   UNL d   1       0.906  -2.691   2.212  0.00  0.00     0.155 C 
BRANCH  13  15
ATOM     15  C   UNL d   1       1.647  -0.524   3.138  0.00  0.00     0.033 A 
ATOM     16  C   UNL d   1       1.699   0.883   3.147  0.00  0.00     0.029 A 
ATOM     17  C   UNL d   1       2.380   1.593   4.146  0.00  0.00     0.002 A 
ATOM     18  C   UNL d   1       3.027   0.913   5.171  0.00  0.00     0.000 A 
ATOM     19  C   UNL d   1       2.983  -0.476   5.201  0.00  0.00     0.002 A 
ATOM     20  C   UNL d   1       2.300  -1.179   4.201  0.00  0.00     0.029 A 
ENDBRANCH  13  15
ENDBRANCH   2  13
TORSDOF 8
