REMARK  2 active torsions:
REMARK  status: ('A' for Active; 'I' for Inactive)
REMARK    1  A    between atoms: C_2  and  C_1 
REMARK    2  A    between atoms: N_11  and  C_3 
ROOT
ATOM      1  C   UNL d   1      -2.273  -0.016  -0.017  0.00  0.00     0.065 A 
ATOM      2  C   UNL d   1      -0.166   1.269   0.005  0.00  0.00     0.068 A 
ATOM      3  C   UNL d   1      -1.574   1.202   0.011  0.00  0.00     0.050 A 
ATOM      4  C   UNL d   1       0.466   0.010  -0.019  0.00  0.00     0.140 A 
ATOM      5  N   UNL d   1      -0.183  -1.195  -0.021  0.00  0.00    -0.355 N 
ATOM      6  HN  UNL d   1       0.334  -2.074  -0.022  1.00  0.00     0.166 HD
ATOM      7  N   UNL d   1       3.048  -0.268  -0.196  0.00  0.00    -0.190 NA
ATOM      8  C   UNL d   1       1.894  -0.150  -0.125  0.00  0.00     0.120 C 
ATOM      9  C   UNL d   1      -1.531  -1.177  -0.022  0.00  0.00     0.105 A 
ENDROOT
BRANCH   2  10
ATOM     10  N   UNL d   1       0.464   2.505   0.012  0.00  0.00    -0.387 N 
ATOM     11  C   UNL d   1      -0.144   3.692  -0.589  0.00  0.00     0.149 C 
ATOM     12  C   UNL d   1       1.735   2.748   0.696  0.00  0.00     0.149 C 
ENDBRANCH   2  10
BRANCH   1  13
ATOM     13  C   UNL d   1      -3.769  -0.090  -0.045  0.00  0.00     0.418 C 
ATOM     14  F   UNL d   1      -4.372   1.128  -0.051  0.00  0.00    -0.166 F 
ATOM     15  F   UNL d   1      -4.234  -0.742  -1.145  0.00  0.00    -0.166 F 
ATOM     16  F   UNL d   1      -4.278  -0.755   1.027  0.00  0.00    -0.166 F 
ENDBRANCH   1  13
TORSDOF 2
