REMARK  6 active torsions:
REMARK  status: ('A' for Active; 'I' for Inactive)
REMARK    1  A    between atoms: C_10  and  N_1 
REMARK    2  A    between atoms: C_4  and  C_11 
REMARK    3  A    between atoms: C_21  and  C_8 
REMARK    4  A    between atoms: C_9  and  C_13 
REMARK    5  A    between atoms: S_20  and  C_21 
REMARK    6  A    between atoms: C_25  and  S_20 
ROOT
ATOM      1  N   UNL d   1      -2.131  -4.393  -3.866  0.00  0.00    -0.277 N 
ATOM      2  HN  UNL d   1      -2.205  -4.948  -3.014  1.00  0.00     0.189 HD
ATOM      3  C   UNL d   1      -1.626  -3.181  -3.975  0.00  0.00     0.174 A 
ATOM      4  O   UNL d   1      -1.702  -2.699  -5.258  0.00  0.00    -0.277 OA
ATOM      5  N   UNL d   1      -2.542  -4.766  -5.132  0.00  0.00    -0.281 N 
ATOM      6  HN  UNL d   1      -2.980  -5.649  -5.395  1.00  0.00     0.189 HD
ATOM      7  C   UNL d   1      -2.258  -3.758  -5.931  0.00  0.00     0.150 A 
ENDROOT
BRANCH   7   8
ATOM      8  C   UNL d   1      -2.490  -3.635  -7.397  0.00  0.00     0.165 C 
BRANCH   8   9
ATOM      9  S   UNL d   1      -1.161  -2.700  -8.241  0.00  0.00    -0.122 SA
BRANCH   9  10
ATOM     10  C   UNL d   1      -1.734  -2.725  -9.930  0.00  0.00     0.001 A 
ATOM     11  C   UNL d   1      -1.866  -3.920 -10.645  0.00  0.00     0.034 A 
ATOM     12  C   UNL d   1      -2.217  -3.910 -12.007  0.00  0.00     0.049 A 
ATOM     13  C   UNL d   1      -2.440  -2.679 -12.645  0.00  0.00     0.016 A 
ATOM     14  C   UNL d   1      -2.310  -1.486 -11.937  0.00  0.00     0.002 A 
ATOM     15  C   UNL d   1      -1.953  -1.508 -10.588  0.00  0.00     0.018 A 
BRANCH  12  16
ATOM     16  C   UNL d   1      -2.329  -5.191 -12.797  0.00  0.00     0.417 C 
ATOM     17  F   UNL d   1      -2.087  -6.309 -12.057  0.00  0.00    -0.166 F 
ATOM     18  F   UNL d   1      -3.567  -5.362 -13.337  0.00  0.00    -0.166 F 
ATOM     19  F   UNL d   1      -1.455  -5.237 -13.840  0.00  0.00    -0.166 F 
ENDBRANCH  12  16
ENDBRANCH   9  10
ENDBRANCH   8   9
ENDBRANCH   7   8
BRANCH   3  20
ATOM     20  C   UNL d   1      -1.005  -2.320  -2.972  0.00  0.00     0.017 A 
ATOM     21  C   UNL d   1      -0.489  -1.058  -3.305  0.00  0.00     0.018 A 
ATOM     22  C   UNL d   1       0.121  -0.257  -2.338  0.00  0.00     0.037 A 
ATOM     23  C   UNL d   1       0.219  -0.720  -1.020  0.00  0.00     0.108 A 
ATOM     24  C   UNL d   1      -0.300  -1.967  -0.636  0.00  0.00    -0.028 A 
ATOM     25  C   UNL d   1      -0.901  -2.759  -1.636  0.00  0.00     0.025 A 
ATOM     26  C   UNL d   1      -0.231  -2.515   0.763  0.00  0.00     0.050 C 
BRANCH  23  27
ATOM     27  N   UNL d   1       0.890   0.147  -0.063  0.00  0.00    -0.115 N 
ATOM     28  O   UNL d   1       1.904  -0.298   0.492  0.00  0.00    -0.532 OA
ATOM     29  O   UNL d   1       0.412   1.276   0.102  0.00  0.00    -0.532 OA
ENDBRANCH  23  27
ENDBRANCH   3  20
TORSDOF 6
