REMARK  3 active torsions:
REMARK  status: ('A' for Active; 'I' for Inactive)
REMARK    1  A    between atoms: N_10  and  C_1 
REMARK    2  A    between atoms: C_5  and  C_11 
REMARK    3  A    between atoms: C_16  and  C_7 
REMARK       I    between atoms: C_11  and  N_10 
ROOT
ATOM      1  C   UNL d   1       0.123  -1.028   0.152  0.00  0.00     0.126 A 
ATOM      2  N   UNL d   1       0.299   1.233   0.287  0.00  0.00    -0.296 N 
ATOM      3  HN  UNL d   1       0.044   2.219   0.336  1.00  0.00     0.187 HD
ATOM      4  C   UNL d   1       1.461  -0.709   0.108  0.00  0.00     0.082 A 
ATOM      5  N   UNL d   1      -0.524   0.174   0.301  0.00  0.00    -0.281 N 
ATOM      6  C   UNL d   1       1.531   0.710   0.195  0.00  0.00     0.062 A 
ATOM      7  C   UNL d   1      -1.942   0.398   0.438  0.00  0.00     0.179 C 
ENDROOT
BRANCH   1   8
ATOM      8  N   UNL d   1      -0.480  -2.272   0.040  0.00  0.00    -0.306 N 
ATOM      9  C   UNL d   1       0.230  -3.502  -0.149  0.00  0.00     0.275 C 
ATOM     10  O   UNL d   1       1.445  -3.602  -0.111  0.00  0.00    -0.266 OA
ATOM     11  H   UNL d   1      -1.495  -2.341   0.027  0.00  0.00     0.170 HD
BRANCH   9  12
ATOM     12  C   UNL d   1      -0.721  -4.563  -0.438  0.00  0.00     0.125 A 
ATOM     13  N   UNL d   1      -2.050  -4.345  -0.396  0.00  0.00    -0.256 N 
ATOM     14  O   UNL d   1      -2.638  -5.535  -0.791  0.00  0.00    -0.242 OA
ATOM     15  HN  UNL d   1      -2.525  -3.483  -0.130  1.00  0.00     0.195 HD
ATOM     16  C   UNL d   1      -1.673  -6.451  -1.071  0.00  0.00     0.075 A 
ATOM     17  C   UNL d   1      -0.441  -5.896  -0.831  0.00  0.00     0.071 A 
ATOM     18  C   UNL d   1      -2.129  -7.764  -1.564  0.00  0.00     0.079 C 
ENDBRANCH   9  12
ENDBRANCH   1   8
BRANCH   6  19
ATOM     19  C   UNL d   1       2.723   1.562   0.183  0.00  0.00    -0.008 A 
ATOM     20  C   UNL d   1       2.638   2.889  -0.266  0.00  0.00     0.014 A 
ATOM     21  C   UNL d   1       3.761   3.718  -0.260  0.00  0.00     0.001 A 
ATOM     22  C   UNL d   1       4.983   3.232   0.198  0.00  0.00     0.000 A 
ATOM     23  C   UNL d   1       5.084   1.915   0.642  0.00  0.00     0.001 A 
ATOM     24  C   UNL d   1       3.961   1.081   0.632  0.00  0.00     0.014 A 
ENDBRANCH   6  19
TORSDOF 3
