REMARK  6 active torsions:
REMARK  status: ('A' for Active; 'I' for Inactive)
REMARK    1  A    between atoms: C_3  and  C_1 
REMARK    2  A    between atoms: C_12  and  C_2 
REMARK    3  A    between atoms: C_5  and  C_8 
REMARK    4  A    between atoms: C_11  and  C_7 
REMARK    5  A    between atoms: N_20  and  N_9 
REMARK    6  A    between atoms: C_21  and  N_20 
ROOT
ATOM      1  C   UNL d   1       0.140   1.185  -0.003  0.00  0.00     0.100 A 
ATOM      2  C   UNL d   1       1.446   0.702  -0.047  0.00  0.00    -0.003 A 
ATOM      3  S   UNL d   1      -1.009  -0.116  -0.016  0.00  0.00    -0.084 SA
ATOM      4  C   UNL d   1       1.455  -0.736  -0.038  0.00  0.00     0.034 A 
ATOM      5  C   UNL d   1       0.202  -1.300  -0.015  0.00  0.00     0.022 A 
ENDROOT
BRANCH   5   6
ATOM      6  C   UNL d   1      -0.141  -2.700  -0.004  0.00  0.00     0.120 C 
ATOM      7  N   UNL d   1       0.817  -3.572   0.052  0.00  0.00    -0.327 N 
ATOM      8  HN  UNL d   1       1.793  -3.286   0.121  1.00  0.00     0.180 HD
BRANCH   7   9
ATOM      9  N   UNL d   1       0.461  -4.884   0.015  0.00  0.00    -0.206 NA
ATOM     10  H   UNL d   1      -0.253  -5.154  -0.660  0.00  0.00     0.153 HD
BRANCH   9  11
ATOM     11  C   UNL d   1       1.550  -5.788   0.037  0.00  0.00     0.028 A 
ATOM     12  C   UNL d   1       2.739  -5.477   0.718  0.00  0.00     0.041 A 
ATOM     13  C   UNL d   1       3.820  -6.366   0.758  0.00  0.00     0.049 A 
ATOM     14  C   UNL d   1       3.695  -7.606   0.116  0.00  0.00     0.016 A 
ATOM     15  C   UNL d   1       2.509  -7.945  -0.535  0.00  0.00     0.003 A 
ATOM     16  C   UNL d   1       1.438  -7.048  -0.560  0.00  0.00     0.025 A 
BRANCH  13  17
ATOM     17  C   UNL d   1       5.093  -6.004   1.478  0.00  0.00     0.417 C 
ATOM     18  F   UNL d   1       5.076  -4.765   2.045  0.00  0.00    -0.166 F 
ATOM     19  F   UNL d   1       5.384  -6.870   2.489  0.00  0.00    -0.166 F 
ATOM     20  F   UNL d   1       6.179  -6.018   0.654  0.00  0.00    -0.166 F 
ENDBRANCH  13  17
ENDBRANCH   9  11
ENDBRANCH   7   9
ENDBRANCH   5   6
BRANCH   1  21
ATOM     21  C   UNL d   1      -0.435   2.568   0.044  0.00  0.00     0.424 C 
ATOM     22  F   UNL d   1       0.469   3.546   0.295  0.00  0.00    -0.166 F 
ATOM     23  F   UNL d   1      -1.032   2.890  -1.137  0.00  0.00    -0.166 F 
ATOM     24  F   UNL d   1      -1.390   2.693   1.005  0.00  0.00    -0.166 F 
ENDBRANCH   1  21
BRANCH   2  25
ATOM     25  C   UNL d   1       2.666   1.519  -0.059  0.00  0.00    -0.025 A 
ATOM     26  C   UNL d   1       3.786   1.097   0.680  0.00  0.00     0.012 A 
ATOM     27  C   UNL d   1       4.974   1.834   0.671  0.00  0.00     0.001 A 
ATOM     28  C   UNL d   1       5.056   3.012  -0.060  0.00  0.00     0.000 A 
ATOM     29  C   UNL d   1       3.961   3.437  -0.811  0.00  0.00     0.001 A 
ATOM     30  C   UNL d   1       2.784   2.679  -0.831  0.00  0.00     0.012 A 
ENDBRANCH   2  25
TORSDOF 6
