REMARK  2 active torsions:
REMARK  status: ('A' for Active; 'I' for Inactive)
REMARK    1  A    between atoms: N_15  and  C_3 
REMARK    2  A    between atoms: C_6  and  C_4 
ROOT
ATOM      1  N   UNL d   1       0.882   0.597  -1.183  0.00  0.00    -0.332 N 
ATOM      2  HN  UNL d   1       1.120   1.070  -2.055  1.00  0.00     0.168 HD
ATOM      3  C   UNL d   1       0.299  -0.603  -1.183  0.00  0.00     0.155 A 
ATOM      4  C   UNL d   1       1.147   1.163   0.017  0.00  0.00     0.046 A 
ATOM      5  N   UNL d   1      -0.086  -1.266  -0.090  0.00  0.00    -0.343 N 
ATOM      6  HN  UNL d   1      -0.566  -2.164  -0.147  1.00  0.00     0.167 HD
ATOM      7  C   UNL d   1       0.818   0.533   1.200  0.00  0.00     0.047 A 
ATOM      8  C   UNL d   1       0.192  -0.684   1.087  0.00  0.00     0.093 A 
ENDROOT
BRANCH   4   9
ATOM      9  C   UNL d   1       1.840   2.466  -0.013  0.00  0.00    -0.006 A 
ATOM     10  C   UNL d   1       1.672   3.417   1.012  0.00  0.00     0.053 A 
ATOM     11  C   UNL d   1       2.368   4.626   0.999  0.00  0.00     0.103 A 
ATOM     12  O   UNL d   1       2.135   5.474   2.051  0.00  0.00    -0.346 OA
ATOM     13  C   UNL d   1       3.256   4.912  -0.038  0.00  0.00     0.102 A 
ATOM     14  C   UNL d   1       2.626   6.790   1.776  0.00  0.00     0.202 C 
ATOM     15  C   UNL d   1       4.019   6.732   1.171  0.00  0.00     0.202 C 
ATOM     16  O   UNL d   1       3.997   6.063  -0.096  0.00  0.00    -0.346 OA
ATOM     17  C   UNL d   1       3.415   4.008  -1.082  0.00  0.00     0.040 A 
ATOM     18  C   UNL d   1       2.712   2.798  -1.069  0.00  0.00     0.016 A 
ENDBRANCH   4   9
BRANCH   3  19
ATOM     19  N   UNL d   1       0.062  -1.204  -2.401  0.00  0.00    -0.274 NA
ATOM     20  H   UNL d   1      -0.009  -0.508  -3.128  0.00  0.00     0.127 HD
ATOM     21  H   UNL d   1      -0.688  -1.875  -2.313  0.00  0.00     0.127 HD
ENDBRANCH   3  19
TORSDOF 2
