REMARK  5 active torsions:
REMARK  status: ('A' for Active; 'I' for Inactive)
REMARK    1  A    between atoms: C_7  and  C_1 
REMARK    2  A    between atoms: C_17  and  N_4 
REMARK    3  A    between atoms: C_9  and  C_7 
REMARK    4  A    between atoms: O_23  and  C_13 
REMARK    5  A    between atoms: O_24  and  C_16 
ROOT
ATOM      1  C   UNL d   1       0.496   1.375  -0.084  0.00  0.00     0.168 C 
ATOM      2  N   UNL d   1      -0.508   2.226  -0.636  0.00  0.00    -0.340 N 
ATOM      3  C   UNL d   1      -1.672   2.142   0.239  0.00  0.00     0.220 C 
ATOM      4  N   UNL d   1      -1.347   0.892   0.966  0.00  0.00    -0.167 NA
ATOM      5  N   UNL d   1       0.043   0.648   0.892  0.00  0.00    -0.295 N 
ATOM      6  HN  UNL d   1       0.584   0.023   1.489  1.00  0.00     0.183 HD
ATOM      7  C   UNL d   1      -1.616   3.434   1.046  0.00  0.00    -0.010 A 
ATOM      8  C   UNL d   1      -1.448   4.622   0.288  0.00  0.00    -0.044 A 
ATOM      9  C   UNL d   1      -1.689   3.517   2.442  0.00  0.00     0.050 A 
ATOM     10  C   UNL d   1      -0.313   3.344  -1.551  0.00  0.00     0.131 C 
ATOM     11  C   UNL d   1      -1.615   4.768   3.074  0.00  0.00     0.102 A 
ATOM     12  C   UNL d   1      -1.417   5.869   0.916  0.00  0.00     0.047 A 
ATOM     13  C   UNL d   1      -1.496   5.950   2.308  0.00  0.00     0.102 A 
ATOM     14  C   UNL d   1      -1.286   4.488  -1.214  0.00  0.00     0.059 C 
ENDROOT
BRANCH   1  15
ATOM     15  C   UNL d   1       1.907   1.306  -0.611  0.00  0.00     0.233 C 
ATOM     16  O   UNL d   1       2.094   1.774  -1.732  0.00  0.00    -0.283 OA
BRANCH  15  17
ATOM     17  C   UNL d   1       2.926   0.651   0.207  0.00  0.00     0.058 A 
ATOM     18  S   UNL d   1       4.445   0.303  -0.527  0.00  0.00    -0.098 SA
ATOM     19  C   UNL d   1       5.053  -0.420   0.894  0.00  0.00     0.050 A 
ATOM     20  C   UNL d   1       4.137  -0.390   1.918  0.00  0.00     0.009 A 
ATOM     21  C   UNL d   1       2.915   0.234   1.525  0.00  0.00     0.023 A 
ENDBRANCH  15  17
ENDBRANCH   1  15
BRANCH   4  22
ATOM     22  C   UNL d   1      -2.081  -0.273   0.555  0.00  0.00     0.033 C 
ATOM     23  C   UNL d   1      -1.491  -1.551   0.697  0.00  0.00     0.025 C 
ATOM     24  C   UNL d   1      -2.062  -2.698   0.139  0.00  0.00     0.002 C 
ATOM     25  C   UNL d   1      -3.265  -2.606  -0.546  0.00  0.00     0.000 C 
ATOM     26  C   UNL d   1      -3.921  -1.382  -0.614  0.00  0.00     0.002 C 
ATOM     27  C   UNL d   1      -3.352  -0.235  -0.040  0.00  0.00     0.025 C 
ENDBRANCH   4  22
BRANCH  11  28
ATOM     28  O   UNL d   1      -1.620   4.950   4.435  0.00  0.00    -0.353 OA
ATOM     29  C   UNL d   1      -2.025   3.862   5.251  0.00  0.00     0.210 C 
ENDBRANCH  11  28
BRANCH  13  30
ATOM     30  O   UNL d   1      -1.440   7.127   3.013  0.00  0.00    -0.353 OA
ATOM     31  C   UNL d   1      -1.588   8.341   2.289  0.00  0.00     0.210 C 
ENDBRANCH  13  30
TORSDOF 5
