REMARK  5 active torsions:
REMARK  status: ('A' for Active; 'I' for Inactive)
REMARK    1  A    between atoms: C_10  and  C_1 
REMARK    2  A    between atoms: C_6  and  C_2 
REMARK    3  A    between atoms: C_16  and  N_3 
REMARK    4  A    between atoms: C_18  and  C_9 
REMARK    5  A    between atoms: N_13  and  C_17 
ROOT
ATOM      1  C   UNL d   1       1.011  -0.934  -0.033  0.00  0.00     0.156 A 
ATOM      2  C   UNL d   1      -0.320  -1.321  -0.061  0.00  0.00     0.068 A 
ATOM      3  N   UNL d   1       1.000   0.453  -0.037  0.00  0.00    -0.251 N 
ATOM      4  N   UNL d   1      -0.269   0.936   0.069  0.00  0.00    -0.303 N 
ATOM      5  HN  UNL d   1      -0.555   1.907   0.191  1.00  0.00     0.186 HD
ATOM      6  C   UNL d   1      -1.054  -0.132  -0.019  0.00  0.00     0.126 A 
ENDROOT
BRANCH   2   7
ATOM      7  C   UNL d   1      -0.897  -2.688  -0.044  0.00  0.00     0.186 A 
ATOM      8  N   UNL d   1      -0.199  -3.793   0.067  0.00  0.00    -0.318 N 
ATOM      9  C   UNL d   1      -1.160  -4.770   0.195  0.00  0.00     0.138 A 
ATOM     10  HN  UNL d   1       0.815  -3.902   0.059  1.00  0.00     0.169 HD
ATOM     11  N   UNL d   1      -2.415  -4.307   0.070  0.00  0.00    -0.242 N 
ATOM     12  O   UNL d   1      -2.246  -2.934  -0.078  0.00  0.00    -0.217 OA
ATOM     13  HN  UNL d   1      -3.286  -4.837   0.081  1.00  0.00     0.196 HD
BRANCH   9  14
ATOM     14  C   UNL d   1      -0.822  -6.152   0.520  0.00  0.00     0.010 A 
ATOM     15  C   UNL d   1       0.517  -6.515   0.748  0.00  0.00     0.017 A 
ATOM     16  C   UNL d   1       0.849  -7.821   1.125  0.00  0.00     0.025 A 
ATOM     17  C   UNL d   1      -0.155  -8.774   1.276  0.00  0.00     0.034 A 
ATOM     18  C   UNL d   1      -1.487  -8.435   1.044  0.00  0.00     0.025 A 
ATOM     19 CL   UNL d   1       0.248 -10.373   1.765  0.00  0.00    -0.084 Cl
ATOM     20  C   UNL d   1      -1.818  -7.130   0.666  0.00  0.00     0.017 A 
ENDBRANCH   9  14
ENDBRANCH   2   7
BRANCH   1  21
ATOM     21  C   UNL d   1       2.255  -1.712   0.081  0.00  0.00     0.435 C 
ATOM     22  F   UNL d   1       2.090  -2.964   0.565  0.00  0.00    -0.165 F 
ATOM     23  F   UNL d   1       2.869  -1.845  -1.122  0.00  0.00    -0.165 F 
ATOM     24  F   UNL d   1       3.146  -1.121   0.919  0.00  0.00    -0.165 F 
ENDBRANCH   1  21
BRANCH   3  25
ATOM     25  C   UNL d   1       2.070   1.397  -0.102  0.00  0.00     0.057 A 
ATOM     26  C   UNL d   1       3.248   1.139  -0.814  0.00  0.00     0.034 A 
ATOM     27  C   UNL d   1       4.296   2.067  -0.809  0.00  0.00     0.038 A 
ATOM     28  C   UNL d   1       4.162   3.266  -0.099  0.00  0.00     0.103 A 
ATOM     29  C   UNL d   1       2.971   3.559   0.575  0.00  0.00     0.038 A 
ATOM     30  C   UNL d   1       1.923   2.631   0.557  0.00  0.00     0.034 A 
BRANCH  28  31
ATOM     31  N   UNL d   1       5.277   4.221  -0.067  0.00  0.00    -0.116 N 
ATOM     32  O   UNL d   1       5.118   5.272   0.570  0.00  0.00    -0.532 OA
ATOM     33  O   UNL d   1       6.314   3.915  -0.673  0.00  0.00    -0.532 OA
ENDBRANCH  28  31
ENDBRANCH   3  25
TORSDOF 5
