REMARK  5 active torsions:
REMARK  status: ('A' for Active; 'I' for Inactive)
REMARK       I    between atoms: C_2  and  N_1 
REMARK    1  A    between atoms: C_3  and  N_1 
REMARK    2  A    between atoms: C_4  and  C_2 
REMARK    3  A    between atoms: O_15  and  C_8 
REMARK    4  A    between atoms: C_21  and  O_15 
REMARK    5  A    between atoms: C_19  and  C_21 
ROOT
ATOM      1  C   UNL d   1       2.373   0.157  -0.162  0.00  0.00     0.142 A 
ATOM      2  N   UNL d   1       2.836  -1.101  -0.299  0.00  0.00    -0.350 N 
ATOM      3  HN  UNL d   1       2.195  -1.882  -0.440  1.00  0.00     0.166 HD
ATOM      4  C   UNL d   1       3.234   1.258   0.029  0.00  0.00     0.113 A 
ATOM      5  C   UNL d   1       4.166  -1.302  -0.245  0.00  0.00     0.090 A 
ATOM      6  C   UNL d   1       4.607   1.011   0.097  0.00  0.00     0.042 A 
ATOM      7  C   UNL d   1       5.082  -0.290  -0.038  0.00  0.00     0.020 A 
ENDROOT
BRANCH   1   8
ATOM      8  N   UNL d   1       0.979   0.396  -0.156  0.00  0.00    -0.307 N 
ATOM      9  C   UNL d   1       0.007  -0.565  -0.378  0.00  0.00     0.257 C 
ATOM     10  O   UNL d   1       0.206  -1.719  -0.738  0.00  0.00    -0.267 OA
ATOM     11  H   UNL d   1       0.741   1.351   0.053  0.00  0.00     0.170 HD
BRANCH   9  12
ATOM     12  C   UNL d   1      -1.427  -0.164  -0.154  0.00  0.00     0.035 A 
ATOM     13  C   UNL d   1      -1.834   1.133   0.181  0.00  0.00     0.041 A 
ATOM     14  C   UNL d   1      -3.187   1.402   0.414  0.00  0.00     0.036 A 
ATOM     15 CL   UNL d   1      -3.667   3.001   0.840  0.00  0.00    -0.084 Cl
ATOM     16  C   UNL d   1      -4.151   0.404   0.314  0.00  0.00     0.047 A 
ATOM     17  C   UNL d   1      -3.754  -0.881  -0.033  0.00  0.00     0.036 A 
ATOM     18  C   UNL d   1      -2.408  -1.169  -0.267  0.00  0.00     0.041 A 
ATOM     19 CL   UNL d   1      -4.934  -2.128  -0.161  0.00  0.00    -0.084 Cl
ENDBRANCH   9  12
ENDBRANCH   1   8
BRANCH   4  20
ATOM     20  O   UNL d   1       2.658   2.503   0.098  0.00  0.00    -0.343 OA
BRANCH  20  21
ATOM     21  C   UNL d   1       3.477   3.620   0.465  0.00  0.00     0.214 C 
BRANCH  21  22
ATOM     22  C   UNL d   1       4.130   4.359  -0.691  0.00  0.00    -0.032 A 
ATOM     23  C   UNL d   1       3.866   4.056  -2.035  0.00  0.00     0.035 A 
ATOM     24  C   UNL d   1       4.386   4.851  -3.068  0.00  0.00     0.056 A 
ATOM     25 CL   UNL d   1       3.985   4.421  -4.694  0.00  0.00    -0.083 Cl
ATOM     26  C   UNL d   1       5.181   5.960  -2.765  0.00  0.00     0.055 A 
ATOM     27  C   UNL d   1       5.484   6.247  -1.433  0.00  0.00     0.026 A 
ATOM     28 CL   UNL d   1       5.791   7.030  -3.978  0.00  0.00    -0.083 Cl
ATOM     29  C   UNL d   1       4.966   5.451  -0.406  0.00  0.00     0.011 A 
ENDBRANCH  21  22
ENDBRANCH  20  21
ENDBRANCH   4  20
TORSDOF 5
