REMARK  6 active torsions:
REMARK  status: ('A' for Active; 'I' for Inactive)
REMARK    1  A    between atoms: O_3  and  C_1 
REMARK    2  A    between atoms: C_2  and  C_9 
REMARK       I    between atoms: N_5  and  C_2 
REMARK    3  A    between atoms: C_11  and  O_3 
REMARK    4  A    between atoms: N_13  and  N_5 
REMARK    5  A    between atoms: C_9  and  O_10 
REMARK    6  A    between atoms: O_10  and  C_12 
ROOT
ATOM      1  C   UNL d   1       0.921   1.312   1.925  0.00  0.00     0.078 A 
ATOM      2  C   UNL d   1       1.746   2.153   4.481  0.00  0.00     0.069 A 
ATOM      3  C   UNL d   1       2.263   1.225   2.296  0.00  0.00     0.040 A 
ATOM      4  C   UNL d   1       0.007   1.865   2.824  0.00  0.00     0.040 A 
ATOM      5  C   UNL d   1       2.675   1.631   3.578  0.00  0.00     0.039 A 
ATOM      6  C   UNL d   1       0.411   2.270   4.094  0.00  0.00     0.039 A 
ENDROOT
BRANCH   2   7
ATOM      7  O   UNL d   1       2.000   2.540   5.766  0.00  0.00    -0.342 OA
BRANCH   7   8
ATOM      8  C   UNL d   1       3.353   2.858   6.085  0.00  0.00     0.279 C 
BRANCH   8   9
ATOM      9  C   UNL d   1       3.487   3.255   7.558  0.00  0.00     0.255 C 
ATOM     10  O   UNL d   1       4.555   3.617   8.049  0.00  0.00    -0.270 OA
ATOM     11  N   UNL d   1       2.315   3.137   8.292  0.00  0.00    -0.292 N 
ATOM     12  H   UNL d   1       1.443   2.960   7.790  0.00  0.00     0.183 HD
BRANCH  11  13
ATOM     13  N   UNL d   1       2.286   3.524   9.647  0.00  0.00    -0.247 NA
ATOM     14  H   UNL d   1       3.163   4.031   9.834  0.00  0.00     0.143 HD
ATOM     15  H   UNL d   1       2.367   2.677  10.216  0.00  0.00     0.143 HD
ENDBRANCH  11  13
ENDBRANCH   8   9
ENDBRANCH   7   8
ENDBRANCH   2   7
BRANCH   1  16
ATOM     16  O   UNL d   1       0.368   0.907   0.751  0.00  0.00    -0.255 OA
BRANCH  16  17
ATOM     17  C   UNL d   1       1.068  -0.011  -0.070  0.00  0.00     0.530 C 
ATOM     18  F   UNL d   1       1.828  -0.876   0.636  0.00  0.00    -0.144 F 
ATOM     19  F   UNL d   1       1.848   0.653  -0.948  0.00  0.00    -0.144 F 
ATOM     20  F   UNL d   1       0.165  -0.734  -0.768  0.00  0.00    -0.144 F 
ENDBRANCH  16  17
ENDBRANCH   1  16
TORSDOF 6
