REMARK  5 active torsions:
REMARK  status: ('A' for Active; 'I' for Inactive)
REMARK    1  A    between atoms: S_2  and  C_1 
REMARK    2  A    between atoms: N_8  and  S_2 
REMARK    3  A    between atoms: C_19  and  N_8 
REMARK    4  A    between atoms: C_9  and  C_13 
REMARK    5  A    between atoms: C_20  and  C_19 
ROOT
ATOM      1  N   UNL d   1       4.059  -0.611   1.422  0.00  0.00    -0.210 NA
ATOM      2  H   UNL d   1       5.058  -0.789   1.369  0.00  0.00     0.140 HD
ENDROOT
BRANCH   1   3
ATOM      3  S   UNL d   1       3.530   0.125   0.003  0.00  0.00     0.258 S 
ATOM      4  O   UNL d   1       4.114  -0.603  -1.103  0.00  0.00    -0.204 OA
ATOM      5  O   UNL d   1       3.710   1.554   0.146  0.00  0.00    -0.204 OA
BRANCH   3   6
ATOM      6  C   UNL d   1       1.812  -0.088  -0.176  0.00  0.00     0.161 A 
ATOM      7  N   UNL d   1       1.031  -0.807   0.715  0.00  0.00    -0.335 N 
ATOM      8  C   UNL d   1      -0.200  -0.733   0.248  0.00  0.00     0.079 A 
ATOM      9  HN  UNL d   1       1.343  -1.293   1.556  1.00  0.00     0.168 HD
ATOM     10  C   UNL d   1      -1.395  -1.378   0.848  0.00  0.00     0.089 C 
ATOM     11  N   UNL d   1      -0.240   0.036  -0.892  0.00  0.00    -0.348 N 
ATOM     12  C   UNL d   1       1.031   0.442  -1.180  0.00  0.00     0.135 A 
ATOM     13  C   UNL d   1      -1.420   0.375  -1.649  0.00  0.00     0.156 C 
ENDBRANCH   3   6
ENDBRANCH   1   3
BRANCH   1  14
ATOM     14  C   UNL d   1       3.613   0.039   2.660  0.00  0.00     0.143 C 
BRANCH  14  15
ATOM     15  C   UNL d   1       4.111  -0.687   3.889  0.00  0.00    -0.044 A 
ATOM     16  C   UNL d   1       5.483  -0.833   4.121  0.00  0.00     0.009 A 
ATOM     17  C   UNL d   1       5.946  -1.478   5.272  0.00  0.00     0.013 A 
ATOM     18  C   UNL d   1       5.053  -1.987   6.227  0.00  0.00    -0.019 A 
ATOM     19  C   UNL d   1       3.679  -1.830   5.991  0.00  0.00     0.013 A 
ATOM     20  C   UNL d   1       3.212  -1.192   4.835  0.00  0.00     0.009 A 
BRANCH  18  21
ATOM     21  C   UNL d   1       5.527  -2.647   7.458  0.00  0.00     0.015 A 
ATOM     22  S   UNL d   1       6.983  -3.567   7.462  0.00  0.00    -0.101 SA
ATOM     23  C   UNL d   1       6.833  -3.948   9.118  0.00  0.00     0.050 A 
ATOM     24  C   UNL d   1       5.692  -3.414   9.668  0.00  0.00     0.008 A 
ATOM     25  C   UNL d   1       4.941  -2.668   8.713  0.00  0.00     0.020 A 
ENDBRANCH  18  21
ENDBRANCH  14  15
ENDBRANCH   1  14
TORSDOF 5
