REMARK  7 active torsions:
REMARK  status: ('A' for Active; 'I' for Inactive)
REMARK    1  A    between atoms: N_3  and  S_1 
REMARK    2  A    between atoms: C_10  and  S_1 
REMARK    3  A    between atoms: N_2  and  C_11 
REMARK    4  A    between atoms: N_4  and  N_3 
REMARK       I    between atoms: C_7  and  N_4 
REMARK    5  A    between atoms: C_14  and  C_7 
REMARK    6  A    between atoms: C_27  and  C_24 
REMARK    7  A    between atoms: C_28  and  C_27 
ROOT
ATOM      1  N   UNL d   1       0.919  -2.143   1.505  0.00  0.00    -0.256 N 
ATOM      2  C   UNL d   1       0.710  -3.044   2.524  0.00  0.00     0.270 C 
ATOM      3  O   UNL d   1       1.265  -4.143   2.584  0.00  0.00    -0.266 OA
ATOM      4  H   UNL d   1       0.381  -1.283   1.401  0.00  0.00     0.191 HD
ENDROOT
BRANCH   1   5
ATOM      5  N   UNL d   1       1.885  -2.442   0.472  0.00  0.00    -0.220 N 
ATOM      6  H   UNL d   1       2.436  -3.305   0.529  0.00  0.00     0.200 HD
BRANCH   5   7
ATOM      7  S   UNL d   1       2.125  -1.319  -0.760  0.00  0.00     0.276 S 
ATOM      8  O   UNL d   1       2.737  -0.152  -0.165  0.00  0.00    -0.199 OA
ATOM      9  O   UNL d   1       0.878  -1.201  -1.487  0.00  0.00    -0.199 OA
BRANCH   7  10
ATOM     10  C   UNL d   1       3.315  -2.111  -1.804  0.00  0.00     0.081 A 
ATOM     11  C   UNL d   1       2.886  -2.875  -2.892  0.00  0.00     0.026 A 
ATOM     12  C   UNL d   1       3.830  -3.468  -3.733  0.00  0.00     0.009 A 
ATOM     13  C   UNL d   1       5.202  -3.296  -3.497  0.00  0.00    -0.058 A 
ATOM     14  C   UNL d   1       5.614  -2.487  -2.427  0.00  0.00     0.009 A 
ATOM     15  C   UNL d   1       4.676  -1.895  -1.580  0.00  0.00     0.026 A 
BRANCH  13  16
ATOM     16  C   UNL d   1       6.221  -3.979  -4.379  0.00  0.00     0.038 C 
BRANCH  16  17
ATOM     17  C   UNL d   1       7.127  -4.962  -3.626  0.00  0.00     0.000 C 
ATOM     18  C   UNL d   1       6.364  -6.110  -2.979  0.00  0.00     0.005 C 
ENDBRANCH  16  17
ENDBRANCH  13  16
ENDBRANCH   7  10
ENDBRANCH   5   7
ENDBRANCH   1   5
BRANCH   2  19
ATOM     19  C   UNL d   1      -0.261  -2.622   3.573  0.00  0.00     0.033 A 
ATOM     20  C   UNL d   1      -1.046  -3.593   4.197  0.00  0.00     0.019 A 
ATOM     21  C   UNL d   1      -1.958  -3.231   5.197  0.00  0.00     0.031 A 
ATOM     22  C   UNL d   1      -2.039  -1.909   5.655  0.00  0.00     0.039 A 
ATOM     23  C   UNL d   1      -1.234  -0.943   5.034  0.00  0.00     0.031 A 
ATOM     24  C   UNL d   1      -0.374  -1.288   3.980  0.00  0.00     0.019 A 
BRANCH  22  25
ATOM     25  N   UNL d   1      -2.904  -1.558   6.750  0.00  0.00    -0.320 N 
ATOM     26  C   UNL d   1      -3.579  -0.338   6.924  0.00  0.00     0.013 A 
ATOM     27  C   UNL d   1      -4.269  -0.382   8.121  0.00  0.00     0.027 A 
ATOM     28  C   UNL d   1      -3.648   0.799   5.958  0.00  0.00     0.068 C 
ATOM     29  C   UNL d   1      -4.066  -1.641   8.691  0.00  0.00     0.027 A 
ATOM     30  C   UNL d   1      -3.222  -2.357   7.860  0.00  0.00     0.013 A 
ATOM     31  C   UNL d   1      -2.690  -3.714   8.191  0.00  0.00     0.068 C 
ENDBRANCH  22  25
ENDBRANCH   2  19
TORSDOF 7
