REMARK  2 active torsions:
REMARK  status: ('A' for Active; 'I' for Inactive)
REMARK    1  A    between atoms: C_7  and  C_3 
REMARK    2  A    between atoms: O_10  and  C_9 
ROOT
ATOM      1  C   UNL d   1       1.841   0.511   0.436  0.00  0.00    -0.002 A 
ATOM      2  C   UNL d   1       0.794   1.564   0.584  0.00  0.00     0.189 A 
ATOM      3  C   UNL d   1       3.089   0.815   0.056  0.00  0.00     0.025 C 
ATOM      4  C   UNL d   1      -0.475   0.862   0.806  0.00  0.00     0.021 A 
ATOM      5  C   UNL d   1      -0.243  -0.513   0.847  0.00  0.00    -0.040 A 
ATOM      6  C   UNL d   1       1.209  -0.838   0.675  0.00  0.00     0.082 A 
ATOM      7  O   UNL d   1       0.945   2.765   0.501  0.00  0.00    -0.287 OA
ATOM      8  C   UNL d   1      -1.740   1.409   0.926  0.00  0.00     0.016 A 
ATOM      9  C   UNL d   1      -1.300  -1.391   1.023  0.00  0.00     0.008 A 
ATOM     10  C   UNL d   1      -2.808   0.527   1.095  0.00  0.00     0.001 A 
ATOM     11  C   UNL d   1      -2.589  -0.862   1.144  0.00  0.00     0.001 A 
ENDROOT
BRANCH   3  12
ATOM     12  C   UNL d   1       4.088  -0.219  -0.219  0.00  0.00    -0.002 A 
ATOM     13  C   UNL d   1       4.238  -0.863  -1.460  0.00  0.00     0.078 A 
ATOM     14  C   UNL d   1       5.149  -1.923  -1.576  0.00  0.00     0.037 A 
ATOM     15  C   UNL d   1       5.921  -2.331  -0.489  0.00  0.00     0.003 A 
ATOM     16  C   UNL d   1       5.785  -1.687   0.735  0.00  0.00     0.001 A 
ATOM     17  C   UNL d   1       4.874  -0.638   0.869  0.00  0.00     0.014 A 
BRANCH  13  18
ATOM     18  O   UNL d   1       3.525  -0.642  -2.609  0.00  0.00    -0.355 OA
ATOM     19  C   UNL d   1       3.151   0.699  -2.902  0.00  0.00     0.210 C 
ENDBRANCH  13  18
ENDBRANCH   3  12
TORSDOF 2
