REMARK  3 active torsions:
REMARK  status: ('A' for Active; 'I' for Inactive)
REMARK    1  A    between atoms: N_2  and  S_1 
REMARK    2  A    between atoms: C_3  and  S_1 
REMARK    3  A    between atoms: C_17  and  C_5 
ROOT
ATOM      1  S   UNL d   1       0.911  -0.060  -0.248  0.00  0.00     0.244 S 
ATOM      2  O   UNL d   1       2.328  -0.088   0.061  0.00  0.00    -0.206 OA
ATOM      3  O   UNL d   1       0.380  -0.808  -1.366  0.00  0.00    -0.206 OA
ENDROOT
BRANCH   1   4
ATOM      4  N   UNL d   1       0.446   1.578  -0.415  0.00  0.00    -0.203 NA
ATOM      5  C   UNL d   1       0.934   2.467   0.672  0.00  0.00     0.135 C 
ATOM      6  C   UNL d   1       0.738   3.927   0.352  0.00  0.00    -0.004 C 
ATOM      7  C   UNL d   1       0.300   4.417  -0.825  0.00  0.00    -0.049 C 
ATOM      8  C   UNL d   1      -0.058   3.451  -1.927  0.00  0.00     0.054 C 
ATOM      9  C   UNL d   1       0.715   2.138  -1.767  0.00  0.00     0.112 C 
BRANCH   7  10
ATOM     10  C   UNL d   1       0.184   5.872  -1.085  0.00  0.00    -0.030 A 
ATOM     11  C   UNL d   1       1.111   6.781  -0.547  0.00  0.00     0.012 A 
ATOM     12  C   UNL d   1       1.026   8.151  -0.815  0.00  0.00     0.001 A 
ATOM     13  C   UNL d   1       0.017   8.637  -1.639  0.00  0.00     0.000 A 
ATOM     14  C   UNL d   1      -0.905   7.755  -2.194  0.00  0.00     0.001 A 
ATOM     15  C   UNL d   1      -0.822   6.384  -1.920  0.00  0.00     0.012 A 
ENDBRANCH   7  10
ENDBRANCH   1   4
BRANCH   1  16
ATOM     16  C   UNL d   1       0.013  -0.574   1.195  0.00  0.00     0.077 A 
ATOM     17  C   UNL d   1      -1.380  -0.681   1.114  0.00  0.00     0.064 A 
ATOM     18  C   UNL d   1      -2.105  -1.031   2.251  0.00  0.00     0.103 A 
ATOM     19  O   UNL d   1      -3.465  -1.117   2.107  0.00  0.00    -0.346 OA
ATOM     20  C   UNL d   1      -1.442  -1.286   3.455  0.00  0.00     0.102 A 
ATOM     21  C   UNL d   1      -4.138  -1.141   3.370  0.00  0.00     0.202 C 
ATOM     22  C   UNL d   1      -3.430  -2.045   4.367  0.00  0.00     0.202 C 
ATOM     23  O   UNL d   1      -2.094  -1.602   4.619  0.00  0.00    -0.346 OA
ATOM     24  C   UNL d   1      -0.050  -1.212   3.521  0.00  0.00     0.041 A 
ATOM     25  C   UNL d   1       0.686  -0.869   2.385  0.00  0.00     0.028 A 
ENDBRANCH   1  16
TORSDOF 3
