REMARK  1 active torsions:
REMARK  status: ('A' for Active; 'I' for Inactive)
REMARK       I    between atoms: C_2  and  N_3 
REMARK    1  A    between atoms: N_3  and  C_4 
ROOT
ATOM      1  C   UNL d   1       0.078  -0.745   0.019  0.00  0.00    -0.050 A 
ATOM      2  C   UNL d   1      -2.351  -0.981   0.056  0.00  0.00     0.035 A 
ATOM      3  C   UNL d   1      -1.077  -1.542   0.067  0.00  0.00     0.037 A 
ATOM      4  C   UNL d   1      -0.043   0.653  -0.015  0.00  0.00    -0.052 A 
ATOM      5  C   UNL d   1      -1.323   1.221  -0.043  0.00  0.00     0.010 A 
ATOM      6  C   UNL d   1      -2.466   0.412  -0.004  0.00  0.00     0.030 A 
ATOM      7  C   UNL d   1       1.419  -1.432   0.079  0.00  0.00     0.039 C 
ATOM      8  C   UNL d   1       1.177   1.539  -0.077  0.00  0.00     0.039 C 
ATOM      9  C   UNL d   1       2.578  -0.527  -0.326  0.00  0.00     0.005 C 
ATOM     10  C   UNL d   1       2.458   0.827   0.362  0.00  0.00     0.005 C 
ENDROOT
BRANCH   2  11
ATOM     11  N   UNL d   1      -3.537  -1.747   0.111  0.00  0.00    -0.328 N 
ATOM     12  C   UNL d   1      -3.631  -3.127   0.184  0.00  0.00     0.218 C 
ATOM     13  O   UNL d   1      -2.705  -3.932   0.205  0.00  0.00    -0.274 OA
ATOM     14  C   UNL d   1      -5.050  -3.632   0.243  0.00  0.00     0.117 C 
ATOM     15  H   UNL d   1      -4.403  -1.225   0.100  0.00  0.00     0.169 HD
ENDBRANCH   2  11
TORSDOF 1
