REMARK  3 active torsions:
REMARK  status: ('A' for Active; 'I' for Inactive)
REMARK    1  A    between atoms: C_2  and  C_1 
REMARK       I    between atoms: N_8  and  C_2 
REMARK    2  A    between atoms: C_7  and  C_3 
REMARK    3  A    between atoms: C_14  and  N_8 
ROOT
ATOM      1  C   UNL d   1       0.984   0.115   0.023  0.00  0.00     0.113 C 
ATOM      2  C   UNL d   1       0.206  -0.966  -0.205  0.00  0.00     0.039 C 
ATOM      3  C   UNL d   1       0.464   1.402   0.317  0.00  0.00     0.105 C 
ATOM      4  N   UNL d   1       0.103   2.485   0.534  0.00  0.00    -0.191 NA
ENDROOT
BRANCH   1   5
ATOM      5  C   UNL d   1       2.477  -0.068  -0.024  0.00  0.00     0.262 C 
ATOM      6  O   UNL d   1       2.986  -1.169  -0.215  0.00  0.00    -0.267 OA
ATOM      7  N   UNL d   1       3.229   1.076   0.153  0.00  0.00    -0.357 N 
ATOM      8  H   UNL d   1       2.789   1.983   0.257  0.00  0.00     0.162 HD
BRANCH   7   9
ATOM      9  C   UNL d   1       4.678   1.071   0.106  0.00  0.00     0.118 C 
ATOM     10  C   UNL d   1       5.191   1.309  -1.302  0.00  0.00     0.026 C 
ENDBRANCH   7   9
ENDBRANCH   1   5
BRANCH   2  11
ATOM     11  C   UNL d   1      -1.270  -1.046  -0.226  0.00  0.00    -0.035 A 
ATOM     12  C   UNL d   1      -2.084  -0.032  -0.744  0.00  0.00     0.012 A 
ATOM     13  C   UNL d   1      -3.477  -0.162  -0.757  0.00  0.00     0.007 A 
ATOM     14  C   UNL d   1      -4.087  -1.328  -0.288  0.00  0.00    -0.062 A 
ATOM     15  C   UNL d   1      -3.281  -2.361   0.197  0.00  0.00     0.007 A 
ATOM     16  C   UNL d   1      -5.582  -1.449  -0.323  0.00  0.00     0.048 C 
ATOM     17  C   UNL d   1      -1.887  -2.221   0.226  0.00  0.00     0.012 A 
ENDBRANCH   2  11
TORSDOF 3
