REMARK  7 active torsions:
REMARK  status: ('A' for Active; 'I' for Inactive)
REMARK    1  A    between atoms: C_7  and  C_1 
REMARK    2  A    between atoms: C_2  and  C_5 
REMARK    3  A    between atoms: C_3  and  C_4 
REMARK    4  A    between atoms: C_8  and  O_21 
REMARK       I    between atoms: N_17  and  C_8 
REMARK    5  A    between atoms: C_29  and  C_13 
REMARK    6  A    between atoms: C_18  and  N_17 
REMARK    7  A    between atoms: O_21  and  C_29 
ROOT
ATOM      1  C   UNL d   1       0.071   1.138   0.033  0.00  0.00     0.086 A 
ATOM      2  O   UNL d   1      -0.779   0.067   0.063  0.00  0.00    -0.312 OA
ATOM      3  C   UNL d   1       1.375   0.684   0.006  0.00  0.00     0.040 A 
ATOM      4  C   UNL d   1      -0.021  -1.066   0.063  0.00  0.00     0.078 A 
ATOM      5  C   UNL d   1       1.316  -0.733   0.030  0.00  0.00     0.038 A 
ENDROOT
BRANCH   1   6
ATOM      6  C   UNL d   1      -0.562   2.452   0.099  0.00  0.00    -0.001 A 
ATOM      7  C   UNL d   1       0.166   3.576   0.515  0.00  0.00     0.030 A 
ATOM      8  C   UNL d   1      -0.455   4.828   0.683  0.00  0.00     0.049 A 
ATOM      9  C   UNL d   1      -1.823   4.953   0.399  0.00  0.00     0.032 A 
ATOM     10  C   UNL d   1      -2.574   3.846  -0.026  0.00  0.00     0.049 A 
ATOM     11  C   UNL d   1      -1.927   2.609  -0.185  0.00  0.00     0.030 A 
BRANCH   8  12
ATOM     12  C   UNL d   1       0.344   5.994   1.218  0.00  0.00     0.417 C 
ATOM     13  F   UNL d   1      -0.399   7.119   1.407  0.00  0.00    -0.166 F 
ATOM     14  F   UNL d   1       0.914   5.716   2.423  0.00  0.00    -0.166 F 
ATOM     15  F   UNL d   1       1.365   6.351   0.393  0.00  0.00    -0.166 F 
ENDBRANCH   8  12
BRANCH  10  16
ATOM     16  C   UNL d   1      -4.062   3.949  -0.264  0.00  0.00     0.417 C 
ATOM     17  F   UNL d   1      -4.573   5.172   0.052  0.00  0.00    -0.166 F 
ATOM     18  F   UNL d   1      -4.403   3.725  -1.561  0.00  0.00    -0.166 F 
ATOM     19  F   UNL d   1      -4.768   3.051   0.476  0.00  0.00    -0.166 F 
ENDBRANCH  10  16
ENDBRANCH   1   6
BRANCH   4  20
ATOM     20  C   UNL d   1      -0.749  -2.355   0.143  0.00  0.00     0.245 C 
BRANCH  20  21
ATOM     21  O   UNL d   1      -1.611  -2.449  -0.997  0.00  0.00    -0.297 OA
BRANCH  21  22
ATOM     22  C   UNL d   1      -1.260  -3.328  -1.961  0.00  0.00     0.365 C 
ATOM     23  N   UNL d   1      -2.149  -3.438  -3.000  0.00  0.00    -0.303 N 
ATOM     24  H   UNL d   1      -1.800  -4.068  -3.711  0.00  0.00     0.171 HD
ATOM     25  O   UNL d   1      -0.237  -4.000  -1.950  0.00  0.00    -0.238 OA
BRANCH  23  26
ATOM     26  C   UNL d   1      -3.461  -2.953  -3.168  0.00  0.00     0.038 A 
ATOM     27  C   UNL d   1      -4.154  -2.187  -2.231  0.00  0.00     0.054 A 
ATOM     28  C   UNL d   1      -5.505  -1.871  -2.424  0.00  0.00     0.042 A 
ATOM     29 CL   UNL d   1      -6.307  -0.984  -1.174  0.00  0.00    -0.084 Cl
ATOM     30  C   UNL d   1      -6.187  -2.292  -3.573  0.00  0.00    -0.040 A 
ATOM     31  C   UNL d   1      -5.474  -3.010  -4.540  0.00  0.00     0.011 A 
ATOM     32  C   UNL d   1      -7.657  -2.047  -3.759  0.00  0.00     0.050 C 
ATOM     33  C   UNL d   1      -4.128  -3.334  -4.339  0.00  0.00     0.030 A 
ENDBRANCH  23  26
ENDBRANCH  21  22
ENDBRANCH  20  21
ENDBRANCH   4  20
TORSDOF 7
