REMARK  3 active torsions:
REMARK  status: ('A' for Active; 'I' for Inactive)
REMARK    1  A    between atoms: C_2  and  C_1 
REMARK    2  A    between atoms: O_11  and  C_3 
REMARK    3  A    between atoms: C_15  and  O_11 
ROOT
ATOM      1  C   UNL d   1       0.523   0.196  -1.378  0.00  0.00     0.066 A 
ATOM      2  C   UNL d   1      -0.392  -0.523  -3.508  0.00  0.00     0.114 A 
ATOM      3  N   UNL d   1      -0.226   1.834  -2.989  0.00  0.00    -0.354 N 
ATOM      4  HN  UNL d   1      -0.353   2.809  -3.259  1.00  0.00     0.166 HD
ATOM      5  C   UNL d   1      -0.610   0.819  -3.813  0.00  0.00     0.148 A 
ATOM      6  C   UNL d   1       0.159  -0.829  -2.259  0.00  0.00     0.058 A 
ATOM      7  N   UNL d   1      -1.864   1.597  -5.954  0.00  0.00    -0.190 NA
ATOM      8  C   UNL d   1      -1.307   1.252  -4.993  0.00  0.00     0.120 C 
ATOM      9  C   UNL d   1       0.330   1.502  -1.802  0.00  0.00     0.105 A 
ENDROOT
BRANCH   2  10
ATOM     10  O   UNL d   1      -0.788  -1.604  -4.255  0.00  0.00    -0.308 OA
BRANCH  10  11
ATOM     11  C   UNL d   1      -0.455  -1.690  -5.588  0.00  0.00     0.076 A 
ATOM     12  C   UNL d   1       0.639  -1.064  -6.191  0.00  0.00     0.039 A 
ATOM     13  C   UNL d   1       0.845  -1.201  -7.569  0.00  0.00     0.026 A 
ATOM     14  C   UNL d   1      -0.013  -1.996  -8.328  0.00  0.00     0.034 A 
ATOM     15  C   UNL d   1      -1.070  -2.668  -7.721  0.00  0.00     0.026 A 
ATOM     16 CL   UNL d   1       0.241  -2.156 -10.021  0.00  0.00    -0.084 Cl
ATOM     17  C   UNL d   1      -1.289  -2.514  -6.350  0.00  0.00     0.039 A 
ENDBRANCH  10  11
ENDBRANCH   2  10
BRANCH   1  18
ATOM     18  C   UNL d   1       1.075  -0.064  -0.009  0.00  0.00     0.418 C 
ATOM     19  F   UNL d   1       1.174  -1.388   0.291  0.00  0.00    -0.166 F 
ATOM     20  F   UNL d   1       0.308   0.485   0.971  0.00  0.00    -0.166 F 
ATOM     21  F   UNL d   1       2.322   0.453   0.154  0.00  0.00    -0.166 F 
ENDBRANCH   1  18
TORSDOF 3
