REMARK  1 active torsions:
REMARK  status: ('A' for Active; 'I' for Inactive)
REMARK    1  A    between atoms: C_5  and  C_3 
ROOT
ATOM      1  C   UNL d   1       1.066  -0.812  -0.053  0.00  0.00     0.059 A 
ATOM      2  N   UNL d   1      -0.050  -1.605  -0.046  0.00  0.00    -0.356 N 
ATOM      3  C   UNL d   1       2.492  -1.306   0.002  0.00  0.00     0.376 C 
ATOM      4  C   UNL d   1       0.656   0.505  -0.086  0.00  0.00    -0.019 A 
ATOM      5  C   UNL d   1      -0.765   0.517  -0.082  0.00  0.00    -0.001 A 
ATOM      6  C   UNL d   1      -1.181  -0.819  -0.045  0.00  0.00     0.043 A 
ATOM      7  N   UNL d   1       3.404  -0.172  -0.381  0.00  0.00     0.103 N 
ATOM      8  C   UNL d   1       1.641   1.619  -0.107  0.00  0.00     0.071 C 
ATOM      9  C   UNL d   1       3.031   1.083   0.322  0.00  0.00     0.275 C 
ATOM     10  C   UNL d   1      -1.746   1.528  -0.090  0.00  0.00     0.014 A 
ATOM     11  C   UNL d   1      -2.529  -1.189  -0.005  0.00  0.00     0.030 A 
ATOM     12  C   UNL d   1      -3.099   1.172  -0.049  0.00  0.00     0.001 A 
ATOM     13  C   UNL d   1      -3.482  -0.166  -0.004  0.00  0.00     0.002 A 
ATOM     14  H   UNL d   1      -0.064  -2.615  -0.002  0.00  0.00     0.166 HD
ATOM     15  H   UNL d   1       3.276  -0.010  -1.381  0.00  0.00     0.317 HD
ENDROOT
BRANCH   3  16
ATOM     16  C   UNL d   1       2.841  -2.070   1.331  0.00  0.00     0.423 C 
ATOM     17  F   UNL d   1       1.745  -2.337   2.083  0.00  0.00    -0.168 F 
ATOM     18  F   UNL d   1       3.402  -3.273   1.040  0.00  0.00    -0.168 F 
ATOM     19  F   UNL d   1       3.712  -1.401   2.119  0.00  0.00    -0.168 F 
ENDBRANCH   3  16
TORSDOF 1
