REMARK  4 active torsions:
REMARK  status: ('A' for Active; 'I' for Inactive)
REMARK    1  A    between atoms: O_5  and  C_1 
REMARK    2  A    between atoms: C_4  and  O_5 
REMARK    3  A    between atoms: C_8  and  C_4 
REMARK    4  A    between atoms: C_9  and  C_8 
ROOT
ATOM      1  O   UNL d   1       2.620  -0.631  -0.536  0.00  0.00    -0.275 OA
ENDROOT
BRANCH   1   2
ATOM      2  C   UNL d   1       3.647  -1.563  -0.550  0.00  0.00     0.288 C 
ATOM      3  O   UNL d   1       3.703  -2.584   0.126  0.00  0.00    -0.260 OA
BRANCH   2   4
ATOM      4  C   UNL d   1       4.756  -1.177  -1.469  0.00  0.00     0.084 C 
BRANCH   4   5
ATOM      5  C   UNL d   1       4.827  -0.089  -2.250  0.00  0.00     0.025 C 
ATOM      6  C   UNL d   1       5.970   0.210  -3.079  0.00  0.00     0.005 A 
ATOM      7  S   UNL d   1       5.893   1.608  -4.105  0.00  0.00    -0.102 SA
ATOM      8  C   UNL d   1       7.202  -0.405  -3.222  0.00  0.00     0.019 A 
ATOM      9  C   UNL d   1       7.471   1.378  -4.703  0.00  0.00     0.050 A 
ATOM     10  C   UNL d   1       8.070   0.263  -4.154  0.00  0.00     0.008 A 
ENDBRANCH   4   5
ENDBRANCH   2   4
ENDBRANCH   1   2
BRANCH   1  11
ATOM     11  C   UNL d   1       1.315  -0.654   0.096  0.00  0.00     0.091 C 
ATOM     12  C   UNL d   1       0.953   0.562   0.699  0.00  0.00    -0.027 C 
ATOM     13  C   UNL d   1      -0.389   0.971   0.670  0.00  0.00     0.016 C 
ATOM     14  C   UNL d   1       1.967   1.376   1.445  0.00  0.00     0.051 C 
ATOM     15  C   UNL d   1      -1.379   0.126   0.164  0.00  0.00    -0.061 C 
ATOM     16  C   UNL d   1      -1.018  -1.169  -0.224  0.00  0.00     0.016 C 
ATOM     17  C   UNL d   1      -2.797   0.605   0.038  0.00  0.00     0.048 C 
ATOM     18  C   UNL d   1       0.330  -1.588  -0.248  0.00  0.00    -0.027 C 
ATOM     19  C   UNL d   1       0.575  -3.058  -0.410  0.00  0.00     0.051 C 
ENDBRANCH   1  11
TORSDOF 4
