REMARK  5 active torsions:
REMARK  status: ('A' for Active; 'I' for Inactive)
REMARK    1  A    between atoms: C_2  and  S_1 
REMARK    2  A    between atoms: N_8  and  S_1 
REMARK    3  A    between atoms: C_13  and  C_3 
REMARK    4  A    between atoms: C_5  and  C_14 
REMARK    5  A    between atoms: C_6  and  N_18 
ROOT
ATOM      1  N   UNL d   1       0.420   0.086  -0.992  0.00  0.00    -0.303 N 
ATOM      2  N   UNL d   1      -2.384   0.942  -1.404  0.00  0.00     0.105 N 
ATOM      3  C   UNL d   1       0.115   1.424  -1.545  0.00  0.00     0.165 C 
ATOM      4  C   UNL d   1      -0.612  -0.928  -1.280  0.00  0.00     0.165 C 
ATOM      5  C   UNL d   1      -2.039  -0.421  -0.965  0.00  0.00     0.294 C 
ATOM      6  C   UNL d   1      -1.281   1.874  -1.079  0.00  0.00     0.294 C 
ENDROOT
BRANCH   1   7
ATOM      7  S   UNL d   1       1.286  -0.005   0.450  0.00  0.00     0.267 S 
ATOM      8  O   UNL d   1       1.121   1.242   1.168  0.00  0.00    -0.200 OA
ATOM      9  O   UNL d   1       1.063  -1.280   1.079  0.00  0.00    -0.200 OA
BRANCH   7  10
ATOM     10  C   UNL d   1       2.997  -0.017  -0.037  0.00  0.00     0.121 A 
ATOM     11  S   UNL d   1       3.454  -1.310  -1.055  0.00  0.00    -0.074 SA
ATOM     12  C   UNL d   1       5.054  -0.731  -1.200  0.00  0.00     0.035 A 
ATOM     13  C   UNL d   1       5.250   0.420  -0.463  0.00  0.00     0.023 A 
ATOM     14  C   UNL d   1       4.059   0.830   0.215  0.00  0.00     0.034 A 
BRANCH  12  15
ATOM     15  C   UNL d   1       6.090  -1.406  -2.044  0.00  0.00     0.074 A 
ATOM     16  C   UNL d   1       5.910  -2.608  -2.761  0.00  0.00     0.077 A 
ATOM     17  C   UNL d   1       7.106  -2.811  -3.405  0.00  0.00     0.184 A 
ATOM     18  O   UNL d   1       7.959  -1.801  -3.085  0.00  0.00    -0.233 OA
ATOM     19  N   UNL d   1       7.324  -0.917  -2.224  0.00  0.00    -0.260 N 
ATOM     20  HN  UNL d   1       7.717  -0.069  -1.814  1.00  0.00     0.195 HD
BRANCH  17  21
ATOM     21  C   UNL d   1       7.600  -3.850  -4.322  0.00  0.00     0.441 C 
ATOM     22  F   UNL d   1       6.642  -4.784  -4.570  0.00  0.00    -0.164 F 
ATOM     23  F   UNL d   1       7.965  -3.345  -5.527  0.00  0.00    -0.164 F 
ATOM     24  F   UNL d   1       8.670  -4.516  -3.824  0.00  0.00    -0.164 F 
ENDBRANCH  17  21
ENDBRANCH  12  15
ENDBRANCH   7  10
ENDBRANCH   1   7
BRANCH   2  25
ATOM     25  C   UNL d   1      -3.000   1.068  -2.746  0.00  0.00     0.290 C 
ATOM     26  C   UNL d   1      -3.340   2.534  -3.047  0.00  0.00    -0.009 A 
ATOM     27  C   UNL d   1      -2.545   3.007  -4.115  0.00  0.00    -0.017 A 
ATOM     28  C   UNL d   1      -4.192   3.380  -2.349  0.00  0.00     0.010 A 
ATOM     29  C   UNL d   1      -2.603   4.335  -4.500  0.00  0.00     0.013 A 
ATOM     30  C   UNL d   1      -1.753   1.911  -4.628  0.00  0.00    -0.017 C 
ATOM     31  C   UNL d   1      -3.453   5.194  -3.795  0.00  0.00     0.001 A 
ATOM     32  C   UNL d   1      -4.238   4.722  -2.729  0.00  0.00     0.001 A 
ATOM     33  C   UNL d   1      -2.106   0.732  -3.937  0.00  0.00    -0.009 C 
ATOM     34  C   UNL d   1      -0.764   1.885  -5.598  0.00  0.00     0.013 C 
ATOM     35  C   UNL d   1      -1.632  -0.501  -4.355  0.00  0.00     0.010 C 
ATOM     36  C   UNL d   1      -0.618  -0.528  -5.312  0.00  0.00     0.001 C 
ATOM     37  C   UNL d   1      -0.162   0.660  -5.902  0.00  0.00     0.001 C 
ENDBRANCH   2  25
TORSDOF 5
