REMARK  4 active torsions:
REMARK  status: ('A' for Active; 'I' for Inactive)
REMARK    1  A    between atoms: C_2  and  S_1 
REMARK    2  A    between atoms: O_3  and  S_1 
REMARK    3  A    between atoms: C_9  and  O_3 
REMARK    4  A    between atoms: C_6  and  C_9 
ROOT
ATOM      1  S   UNL d   1       0.414   0.416  -0.746  0.00  0.00     0.298 S 
ATOM      2  O   UNL d   1       1.268   0.306   0.421  0.00  0.00    -0.193 OA
ATOM      3  O   UNL d   1       0.872   1.093  -1.944  0.00  0.00    -0.193 OA
ENDROOT
BRANCH   1   4
ATOM      4  C   UNL d   1      -1.079   1.211  -0.211  0.00  0.00     0.086 A 
ATOM      5  C   UNL d   1      -1.800   0.653   0.848  0.00  0.00     0.026 A 
ATOM      6  C   UNL d   1      -2.913   1.330   1.349  0.00  0.00     0.008 A 
ATOM      7  C   UNL d   1      -3.301   2.562   0.802  0.00  0.00    -0.062 A 
ATOM      8  C   UNL d   1      -2.591   3.087  -0.286  0.00  0.00     0.008 A 
ATOM      9  C   UNL d   1      -4.459   3.311   1.395  0.00  0.00     0.048 C 
ATOM     10  C   UNL d   1      -1.481   2.413  -0.796  0.00  0.00     0.026 A 
ENDBRANCH   1   4
BRANCH   1  11
ATOM     11  O   UNL d   1      -0.055  -1.084  -1.175  0.00  0.00    -0.271 OA
BRANCH  11  12
ATOM     12  C   UNL d   1       0.974  -1.950  -1.632  0.00  0.00     0.200 C 
BRANCH  12  13
ATOM     13  C   UNL d   1       0.421  -3.331  -2.014  0.00  0.00    -0.018 C 
ATOM     14  C   UNL d   1      -0.647  -3.233  -3.130  0.00  0.00     0.012 C 
ATOM     15  C   UNL d   1      -1.132  -4.634  -3.535  0.00  0.00     0.005 C 
ATOM     16  C   UNL d   1      -0.436  -5.711  -2.688  0.00  0.00    -0.014 C 
ATOM     17  C   UNL d   1      -0.727  -5.442  -1.204  0.00  0.00     0.005 C 
ATOM     18  C   UNL d   1       1.079  -5.612  -2.914  0.00  0.00     0.005 C 
ATOM     19  C   UNL d   1      -0.241  -4.039  -0.807  0.00  0.00     0.012 C 
ATOM     20  C   UNL d   1       1.581  -4.218  -2.529  0.00  0.00     0.012 C 
ENDBRANCH  12  13
ENDBRANCH  11  12
ENDBRANCH   1  11
TORSDOF 4
