REMARK  8 active torsions:
REMARK  status: ('A' for Active; 'I' for Inactive)
REMARK    1  A    between atoms: C_2  and  C_1 
REMARK       I    between atoms: N_5  and  C_2 
REMARK    2  A    between atoms: C_4  and  C_3 
REMARK    3  A    between atoms: C_10  and  N_5 
REMARK    4  A    between atoms: C_24  and  N_5 
REMARK    5  A    between atoms: C_6  and  C_10 
REMARK    6  A    between atoms: O_22  and  C_11 
REMARK    7  A    between atoms: O_23  and  C_14 
REMARK    8  A    between atoms: O_25  and  C_20 
ROOT
ATOM      1  C   UNL d   1       1.046   2.315   0.199  0.00  0.00     0.256 C 
ATOM      2  N   UNL d   1       0.432   3.567   0.137  0.00  0.00    -0.344 N 
ATOM      3  O   UNL d   1       2.255   2.129   0.292  0.00  0.00    -0.267 OA
ENDROOT
BRANCH   1   4
ATOM      4  C   UNL d   1       0.209   1.109   0.194  0.00  0.00     0.062 A 
ATOM      5  C   UNL d   1       0.112   0.268   1.305  0.00  0.00     0.069 A 
ATOM      6  C   UNL d   1      -0.728  -0.853   1.201  0.00  0.00     0.073 A 
ATOM      7  C   UNL d   1      -1.429  -1.062   0.028  0.00  0.00     0.142 A 
ATOM      8  N   UNL d   1      -1.317  -0.276  -1.063  0.00  0.00    -0.346 N 
ATOM      9  C   UNL d   1      -0.479   0.778  -0.965  0.00  0.00     0.108 A 
ATOM     10  HN  UNL d   1      -1.838  -0.468  -1.919  1.00  0.00     0.167 HD
BRANCH   5  11
ATOM     11  C   UNL d   1       0.879   0.495   2.576  0.00  0.00     0.418 C 
ATOM     12  F   UNL d   1       1.212   1.788   2.826  0.00  0.00    -0.166 F 
ATOM     13  F   UNL d   1       0.156   0.107   3.671  0.00  0.00    -0.166 F 
ATOM     14  F   UNL d   1       2.028  -0.230   2.631  0.00  0.00    -0.166 F 
ENDBRANCH   5  11
BRANCH   7  15
ATOM     15  O   UNL d   1      -2.279  -2.149   0.006  0.00  0.00    -0.341 OA
ATOM     16  C   UNL d   1      -3.150  -2.148  -1.121  0.00  0.00     0.211 C 
ENDBRANCH   7  15
ENDBRANCH   1   4
BRANCH   2  17
ATOM     17  C   UNL d   1       1.297   4.738   0.322  0.00  0.00     0.167 C 
BRANCH  17  18
ATOM     18  C   UNL d   1       1.895   5.359  -0.922  0.00  0.00    -0.007 A 
ATOM     19  C   UNL d   1       2.650   6.543  -0.815  0.00  0.00     0.078 A 
ATOM     20  C   UNL d   1       3.312   7.095  -1.920  0.00  0.00     0.074 A 
ATOM     21  C   UNL d   1       3.207   6.488  -3.168  0.00  0.00     0.070 A 
ATOM     22  C   UNL d   1       2.432   5.336  -3.299  0.00  0.00     0.037 A 
ATOM     23  C   UNL d   1       1.796   4.769  -2.189  0.00  0.00     0.014 A 
BRANCH  19  24
ATOM     24  O   UNL d   1       2.884   7.142   0.398  0.00  0.00    -0.355 OA
ATOM     25  C   UNL d   1       1.769   7.906   0.857  0.00  0.00     0.210 C 
ENDBRANCH  19  24
BRANCH  21  26
ATOM     26  O   UNL d   1       3.807   6.913  -4.322  0.00  0.00    -0.356 OA
ATOM     27  C   UNL d   1       4.850   7.871  -4.179  0.00  0.00     0.210 C 
ENDBRANCH  21  26
ENDBRANCH  17  18
ENDBRANCH   2  17
BRANCH   2  28
ATOM     28  C   UNL d   1      -1.022   3.802   0.117  0.00  0.00     0.122 C 
ATOM     29  C   UNL d   1      -1.546   4.229  -1.245  0.00  0.00     0.026 C 
ENDBRANCH   2  28
TORSDOF 8
