REMARK  2 active torsions:
REMARK  status: ('A' for Active; 'I' for Inactive)
REMARK    1  A    between atoms: C_2  and  S_1 
REMARK    2  A    between atoms: N_14  and  S_1 
ROOT
ATOM      1  C   UNL d   1       0.456  -0.761   1.609  0.00  0.00     0.115 A 
ATOM      2  S   UNL d   1      -0.126   0.192   2.903  0.00  0.00    -0.074 SA
ATOM      3  C   UNL d   1      -0.299  -1.165   3.932  0.00  0.00     0.042 A 
ATOM      4  C   UNL d   1      -0.748  -1.048   5.293  0.00  0.00     0.117 A 
ATOM      5  C   UNL d   1       0.498  -2.099   1.946  0.00  0.00     0.034 A 
ATOM      6  C   UNL d   1       0.061  -2.331   3.283  0.00  0.00     0.024 A 
ATOM      7  N   UNL d   1      -1.280  -1.742   7.380  0.00  0.00    -0.272 N 
ATOM      8  HN  UNL d   1      -1.443  -2.336   8.193  1.00  0.00     0.194 HD
ATOM      9  O   UNL d   1      -0.854  -2.136   6.124  0.00  0.00    -0.237 OA
ATOM     10  C   UNL d   1      -1.124   0.066   6.020  0.00  0.00     0.059 A 
ATOM     11  C   UNL d   1      -1.435  -0.422   7.300  0.00  0.00     0.117 A 
ENDROOT
BRANCH   1  12
ATOM     12  S   UNL d   1       0.901   0.118   0.140  0.00  0.00     0.245 S 
ATOM     13  O   UNL d   1      -0.268   0.863  -0.264  0.00  0.00    -0.206 OA
ATOM     14  O   UNL d   1       1.550  -0.841  -0.722  0.00  0.00    -0.206 OA
BRANCH  12  15
ATOM     15  N   UNL d   1       2.062   1.260   0.561  0.00  0.00    -0.225 NA
ATOM     16  H   UNL d   1       1.606   2.100   0.914  0.00  0.00     0.136 HD
ATOM     17  H   UNL d   1       2.650   1.454  -0.250  0.00  0.00     0.136 HD
ENDBRANCH  12  15
ENDBRANCH   1  12
TORSDOF 2
