REMARK  3 active torsions:
REMARK  status: ('A' for Active; 'I' for Inactive)
REMARK    1  A    between atoms: C_2  and  C_1 
REMARK       I    between atoms: N_4  and  C_1 
REMARK    2  A    between atoms: C_6  and  C_2 
REMARK    3  A    between atoms: C_3  and  C_6 
REMARK       I    between atoms: N_5  and  C_3 
ROOT
ATOM      1  C   UNL d   1      -0.351   1.133  -0.355  0.00  0.00     0.009 C 
ATOM      2  C   UNL d   1       0.189   2.346  -0.599  0.00  0.00     0.025 C 
ENDROOT
BRANCH   1   3
ATOM      3  C   UNL d   1       0.611  -0.005  -0.527  0.00  0.00     0.249 C 
ATOM      4  N   UNL d   1       0.642  -1.084   0.355  0.00  0.00    -0.344 N 
ATOM      5  C   UNL d   1       1.627  -2.123   0.011  0.00  0.00     0.152 C 
ATOM      6  C   UNL d   1      -0.494  -1.548   1.157  0.00  0.00     0.152 C 
ATOM      7  C   UNL d   1       1.858  -3.157   1.112  0.00  0.00     0.187 C 
ATOM      8  O   UNL d   1       0.614  -3.697   1.568  0.00  0.00    -0.388 OA
ATOM      9  C   UNL d   1      -0.161  -2.655   2.165  0.00  0.00     0.187 C 
ATOM     10  O   UNL d   1       1.407   0.060  -1.463  0.00  0.00    -0.268 OA
ENDBRANCH   1   3
BRANCH   1  11
ATOM     11  C   UNL d   1      -1.817   0.971  -0.084  0.00  0.00     0.146 C 
BRANCH  11  12
ATOM     12  C   UNL d   1      -2.687   1.674  -1.125  0.00  0.00     0.224 C 
ATOM     13  N   UNL d   1      -3.002   0.988  -2.293  0.00  0.00    -0.348 N 
ATOM     14  C   UNL d   1      -3.635   1.752  -3.374  0.00  0.00     0.152 C 
ATOM     15  C   UNL d   1      -2.322  -0.233  -2.743  0.00  0.00     0.152 C 
ATOM     16  C   UNL d   1      -4.405   0.865  -4.359  0.00  0.00     0.187 C 
ATOM     17  O   UNL d   1      -3.628  -0.259  -4.796  0.00  0.00    -0.388 OA
ATOM     18  C   UNL d   1      -3.221  -1.048  -3.673  0.00  0.00     0.187 C 
ATOM     19  O   UNL d   1      -3.104   2.816  -0.906  0.00  0.00    -0.273 OA
ENDBRANCH  11  12
ENDBRANCH   1  11
TORSDOF 3
