REMARK  2 active torsions:
REMARK  status: ('A' for Active; 'I' for Inactive)
REMARK    1  A    between atoms: C_7  and  C_4 
REMARK       I    between atoms: N_10  and  C_7 
REMARK    2  A    between atoms: C_16  and  N_10 
ROOT
ATOM      1  C   UNL d   1      -0.836  -0.369  -0.255  0.00  0.00     0.024 A 
ATOM      2  S   UNL d   1      -1.690  -1.843  -0.473  0.00  0.00    -0.083 SA
ATOM      3  C   UNL d   1      -1.706   0.699  -0.117  0.00  0.00    -0.029 A 
ATOM      4  C   UNL d   1      -3.212  -1.106  -0.265  0.00  0.00     0.074 A 
ATOM      5  C   UNL d   1       0.634  -0.299  -0.207  0.00  0.00    -0.000 A 
ATOM      6  C   UNL d   1      -3.070   0.261  -0.109  0.00  0.00     0.034 A 
ATOM      7  S   UNL d   1       0.433   2.538  -0.093  0.00  0.00    -0.124 SA
ATOM      8  C   UNL d   1       1.268   0.954  -0.090  0.00  0.00     0.012 A 
ATOM      9  C   UNL d   1      -1.323   2.126   0.065  0.00  0.00     0.119 C 
ATOM     10  C   UNL d   1       1.441  -1.455  -0.236  0.00  0.00     0.038 A 
ATOM     11  C   UNL d   1       2.671   1.023   0.007  0.00  0.00     0.021 A 
ATOM     12  C   UNL d   1       2.830  -1.367  -0.140  0.00  0.00     0.035 A 
ATOM     13  C   UNL d   1       3.450  -0.132  -0.013  0.00  0.00     0.025 A 
ATOM     14 CL   UNL d   1       3.781  -2.800  -0.167  0.00  0.00    -0.084 Cl
ENDROOT
BRANCH   4  15
ATOM     15  C   UNL d   1      -4.472  -1.843  -0.228  0.00  0.00     0.263 C 
ATOM     16  N   UNL d   1      -4.367  -3.210  -0.424  0.00  0.00    -0.323 N 
ATOM     17  H   UNL d   1      -3.431  -3.559  -0.585  0.00  0.00     0.169 HD
ATOM     18  O   UNL d   1      -5.529  -1.251  -0.011  0.00  0.00    -0.267 OA
BRANCH  16  19
ATOM     19  C   UNL d   1      -5.391  -4.175  -0.313  0.00  0.00     0.035 A 
ATOM     20  C   UNL d   1      -6.738  -3.865  -0.105  0.00  0.00     0.029 A 
ATOM     21  C   UNL d   1      -7.686  -4.879   0.065  0.00  0.00     0.002 A 
ATOM     22  C   UNL d   1      -7.299  -6.214   0.021  0.00  0.00     0.000 A 
ATOM     23  C   UNL d   1      -5.965  -6.538  -0.215  0.00  0.00     0.002 A 
ATOM     24  C   UNL d   1      -5.018  -5.523  -0.388  0.00  0.00     0.029 A 
ENDBRANCH  16  19
ENDBRANCH   4  15
TORSDOF 2
