REMARK  4 active torsions:
REMARK  status: ('A' for Active; 'I' for Inactive)
REMARK    1  A    between atoms: C_3  and  C_1 
REMARK       I    between atoms: N_2  and  C_3 
REMARK    2  A    between atoms: C_10  and  C_6 
REMARK    3  A    between atoms: O_22  and  C_14 
REMARK    4  A    between atoms: O_23  and  C_16 
ROOT
ATOM      1  N   UNL d   1       4.703  -3.406   0.179  0.00  0.00    -0.334 N 
ATOM      2  C   UNL d   1       4.890  -2.439   1.204  0.00  0.00     0.263 C 
ATOM      3  C   UNL d   1       4.964  -4.796   0.606  0.00  0.00     0.154 C 
ATOM      4  C   UNL d   1       3.913  -5.796   0.122  0.00  0.00    -0.022 C 
ATOM      5  C   UNL d   1       3.074  -5.507  -0.967  0.00  0.00    -0.045 C 
ATOM      6  C   UNL d   1       3.747  -7.014   0.787  0.00  0.00     0.049 C 
ATOM      7  C   UNL d   1       3.722  -3.153  -0.890  0.00  0.00     0.132 C 
ATOM      8  C   UNL d   1       2.727  -7.882   0.408  0.00  0.00     0.102 C 
ATOM      9  C   UNL d   1       1.979  -6.334  -1.269  0.00  0.00     0.047 C 
ATOM     10  C   UNL d   1       1.797  -7.530  -0.575  0.00  0.00     0.102 C 
ATOM     11  O   UNL d   1       5.822  -2.493   1.996  0.00  0.00    -0.267 OA
ATOM     12  C   UNL d   1       3.412  -4.314  -1.810  0.00  0.00     0.059 C 
ENDROOT
BRANCH   2  13
ATOM     13  C   UNL d   1       3.774  -1.527   1.372  0.00  0.00     0.096 C 
ATOM     14  S   UNL d   1       3.717  -0.023   0.582  0.00  0.00    -0.082 SA
ATOM     15  C   UNL d   1       1.999   0.060   0.758  0.00  0.00     0.017 A 
ATOM     16  C   UNL d   1       1.122   0.982   0.150  0.00  0.00     0.020 A 
ATOM     17  C   UNL d   1       1.520  -0.957   1.593  0.00  0.00     0.004 A 
ATOM     18  C   UNL d   1      -0.254   0.846   0.356  0.00  0.00     0.001 A 
ATOM     19  C   UNL d   1      -0.751  -0.152   1.181  0.00  0.00     0.001 A 
ATOM     20  C   UNL d   1       0.123  -1.037   1.815  0.00  0.00     0.014 A 
ATOM     21  C   UNL d   1       2.593  -1.813   2.023  0.00  0.00     0.068 C 
ATOM     22 CL   UNL d   1       2.328  -3.194   3.013  0.00  0.00    -0.082 Cl
ENDBRANCH   2  13
BRANCH   3  23
ATOM     23  C   UNL d   1       6.385  -5.295   0.375  0.00  0.00    -0.030 A 
ATOM     24  C   UNL d   1       7.068  -5.902   1.452  0.00  0.00     0.016 A 
ATOM     25  C   UNL d   1       8.311  -6.525   1.277  0.00  0.00    -0.061 A 
ATOM     26  C   UNL d   1       8.991  -7.208   2.426  0.00  0.00     0.048 C 
ATOM     27  C   UNL d   1       8.897  -6.510   0.013  0.00  0.00     0.007 A 
ATOM     28  C   UNL d   1       8.252  -5.889  -1.059  0.00  0.00     0.001 A 
ATOM     29  C   UNL d   1       7.001  -5.287  -0.881  0.00  0.00     0.009 A 
ENDBRANCH   3  23
BRANCH   8  30
ATOM     30  O   UNL d   1       2.675  -9.109   1.017  0.00  0.00    -0.353 OA
ATOM     31  C   UNL d   1       3.447 -10.046   0.260  0.00  0.00     0.210 C 
ENDBRANCH   8  30
BRANCH  10  32
ATOM     32  O   UNL d   1       0.771  -8.411  -0.777  0.00  0.00    -0.353 OA
ATOM     33  C   UNL d   1       0.115  -8.363  -2.034  0.00  0.00     0.210 C 
ENDBRANCH  10  32
TORSDOF 4
