REMARK  4 active torsions:
REMARK  status: ('A' for Active; 'I' for Inactive)
REMARK    1  A    between atoms: N_4  and  C_1 
REMARK    2  A    between atoms: N_11  and  C_1 
REMARK    3  A    between atoms: C_9  and  N_4 
REMARK    4  A    between atoms: N_14  and  N_11 
ROOT
ATOM      1  C   UNL d   1       1.087   3.193  -3.814  0.00  0.00     0.107 A 
ATOM      2  C   UNL d   1       0.532   2.650  -2.674  0.00  0.00     0.069 A 
ATOM      3  C   UNL d   1       2.121   2.583  -4.482  0.00  0.00     0.105 A 
ATOM      4  O   UNL d   1       0.715   4.365  -4.397  0.00  0.00    -0.323 OA
ATOM      5  O   UNL d   1       2.528   3.290  -5.569  0.00  0.00    -0.323 OA
ATOM      6  C   UNL d   1       1.089   1.468  -2.174  0.00  0.00     0.037 A 
ATOM      7  C   UNL d   1       1.679   4.452  -5.469  0.00  0.00     0.352 A 
ATOM      8  C   UNL d   1       2.652   1.387  -4.053  0.00  0.00     0.042 A 
ATOM      9  C   UNL d   1       2.127   0.827  -2.883  0.00  0.00     0.032 A 
ENDROOT
BRANCH   6  10
ATOM     10  N   UNL d   1       0.550   0.948  -0.981  0.00  0.00    -0.332 N 
ATOM     11  H   UNL d   1      -0.427   1.161  -0.814  0.00  0.00     0.168 HD
BRANCH  10  12
ATOM     12  C   UNL d   1       1.067   0.020  -0.129  0.00  0.00     0.186 C 
ATOM     13  S   UNL d   1       0.041  -0.969   0.741  0.00  0.00    -0.040 SA
BRANCH  12  14
ATOM     14  N   UNL d   1       2.420  -0.037   0.103  0.00  0.00    -0.300 N 
ATOM     15  H   UNL d   1       2.673  -0.712   0.827  0.00  0.00     0.183 HD
BRANCH  14  16
ATOM     16  N   UNL d   1       3.221   1.138   0.065  0.00  0.00    -0.248 NA
ATOM     17  H   UNL d   1       2.601   1.944  -0.061  0.00  0.00     0.143 HD
ATOM     18  H   UNL d   1       3.786   1.108  -0.787  0.00  0.00     0.143 HD
ENDBRANCH  14  16
ENDBRANCH  12  14
ENDBRANCH  10  12
ENDBRANCH   6  10
TORSDOF 4
