REMARK  1 active torsions:
REMARK  status: ('A' for Active; 'I' for Inactive)
REMARK    1  A    between atoms: N_3  and  C_2 
ROOT
ATOM      1  C   UNL d   1      -2.691  -0.304   1.008  0.00  0.00     0.012 A 
ATOM      2  C   UNL d   1      -2.394  -1.258  -0.011  0.00  0.00     0.024 A 
ATOM      3  C   UNL d   1      -1.973   0.917   1.006  0.00  0.00     0.045 A 
ATOM      4  C   UNL d   1      -3.682  -0.492   2.004  0.00  0.00     0.017 A 
ATOM      5  C   UNL d   1      -2.241   1.872   1.975  0.00  0.00     0.054 A 
ATOM      6  N   UNL d   1      -1.038   1.214   0.092  0.00  0.00    -0.365 N 
ATOM      7  HN  UNL d   1      -0.539   2.103   0.118  1.00  0.00     0.165 HD
ATOM      8  C   UNL d   1      -3.202   1.654   2.958  0.00  0.00     0.036 A 
ATOM      9  C   UNL d   1      -1.414  -0.923  -0.951  0.00  0.00     0.041 A 
ATOM     10  C   UNL d   1      -3.926   0.473   2.980  0.00  0.00     0.025 A 
ATOM     11  C   UNL d   1      -0.781   0.301  -0.862  0.00  0.00     0.090 A 
ATOM     12 CL   UNL d   1      -3.501   2.863   4.146  0.00  0.00    -0.084 Cl
ENDROOT
BRANCH   2  13
ATOM     13  N   UNL d   1      -3.098  -2.483  -0.083  0.00  0.00    -0.283 NA
ATOM     14  C   UNL d   1      -3.276  -3.070  -1.422  0.00  0.00     0.095 C 
ATOM     15  C   UNL d   1      -4.382  -4.122  -1.365  0.00  0.00     0.015 C 
ATOM     16  C   UNL d   1      -4.085  -5.182  -0.304  0.00  0.00     0.002 C 
ATOM     17  C   UNL d   1      -3.777  -4.538   1.048  0.00  0.00     0.015 C 
ATOM     18  C   UNL d   1      -2.682  -3.474   0.928  0.00  0.00     0.095 C 
ENDBRANCH   2  13
TORSDOF 1
