REMARK  4 active torsions:
REMARK  status: ('A' for Active; 'I' for Inactive)
REMARK    1  A    between atoms: C_5  and  N_1 
REMARK    2  A    between atoms: N_2  and  C_3 
REMARK    3  A    between atoms: C_6  and  C_4 
REMARK    4  A    between atoms: O_13  and  C_6 
ROOT
ATOM      1  N   UNL d   1      -0.270  -1.090   0.040  0.00  0.00    -0.315 N 
ATOM      2  C   UNL d   1       1.062  -0.648   0.057  0.00  0.00     0.115 A 
ATOM      3  C   UNL d   1      -1.073   0.034   0.161  0.00  0.00     0.098 A 
ATOM      4  C   UNL d   1       1.037   0.742   0.127  0.00  0.00     0.038 A 
ATOM      5  C   UNL d   1      -0.298   1.167   0.167  0.00  0.00     0.020 A 
ENDROOT
BRANCH   1   6
ATOM      6  C   UNL d   1      -0.758  -2.439  -0.003  0.00  0.00     0.072 A 
ATOM      7  C   UNL d   1      -1.970  -2.820  -0.612  0.00  0.00     0.130 A 
ATOM      8  C   UNL d   1      -2.378  -4.167  -0.666  0.00  0.00     0.038 A 
ATOM      9  C   UNL d   1      -1.579  -5.156  -0.102  0.00  0.00     0.003 A 
ATOM     10  C   UNL d   1      -0.402  -4.798   0.544  0.00  0.00     0.002 A 
ATOM     11  C   UNL d   1      -0.008  -3.455   0.613  0.00  0.00     0.032 A 
BRANCH   7  12
ATOM     12  N   UNL d   1      -2.837  -1.890  -1.312  0.00  0.00    -0.113 N 
ATOM     13  O   UNL d   1      -2.383  -1.337  -2.322  0.00  0.00    -0.532 OA
ATOM     14  O   UNL d   1      -3.981  -1.746  -0.861  0.00  0.00    -0.532 OA
ENDBRANCH   7  12
ENDBRANCH   1   6
BRANCH   2  15
ATOM     15  C   UNL d   1       2.261  -1.451  -0.070  0.00  0.00     0.310 C 
ATOM     16  O   UNL d   1       2.369  -2.514  -0.667  0.00  0.00    -0.258 OA
BRANCH  15  17
ATOM     17  O   UNL d   1       3.277  -0.855   0.620  0.00  0.00    -0.321 OA
ATOM     18  C   UNL d   1       4.500  -1.593   0.637  0.00  0.00     0.213 C 
ENDBRANCH  15  17
ENDBRANCH   2  15
TORSDOF 4
