REMARK  5 active torsions:
REMARK  status: ('A' for Active; 'I' for Inactive)
REMARK    1  A    between atoms: C_8  and  C_1 
REMARK       I    between atoms: C_7  and  N_4 
REMARK       I    between atoms: N_13  and  C_7 
REMARK    2  A    between atoms: N_14  and  C_8 
REMARK    3  A    between atoms: O_15  and  N_9 
REMARK    4  A    between atoms: C_17  and  O_15 
REMARK    5  A    between atoms: C_16  and  C_17 
ROOT
ATOM      1  C   UNL d   1       2.155  -1.378  -0.025  0.00  0.00     0.128 C 
ATOM      2  N   UNL d   1       3.365  -0.908  -0.155  0.00  0.00    -0.253 N 
ATOM      3  HN  UNL d   1       4.206  -1.481  -0.080  1.00  0.00     0.195 HD
ENDROOT
BRANCH   1   4
ATOM      4  C   UNL d   1       0.885  -0.607  -0.056  0.00  0.00     0.107 C 
ATOM      5  N   UNL d   1       0.837   0.716   0.224  0.00  0.00    -0.286 N 
ATOM      6  N   UNL d   1      -0.485   1.037   0.264  0.00  0.00    -0.215 N 
ATOM      7  HN  UNL d   1       1.627   1.343   0.375  1.00  0.00     0.188 HD
ATOM      8  C   UNL d   1      -0.916   2.346   0.582  0.00  0.00     0.340 C 
ATOM      9  C   UNL d   1      -1.281  -0.029  -0.068  0.00  0.00     0.143 C 
ATOM     10  O   UNL d   1      -2.069   2.527   0.966  0.00  0.00    -0.245 OA
ATOM     11  N   UNL d   1       0.042   3.287   0.317  0.00  0.00    -0.346 N 
ATOM     12  C   UNL d   1      -0.257   4.693   0.388  0.00  0.00     0.151 C 
ATOM     13  H   UNL d   1       0.888   2.966  -0.154  0.00  0.00     0.163 HD
ATOM     14  C   UNL d   1      -0.433  -1.065  -0.335  0.00  0.00     0.060 C 
ATOM     15 BR   UNL d   1      -0.970  -2.742  -0.980  0.00  0.00    -0.047 Br
ENDBRANCH   1   4
BRANCH   1  16
ATOM     16  N   UNL d   1       2.015  -2.723   0.199  0.00  0.00    -0.285 NA
ATOM     17  H   UNL d   1       1.183  -3.170  -0.165  0.00  0.00     0.125 HD
ATOM     18  H   UNL d   1       2.867  -3.232  -0.005  0.00  0.00     0.125 HD
ENDBRANCH   1  16
BRANCH   2  19
ATOM     19  O   UNL d   1       3.384   0.465  -0.410  0.00  0.00    -0.275 OA
BRANCH  19  20
ATOM     20  C   UNL d   1       4.723   0.942  -0.363  0.00  0.00     0.239 C 
BRANCH  20  21
ATOM     21  C   UNL d   1       4.668   2.439  -0.521  0.00  0.00    -0.032 A 
ATOM     22  C   UNL d   1       4.052   3.227   0.463  0.00  0.00     0.009 A 
ATOM     23  C   UNL d   1       3.983   4.612   0.319  0.00  0.00     0.001 A 
ATOM     24  C   UNL d   1       4.519   5.221  -0.814  0.00  0.00     0.000 A 
ATOM     25  C   UNL d   1       5.125   4.447  -1.803  0.00  0.00     0.001 A 
ATOM     26  C   UNL d   1       5.201   3.060  -1.657  0.00  0.00     0.009 A 
ENDBRANCH  20  21
ENDBRANCH  19  20
ENDBRANCH   2  19
TORSDOF 5
