REMARK  5 active torsions:
REMARK  status: ('A' for Active; 'I' for Inactive)
REMARK    1  A    between atoms: C_6  and  C_1 
REMARK    2  A    between atoms: C_2  and  C_12 
REMARK       I    between atoms: N_13  and  C_6 
REMARK    3  A    between atoms: C_12  and  C_14 
REMARK    4  A    between atoms: C_17  and  C_12 
REMARK    5  A    between atoms: C_14  and  N_13 
ROOT
ATOM      1  C   UNL d   1      -3.695   3.709   0.020  0.00  0.00     0.071 C 
ENDROOT
BRANCH   1   2
ATOM      2  C   UNL d   1      -3.715   4.500  -1.271  0.00  0.00    -0.020 A 
ATOM      3  C   UNL d   1      -3.159   4.128  -2.484  0.00  0.00     0.097 A 
ATOM      4  N   UNL d   1      -3.413   5.108  -3.402  0.00  0.00    -0.365 N 
ATOM      5  C   UNL d   1      -4.106   6.138  -2.818  0.00  0.00     0.042 A 
ATOM      6  H   UNL d   1      -3.143   5.081  -4.375  0.00  0.00     0.165 HD
ATOM      7  C   UNL d   1      -4.320   5.789  -1.484  0.00  0.00    -0.001 A 
ATOM      8  C   UNL d   1      -4.565   7.337  -3.378  0.00  0.00     0.030 A 
ATOM      9  C   UNL d   1      -5.040   6.691  -0.670  0.00  0.00     0.014 A 
ATOM     10  C   UNL d   1      -5.507   7.896  -1.215  0.00  0.00     0.001 A 
ATOM     11  C   UNL d   1      -5.269   8.212  -2.550  0.00  0.00     0.002 A 
ENDBRANCH   1   2
BRANCH   1  12
ATOM     12  C   UNL d   1      -2.474   2.768   0.181  0.00  0.00     0.137 C 
BRANCH  12  13
ATOM     13  N   UNL d   1      -1.149   3.415   0.245  0.00  0.00    -0.356 N 
ATOM     14  C   UNL d   1      -0.104   2.730   0.847  0.00  0.00     0.256 C 
ATOM     15  O   UNL d   1      -0.330   1.671   1.444  0.00  0.00    -0.268 OA
ATOM     16  H   UNL d   1      -0.943   4.135  -0.434  0.00  0.00     0.162 HD
BRANCH  14  17
ATOM     17  C   UNL d   1       1.260   3.244   0.766  0.00  0.00     0.087 A 
ATOM     18  C   UNL d   1       2.333   2.593   1.368  0.00  0.00     0.090 A 
ATOM     19  O   UNL d   1       3.484   3.265   1.133  0.00  0.00    -0.242 OA
ATOM     20  C   UNL d   1       2.474   1.371   2.189  0.00  0.00     0.080 C 
ATOM     21  N   UNL d   1       3.215   4.383   0.389  0.00  0.00    -0.265 N 
ATOM     22  C   UNL d   1       1.890   4.385   0.178  0.00  0.00     0.047 A 
ATOM     23  HN  UNL d   1       3.888   5.075   0.060  1.00  0.00     0.194 HD
ATOM     24  C   UNL d   1       1.341   5.529  -0.585  0.00  0.00     0.071 C 
ENDBRANCH  14  17
ENDBRANCH  12  13
ENDBRANCH   1  12
BRANCH   1  25
ATOM     25  C   UNL d   1      -5.023   2.937   0.058  0.00  0.00    -0.048 A 
ATOM     26  C   UNL d   1      -5.379   1.996  -0.928  0.00  0.00     0.008 A 
ATOM     27  C   UNL d   1      -6.580   1.282  -0.853  0.00  0.00     0.001 A 
ATOM     28  C   UNL d   1      -7.448   1.482   0.215  0.00  0.00     0.000 A 
ATOM     29  C   UNL d   1      -7.119   2.405   1.204  0.00  0.00     0.001 A 
ATOM     30  C   UNL d   1      -5.919   3.127   1.125  0.00  0.00     0.008 A 
ENDBRANCH   1  25
TORSDOF 5
