REMARK  2 active torsions:
REMARK  status: ('A' for Active; 'I' for Inactive)
REMARK    1  A    between atoms: C_6  and  C_1 
REMARK    2  A    between atoms: C_13  and  N_7 
ROOT
ATOM      1  C   UNL d   1       1.535  -2.839   0.081  0.00  0.00     0.102 C 
ATOM      2  N   UNL d   1       2.809  -2.809  -0.128  0.00  0.00    -0.364 N 
ATOM      3  HN  UNL d   1       3.283  -1.927  -0.325  1.00  0.00     0.165 HD
ENDROOT
BRANCH   2   4
ATOM      4  C   UNL d   1       3.530  -4.014  -0.079  0.00  0.00     0.047 A 
ATOM      5  C   UNL d   1       4.768  -4.051   0.561  0.00  0.00     0.117 A 
ATOM      6  N   UNL d   1       5.568  -5.144   0.646  0.00  0.00    -0.373 N 
ATOM      7  C   UNL d   1       5.118  -6.263   0.043  0.00  0.00     0.088 A 
ATOM      8  HN  UNL d   1       6.460  -5.120   1.139  1.00  0.00     0.164 HD
ATOM      9  C   UNL d   1       3.912  -6.337  -0.635  0.00  0.00     0.019 A 
ATOM     10  C   UNL d   1       3.116  -5.193  -0.703  0.00  0.00     0.032 A 
ENDBRANCH   2   4
BRANCH   1  11
ATOM     11  C   UNL d   1       0.806  -1.585   0.034  0.00  0.00     0.010 A 
ATOM     12  C   UNL d   1      -0.569  -1.484   0.088  0.00  0.00     0.087 A 
ATOM     13  S   UNL d   1      -1.145   0.113   0.024  0.00  0.00    -0.065 SA
ATOM     14 CL   UNL d   1      -1.721  -2.760   0.197  0.00  0.00    -0.075 Cl
ATOM     15  C   UNL d   1       0.433   0.712  -0.080  0.00  0.00     0.077 A 
ATOM     16  C   UNL d   1       1.388  -0.272  -0.073  0.00  0.00     0.046 A 
ATOM     17 CL   UNL d   1       0.702   2.404  -0.177  0.00  0.00    -0.076 Cl
ENDBRANCH   1  11
TORSDOF 2
