REMARK  3 active torsions:
REMARK  status: ('A' for Active; 'I' for Inactive)
REMARK    1  A    between atoms: N_6  and  C_1 
REMARK    2  A    between atoms: C_11  and  C_2 
REMARK       I    between atoms: C_5  and  N_6 
REMARK       I    between atoms: N_9  and  C_5 
REMARK    3  A    between atoms: C_12  and  N_9 
ROOT
ATOM      1  C   UNL d   1      -0.833  -2.277  -0.128  0.00  0.00     0.097 A 
ATOM      2  C   UNL d   1      -1.853  -2.041   0.850  0.00  0.00     0.094 A 
ATOM      3  N   UNL d   1      -3.055  -2.389   0.374  0.00  0.00    -0.258 N 
ATOM      4  HN  UNL d   1      -3.952  -2.308   0.853  1.00  0.00     0.195 HD
ATOM      5  C   UNL d   1      -1.505  -2.814  -1.201  0.00  0.00     0.101 A 
ATOM      6  O   UNL d   1      -2.833  -2.880  -0.895  0.00  0.00    -0.240 OA
ATOM      7  C   UNL d   1      -1.175  -3.216  -2.579  0.00  0.00     0.081 C 
ENDROOT
BRANCH   1   8
ATOM      8  N   UNL d   1       0.505  -1.927   0.013  0.00  0.00    -0.304 N 
ATOM      9  C   UNL d   1       1.586  -2.718  -0.329  0.00  0.00     0.323 C 
ATOM     10  N   UNL d   1       2.797  -2.121   0.082  0.00  0.00    -0.334 N 
ATOM     11  O   UNL d   1       1.497  -3.837  -0.819  0.00  0.00    -0.247 OA
ATOM     12  C   UNL d   1       2.956  -0.680  -0.117  0.00  0.00     0.155 C 
ATOM     13  H   UNL d   1       0.696  -1.386   0.848  0.00  0.00     0.171 HD
BRANCH  10  14
ATOM     14  C   UNL d   1       4.056  -2.889   0.218  0.00  0.00     0.088 C 
ATOM     15  C   UNL d   1       4.865  -3.004  -1.081  0.00  0.00     0.025 C 
ATOM     16  C   UNL d   1       4.622  -4.290  -1.855  0.00  0.00     0.002 C 
ATOM     17  C   UNL d   1       4.843  -5.506  -0.966  0.00  0.00     0.000 C 
ATOM     18  C   UNL d   1       3.897  -5.496   0.226  0.00  0.00     0.002 C 
ATOM     19  C   UNL d   1       3.961  -4.198   1.029  0.00  0.00     0.025 C 
ENDBRANCH  10  14
ENDBRANCH   1   8
BRANCH   2  20
ATOM     20  C   UNL d   1      -1.684  -1.525   2.209  0.00  0.00    -0.005 A 
ATOM     21  C   UNL d   1      -2.551  -0.551   2.717  0.00  0.00     0.014 A 
ATOM     22  C   UNL d   1      -2.361  -0.041   4.005  0.00  0.00     0.001 A 
ATOM     23  C   UNL d   1      -1.305  -0.499   4.792  0.00  0.00     0.000 A 
ATOM     24  C   UNL d   1      -0.444  -1.478   4.301  0.00  0.00     0.001 A 
ATOM     25  C   UNL d   1      -0.638  -1.995   3.021  0.00  0.00     0.014 A 
ENDBRANCH   2  20
TORSDOF 3
