REMARK  4 active torsions:
REMARK  status: ('A' for Active; 'I' for Inactive)
REMARK    1  A    between atoms: CA_2  and  C_6 
REMARK    2  A    between atoms: C_7  and  C_3 
REMARK    3  A    between atoms: OXT_10  and  C_6 
REMARK    4  A    between atoms: O_11  and  C_7 
ROOT
ATOM      1  N   UNL d   1      -1.381   1.244   0.123  0.00  0.00     0.124 N 
ATOM      2  CA  UNL d   1      -0.048   1.399  -0.547  0.00  0.00     0.336 C 
ATOM      3  C   UNL d   1      -1.752  -0.190   0.005  0.00  0.00     0.380 C 
ATOM      4  S   UNL d   1      -0.234  -1.183  -0.094  0.00  0.00    -0.111 SA
ATOM      5  C   UNL d   1       0.881   0.273  -0.053  0.00  0.00     0.044 C 
ATOM      6  C   UNL d   1       1.370   0.434   1.393  0.00  0.00     0.029 C 
ATOM      7  C   UNL d   1       2.061   0.033  -0.997  0.00  0.00     0.029 C 
ATOM      8  H   UNL d   1      -2.083   1.754  -0.438  0.00  0.00     0.319 HD
ENDROOT
BRANCH   2   9
ATOM      9  C   UNL d   1       0.521   2.788  -0.232  0.00  0.00     0.175 C 
ATOM     10  O   UNL d   1       1.556   3.237  -0.699  0.00  0.00    -0.648 OA
BRANCH   9  11
ATOM     11  OXT UNL d   1      -0.248   3.474   0.650  0.00  0.00    -0.775 OA
ATOM     12  HXT UNL d   1      -0.991   2.886   0.923  0.00  0.00     0.167 HD
ENDBRANCH   9  11
ENDBRANCH   2   9
BRANCH   3  13
ATOM     13  C   UNL d   1      -2.636  -0.413  -1.242  0.00  0.00     0.184 C 
ATOM     14  O   UNL d   1      -3.366   0.462  -1.701  0.00  0.00    -0.648 OA
BRANCH  13  15
ATOM     15  O   UNL d   1      -2.572  -1.653  -1.777  0.00  0.00    -0.774 OA
ATOM     16  H   UNL d   1      -1.877  -2.196  -1.342  0.00  0.00     0.167 HD
ENDBRANCH  13  15
ENDBRANCH   3  13
TORSDOF 4
