REMARK  5 active torsions:
REMARK  status: ('A' for Active; 'I' for Inactive)
REMARK    1  A    between atoms: C_10  and  C_3 
REMARK       I    between atoms: N_11  and  C_10 
REMARK    2  A    between atoms: C_12  and  N_11 
REMARK    3  A    between atoms: C_13  and  N_11 
REMARK    4  A    between atoms: C_20  and  C_12 
REMARK    5  A    between atoms: C_19  and  C_13 
ROOT
ATOM      1  C   UNL d   1       3.444   0.807  -0.514  0.00  0.00     0.261 C 
ATOM      2  N   UNL d   1       4.175   1.920  -0.078  0.00  0.00    -0.336 N 
ATOM      3  O   UNL d   1       3.991  -0.116  -1.123  0.00  0.00    -0.267 OA
ENDROOT
BRANCH   2   4
ATOM      4  C   UNL d   1       5.637   1.812  -0.109  0.00  0.00     0.183 C 
BRANCH   4   5
ATOM      5  C   UNL d   1       6.442   2.379   1.059  0.00  0.00     0.027 A 
ATOM      6  N   UNL d   1       5.824   2.904   2.149  0.00  0.00    -0.368 N 
ATOM      7  C   UNL d   1       6.613   3.324   3.169  0.00  0.00     0.088 A 
ATOM      8  HN  UNL d   1       4.808   2.979   2.198  1.00  0.00     0.165 HD
ATOM      9  C   UNL d   1       7.997   3.249   3.168  0.00  0.00     0.017 A 
ATOM     10  C   UNL d   1       8.620   2.717   2.050  0.00  0.00     0.003 A 
ATOM     11  C   UNL d   1       7.837   2.280   0.984  0.00  0.00     0.027 A 
ENDBRANCH   4   5
ENDBRANCH   2   4
BRANCH   2  12
ATOM     12  C   UNL d   1       3.561   3.242   0.104  0.00  0.00     0.183 C 
BRANCH  12  13
ATOM     13  C   UNL d   1       4.226   4.409  -0.594  0.00  0.00     0.027 A 
ATOM     14  N   UNL d   1       4.452   4.312  -1.929  0.00  0.00    -0.368 N 
ATOM     15  C   UNL d   1       4.940   5.406  -2.556  0.00  0.00     0.088 A 
ATOM     16  HN  UNL d   1       4.262   3.449  -2.439  1.00  0.00     0.165 HD
ATOM     17  C   UNL d   1       5.207   6.606  -1.918  0.00  0.00     0.017 A 
ATOM     18  C   UNL d   1       4.966   6.692  -0.554  0.00  0.00     0.003 A 
ATOM     19  C   UNL d   1       4.468   5.582   0.120  0.00  0.00     0.027 A 
ENDBRANCH  12  13
ENDBRANCH   2  12
BRANCH   1  20
ATOM     20  C   UNL d   1       2.005   0.735  -0.229  0.00  0.00     0.075 A 
ATOM     21  S   UNL d   1       1.371   1.264   1.315  0.00  0.00    -0.065 SA
ATOM     22  C   UNL d   1      -0.157   0.843   0.843  0.00  0.00     0.104 A 
ATOM     23  C   UNL d   1      -0.216   0.237  -0.346  0.00  0.00     0.024 A 
ATOM     24  N   UNL d   1      -1.414   0.867   1.328  0.00  0.00    -0.289 N 
ATOM     25  C   UNL d   1       1.006   0.128  -1.009  0.00  0.00     0.041 A 
ATOM     26  C   UNL d   1      -1.536  -0.157  -0.554  0.00  0.00     0.035 A 
ATOM     27  C   UNL d   1      -2.153  -0.948  -1.642  0.00  0.00     0.070 C 
ATOM     28  N   UNL d   1      -2.297   0.260   0.485  0.00  0.00    -0.302 N 
ATOM     29  HN  UNL d   1      -3.303   0.146   0.610  1.00  0.00     0.187 HD
ATOM     30  C   UNL d   1      -1.861   1.401   2.588  0.00  0.00     0.178 C 
ENDBRANCH   1  20
TORSDOF 5
