REMARK  3 active torsions:
REMARK  status: ('A' for Active; 'I' for Inactive)
REMARK    1  A    between atoms: C_2  and  C_1 
REMARK       I    between atoms: N_3  and  C_1 
REMARK    2  A    between atoms: C_4  and  N_3 
REMARK    3  A    between atoms: O_18  and  C_5 
ROOT
ATOM      1  C   UNL d   1       0.872  -0.349   0.121  0.00  0.00     0.260 C 
ATOM      2  N   UNL d   1       0.212  -0.470  -1.094  0.00  0.00    -0.323 N 
ATOM      3  O   UNL d   1       1.883  -0.961   0.452  0.00  0.00    -0.267 OA
ATOM      4  H   UNL d   1      -0.594   0.128  -1.250  0.00  0.00     0.169 HD
ENDROOT
BRANCH   1   5
ATOM      5  C   UNL d   1       0.242   0.549   1.113  0.00  0.00     0.081 A 
ATOM      6  C   UNL d   1       0.864   1.572   1.841  0.00  0.00     0.086 A 
ATOM      7  C   UNL d   1       0.095   2.296   2.762  0.00  0.00     0.054 A 
ATOM      8  C   UNL d   1      -1.243   1.986   2.933  0.00  0.00     0.090 A 
ATOM      9  N   UNL d   1      -1.867   1.010   2.250  0.00  0.00    -0.374 N 
ATOM     10  C   UNL d   1      -1.109   0.311   1.374  0.00  0.00     0.107 A 
ATOM     11  HN  UNL d   1      -2.858   0.808   2.385  1.00  0.00     0.164 HD
BRANCH   6  12
ATOM     12  O   UNL d   1       2.125   2.087   1.726  0.00  0.00    -0.355 OA
ATOM     13  C   UNL d   1       3.216   1.207   1.501  0.00  0.00     0.210 C 
ENDBRANCH   6  12
ENDBRANCH   1   5
BRANCH   2  14
ATOM     14  C   UNL d   1       0.604  -1.278  -2.189  0.00  0.00     0.038 A 
ATOM     15  C   UNL d   1       1.690  -2.159  -2.154  0.00  0.00     0.053 A 
ATOM     16  C   UNL d   1       2.079  -2.852  -3.303  0.00  0.00     0.037 A 
ATOM     17 CL   UNL d   1       3.447  -3.896  -3.245  0.00  0.00    -0.084 Cl
ATOM     18  C   UNL d   1       1.385  -2.697  -4.496  0.00  0.00     0.048 A 
ATOM     19  C   UNL d   1       0.275  -1.860  -4.523  0.00  0.00     0.037 A 
ATOM     20  C   UNL d   1      -0.124  -1.160  -3.379  0.00  0.00     0.053 A 
ATOM     21 CL   UNL d   1      -0.604  -1.665  -5.990  0.00  0.00    -0.084 Cl
ENDBRANCH   2  14
TORSDOF 3
