REMARK  2 active torsions:
REMARK  status: ('A' for Active; 'I' for Inactive)
REMARK    1  A    between atoms: C_6  and  N_1 
REMARK    2  A    between atoms: C_9  and  C_2 
ROOT
ATOM      1  N   UNL d   1      -0.193  -1.337  -0.241  0.00  0.00    -0.239 N 
ATOM      2  C   UNL d   1       0.980  -0.702  -0.005  0.00  0.00     0.147 A 
ATOM      3  N   UNL d   1       0.843   0.567   0.216  0.00  0.00    -0.238 N 
ATOM      4  HN  UNL d   1       1.583   1.246   0.395  1.00  0.00     0.196 HD
ATOM      5  C   UNL d   1      -1.158  -0.401  -0.050  0.00  0.00     0.395 A 
ATOM      6  O   UNL d   1      -0.556   0.815   0.158  0.00  0.00    -0.179 OA
ATOM      7  O   UNL d   1      -2.372  -0.567  -0.019  0.00  0.00    -0.235 OA
ENDROOT
BRANCH   1   8
ATOM      8  C   UNL d   1      -0.471  -2.709  -0.121  0.00  0.00     0.048 A 
ATOM      9  C   UNL d   1      -0.695  -3.458  -1.280  0.00  0.00     0.054 A 
ATOM     10  C   UNL d   1      -0.932  -4.827  -1.175  0.00  0.00     0.036 A 
ATOM     11 CL   UNL d   1      -1.116  -5.768  -2.604  0.00  0.00    -0.084 Cl
ATOM     12  C   UNL d   1      -0.998  -5.442   0.074  0.00  0.00     0.024 A 
ATOM     13  C   UNL d   1      -0.817  -4.684   1.232  0.00  0.00     0.004 A 
ATOM     14  C   UNL d   1      -0.543  -3.318   1.137  0.00  0.00     0.030 A 
ENDBRANCH   1   8
BRANCH   2  15
ATOM     15  C   UNL d   1       2.311  -1.353  -0.024  0.00  0.00     0.010 A 
ATOM     16  C   UNL d   1       2.608  -2.451  -0.841  0.00  0.00     0.015 A 
ATOM     17  C   UNL d   1       3.892  -3.002  -0.849  0.00  0.00     0.001 A 
ATOM     18  C   UNL d   1       4.897  -2.444  -0.063  0.00  0.00     0.000 A 
ATOM     19  C   UNL d   1       4.622  -1.332   0.729  0.00  0.00     0.001 A 
ATOM     20  C   UNL d   1       3.336  -0.788   0.749  0.00  0.00     0.015 A 
ENDBRANCH   2  15
TORSDOF 2
