REMARK  5 active torsions:
REMARK  status: ('A' for Active; 'I' for Inactive)
REMARK    1  A    between atoms: S_12  and  C_6 
REMARK    2  A    between atoms: C_17  and  S_12 
REMARK    3  A    between atoms: C_15  and  C_17 
REMARK    4  A    between atoms: O_20  and  C_15 
REMARK    5  A    between atoms: C_21  and  O_20 
ROOT
ATOM      1  C   UNL d   1       1.334  -0.651  -0.104  0.00  0.00     0.089 A 
ATOM      2  C   UNL d   1       0.749   0.606  -0.015  0.00  0.00     0.039 A 
ATOM      3  C   UNL d   1      -1.103  -0.833  -0.063  0.00  0.00    -0.008 A 
ATOM      4  C   UNL d   1      -0.694   0.490  -0.071  0.00  0.00    -0.029 A 
ATOM      5  S   UNL d   1       0.198  -1.921  -0.149  0.00  0.00    -0.075 SA
ATOM      6  C   UNL d   1       1.663   1.668   0.106  0.00  0.00     0.084 A 
ATOM      7  N   UNL d   1       2.649  -0.928  -0.128  0.00  0.00    -0.346 N 
ATOM      8  HN  UNL d   1       3.028  -1.872  -0.205  1.00  0.00     0.167 HD
ATOM      9  N   UNL d   1       2.993   1.436   0.082  0.00  0.00    -0.346 N 
ATOM     10  HN  UNL d   1       3.662   2.202   0.152  1.00  0.00     0.167 HD
ATOM     11  C   UNL d   1      -1.694   1.615  -0.076  0.00  0.00     0.041 C 
ATOM     12  C   UNL d   1       3.404   0.167  -0.038  0.00  0.00     0.182 A 
ATOM     13  C   UNL d   1      -2.526  -1.306  -0.014  0.00  0.00     0.051 C 
ATOM     14  C   UNL d   1      -3.128   1.128  -0.329  0.00  0.00     0.009 C 
ATOM     15  C   UNL d   1      -3.466  -0.166   0.437  0.00  0.00    -0.014 C 
ATOM     16  C   UNL d   1      -3.414   0.047   1.956  0.00  0.00     0.010 C 
ENDROOT
BRANCH   6  17
ATOM     17  S   UNL d   1       1.099   3.322   0.415  0.00  0.00    -0.101 SA
BRANCH  17  18
ATOM     18  C   UNL d   1       2.321   4.274  -0.539  0.00  0.00     0.191 C 
BRANCH  18  19
ATOM     19  C   UNL d   1       2.396   3.813  -1.977  0.00  0.00     0.268 C 
ATOM     20  O   UNL d   1       1.451   3.422  -2.655  0.00  0.00    -0.264 OA
BRANCH  19  21
ATOM     21  O   UNL d   1       3.687   3.896  -2.412  0.00  0.00    -0.321 OA
BRANCH  21  22
ATOM     22  C   UNL d   1       3.991   3.171  -3.609  0.00  0.00     0.174 C 
ATOM     23  C   UNL d   1       4.172   4.117  -4.780  0.00  0.00     0.034 C 
ENDBRANCH  21  22
ENDBRANCH  19  21
ENDBRANCH  18  19
ENDBRANCH  17  18
ENDBRANCH   6  17
TORSDOF 5
