REMARK  6 active torsions:
REMARK  status: ('A' for Active; 'I' for Inactive)
REMARK    1  A    between atoms: N_9  and  C_2 
REMARK    2  A    between atoms: N_3  and  C_12 
REMARK    3  A    between atoms: S_15  and  C_4 
REMARK    4  A    between atoms: N_16  and  C_11 
REMARK    5  A    between atoms: C_19  and  S_15 
REMARK    6  A    between atoms: C_20  and  C_19 
ROOT
ATOM      1  S   UNL d   1      -1.227  -0.267   0.563  0.00  0.00    -0.026 SA
ATOM      2  C   UNL d   1      -0.320   1.178   0.250  0.00  0.00     0.166 A 
ATOM      3  C   UNL d   1       0.112  -1.164  -0.014  0.00  0.00     0.130 A 
ATOM      4  N   UNL d   1       0.866   0.923  -0.274  0.00  0.00    -0.278 N 
ATOM      5  HN  UNL d   1       1.530   1.650  -0.540  1.00  0.00     0.189 HD
ATOM      6  N   UNL d   1       1.118  -0.428  -0.427  0.00  0.00    -0.286 N 
ATOM      7  HN  UNL d   1       1.982  -0.808  -0.814  1.00  0.00     0.188 HD
ENDROOT
BRANCH   3   8
ATOM      8  S   UNL d   1       0.142  -2.916  -0.064  0.00  0.00    -0.099 SA
BRANCH   8   9
ATOM      9  C   UNL d   1       1.934  -3.225  -0.004  0.00  0.00     0.120 C 
BRANCH   9  10
ATOM     10  C   UNL d   1       2.254  -4.705  -0.082  0.00  0.00    -0.048 A 
ATOM     11  C   UNL d   1       2.494  -5.314  -1.325  0.00  0.00     0.010 A 
ATOM     12  C   UNL d   1       2.762  -6.686  -1.412  0.00  0.00     0.036 A 
ATOM     13  C   UNL d   1       2.784  -7.460  -0.247  0.00  0.00     0.102 A 
ATOM     14  C   UNL d   1       2.558  -6.869   1.002  0.00  0.00     0.036 A 
ATOM     15  C   UNL d   1       2.294  -5.497   1.078  0.00  0.00     0.010 A 
BRANCH  13  16
ATOM     16  N   UNL d   1       3.039  -8.905  -0.337  0.00  0.00    -0.116 N 
ATOM     17  O   UNL d   1       3.051  -9.556   0.718  0.00  0.00    -0.532 OA
ATOM     18  O   UNL d   1       3.225  -9.390  -1.462  0.00  0.00    -0.532 OA
ENDBRANCH  13  16
ENDBRANCH   9  10
ENDBRANCH   8   9
ENDBRANCH   3   8
BRANCH   2  19
ATOM     19  N   UNL d   1      -0.886   2.376   0.569  0.00  0.00    -0.332 N 
ATOM     20  C   UNL d   1      -0.162   3.421   0.333  0.00  0.00     0.179 C 
ATOM     21  HN  UNL d   1      -1.822   2.444   0.969  1.00  0.00     0.168 HD
BRANCH  20  22
ATOM     22  N   UNL d   1      -0.514   4.731   0.585  0.00  0.00    -0.386 N 
ATOM     23  C   UNL d   1      -1.791   5.087   1.184  0.00  0.00     0.149 C 
ATOM     24  C   UNL d   1       0.363   5.847   0.268  0.00  0.00     0.149 C 
ENDBRANCH  20  22
ENDBRANCH   2  19
TORSDOF 6
