REMARK  3 active torsions:
REMARK  status: ('A' for Active; 'I' for Inactive)
REMARK    1  A    between atoms: N_6  and  C_1 
REMARK    2  A    between atoms: N_4  and  N_6 
REMARK    3  A    between atoms: C_9  and  C_8 
ROOT
ATOM      1  N   UNL d   1      -2.694   2.500  -0.354  0.00  0.00    -0.290 N 
ATOM      2  HN  UNL d   1      -1.678   2.557  -0.281  1.00  0.00     0.187 HD
ATOM      3  C   UNL d   1      -3.390   3.587  -0.521  0.00  0.00     0.032 C 
ATOM      4  C   UNL d   1      -4.901   3.655  -0.630  0.00  0.00     0.070 C 
ENDROOT
BRANCH   1   5
ATOM      5  N   UNL d   1      -3.309   1.288  -0.277  0.00  0.00    -0.132 N 
ATOM      6  H   UNL d   1      -4.314   1.183  -0.204  0.00  0.00     0.205 HD
BRANCH   5   7
ATOM      7  C   UNL d   1      -2.659   0.081  -0.222  0.00  0.00     0.688 C 
ATOM      8  N   UNL d   1      -3.313  -1.027  -0.121  0.00  0.00    -0.225 N 
ATOM      9  C   UNL d   1      -2.524  -2.264  -0.024  0.00  0.00     0.139 C 
ATOM     10  HN  UNL d   1      -4.332  -1.043  -0.108  1.00  0.00     0.177 HD
ATOM     11  C   UNL d   1      -1.113  -2.142  -0.586  0.00  0.00     0.040 C 
ATOM     12  C   UNL d   1      -0.454  -0.908   0.001  0.00  0.00     0.139 C 
ATOM     13  N   UNL d   1      -1.306   0.207  -0.293  0.00  0.00    -0.225 N 
ATOM     14  H   UNL d   1      -0.996   1.144  -0.061  0.00  0.00     0.177 HD
ENDBRANCH   5   7
ENDBRANCH   1   5
BRANCH   3  15
ATOM     15  C   UNL d   1      -2.631   4.888  -0.615  0.00  0.00    -0.013 A 
ATOM     16  C   UNL d   1      -1.227   4.864  -0.599  0.00  0.00     0.015 A 
ATOM     17  C   UNL d   1      -0.489   6.049  -0.675  0.00  0.00     0.020 A 
ATOM     18  C   UNL d   1      -1.154   7.269  -0.769  0.00  0.00     0.011 A 
ATOM     19  C   UNL d   1      -2.546   7.312  -0.793  0.00  0.00     0.020 A 
ATOM     20 BR   UNL d   1      -0.163   8.875  -0.862  0.00  0.00    -0.051 Br
ATOM     21  C   UNL d   1      -3.284   6.125  -0.715  0.00  0.00     0.015 A 
ENDBRANCH   3  15
TORSDOF 3
