REMARK  4 active torsions:
REMARK  status: ('A' for Active; 'I' for Inactive)
REMARK    1  A    between atoms: N_5  and  C_3 
REMARK    2  A    between atoms: C_8  and  C_4 
REMARK    3  A    between atoms: O_14  and  C_8 
REMARK    4  A    between atoms: C_15  and  O_14 
ROOT
ATOM      1  N   UNL d   1       1.411  -0.610   0.197  0.00  0.00    -0.331 N 
ATOM      2  HN  UNL d   1       2.267  -1.130   0.386  1.00  0.00     0.168 HD
ATOM      3  C   UNL d   1       0.220  -1.143   0.010  0.00  0.00     0.155 A 
ATOM      4  C   UNL d   1       1.314   0.781   0.094  0.00  0.00     0.117 A 
ATOM      5  S   UNL d   1      -1.072  -0.062  -0.222  0.00  0.00    -0.063 SA
ATOM      6  C   UNL d   1       0.022   1.248  -0.089  0.00  0.00     0.089 A 
ENDROOT
BRANCH   3   7
ATOM      7  N   UNL d   1      -0.003  -2.528  -0.021  0.00  0.00    -0.313 N 
ATOM      8  C   UNL d   1       0.956  -3.491   0.266  0.00  0.00     0.098 A 
ATOM      9  C   UNL d   1       0.401  -4.745   0.143  0.00  0.00     0.019 A 
ATOM     10  C   UNL d   1      -0.939  -4.570  -0.255  0.00  0.00     0.019 A 
ATOM     11  C   UNL d   1      -1.164  -3.214  -0.346  0.00  0.00     0.098 A 
ENDBRANCH   3   7
BRANCH   4  12
ATOM     12  C   UNL d   1       2.485   1.661   0.083  0.00  0.00     0.310 C 
ATOM     13  O   UNL d   1       2.406   2.877  -0.057  0.00  0.00    -0.258 OA
BRANCH  12  14
ATOM     14  O   UNL d   1       3.655   0.960   0.111  0.00  0.00    -0.317 OA
BRANCH  14  15
ATOM     15  C   UNL d   1       4.784   1.633  -0.455  0.00  0.00     0.175 C 
ATOM     16  C   UNL d   1       4.796   1.349  -1.948  0.00  0.00     0.034 C 
ENDBRANCH  14  15
ENDBRANCH  12  14
ENDBRANCH   4  12
TORSDOF 4
