REMARK  3 active torsions:
REMARK  status: ('A' for Active; 'I' for Inactive)
REMARK       I    between atoms: C_2  and  N_3 
REMARK    1  A    between atoms: C_7  and  C_2 
REMARK    2  A    between atoms: N_3  and  C_5 
REMARK    3  A    between atoms: C_4  and  C_7 
ROOT
ATOM      1  C   UNL d   1       2.455   2.239   1.557  0.00  0.00     0.222 C 
ATOM      2  N   UNL d   1       1.442   2.127   0.637  0.00  0.00    -0.348 N 
ATOM      3  O   UNL d   1       2.990   3.323   1.808  0.00  0.00    -0.273 OA
ATOM      4  H   UNL d   1       0.986   1.233   0.474  0.00  0.00     0.163 HD
ENDROOT
BRANCH   1   5
ATOM      5  C   UNL d   1       2.861   0.973   2.294  0.00  0.00     0.142 C 
BRANCH   5   6
ATOM      6  C   UNL d   1       3.319  -0.218   1.467  0.00  0.00    -0.038 C 
ATOM      7  C   UNL d   1       4.101  -0.127   0.280  0.00  0.00    -0.019 A 
ATOM      8  C   UNL d   1       4.337  -1.309  -0.471  0.00  0.00    -0.025 A 
ATOM      9  C   UNL d   1       4.685   1.065  -0.208  0.00  0.00     0.013 A 
ATOM     10  C   UNL d   1       5.003  -1.243  -1.706  0.00  0.00     0.012 A 
ATOM     11  C   UNL d   1       3.925  -2.553   0.027  0.00  0.00     0.012 C 
ATOM     12  C   UNL d   1       5.501  -0.036  -2.189  0.00  0.00     0.001 A 
ATOM     13  C   UNL d   1       5.368   1.113  -1.425  0.00  0.00     0.001 A 
ATOM     14  C   UNL d   1       3.288  -2.650   1.258  0.00  0.00     0.001 C 
ATOM     15  C   UNL d   1       2.977  -1.493   1.964  0.00  0.00     0.008 C 
ENDBRANCH   5   6
ENDBRANCH   1   5
BRANCH   2  16
ATOM     16  C   UNL d   1       0.952   3.287  -0.115  0.00  0.00     0.176 C 
ATOM     17  C   UNL d   1      -0.521   3.049  -0.478  0.00  0.00     0.240 C 
ATOM     18  N   UNL d   1      -1.202   4.042  -1.125  0.00  0.00    -0.359 N 
ATOM     19  O   UNL d   1      -1.105   1.995  -0.217  0.00  0.00    -0.271 OA
ATOM     20  C   UNL d   1      -0.730   5.376  -1.421  0.00  0.00     0.122 C 
ATOM     21  H   UNL d   1      -2.175   3.820  -1.298  0.00  0.00     0.162 HD
ATOM     22  C   UNL d   1       0.398   5.395  -2.446  0.00  0.00     0.020 C 
ATOM     23  C   UNL d   1       1.748   4.963  -1.878  0.00  0.00     0.004 C 
ATOM     24  C   UNL d   1       1.794   3.518  -1.376  0.00  0.00     0.035 C 
ENDBRANCH   2  16
TORSDOF 3
