REMARK  3 active torsions:
REMARK  status: ('A' for Active; 'I' for Inactive)
REMARK    1  A    between atoms: N_8  and  C_1 
REMARK    2  A    between atoms: C_10  and  C_6 
REMARK    3  A    between atoms: C_13  and  C_9 
ROOT
ATOM      1  C   UNL d   1       5.115  -1.097  -0.717  0.00  0.00     0.143 C 
ATOM      2  C   UNL d   1       2.794  -0.639  -0.080  0.00  0.00     0.081 C 
ATOM      3  C   UNL d   1       2.988   0.689   0.005  0.00  0.00    -0.037 C 
ATOM      4  O   UNL d   1       3.801  -1.542  -0.321  0.00  0.00    -0.319 OA
ATOM      5  C   UNL d   1       5.443   0.193   0.073  0.00  0.00     0.054 C 
ATOM      6  C   UNL d   1       4.379   1.307  -0.196  0.00  0.00     0.059 C 
ATOM      7  C   UNL d   1       1.484  -1.275   0.033  0.00  0.00    -0.024 C 
ATOM      8  C   UNL d   1       1.370  -2.625   0.033  0.00  0.00     0.021 C 
ATOM      9  C   UNL d   1       6.033  -2.209  -0.152  0.00  0.00     0.062 C 
ATOM     10  C   UNL d   1       1.878   1.650   0.331  0.00  0.00     0.038 C 
ATOM     11  C   UNL d   1       0.265  -0.389   0.043  0.00  0.00     0.042 C 
ATOM     12  C   UNL d   1       6.923   0.603   0.041  0.00  0.00     0.010 C 
ATOM     13  C   UNL d   1       0.454   1.103   0.310  0.00  0.00     0.009 C 
ATOM     14  C   UNL d   1       7.518  -1.925  -0.285  0.00  0.00     0.005 C 
ATOM     15  C   UNL d   1       7.933  -0.542   0.213  0.00  0.00     0.001 C 
ENDROOT
BRANCH   8  16
ATOM     16  C   UNL d   1       0.113  -3.377  -0.056  0.00  0.00    -0.036 A 
ATOM     17  C   UNL d   1      -0.488  -3.562  -1.309  0.00  0.00     0.011 A 
ATOM     18  C   UNL d   1      -1.666  -4.301  -1.415  0.00  0.00     0.001 A 
ATOM     19  C   UNL d   1      -2.244  -4.861  -0.273  0.00  0.00     0.000 A 
ATOM     20  C   UNL d   1      -1.637  -4.680   0.971  0.00  0.00     0.001 A 
ATOM     21  C   UNL d   1      -0.467  -3.942   1.080  0.00  0.00     0.011 A 
ENDBRANCH   8  16
BRANCH   1  22
ATOM     22  N   UNL d   1       5.189  -1.045  -2.172  0.00  0.00    -0.382 N 
ATOM     23  C   UNL d   1       4.505  -2.052  -2.955  0.00  0.00     0.120 C 
ATOM     24  C   UNL d   1       5.513  -2.482  -4.004  0.00  0.00     0.021 C 
ATOM     25  C   UNL d   1       6.511  -1.347  -4.117  0.00  0.00     0.021 C 
ATOM     26  C   UNL d   1       6.228  -0.418  -2.949  0.00  0.00     0.120 C 
ENDBRANCH   1  22
BRANCH   6  27
ATOM     27  C   UNL d   1       4.509   2.083  -1.517  0.00  0.00    -0.049 A 
ATOM     28  C   UNL d   1       3.596   1.929  -2.580  0.00  0.00     0.008 A 
ATOM     29  C   UNL d   1       3.780   2.581  -3.803  0.00  0.00     0.001 A 
ATOM     30  C   UNL d   1       4.898   3.384  -4.002  0.00  0.00     0.000 A 
ATOM     31  C   UNL d   1       5.796   3.582  -2.959  0.00  0.00     0.001 A 
ATOM     32  C   UNL d   1       5.582   2.969  -1.718  0.00  0.00     0.008 A 
ENDBRANCH   6  27
TORSDOF 3
