REMARK  1 active torsions:
REMARK  status: ('A' for Active; 'I' for Inactive)
REMARK    1  A    between atoms: C_7  and  C_1 
ROOT
ATOM      1  C   UNL d   1      -1.747   1.357   0.503  0.00  0.00     0.171 C 
ATOM      2  O   UNL d   1      -0.440   1.799   0.089  0.00  0.00    -0.340 OA
ATOM      3  C   UNL d   1      -1.294  -0.859  -0.541  0.00  0.00     0.165 C 
ATOM      4  C   UNL d   1       0.128  -0.524  -0.359  0.00  0.00     0.043 A 
ATOM      5  C   UNL d   1      -2.274   0.277  -0.440  0.00  0.00     0.121 C 
ATOM      6  C   UNL d   1       0.473   0.798  -0.085  0.00  0.00     0.083 A 
ATOM      7  O   UNL d   1      -1.648  -2.003  -0.801  0.00  0.00    -0.292 OA
ATOM      8  C   UNL d   1       1.114  -1.504  -0.487  0.00  0.00     0.018 A 
ATOM      9  C   UNL d   1       1.817   1.155   0.003  0.00  0.00     0.038 A 
ATOM     10  C   UNL d   1       2.458  -1.150  -0.366  0.00  0.00     0.001 A 
ATOM     11  C   UNL d   1       2.809   0.181  -0.132  0.00  0.00     0.003 A 
ENDROOT
BRANCH   1  12
ATOM     12  C   UNL d   1      -1.793   1.093   2.009  0.00  0.00    -0.007 A 
ATOM     13  C   UNL d   1      -1.588   2.140   2.933  0.00  0.00     0.043 A 
ATOM     14 CL   UNL d   1      -1.274   3.766   2.431  0.00  0.00    -0.084 Cl
ATOM     15  C   UNL d   1      -1.653   1.909   4.313  0.00  0.00     0.024 A 
ATOM     16  C   UNL d   1      -1.918   0.633   4.803  0.00  0.00     0.002 A 
ATOM     17  C   UNL d   1      -2.119  -0.414   3.912  0.00  0.00     0.001 A 
ATOM     18  C   UNL d   1      -2.060  -0.187   2.533  0.00  0.00     0.011 A 
ENDBRANCH   1  12
TORSDOF 1
