REMARK  6 active torsions:
REMARK  status: ('A' for Active; 'I' for Inactive)
REMARK    1  A    between atoms: C_6  and  C_1 
REMARK    2  A    between atoms: C_5  and  C_2 
REMARK       I    between atoms: N_9  and  C_5 
REMARK    3  A    between atoms: C_10  and  N_9 
REMARK    4  A    between atoms: C_26  and  C_17 
REMARK    5  A    between atoms: C_27  and  C_26 
REMARK    6  A    between atoms: C_28  and  C_27 
ROOT
ATOM      1  C   UNL d   1       3.294  -2.866   1.026  0.00  0.00     0.086 A 
ATOM      2  C   UNL d   1       2.462  -3.736   0.240  0.00  0.00     0.093 A 
ATOM      3  N   UNL d   1       4.416  -3.528   1.377  0.00  0.00    -0.259 N 
ATOM      4  HN  UNL d   1       5.192  -3.152   1.922  1.00  0.00     0.195 HD
ATOM      5  O   UNL d   1       4.323  -4.793   0.871  0.00  0.00    -0.241 OA
ATOM      6  C   UNL d   1       3.172  -4.917   0.178  0.00  0.00     0.090 A 
ATOM      7  C   UNL d   1       2.954  -6.227  -0.466  0.00  0.00     0.080 C 
ENDROOT
BRANCH   2   8
ATOM      8  C   UNL d   1       1.187  -3.568  -0.442  0.00  0.00     0.261 C 
ATOM      9  N   UNL d   1       0.120  -3.454   0.415  0.00  0.00    -0.322 N 
ATOM     10  H   UNL d   1       0.297  -3.824   1.340  0.00  0.00     0.169 HD
ATOM     11  O   UNL d   1       1.114  -3.737  -1.655  0.00  0.00    -0.267 OA
BRANCH   9  12
ATOM     12  C   UNL d   1      -1.249  -3.305   0.085  0.00  0.00     0.041 C 
ATOM     13  C   UNL d   1      -1.794  -2.405  -0.843  0.00  0.00    -0.035 C 
ATOM     14  C   UNL d   1      -3.176  -2.108  -0.740  0.00  0.00     0.016 C 
ATOM     15  C   UNL d   1      -1.056  -1.593  -1.867  0.00  0.00     0.050 C 
ATOM     16  C   UNL d   1      -4.033  -2.746   0.173  0.00  0.00    -0.058 C 
ATOM     17  C   UNL d   1      -3.508  -3.808   0.890  0.00  0.00     0.009 C 
ATOM     18  C   UNL d   1      -2.130  -4.041   0.894  0.00  0.00     0.030 C 
BRANCH  16  19
ATOM     19  C   UNL d   1      -5.427  -2.195   0.354  0.00  0.00     0.038 C 
BRANCH  19  20
ATOM     20  C   UNL d   1      -6.435  -2.889   1.288  0.00  0.00     0.004 C 
BRANCH  20  21
ATOM     21  C   UNL d   1      -6.254  -2.653   2.795  0.00  0.00    -0.004 C 
ATOM     22  C   UNL d   1      -5.575  -3.793   3.546  0.00  0.00     0.005 C 
ENDBRANCH  20  21
ENDBRANCH  19  20
ENDBRANCH  16  19
ENDBRANCH   9  12
ENDBRANCH   2   8
BRANCH   1  23
ATOM     23  C   UNL d   1       3.218  -1.449   1.422  0.00  0.00     0.037 A 
ATOM     24  C   UNL d   1       3.565  -1.054   2.738  0.00  0.00     0.048 A 
ATOM     25 CL   UNL d   1       3.709  -2.179   4.057  0.00  0.00    -0.083 Cl
ATOM     26  C   UNL d   1       3.801   0.291   3.068  0.00  0.00     0.025 A 
ATOM     27  C   UNL d   1       3.642   1.283   2.111  0.00  0.00     0.003 A 
ATOM     28  C   UNL d   1       3.223   0.931   0.833  0.00  0.00     0.025 A 
ATOM     29  C   UNL d   1       3.024  -0.416   0.482  0.00  0.00     0.048 A 
ATOM     30 CL   UNL d   1       2.615  -0.700  -1.171  0.00  0.00    -0.083 Cl
ENDBRANCH   1  23
TORSDOF 6
