REMARK  3 active torsions:
REMARK  status: ('A' for Active; 'I' for Inactive)
REMARK    1  A    between atoms: N_2  and  N_1 
REMARK    2  A    between atoms: C_5  and  N_2 
REMARK    3  A    between atoms: C_6  and  C_7 
ROOT
ATOM      1  C   UNL d   1       0.721   3.332  -1.394  0.00  0.00     0.122 A 
ATOM      2  C   UNL d   1       0.477   5.494  -2.509  0.00  0.00     0.052 A 
ATOM      3  C   UNL d   1       1.282   4.494  -1.938  0.00  0.00     0.066 A 
ATOM      4  N   UNL d   1      -0.630   3.190  -1.402  0.00  0.00    -0.351 N 
ATOM      5  HN  UNL d   1      -1.058   2.335  -1.047  1.00  0.00     0.166 HD
ATOM      6  C   UNL d   1      -1.404   4.189  -1.885  0.00  0.00     0.090 A 
ATOM      7  C   UNL d   1      -0.903   5.345  -2.454  0.00  0.00     0.033 A 
ENDROOT
BRANCH   1   8
ATOM      8  N   UNL d   1       1.530   2.318  -0.785  0.00  0.00    -0.269 N 
ATOM      9  C   UNL d   1       2.889   2.202  -1.320  0.00  0.00     0.180 C 
BRANCH   8  10
ATOM     10  N   UNL d   1       0.752   1.074  -0.567  0.00  0.00    -0.186 N 
ATOM     11  C   UNL d   1       1.382  -0.170  -0.707  0.00  0.00     0.255 C 
ATOM     12  O   UNL d   1       2.592  -0.395  -0.665  0.00  0.00    -0.270 OA
ATOM     13  C   UNL d   1       0.434  -1.324  -0.967  0.00  0.00     0.179 C 
ATOM     14  S   UNL d   1      -0.795  -1.496   0.340  0.00  0.00    -0.150 SA
ATOM     15  C   UNL d   1      -1.352   0.224   0.338  0.00  0.00     0.179 C 
ATOM     16  C   UNL d   1      -0.179   1.172   0.479  0.00  0.00     0.255 C 
ATOM     17  O   UNL d   1      -0.103   1.953   1.434  0.00  0.00    -0.270 OA
ENDBRANCH   8  10
ENDBRANCH   1   8
BRANCH   2  18
ATOM     18  C   UNL d   1       1.092   6.699  -3.169  0.00  0.00     0.417 C 
ATOM     19  F   UNL d   1       2.453   6.656  -3.218  0.00  0.00    -0.166 F 
ATOM     20  F   UNL d   1       0.682   6.843  -4.460  0.00  0.00    -0.166 F 
ATOM     21  F   UNL d   1       0.774   7.865  -2.542  0.00  0.00    -0.166 F 
ENDBRANCH   2  18
TORSDOF 3
