REMARK  4 active torsions:
REMARK  status: ('A' for Active; 'I' for Inactive)
REMARK    1  A    between atoms: C_8  and  C_1 
REMARK    2  A    between atoms: C_5  and  C_15 
REMARK       I    between atoms: N_14  and  C_8 
REMARK    3  A    between atoms: C_19  and  N_14 
REMARK    4  A    between atoms: C_20  and  C_19 
ROOT
ATOM      1  C   UNL d   1      -2.416   2.873   0.111  0.00  0.00     0.161 C 
ENDROOT
BRANCH   1   2
ATOM      2  N   UNL d   1      -1.066   3.401   0.045  0.00  0.00    -0.352 N 
ATOM      3  C   UNL d   1      -0.033   2.481   0.109  0.00  0.00     0.256 C 
ATOM      4  O   UNL d   1      -0.290   1.285   0.198  0.00  0.00    -0.267 OA
ATOM      5  H   UNL d   1      -0.911   4.396   0.017  0.00  0.00     0.163 HD
BRANCH   3   6
ATOM      6  C   UNL d   1       1.349   2.941   0.066  0.00  0.00     0.087 A 
ATOM      7  C   UNL d   1       2.415   2.052   0.113  0.00  0.00     0.090 A 
ATOM      8  O   UNL d   1       3.588   2.723   0.055  0.00  0.00    -0.242 OA
ATOM      9  C   UNL d   1       2.522   0.580   0.209  0.00  0.00     0.080 C 
ATOM     10  N   UNL d   1       3.339   4.069  -0.030  0.00  0.00    -0.265 N 
ATOM     11  C   UNL d   1       2.005   4.206  -0.021  0.00  0.00     0.047 A 
ATOM     12  HN  UNL d   1       4.031   4.817  -0.088  1.00  0.00     0.194 HD
ATOM     13  C   UNL d   1       1.469   5.584  -0.096  0.00  0.00     0.071 C 
ENDBRANCH   3   6
ENDBRANCH   1   2
BRANCH   1  14
ATOM     14  C   UNL d   1      -3.511   3.892  -0.046  0.00  0.00    -0.040 A 
ATOM     15  C   UNL d   1      -3.994   4.216  -1.320  0.00  0.00     0.010 A 
ATOM     16  C   UNL d   1      -5.074   5.093  -1.474  0.00  0.00     0.014 A 
ATOM     17  C   UNL d   1      -5.692   5.673  -0.359  0.00  0.00    -0.008 A 
ATOM     18  C   UNL d   1      -5.200   5.358   0.916  0.00  0.00     0.014 A 
ATOM     19  C   UNL d   1      -4.122   4.475   1.071  0.00  0.00     0.010 A 
BRANCH  17  20
ATOM     20  C   UNL d   1      -6.805   6.604  -0.504  0.00  0.00     0.063 A 
ATOM     21  N   UNL d   1      -7.036   7.605   0.436  0.00  0.00    -0.292 N 
ATOM     22  N   UNL d   1      -8.069   8.364   0.111  0.00  0.00    -0.061 NA
ATOM     23  HN  UNL d   1      -6.474   7.738   1.277  1.00  0.00     0.183 HD
ATOM     24  S   UNL d   1      -8.803   7.888  -1.313  0.00  0.00    -0.010 SA
ATOM     25  C   UNL d   1      -7.712   6.585  -1.552  0.00  0.00     0.096 A 
ENDBRANCH  17  20
ENDBRANCH   1  14
TORSDOF 4
