REMARK  2 active torsions:
REMARK  status: ('A' for Active; 'I' for Inactive)
REMARK    1  A    between atoms: C_2  and  C_1 
REMARK    2  A    between atoms: S_11  and  C_5 
ROOT
ATOM      1  C   UNL d   1       0.595  -1.462  -0.466  0.00  0.00     0.063 A 
ATOM      2  N   UNL d   1      -0.558  -2.902  -2.029  0.00  0.00    -0.360 N 
ATOM      3  HN  UNL d   1      -1.153  -3.009  -2.851  1.00  0.00     0.166 HD
ATOM      4  C   UNL d   1      -0.094  -3.978  -1.358  0.00  0.00     0.066 A 
ATOM      5  C   UNL d   1      -0.208  -1.676  -1.574  0.00  0.00     0.105 A 
ATOM      6  C   UNL d   1       1.057  -2.590   0.219  0.00  0.00     0.020 A 
ATOM      7  C   UNL d   1       0.709  -3.865  -0.230  0.00  0.00     0.037 A 
ENDROOT
BRANCH   1   8
ATOM      8  C   UNL d   1       0.952  -0.075  -0.028  0.00  0.00     0.418 C 
ATOM      9  F   UNL d   1       0.428   0.901  -0.820  0.00  0.00    -0.166 F 
ATOM     10  F   UNL d   1       2.297   0.135  -0.017  0.00  0.00    -0.166 F 
ATOM     11  F   UNL d   1       0.522   0.198   1.235  0.00  0.00    -0.166 F 
ENDBRANCH   1   8
BRANCH   4  12
ATOM     12  S   UNL d   1      -0.579  -5.566  -1.984  0.00  0.00    -0.126 SA
ATOM     13  H   UNL d   1       0.329  -6.291  -1.320  0.00  0.00     0.108 HD
ENDBRANCH   4  12
TORSDOF 2
