REMARK  6 active torsions:
REMARK  status: ('A' for Active; 'I' for Inactive)
REMARK    1  A    between atoms: N_26  and  C_7 
REMARK    2  A    between atoms: N_25  and  C_8 
REMARK    3  A    between atoms: C_22  and  C_11 
REMARK    4  A    between atoms: C_21  and  C_12 
REMARK    5  A    between atoms: C_15  and  C_24 
REMARK    6  A    between atoms: C_16  and  C_23 
ROOT
ATOM      1  C   UNL d   1       2.908   1.595  -0.070  0.00  0.00     0.080 A 
ATOM      2  C   UNL d   1      -0.347  -4.541  -0.093  0.00  0.00     0.080 C 
ATOM      3  C   UNL d   1       1.297  -0.682  -0.252  0.00  0.00     0.120 A 
ATOM      4  C   UNL d   1       0.633  -1.909  -0.292  0.00  0.00     0.120 A 
ATOM      5  C   UNL d   1      -0.756  -2.022  -0.227  0.00  0.00     0.004 A 
ATOM      6  C   UNL d   1       0.592   0.502  -0.059  0.00  0.00     0.004 A 
ATOM      7  C   UNL d   1       0.939  -4.203   0.113  0.00  0.00     0.138 C 
ATOM      8  C   UNL d   1       3.444   0.378  -0.278  0.00  0.00     0.138 A 
ATOM      9  O   UNL d   1       1.442  -3.012  -0.345  0.00  0.00    -0.294 OA
ATOM     10  O   UNL d   1       2.660  -0.750  -0.394  0.00  0.00    -0.294 OA
ATOM     11  C   UNL d   1       1.408   1.798   0.030  0.00  0.00     0.103 A 
ATOM     12  C   UNL d   1      -1.356  -3.440  -0.366  0.00  0.00     0.103 C 
ATOM     13  C   UNL d   1      -0.836   0.428   0.073  0.00  0.00    -0.015 A 
ATOM     14  C   UNL d   1      -1.510  -0.833  -0.038  0.00  0.00    -0.015 A 
ATOM     15  C   UNL d   1       3.754   2.734   0.076  0.00  0.00     0.100 C 
ATOM     16  C   UNL d   1      -0.799  -5.894   0.062  0.00  0.00     0.100 C 
ATOM     17  N   UNL d   1      -1.190  -6.977   0.133  0.00  0.00    -0.191 NA
ATOM     18  N   UNL d   1       4.449   3.659   0.178  0.00  0.00    -0.191 NA
ATOM     19  C   UNL d   1      -2.922  -0.846   0.059  0.00  0.00     0.013 A 
ATOM     20  C   UNL d   1      -1.640   1.569   0.309  0.00  0.00     0.013 A 
ATOM     21  C   UNL d   1      -3.677   0.314   0.214  0.00  0.00     0.001 A 
ATOM     22  C   UNL d   1      -3.034   1.525   0.344  0.00  0.00     0.001 A 
ENDROOT
BRANCH   8  23
ATOM     23  N   UNL d   1       4.786   0.095  -0.398  0.00  0.00    -0.282 NA
ATOM     24  H   UNL d   1       5.373   0.860  -0.724  0.00  0.00     0.126 HD
ATOM     25  H   UNL d   1       4.949  -0.771  -0.908  0.00  0.00     0.126 HD
ENDBRANCH   8  23
BRANCH  11  26
ATOM     26  C   UNL d   1       0.953   2.862  -0.972  0.00  0.00    -0.044 A 
ATOM     27  C   UNL d   1       0.558   4.129  -0.508  0.00  0.00     0.009 A 
ATOM     28  C   UNL d   1       0.015   5.066  -1.385  0.00  0.00     0.017 A 
ATOM     29  C   UNL d   1      -0.104   4.773  -2.750  0.00  0.00     0.047 A 
ATOM     30  C   UNL d   1       0.370   3.542  -3.226  0.00  0.00     0.017 A 
ATOM     31  C   UNL d   1       0.893   2.593  -2.346  0.00  0.00     0.009 A 
BRANCH  29  32
ATOM     32  C   UNL d   1      -0.766   5.767  -3.671  0.00  0.00     0.417 C 
ATOM     33  F   UNL d   1      -0.803   5.365  -4.972  0.00  0.00    -0.166 F 
ATOM     34  F   UNL d   1      -2.061   6.008  -3.319  0.00  0.00    -0.166 F 
ATOM     35  F   UNL d   1      -0.147   6.978  -3.669  0.00  0.00    -0.166 F 
ENDBRANCH  29  32
ENDBRANCH  11  26
BRANCH  12  36
ATOM     36  C   UNL d   1      -2.150  -3.609  -1.658  0.00  0.00    -0.044 A 
ATOM     37  C   UNL d   1      -1.562  -3.404  -2.912  0.00  0.00     0.009 A 
ATOM     38  C   UNL d   1      -2.360  -3.318  -4.055  0.00  0.00     0.017 A 
ATOM     39  C   UNL d   1      -3.756  -3.435  -3.966  0.00  0.00     0.047 A 
ATOM     40  C   UNL d   1      -4.333  -3.742  -2.729  0.00  0.00     0.017 A 
ATOM     41  C   UNL d   1      -3.535  -3.850  -1.590  0.00  0.00     0.009 A 
BRANCH  39  42
ATOM     42  C   UNL d   1      -4.612  -3.187  -5.183  0.00  0.00     0.417 C 
ATOM     43  F   UNL d   1      -5.950  -3.230  -4.927  0.00  0.00    -0.166 F 
ATOM     44  F   UNL d   1      -4.382  -1.961  -5.733  0.00  0.00    -0.166 F 
ATOM     45  F   UNL d   1      -4.389  -4.090  -6.176  0.00  0.00    -0.166 F 
ENDBRANCH  39  42
ENDBRANCH  12  36
BRANCH   7  46
ATOM     46  N   UNL d   1       1.883  -4.918   0.820  0.00  0.00    -0.282 NA
ATOM     47  H   UNL d   1       1.610  -4.919   1.806  0.00  0.00     0.126 HD
ATOM     48  H   UNL d   1       2.754  -4.386   0.786  0.00  0.00     0.126 HD
ENDBRANCH   7  46
TORSDOF 6
