REMARK  4 active torsions:
REMARK  status: ('A' for Active; 'I' for Inactive)
REMARK    1  A    between atoms: N_2  and  C_1 
REMARK    2  A    between atoms: N_3  and  C_1 
REMARK    3  A    between atoms: C_4  and  N_2 
REMARK    4  A    between atoms: C_7  and  N_3 
ROOT
ATOM      1  C   UNL d   1       1.052   0.009  -0.096  0.00  0.00     0.176 C 
ATOM      2  S   UNL d   1       0.559  -1.347  -0.948  0.00  0.00    -0.041 SA
ENDROOT
BRANCH   1   3
ATOM      3  N   UNL d   1       2.356   0.272   0.321  0.00  0.00    -0.331 N 
ATOM      4  H   UNL d   1       2.405   0.610   1.280  0.00  0.00     0.168 HD
BRANCH   3   5
ATOM      5  C   UNL d   1       3.561  -0.281  -0.167  0.00  0.00     0.073 A 
ATOM      6  C   UNL d   1       4.607  -0.501   0.733  0.00  0.00     0.143 A 
ATOM      7  F   UNL d   1       4.432  -0.229   2.036  0.00  0.00    -0.204 F 
ATOM      8  C   UNL d   1       5.827  -1.024   0.311  0.00  0.00     0.044 A 
ATOM      9  C   UNL d   1       6.025  -1.300  -1.041  0.00  0.00     0.003 A 
ATOM     10  C   UNL d   1       5.003  -1.046  -1.957  0.00  0.00     0.002 A 
ATOM     11  C   UNL d   1       3.775  -0.537  -1.523  0.00  0.00     0.033 A 
ENDBRANCH   3   5
ENDBRANCH   1   3
BRANCH   1  12
ATOM     12  N   UNL d   1       0.231   1.061   0.306  0.00  0.00    -0.333 N 
ATOM     13  H   UNL d   1       0.667   1.969   0.189  0.00  0.00     0.168 HD
BRANCH  12  14
ATOM     14  C   UNL d   1      -1.173   1.071   0.451  0.00  0.00     0.034 A 
ATOM     15  C   UNL d   1      -1.876  -0.020   0.963  0.00  0.00     0.030 A 
ATOM     16  C   UNL d   1      -3.261   0.049   1.136  0.00  0.00     0.009 A 
ATOM     17  C   UNL d   1      -3.962   1.210   0.796  0.00  0.00    -0.062 A 
ATOM     18  C   UNL d   1      -3.253   2.311   0.306  0.00  0.00     0.009 A 
ATOM     19  C   UNL d   1      -5.448   1.267   0.988  0.00  0.00     0.048 C 
ATOM     20  C   UNL d   1      -1.864   2.248   0.151  0.00  0.00     0.030 A 
ENDBRANCH  12  14
ENDBRANCH   1  12
TORSDOF 4
