REMARK  5 active torsions:
REMARK  status: ('A' for Active; 'I' for Inactive)
REMARK    1  A    between atoms: N_7  and  C_1 
REMARK    2  A    between atoms: C_18  and  N_2 
REMARK    3  A    between atoms: C_21  and  C_6 
REMARK    4  A    between atoms: C_9  and  C_13 
REMARK    5  A    between atoms: O_23  and  C_12 
ROOT
ATOM      1  C   UNL d   1      -0.307  -1.064  -0.151  0.00  0.00     0.150 A 
ATOM      2  N   UNL d   1       0.992  -0.506  -0.037  0.00  0.00    -0.238 N 
ATOM      3  C   UNL d   1      -1.140   0.054  -0.167  0.00  0.00     0.115 A 
ATOM      4  N   UNL d   1       0.948   0.855   0.119  0.00  0.00    -0.294 N 
ATOM      5  HN  UNL d   1       1.732   1.474   0.323  1.00  0.00     0.187 HD
ATOM      6  C   UNL d   1      -0.326   1.204  -0.049  0.00  0.00     0.064 A 
ATOM      7  C   UNL d   1      -2.554   0.056  -0.311  0.00  0.00     0.105 C 
ATOM      8  N   UNL d   1      -3.711   0.097  -0.373  0.00  0.00    -0.191 NA
ENDROOT
BRANCH   1   9
ATOM      9  N   UNL d   1      -0.526  -2.418  -0.297  0.00  0.00    -0.349 N 
ATOM     10  C   UNL d   1      -1.596  -2.952   0.213  0.00  0.00     0.104 C 
ATOM     11  HN  UNL d   1       0.146  -2.996  -0.801  1.00  0.00     0.167 HD
BRANCH  10  12
ATOM     12  C   UNL d   1      -1.932  -4.406   0.095  0.00  0.00     0.016 A 
ATOM     13  C   UNL d   1      -3.152  -4.870   0.609  0.00  0.00     0.099 A 
ATOM     14  C   UNL d   1      -3.502  -6.226   0.506  0.00  0.00     0.069 A 
ATOM     15 CL   UNL d   1      -5.011  -6.787   1.129  0.00  0.00    -0.081 Cl
ATOM     16  C   UNL d   1      -2.639  -7.135  -0.093  0.00  0.00     0.050 A 
ATOM     17  C   UNL d   1      -1.420  -6.678  -0.592  0.00  0.00     0.036 A 
ATOM     18  C   UNL d   1      -1.062  -5.323  -0.509  0.00  0.00     0.039 A 
ATOM     19 CL   UNL d   1      -0.341  -7.811  -1.313  0.00  0.00    -0.084 Cl
BRANCH  13  20
ATOM     20  O   UNL d   1      -4.006  -3.991   1.222  0.00  0.00    -0.358 OA
ATOM     21  H   UNL d   1      -4.800  -4.488   1.502  0.00  0.00     0.217 HD
ENDBRANCH  13  20
ENDBRANCH  10  12
ENDBRANCH   1   9
BRANCH   6  22
ATOM     22  C   UNL d   1      -0.696   2.660  -0.059  0.00  0.00     0.184 C 
ATOM     23  C   UNL d   1      -1.260   3.056  -1.357  0.00  0.00     0.065 C 
ATOM     24  N   UNL d   1      -1.716   3.374  -2.373  0.00  0.00    -0.197 NA
ENDBRANCH   6  22
BRANCH   2  25
ATOM     25  C   UNL d   1       2.283  -1.130  -0.068  0.00  0.00     0.058 A 
ATOM     26  C   UNL d   1       2.452  -2.489  -0.344  0.00  0.00     0.031 A 
ATOM     27  C   UNL d   1       3.732  -3.053  -0.384  0.00  0.00     0.002 A 
ATOM     28  C   UNL d   1       4.858  -2.267  -0.149  0.00  0.00     0.000 A 
ATOM     29  C   UNL d   1       4.708  -0.911   0.121  0.00  0.00     0.002 A 
ATOM     30  C   UNL d   1       3.431  -0.344   0.160  0.00  0.00     0.031 A 
ENDBRANCH   2  25
TORSDOF 5
