REMARK  6 active torsions:
REMARK  status: ('A' for Active; 'I' for Inactive)
REMARK    1  A    between atoms: C_4  and  C_1 
REMARK    2  A    between atoms: C_5  and  C_1 
REMARK    3  A    between atoms: C_2  and  C_3 
REMARK    4  A    between atoms: C_6  and  C_2 
REMARK    5  A    between atoms: C_7  and  S_11 
REMARK    6  A    between atoms: S_11  and  C_8 
ROOT
ATOM      1  S   UNL d   1       3.789  -4.065   0.081  0.00  0.00    -0.114 SA
ENDROOT
BRANCH   1   2
ATOM      2  C   UNL d   1       2.535  -5.264   0.105  0.00  0.00     0.053 C 
ATOM      3  C   UNL d   1       2.434  -6.134   1.122  0.00  0.00     0.062 C 
BRANCH   3   4
ATOM      4  C   UNL d   1       1.390  -7.196   1.094  0.00  0.00     0.182 C 
ATOM      5  O   UNL d   1       0.722  -7.408   0.087  0.00  0.00    -0.288 OA
BRANCH   4   6
ATOM      6  C   UNL d   1       1.199  -8.037   2.312  0.00  0.00     0.014 A 
ATOM      7  C   UNL d   1       1.492  -7.582   3.602  0.00  0.00     0.016 A 
ATOM      8  C   UNL d   1       1.276  -8.412   4.709  0.00  0.00     0.007 A 
ATOM      9  C   UNL d   1       0.755  -9.701   4.545  0.00  0.00    -0.062 A 
ATOM     10  C   UNL d   1       0.453 -10.152   3.255  0.00  0.00     0.007 A 
ATOM     11  C   UNL d   1       0.519 -10.572   5.744  0.00  0.00     0.048 C 
ATOM     12  C   UNL d   1       0.669  -9.324   2.149  0.00  0.00     0.016 A 
ENDBRANCH   4   6
ENDBRANCH   3   4
ENDBRANCH   1   2
BRANCH   1  13
ATOM     13  C   UNL d   1       2.802  -2.655  -0.139  0.00  0.00     0.053 C 
ATOM     14  C   UNL d   1       3.354  -1.432  -0.160  0.00  0.00     0.062 C 
BRANCH  14  15
ATOM     15  C   UNL d   1       2.482  -0.237  -0.317  0.00  0.00     0.182 C 
ATOM     16  O   UNL d   1       1.321  -0.343  -0.703  0.00  0.00    -0.288 OA
BRANCH  15  17
ATOM     17  C   UNL d   1       3.045   1.109  -0.013  0.00  0.00     0.014 A 
ATOM     18  C   UNL d   1       2.451   2.225  -0.617  0.00  0.00     0.016 A 
ATOM     19  C   UNL d   1       2.898   3.516  -0.324  0.00  0.00     0.007 A 
ATOM     20  C   UNL d   1       3.940   3.714   0.589  0.00  0.00    -0.062 A 
ATOM     21  C   UNL d   1       4.539   2.600   1.190  0.00  0.00     0.007 A 
ATOM     22  C   UNL d   1       4.391   5.110   0.916  0.00  0.00     0.048 C 
ATOM     23  C   UNL d   1       4.094   1.305   0.895  0.00  0.00     0.016 A 
ENDBRANCH  15  17
ENDBRANCH  14  15
ENDBRANCH   1  13
TORSDOF 6
