REMARK  5 active torsions:
REMARK  status: ('A' for Active; 'I' for Inactive)
REMARK    1  A    between atoms: C_9  and  C_1 
REMARK    2  A    between atoms: O_7  and  C_2 
REMARK    3  A    between atoms: C_8  and  O_7 
REMARK    4  A    between atoms: C_12  and  C_8 
REMARK    5  A    between atoms: C_14  and  C_9 
ROOT
ATOM      1  C   UNL d   1      -1.616  -1.557   0.113  0.00  0.00     0.049 C 
ATOM      2  C   UNL d   1      -0.333  -1.941  -0.022  0.00  0.00     0.104 C 
ATOM      3  C   UNL d   1      -1.950  -0.100   0.204  0.00  0.00     0.257 C 
ATOM      4  N   UNL d   1      -0.916   0.817   0.061  0.00  0.00    -0.317 N 
ATOM      5  C   UNL d   1       0.766  -0.952  -0.010  0.00  0.00     0.026 A 
ATOM      6  C   UNL d   1       0.450   0.416  -0.005  0.00  0.00     0.050 A 
ATOM      7  O   UNL d   1      -3.119   0.245   0.381  0.00  0.00    -0.267 OA
ATOM      8  C   UNL d   1      -1.254   2.234   0.050  0.00  0.00     0.159 C 
ATOM      9  C   UNL d   1       2.122  -1.330  -0.010  0.00  0.00     0.016 A 
ATOM     10  C   UNL d   1       1.491   1.364  -0.033  0.00  0.00     0.031 A 
ATOM     11  C   UNL d   1       3.144  -0.381  -0.039  0.00  0.00     0.001 A 
ATOM     12  C   UNL d   1       2.828   0.968  -0.054  0.00  0.00     0.002 A 
ENDROOT
BRANCH   2  13
ATOM     13  O   UNL d   1       0.030  -3.308  -0.014  0.00  0.00    -0.273 OA
BRANCH  13  14
ATOM     14  C   UNL d   1       0.558  -3.840  -1.166  0.00  0.00     0.298 C 
ATOM     15  O   UNL d   1       0.417  -3.423  -2.301  0.00  0.00    -0.259 OA
BRANCH  14  16
ATOM     16  C   UNL d   1       1.508  -4.932  -0.772  0.00  0.00     0.039 A 
ATOM     17  C   UNL d   1       2.519  -5.299  -1.673  0.00  0.00     0.017 A 
ATOM     18  C   UNL d   1       3.541  -6.166  -1.270  0.00  0.00     0.001 A 
ATOM     19  C   UNL d   1       3.554  -6.678   0.026  0.00  0.00     0.000 A 
ATOM     20  C   UNL d   1       2.529  -6.356   0.913  0.00  0.00     0.001 A 
ATOM     21  C   UNL d   1       1.505  -5.492   0.516  0.00  0.00     0.017 A 
ENDBRANCH  14  16
ENDBRANCH  13  14
ENDBRANCH   2  13
BRANCH   1  22
ATOM     22  C   UNL d   1      -2.802  -2.488   0.058  0.00  0.00     0.085 C 
BRANCH  22  23
ATOM     23  C   UNL d   1      -3.298  -3.008   1.391  0.00  0.00    -0.054 A 
ATOM     24  C   UNL d   1      -4.268  -2.309   2.127  0.00  0.00     0.007 A 
ATOM     25  C   UNL d   1      -4.777  -2.837   3.317  0.00  0.00     0.001 A 
ATOM     26  C   UNL d   1      -4.321  -4.066   3.787  0.00  0.00     0.000 A 
ATOM     27  C   UNL d   1      -3.348  -4.763   3.074  0.00  0.00     0.001 A 
ATOM     28  C   UNL d   1      -2.837  -4.236   1.886  0.00  0.00     0.007 A 
ENDBRANCH  22  23
ENDBRANCH   1  22
TORSDOF 5
