REMARK  3 active torsions:
REMARK  status: ('A' for Active; 'I' for Inactive)
REMARK    1  A    between atoms: C_10  and  C_3 
REMARK    2  A    between atoms: O_11  and  C_4 
REMARK    3  A    between atoms: C_8  and  O_11 
ROOT
ATOM      1  N   UNL d   1       1.710   0.064  -0.113  0.00  0.00    -0.321 N 
ATOM      2  HN  UNL d   1       2.726   0.121  -0.185  1.00  0.00     0.169 HD
ATOM      3  C   UNL d   1       0.939   1.163  -0.165  0.00  0.00     0.134 A 
ATOM      4  C   UNL d   1       1.083  -1.111   0.037  0.00  0.00     0.151 A 
ATOM      5  N   UNL d   1      -0.413   1.131  -0.124  0.00  0.00    -0.344 N 
ATOM      6  HN  UNL d   1      -0.964   1.988  -0.166  1.00  0.00     0.167 HD
ATOM      7  C   UNL d   1      -0.283  -1.250   0.064  0.00  0.00     0.081 A 
ATOM      8  C   UNL d   1      -1.005  -0.079  -0.025  0.00  0.00     0.011 A 
ATOM      9  C   UNL d   1      -2.502  -0.090   0.032  0.00  0.00     0.068 C 
ENDROOT
BRANCH   4  10
ATOM     10  O   UNL d   1       1.838  -2.271   0.185  0.00  0.00    -0.294 OA
BRANCH  10  11
ATOM     11  C   UNL d   1       3.131  -2.136   0.642  0.00  0.00     0.081 A 
ATOM     12  C   UNL d   1       3.483  -1.292   1.702  0.00  0.00     0.061 A 
ATOM     13  C   UNL d   1       4.815  -1.199   2.100  0.00  0.00     0.038 A 
ATOM     14 CL   UNL d   1       5.252  -0.114   3.363  0.00  0.00    -0.084 Cl
ATOM     15  C   UNL d   1       5.793  -1.974   1.486  0.00  0.00     0.048 A 
ATOM     16  C   UNL d   1       5.427  -2.849   0.464  0.00  0.00     0.038 A 
ATOM     17  C   UNL d   1       4.101  -2.938   0.041  0.00  0.00     0.061 A 
ATOM     18 CL   UNL d   1       6.628  -3.833  -0.280  0.00  0.00    -0.084 Cl
ENDBRANCH  10  11
ENDBRANCH   4  10
BRANCH   3  19
ATOM     19  C   UNL d   1       1.620   2.483  -0.185  0.00  0.00     0.076 A 
ATOM     20  N   UNL d   1       2.983   2.480  -0.265  0.00  0.00    -0.363 N 
ATOM     21  C   UNL d   1       3.631   3.663  -0.248  0.00  0.00     0.088 A 
ATOM     22  HN  UNL d   1       3.500   1.603  -0.336  1.00  0.00     0.165 HD
ATOM     23  C   UNL d   1       2.992   4.885  -0.154  0.00  0.00     0.017 A 
ATOM     24  C   UNL d   1       1.606   4.893  -0.073  0.00  0.00     0.004 A 
ATOM     25  C   UNL d   1       0.912   3.684  -0.089  0.00  0.00     0.033 A 
ENDBRANCH   3  19
TORSDOF 3
