REMARK  5 active torsions:
REMARK  status: ('A' for Active; 'I' for Inactive)
REMARK    1  A    between atoms: C_8  and  N_1 
REMARK    2  A    between atoms: C_7  and  C_2 
REMARK    3  A    between atoms: O_13  and  C_7 
REMARK    4  A    between atoms: C_19  and  O_13 
REMARK    5  A    between atoms: N_16  and  C_14 
ROOT
ATOM      1  N   UNL d   1      -0.319  -1.105   0.151  0.00  0.00    -0.260 N 
ATOM      2  C   UNL d   1      -0.339   1.116  -0.061  0.00  0.00     0.087 C 
ATOM      3  N   UNL d   1       0.957  -0.708   0.374  0.00  0.00    -0.297 N 
ATOM      4  HN  UNL d   1       1.744  -1.292   0.657  1.00  0.00     0.187 HD
ATOM      5  C   UNL d   1      -1.162  -0.007   0.003  0.00  0.00     0.049 C 
ATOM      6  C   UNL d   1       0.968   0.605   0.146  0.00  0.00     0.041 C 
ATOM      7  C   UNL d   1      -2.650  -0.087  -0.009  0.00  0.00     0.071 C 
ATOM      8  C   UNL d   1       2.267   1.329   0.147  0.00  0.00     0.071 C 
ENDROOT
BRANCH   1   9
ATOM      9  C   UNL d   1      -0.609  -2.498   0.096  0.00  0.00     0.056 A 
ATOM     10  C   UNL d   1       0.255  -3.398   0.737  0.00  0.00     0.033 A 
ATOM     11  C   UNL d   1      -0.012  -4.771   0.713  0.00  0.00     0.025 A 
ATOM     12  C   UNL d   1      -1.143  -5.268   0.068  0.00  0.00     0.005 A 
ATOM     13  C   UNL d   1      -1.940  -4.379  -0.658  0.00  0.00     0.025 A 
ATOM     14  C   UNL d   1      -1.694  -3.001  -0.627  0.00  0.00     0.033 A 
BRANCH  12  15
ATOM     15  N   UNL d   1      -1.337  -6.649  -0.057  0.00  0.00    -0.303 NA
ATOM     16  H   UNL d   1      -2.297  -6.911  -0.258  0.00  0.00     0.124 HD
ATOM     17  H   UNL d   1      -0.948  -7.183   0.713  0.00  0.00     0.124 HD
ENDBRANCH  12  15
ENDBRANCH   1   9
BRANCH   2  18
ATOM     18  C   UNL d   1      -0.760   2.490  -0.297  0.00  0.00     0.297 C 
ATOM     19  O   UNL d   1      -1.907   2.810  -0.588  0.00  0.00    -0.259 OA
BRANCH  18  20
ATOM     20  O   UNL d   1       0.277   3.372  -0.211  0.00  0.00    -0.318 OA
BRANCH  20  21
ATOM     21  C   UNL d   1       0.016   4.696  -0.694  0.00  0.00     0.174 C 
ATOM     22  C   UNL d   1       0.242   4.719  -2.195  0.00  0.00     0.034 C 
ENDBRANCH  20  21
ENDBRANCH  18  20
ENDBRANCH   2  18
TORSDOF 5
