REMARK  8 active torsions:
REMARK  status: ('A' for Active; 'I' for Inactive)
REMARK    1  A    between atoms: C_6  and  C_1 
REMARK    2  A    between atoms: C_7  and  C_2 
REMARK    3  A    between atoms: C_3  and  S_5 
REMARK    4  A    between atoms: S_5  and  C_4 
REMARK    5  A    between atoms: O_17  and  C_6 
REMARK    6  A    between atoms: O_16  and  C_7 
REMARK    7  A    between atoms: N_19  and  C_14 
REMARK    8  A    between atoms: N_18  and  C_15 
ROOT
ATOM      1  S   UNL d   1      -3.586  -0.035  -0.115  0.00  0.00    -0.088 SA
ENDROOT
BRANCH   1   2
ATOM      2  C   UNL d   1      -4.317   1.599  -0.112  0.00  0.00     0.022 A 
ATOM      3  C   UNL d   1      -4.030   2.676  -0.967  0.00  0.00     0.056 A 
ATOM      4  C   UNL d   1      -4.777   3.870  -0.861  0.00  0.00     0.042 A 
ATOM      5  C   UNL d   1      -5.787   4.022   0.091  0.00  0.00     0.006 A 
ATOM      6  C   UNL d   1      -6.102   2.934   0.897  0.00  0.00     0.024 A 
ATOM      7  C   UNL d   1      -5.370   1.748   0.810  0.00  0.00     0.021 A 
BRANCH   3   8
ATOM      8  C   UNL d   1      -2.996   2.682  -2.033  0.00  0.00     0.177 C 
ATOM      9  O   UNL d   1      -2.353   3.675  -2.330  0.00  0.00    -0.646 OA
BRANCH   8  10
ATOM     10  O   UNL d   1      -2.899   1.524  -2.722  0.00  0.00    -0.773 OA
ATOM     11  H   UNL d   1      -3.485   0.813  -2.402  0.00  0.00     0.167 HD
ENDBRANCH   8  10
ENDBRANCH   3   8
BRANCH   5  12
ATOM     12  N   UNL d   1      -6.628   5.139   0.063  0.00  0.00    -0.303 NA
ATOM     13  H   UNL d   1      -7.106   5.318   0.941  0.00  0.00     0.124 HD
ATOM     14  H   UNL d   1      -6.189   5.979  -0.304  0.00  0.00     0.124 HD
ENDBRANCH   5  12
ENDBRANCH   1   2
BRANCH   1  15
ATOM     15  C   UNL d   1      -1.814   0.173  -0.045  0.00  0.00     0.022 A 
ATOM     16  C   UNL d   1      -1.089   1.065   0.760  0.00  0.00     0.056 A 
ATOM     17  C   UNL d   1       0.312   1.140   0.641  0.00  0.00     0.042 A 
ATOM     18  C   UNL d   1       1.020   0.260  -0.178  0.00  0.00     0.006 A 
ATOM     19  C   UNL d   1       0.302  -0.644  -0.954  0.00  0.00     0.024 A 
ATOM     20  C   UNL d   1      -1.093  -0.697  -0.880  0.00  0.00     0.021 A 
BRANCH  16  21
ATOM     21  C   UNL d   1      -1.688   1.943   1.793  0.00  0.00     0.177 C 
ATOM     22  O   UNL d   1      -1.287   3.071   2.023  0.00  0.00    -0.646 OA
BRANCH  21  23
ATOM     23  O   UNL d   1      -2.627   1.333   2.548  0.00  0.00    -0.773 OA
ATOM     24  H   UNL d   1      -2.846   0.424   2.268  0.00  0.00     0.167 HD
ENDBRANCH  21  23
ENDBRANCH  16  21
BRANCH  18  25
ATOM     25  N   UNL d   1       2.389   0.425  -0.384  0.00  0.00    -0.303 NA
ATOM     26  H   UNL d   1       2.887   0.903   0.360  0.00  0.00     0.124 HD
ATOM     27  H   UNL d   1       2.880  -0.396  -0.724  0.00  0.00     0.124 HD
ENDBRANCH  18  25
ENDBRANCH   1  15
TORSDOF 8
