REMARK  5 active torsions:
REMARK  status: ('A' for Active; 'I' for Inactive)
REMARK    1  A    between atoms: C_9  and  N_1 
REMARK    2  A    between atoms: C_8  and  C_3 
REMARK    3  A    between atoms: O_11  and  C_8 
REMARK    4  A    between atoms: C_10  and  C_9 
REMARK    5  A    between atoms: C_13  and  O_11 
ROOT
ATOM      1  N   UNL d   1       0.337   0.069   0.999  0.00  0.00    -0.306 N 
ATOM      2  C   UNL d   1      -0.795  -0.539   0.513  0.00  0.00     0.194 A 
ATOM      3  C   UNL d   1       0.901   0.671  -0.075  0.00  0.00     0.125 A 
ATOM      4  N   UNL d   1       0.250   0.501  -1.194  0.00  0.00    -0.285 N 
ATOM      5  HN  UNL d   1       0.491   0.858  -2.119  1.00  0.00     0.188 HD
ATOM      6  N   UNL d   1      -0.824  -0.261  -0.846  0.00  0.00    -0.275 N 
ATOM      7  S   UNL d   1      -1.953  -1.434   1.289  0.00  0.00    -0.039 SA
ATOM      8  H   UNL d   1      -1.519  -0.564  -1.517  0.00  0.00     0.189 HD
ENDROOT
BRANCH   3   9
ATOM      9  C   UNL d   1       2.161   1.508   0.007  0.00  0.00     0.253 C 
BRANCH   9  10
ATOM     10  O   UNL d   1       3.312   0.691  -0.163  0.00  0.00    -0.344 OA
BRANCH  10  11
ATOM     11  C   UNL d   1       4.522   1.340  -0.150  0.00  0.00     0.069 A 
ATOM     12  C   UNL d   1       4.712   2.714   0.020  0.00  0.00     0.037 A 
ATOM     13  C   UNL d   1       6.003   3.252   0.047  0.00  0.00     0.003 A 
ATOM     14  C   UNL d   1       7.112   2.422  -0.100  0.00  0.00     0.000 A 
ATOM     15  C   UNL d   1       6.931   1.054  -0.285  0.00  0.00     0.003 A 
ATOM     16  C   UNL d   1       5.640   0.518  -0.312  0.00  0.00     0.037 A 
ENDBRANCH  10  11
ENDBRANCH   9  10
ENDBRANCH   3   9
BRANCH   1  17
ATOM     17  C   UNL d   1       0.863  -0.002   2.354  0.00  0.00     0.159 C 
BRANCH  17  18
ATOM     18  C   UNL d   1       0.440   1.159   3.216  0.00  0.00    -0.017 C 
ATOM     19  C   UNL d   1      -0.393   2.167   2.922  0.00  0.00     0.008 C 
ENDBRANCH  17  18
ENDBRANCH   1  17
TORSDOF 5
