REMARK  6 active torsions:
REMARK  status: ('A' for Active; 'I' for Inactive)
REMARK    1  A    between atoms: C_11  and  N_1 
REMARK    2  A    between atoms: C_2  and  N_7 
REMARK    3  A    between atoms: C_3  and  C_4 
REMARK       I    between atoms: N_8  and  C_10 
REMARK    4  A    between atoms: C_10  and  C_21 
REMARK    5  A    between atoms: C_21  and  O_26 
REMARK    6  A    between atoms: O_26  and  C_27 
ROOT
ATOM      1  N   UNL d   1      -1.813  -2.161   8.261  0.00  0.00    -0.363 N 
ATOM      2  N   UNL d   1       0.686  -1.287   7.265  0.00  0.00    -0.347 N 
ATOM      3  C   UNL d   1       1.642  -0.674   6.470  0.00  0.00     0.244 C 
ATOM      4  C   UNL d   1      -1.369  -0.805   8.610  0.00  0.00     0.144 C 
ATOM      5  C   UNL d   1      -1.404  -2.587   6.918  0.00  0.00     0.144 C 
ATOM      6  C   UNL d   1       0.174  -0.770   8.549  0.00  0.00     0.145 C 
ATOM      7  C   UNL d   1       0.135  -2.594   6.859  0.00  0.00     0.145 C 
ATOM      8  O   UNL d   1       2.008  -1.162   5.398  0.00  0.00    -0.271 OA
ENDROOT
BRANCH   3   9
ATOM      9  C   UNL d   1       2.257   0.633   6.963  0.00  0.00     0.278 C 
BRANCH   9  10
ATOM     10  O   UNL d   1       1.352   1.707   6.730  0.00  0.00    -0.342 OA
BRANCH  10  11
ATOM     11  C   UNL d   1       1.744   2.953   7.136  0.00  0.00     0.071 A 
ATOM     12  C   UNL d   1       2.882   3.245   7.886  0.00  0.00     0.072 A 
ATOM     13  C   UNL d   1       3.130   4.570   8.280  0.00  0.00     0.105 A 
ATOM     14  C   UNL d   1       2.259   5.606   7.916  0.00  0.00     0.036 A 
ATOM     15  C   UNL d   1       1.133   5.309   7.150  0.00  0.00     0.005 A 
ATOM     16  C   UNL d   1       0.879   3.990   6.766  0.00  0.00     0.037 A 
BRANCH  13  17
ATOM     17  N   UNL d   1       4.309   4.870   9.103  0.00  0.00    -0.116 N 
ATOM     18  O   UNL d   1       5.037   3.920   9.429  0.00  0.00    -0.532 OA
ATOM     19  O   UNL d   1       4.502   6.047   9.429  0.00  0.00    -0.532 OA
ENDBRANCH  13  17
ENDBRANCH  10  11
ENDBRANCH   9  10
ENDBRANCH   3   9
BRANCH   1  20
ATOM     20  C   UNL d   1      -2.719  -2.811   9.062  0.00  0.00     0.125 A 
ATOM     21  N   UNL d   1      -3.539  -2.011   9.797  0.00  0.00    -0.350 N 
ATOM     22  C   UNL d   1      -4.439  -2.565  10.644  0.00  0.00     0.106 A 
ATOM     23  HN  UNL d   1      -3.477  -0.996   9.710  1.00  0.00     0.166 HD
ATOM     24  C   UNL d   1      -4.591  -3.925  10.824  0.00  0.00     0.065 A 
ATOM     25  C   UNL d   1      -3.747  -4.756  10.089  0.00  0.00     0.045 A 
ATOM     26  C   UNL d   1      -2.802  -4.205   9.215  0.00  0.00     0.078 A 
ATOM     27 CL   UNL d   1      -1.696  -5.337   8.508  0.00  0.00    -0.080 Cl
BRANCH  24  28
ATOM     28  C   UNL d   1      -5.600  -4.449  11.794  0.00  0.00     0.418 C 
ATOM     29  F   UNL d   1      -5.638  -5.809  11.852  0.00  0.00    -0.166 F 
ATOM     30  F   UNL d   1      -5.367  -4.027  13.066  0.00  0.00    -0.166 F 
ATOM     31  F   UNL d   1      -6.866  -4.053  11.493  0.00  0.00    -0.166 F 
ENDBRANCH  24  28
ENDBRANCH   1  20
TORSDOF 6
