REMARK  4 active torsions:
REMARK  status: ('A' for Active; 'I' for Inactive)
REMARK    1  A    between atoms: N_2  and  C_1 
REMARK    2  A    between atoms: N_4  and  C_1 
REMARK    3  A    between atoms: C_5  and  N_2 
REMARK    4  A    between atoms: N_7  and  N_4 
ROOT
ATOM      1  N   UNL d   1       0.468   0.497  -1.027  0.00  0.00    -0.332 N 
ATOM      2  H   UNL d   1      -0.060   1.159  -0.476  0.00  0.00     0.168 HD
ENDROOT
BRANCH   1   3
ATOM      3  C   UNL d   1       0.288  -0.804  -0.604  0.00  0.00     0.186 C 
ATOM      4  S   UNL d   1       0.395  -2.219  -1.485  0.00  0.00    -0.040 SA
BRANCH   3   5
ATOM      5  N   UNL d   1      -0.089  -0.917   0.726  0.00  0.00    -0.300 N 
ATOM      6  H   UNL d   1      -0.200  -1.872   1.073  0.00  0.00     0.183 HD
BRANCH   5   7
ATOM      7  N   UNL d   1       0.001   0.125   1.661  0.00  0.00    -0.248 NA
ATOM      8  H   UNL d   1      -0.690   0.846   1.459  0.00  0.00     0.143 HD
ATOM      9  H   UNL d   1       0.934   0.542   1.614  0.00  0.00     0.143 HD
ENDBRANCH   5   7
ENDBRANCH   3   5
ENDBRANCH   1   3
BRANCH   1  10
ATOM     10  C   UNL d   1       1.023   1.001  -2.221  0.00  0.00     0.034 A 
ATOM     11  C   UNL d   1       0.605   2.272  -2.645  0.00  0.00     0.031 A 
ATOM     12  C   UNL d   1       1.119   2.841  -3.816  0.00  0.00     0.026 A 
ATOM     13  C   UNL d   1       2.076   2.151  -4.554  0.00  0.00     0.034 A 
ATOM     14  C   UNL d   1       2.528   0.907  -4.128  0.00  0.00     0.026 A 
ATOM     15 CL   UNL d   1       2.719   2.850  -5.990  0.00  0.00    -0.084 Cl
ATOM     16  C   UNL d   1       2.004   0.337  -2.961  0.00  0.00     0.031 A 
ENDBRANCH   1  10
TORSDOF 4
