REMARK  5 active torsions:
REMARK  status: ('A' for Active; 'I' for Inactive)
REMARK    1  A    between atoms: N_5  and  C_1 
REMARK    2  A    between atoms: N_14  and  C_1 
REMARK    3  A    between atoms: C_4  and  C_11 
REMARK    4  A    between atoms: C_9  and  N_5 
REMARK    5  A    between atoms: N_7  and  N_14 
ROOT
ATOM      1  N   UNL d   1       2.588  -0.012  -0.019  0.00  0.00    -0.276 N 
ATOM      2  H   UNL d   1       3.023  -0.891   0.243  0.00  0.00     0.189 HD
ENDROOT
BRANCH   1   3
ATOM      3  N   UNL d   1       3.324   1.142   0.055  0.00  0.00    -0.307 N 
ATOM      4  C   UNL d   1       4.600   0.997   0.188  0.00  0.00     0.138 C 
ATOM      5  HN  UNL d   1       2.888   2.063   0.007  1.00  0.00     0.186 HD
BRANCH   4   6
ATOM      6  C   UNL d   1       5.438   2.183   0.215  0.00  0.00     0.066 A 
ATOM      7  N   UNL d   1       6.776   2.079   0.297  0.00  0.00    -0.300 N 
ATOM      8  N   UNL d   1       7.208   3.350   0.247  0.00  0.00    -0.311 N 
ATOM      9  HN  UNL d   1       7.335   1.230   0.379  1.00  0.00     0.187 HD
ATOM     10  C   UNL d   1       6.204   4.267   0.155  0.00  0.00     0.109 A 
ATOM     11  H   UNL d   1       8.209   3.519   0.273  0.00  0.00     0.186 HD
ATOM     12  C   UNL d   1       5.037   3.543   0.140  0.00  0.00     0.051 A 
ENDBRANCH   4   6
ENDBRANCH   1   3
BRANCH   1  13
ATOM     13  C   UNL d   1       1.221   0.012  -0.077  0.00  0.00     0.191 C 
ATOM     14  S   UNL d   1       0.358  -1.330   0.423  0.00  0.00    -0.039 SA
BRANCH  13  15
ATOM     15  N   UNL d   1       0.561   1.153  -0.421  0.00  0.00    -0.330 N 
ATOM     16  H   UNL d   1      -0.365   1.248  -0.025  0.00  0.00     0.168 HD
BRANCH  15  17
ATOM     17  C   UNL d   1       0.981   2.166  -1.312  0.00  0.00     0.073 A 
ATOM     18  C   UNL d   1       1.841   1.932  -2.394  0.00  0.00     0.143 A 
ATOM     19  F   UNL d   1       2.241   0.689  -2.707  0.00  0.00    -0.204 F 
ATOM     20  C   UNL d   1       2.249   2.974  -3.224  0.00  0.00     0.044 A 
ATOM     21  C   UNL d   1       1.791   4.269  -2.986  0.00  0.00     0.003 A 
ATOM     22  C   UNL d   1       0.899   4.506  -1.940  0.00  0.00     0.002 A 
ATOM     23  C   UNL d   1       0.476   3.455  -1.119  0.00  0.00     0.033 A 
ENDBRANCH  15  17
ENDBRANCH  13  15
ENDBRANCH   1  13
TORSDOF 5
