REMARK  5 active torsions:
REMARK  status: ('A' for Active; 'I' for Inactive)
REMARK    1  A    between atoms: S_9  and  C_1 
REMARK    2  A    between atoms: C_12  and  N_2 
REMARK    3  A    between atoms: C_11  and  C_5 
REMARK       I    between atoms: N_7  and  C_10 
REMARK       I    between atoms: C_8  and  N_7 
REMARK       I    between atoms: N_15  and  C_8 
REMARK    4  A    between atoms: C_16  and  S_9 
REMARK    5  A    between atoms: C_10  and  C_16 
ROOT
ATOM      1  C   UNL d   1       0.702  -0.704  -0.348  0.00  0.00     0.152 A 
ATOM      2  N   UNL d   1      -0.571  -1.158  -0.027  0.00  0.00    -0.301 N 
ATOM      3  N   UNL d   1       0.787   0.606  -0.352  0.00  0.00    -0.335 N 
ATOM      4  HN  UNL d   1       1.619   1.169  -0.531  1.00  0.00     0.168 HD
ATOM      5  C   UNL d   1      -0.468   1.058  -0.069  0.00  0.00     0.060 A 
ATOM      6  C   UNL d   1      -1.330  -0.002   0.084  0.00  0.00     0.130 A 
ENDROOT
BRANCH   1   7
ATOM      7  S   UNL d   1       2.049  -1.652  -0.896  0.00  0.00    -0.084 SA
BRANCH   7   8
ATOM      8  C   UNL d   1       2.409  -0.814  -2.464  0.00  0.00     0.185 C 
BRANCH   8   9
ATOM      9  C   UNL d   1       3.180   0.499  -2.393  0.00  0.00     0.235 C 
ATOM     10  N   UNL d   1       3.344   1.092  -1.159  0.00  0.00    -0.279 N 
ATOM     11  C   UNL d   1       3.836   2.337  -0.862  0.00  0.00     0.322 C 
ATOM     12  H   UNL d   1       2.795   0.717  -0.393  0.00  0.00     0.173 HD
ATOM     13  O   UNL d   1       3.740   2.790   0.277  0.00  0.00    -0.247 OA
ATOM     14  N   UNL d   1       4.388   3.023  -1.903  0.00  0.00    -0.347 N 
ATOM     15  C   UNL d   1       4.949   4.340  -1.777  0.00  0.00     0.151 C 
ATOM     16  H   UNL d   1       4.438   2.540  -2.796  0.00  0.00     0.163 HD
ATOM     17  O   UNL d   1       3.646   0.981  -3.431  0.00  0.00    -0.272 OA
ENDBRANCH   8   9
ENDBRANCH   7   8
ENDBRANCH   1   7
BRANCH   2  18
ATOM     18  C   UNL d   1      -1.081  -2.473   0.190  0.00  0.00     0.041 A 
ATOM     19  C   UNL d   1      -0.253  -3.522   0.603  0.00  0.00     0.030 A 
ATOM     20  C   UNL d   1      -0.796  -4.779   0.891  0.00  0.00     0.002 A 
ATOM     21  C   UNL d   1      -2.166  -5.000   0.769  0.00  0.00     0.000 A 
ATOM     22  C   UNL d   1      -2.998  -3.969   0.348  0.00  0.00     0.002 A 
ATOM     23  C   UNL d   1      -2.461  -2.712   0.059  0.00  0.00     0.030 A 
ENDBRANCH   2  18
BRANCH   5  24
ATOM     24  C   UNL d   1      -0.820   2.464  -0.010  0.00  0.00    -0.008 A 
ATOM     25  C   UNL d   1      -0.068   3.396  -0.740  0.00  0.00     0.015 A 
ATOM     26  C   UNL d   1      -0.419   4.748  -0.740  0.00  0.00     0.024 A 
ATOM     27  C   UNL d   1      -1.517   5.177  -0.000  0.00  0.00     0.034 A 
ATOM     28  C   UNL d   1      -2.258   4.268   0.753  0.00  0.00     0.024 A 
ATOM     29 CL   UNL d   1      -1.969   6.836  -0.020  0.00  0.00    -0.084 Cl
ATOM     30  C   UNL d   1      -1.909   2.914   0.750  0.00  0.00     0.015 A 
ENDBRANCH   5  24
TORSDOF 5
