REMARK  5 active torsions:
REMARK  status: ('A' for Active; 'I' for Inactive)
REMARK    1  A    between atoms: C_14  and  C_2 
REMARK    2  A    between atoms: C_10  and  C_11 
REMARK    3  A    between atoms: C_20  and  C_13 
REMARK    4  A    between atoms: C_17  and  C_21 
REMARK    5  A    between atoms: C_18  and  C_22 
ROOT
ATOM      1  N   UNL d   1       4.658   0.253  -0.994  0.00  0.00    -0.318 N 
ATOM      2  HN  UNL d   1       4.471  -0.238  -1.868  1.00  0.00     0.169 HD
ATOM      3  C   UNL d   1       3.798   0.656  -0.075  0.00  0.00     0.189 A 
ATOM      4  C   UNL d   1       5.876   0.664  -0.478  0.00  0.00     0.138 A 
ATOM      5  N   UNL d   1       5.782   1.268   0.713  0.00  0.00    -0.242 N 
ATOM      6  HN  UNL d   1       6.536   1.639   1.291  1.00  0.00     0.196 HD
ATOM      7  O   UNL d   1       4.425   1.271   0.978  0.00  0.00    -0.217 OA
ENDROOT
BRANCH   3   8
ATOM      8  C   UNL d   1       2.368   0.497  -0.129  0.00  0.00     0.061 A 
ATOM      9  C   UNL d   1       1.586  -0.245  -1.024  0.00  0.00     0.040 A 
ATOM     10  C   UNL d   1       0.240  -0.120  -0.662  0.00  0.00     0.034 A 
ATOM     11  C   UNL d   1      -0.995  -0.606  -1.101  0.00  0.00     0.145 A 
ATOM     12  C   UNL d   1       0.016   0.664   0.395  0.00  0.00     0.104 A 
ATOM     13  N   UNL d   1      -1.974  -0.095  -0.300  0.00  0.00    -0.293 N 
ATOM     14  N   UNL d   1      -1.315   0.682   0.607  0.00  0.00    -0.288 N 
ATOM     15  HN  UNL d   1      -2.979  -0.258  -0.365  1.00  0.00     0.187 HD
ATOM     16  C   UNL d   1      -2.056   1.384   1.624  0.00  0.00     0.178 C 
ATOM     17  S   UNL d   1       1.379   1.317   1.069  0.00  0.00    -0.066 SA
BRANCH  11  18
ATOM     18  C   UNL d   1      -1.301  -1.539  -2.233  0.00  0.00     0.434 C 
ATOM     19  F   UNL d   1      -0.181  -1.938  -2.896  0.00  0.00    -0.165 F 
ATOM     20  F   UNL d   1      -1.918  -2.678  -1.812  0.00  0.00    -0.165 F 
ATOM     21  F   UNL d   1      -2.115  -0.974  -3.166  0.00  0.00    -0.165 F 
ENDBRANCH  11  18
ENDBRANCH   3   8
BRANCH   4  22
ATOM     22  C   UNL d   1       7.151   0.507  -1.179  0.00  0.00     0.011 A 
ATOM     23  C   UNL d   1       7.206  -0.043  -2.466  0.00  0.00     0.031 A 
ATOM     24  C   UNL d   1       8.424  -0.128  -3.168  0.00  0.00     0.049 A 
ATOM     25  C   UNL d   1       9.602   0.333  -2.555  0.00  0.00     0.032 A 
ATOM     26  C   UNL d   1       9.576   0.881  -1.266  0.00  0.00     0.049 A 
ATOM     27  C   UNL d   1       8.348   0.953  -0.587  0.00  0.00     0.031 A 
BRANCH  24  28
ATOM     28  C   UNL d   1       8.448  -0.683  -4.574  0.00  0.00     0.417 C 
ATOM     29  F   UNL d   1       9.679  -0.630  -5.154  0.00  0.00    -0.166 F 
ATOM     30  F   UNL d   1       8.064  -1.986  -4.626  0.00  0.00    -0.166 F 
ATOM     31  F   UNL d   1       7.613  -0.007  -5.410  0.00  0.00    -0.166 F 
ENDBRANCH  24  28
BRANCH  26  32
ATOM     32  C   UNL d   1      10.831   1.416  -0.613  0.00  0.00     0.417 C 
ATOM     33  F   UNL d   1      11.928   1.353  -1.418  0.00  0.00    -0.166 F 
ATOM     34  F   UNL d   1      10.709   2.723  -0.252  0.00  0.00    -0.166 F 
ATOM     35  F   UNL d   1      11.159   0.740   0.521  0.00  0.00    -0.166 F 
ENDBRANCH  26  32
ENDBRANCH   4  22
TORSDOF 5
