REMARK  7 active torsions:
REMARK  status: ('A' for Active; 'I' for Inactive)
REMARK    1  A    between atoms: C_4  and  C_1 
REMARK    2  A    between atoms: O_9  and  C_2 
REMARK    3  A    between atoms: C_11  and  C_4 
REMARK    4  A    between atoms: C_15  and  C_4 
REMARK    5  A    between atoms: N_5  and  C_10 
REMARK    6  A    between atoms: C_13  and  O_9 
REMARK    7  A    between atoms: C_22  and  C_15 
ROOT
ATOM      1  C   UNL d   1      -1.894  -1.335   0.046  0.00  0.00     0.061 A 
ATOM      2  C   UNL d   1      -0.931  -1.383  -0.903  0.00  0.00     0.105 A 
ATOM      3  C   UNL d   1      -1.753  -0.384   1.181  0.00  0.00     0.298 A 
ATOM      4  O   UNL d   1      -0.626   0.421   1.221  0.00  0.00    -0.274 OA
ATOM      5  C   UNL d   1       0.240  -0.499  -0.855  0.00  0.00     0.033 A 
ATOM      6  C   UNL d   1       0.354   0.379   0.217  0.00  0.00     0.092 A 
ATOM      7  O   UNL d   1      -2.614  -0.287   2.050  0.00  0.00    -0.259 OA
ATOM      8  C   UNL d   1       1.259  -0.490  -1.815  0.00  0.00     0.017 A 
ATOM      9  C   UNL d   1       1.431   1.256   0.355  0.00  0.00     0.038 A 
ATOM     10  C   UNL d   1       2.352   0.381  -1.691  0.00  0.00     0.001 A 
ATOM     11  C   UNL d   1       2.436   1.255  -0.607  0.00  0.00     0.003 A 
ENDROOT
BRANCH   1  12
ATOM     12  C   UNL d   1      -3.160  -2.203   0.037  0.00  0.00     0.067 C 
BRANCH  12  13
ATOM     13  C   UNL d   1      -3.246  -3.178   1.242  0.00  0.00    -0.049 A 
ATOM     14  C   UNL d   1      -4.481  -3.605   1.768  0.00  0.00     0.010 A 
ATOM     15  C   UNL d   1      -4.557  -4.517   2.825  0.00  0.00     0.036 A 
ATOM     16  C   UNL d   1      -3.383  -5.029   3.380  0.00  0.00     0.102 A 
ATOM     17  C   UNL d   1      -2.141  -4.641   2.874  0.00  0.00     0.036 A 
ATOM     18  C   UNL d   1      -2.080  -3.734   1.808  0.00  0.00     0.010 A 
BRANCH  16  19
ATOM     19  N   UNL d   1      -3.466  -5.986   4.489  0.00  0.00    -0.116 N 
ATOM     20  O   UNL d   1      -2.402  -6.405   4.967  0.00  0.00    -0.532 OA
ATOM     21  O   UNL d   1      -4.592  -6.321   4.879  0.00  0.00    -0.532 OA
ENDBRANCH  16  19
ENDBRANCH  12  13
BRANCH  12  22
ATOM     22  C   UNL d   1      -4.450  -1.373  -0.173  0.00  0.00     0.092 C 
BRANCH  22  23
ATOM     23  C   UNL d   1      -4.552  -0.620  -1.484  0.00  0.00     0.124 C 
ATOM     24  O   UNL d   1      -3.664  -0.627  -2.333  0.00  0.00    -0.298 OA
ATOM     25  C   UNL d   1      -5.867   0.075  -1.743  0.00  0.00     0.091 C 
ENDBRANCH  22  23
ENDBRANCH  12  22
ENDBRANCH   1  12
BRANCH   2  26
ATOM     26  O   UNL d   1      -1.059  -2.163  -2.070  0.00  0.00    -0.277 OA
BRANCH  26  27
ATOM     27  C   UNL d   1      -0.879  -3.511  -1.902  0.00  0.00     0.260 C 
ATOM     28  O   UNL d   1      -0.358  -4.060  -0.941  0.00  0.00    -0.265 OA
ATOM     29  C   UNL d   1      -1.502  -4.239  -3.056  0.00  0.00     0.126 C 
ENDBRANCH  26  27
ENDBRANCH   2  26
TORSDOF 7
