REMARK  5 active torsions:
REMARK  status: ('A' for Active; 'I' for Inactive)
REMARK    1  A    between atoms: C_11  and  N_4 
REMARK    2  A    between atoms: O_13  and  C_6 
REMARK    3  A    between atoms: O_14  and  C_7 
REMARK    4  A    between atoms: C_10  and  C_17 
REMARK    5  A    between atoms: C_17  and  C_11 
ROOT
ATOM      1  C   UNL d   1       7.540   2.997   0.754  0.00  0.00     0.102 A 
ATOM      2  C   UNL d   1       7.045   4.306   0.637  0.00  0.00     0.101 A 
ATOM      3  C   UNL d   1       6.645   1.919   0.622  0.00  0.00     0.046 A 
ATOM      4  C   UNL d   1       5.679   4.511   0.428  0.00  0.00     0.040 A 
ATOM      5  C   UNL d   1       5.269   2.121   0.402  0.00  0.00    -0.054 A 
ATOM      6  C   UNL d   1       4.801   3.435   0.307  0.00  0.00     0.010 A 
ENDROOT
BRANCH   5   7
ATOM      7  C   UNL d   1       4.362   0.907   0.294  0.00  0.00     0.058 C 
BRANCH   7   8
ATOM      8  C   UNL d   1       2.879   1.221   0.064  0.00  0.00     0.126 C 
BRANCH   8   9
ATOM      9  N   UNL d   1       2.105  -0.019  -0.050  0.00  0.00    -0.371 N 
ATOM     10  C   UNL d   1       0.850   0.093  -0.297  0.00  0.00     0.136 C 
ATOM     11  N   UNL d   1       0.018  -0.978  -0.449  0.00  0.00    -0.370 N 
ATOM     12  S   UNL d   1      -0.066   1.594  -0.453  0.00  0.00    -0.093 SA
ATOM     13  C   UNL d   1      -1.398  -0.685  -0.371  0.00  0.00     0.132 C 
ATOM     14  H   UNL d   1       0.366  -1.845  -0.063  0.00  0.00     0.161 HD
ATOM     15  C   UNL d   1      -1.574   0.714  -0.953  0.00  0.00     0.102 C 
ATOM     16  HN  UNL d   1       2.545  -0.933   0.062  1.00  0.00     0.161 HD
ENDBRANCH   8   9
ENDBRANCH   7   8
ENDBRANCH   5   7
BRANCH   1  17
ATOM     17  O   UNL d   1       8.874   2.844   1.024  0.00  0.00    -0.353 OA
ATOM     18  C   UNL d   1       9.380   1.526   1.182  0.00  0.00     0.210 C 
ENDBRANCH   1  17
BRANCH   2  19
ATOM     19  O   UNL d   1       7.746   5.477   0.765  0.00  0.00    -0.353 OA
ATOM     20  C   UNL d   1       9.089   5.470   0.298  0.00  0.00     0.210 C 
ENDBRANCH   2  19
TORSDOF 5
