REMARK  2 active torsions:
REMARK  status: ('A' for Active; 'I' for Inactive)
REMARK    1  A    between atoms: C_3  and  C_1 
REMARK    2  A    between atoms: O_12  and  C_3 
ROOT
ATOM      1  C   UNL d   1       2.418  -0.734  -0.020  0.00  0.00     0.040 A 
ATOM      2  C   UNL d   1       1.282  -1.444   0.004  0.00  0.00     0.030 A 
ATOM      3  C   UNL d   1       0.018  -0.723   0.003  0.00  0.00    -0.000 A 
ATOM      4  O   UNL d   1       1.150   1.433   0.016  0.00  0.00    -0.346 OA
ATOM      5  C   UNL d   1       0.015   0.674   0.005  0.00  0.00     0.079 A 
ATOM      6  C   UNL d   1       2.419   0.761  -0.026  0.00  0.00     0.221 A 
ATOM      7  C   UNL d   1      -1.200  -1.415   0.002  0.00  0.00     0.038 A 
ATOM      8  C   UNL d   1      -1.192   1.377   0.004  0.00  0.00     0.039 A 
ATOM      9  C   UNL d   1      -2.402  -0.707   0.002  0.00  0.00     0.035 A 
ATOM     10  C   UNL d   1      -2.405   0.686   0.002  0.00  0.00     0.026 A 
ATOM     11 CL   UNL d   1      -3.896  -1.562   0.004  0.00  0.00    -0.084 Cl
ENDROOT
BRANCH   1  12
ATOM     12  C   UNL d   1       3.685  -1.505   0.006  0.00  0.00     0.174 C 
ATOM     13  O   UNL d   1       3.748  -2.670   0.362  0.00  0.00    -0.646 OA
BRANCH  12  14
ATOM     14  O   UNL d   1       4.779  -0.836  -0.403  0.00  0.00    -0.773 OA
ATOM     15  H   UNL d   1       4.684   0.077  -0.717  0.00  0.00     0.167 HD
ENDBRANCH  12  14
ENDBRANCH   1  12
TORSDOF 2
