REMARK  2 active torsions:
REMARK  status: ('A' for Active; 'I' for Inactive)
REMARK    1  A    between atoms: C_6  and  N_1 
REMARK    2  A    between atoms: C_10  and  C_6 
ROOT
ATOM      1  C   UNL d   1      -3.247   4.026  -1.176  0.00  0.00     0.056 A 
ATOM      2  C   UNL d   1      -3.800   4.446   0.038  0.00  0.00     0.055 A 
ATOM      3  C   UNL d   1      -2.057   3.288  -1.182  0.00  0.00     0.034 A 
ATOM      4  C   UNL d   1      -1.399   2.982   0.020  0.00  0.00    -0.038 A 
ATOM      5  C   UNL d   1      -3.175   4.103   1.240  0.00  0.00     0.026 A 
ATOM      6 CL   UNL d   1      -3.965   4.407  -2.701  0.00  0.00    -0.083 Cl
ATOM      7  C   UNL d   1      -1.985   3.370   1.232  0.00  0.00     0.010 A 
ATOM      8 CL   UNL d   1      -5.238   5.401   0.123  0.00  0.00    -0.083 Cl
ENDROOT
BRANCH   4   9
ATOM      9  C   UNL d   1      -0.061   2.281   0.004  0.00  0.00     0.174 C 
BRANCH   9  10
ATOM     10  N   UNL d   1      -0.172   0.843  -0.050  0.00  0.00    -0.277 N 
ATOM     11  C   UNL d   1      -0.134   0.117  -1.191  0.00  0.00     0.250 A 
ATOM     12  C   UNL d   1      -0.141  -1.297  -0.803  0.00  0.00     0.080 A 
ATOM     13  O   UNL d   1      -0.071   0.504  -2.344  0.00  0.00    -0.268 OA
ATOM     14  C   UNL d   1      -0.164  -1.352   0.529  0.00  0.00     0.080 A 
ATOM     15  C   UNL d   1      -0.178   0.028   1.033  0.00  0.00     0.250 A 
ATOM     16  O   UNL d   1      -0.162   0.321   2.213  0.00  0.00    -0.268 OA
ENDBRANCH   9  10
ENDBRANCH   4   9
TORSDOF 2
