REMARK  2 active torsions:
REMARK  status: ('A' for Active; 'I' for Inactive)
REMARK       I    between atoms: C_8  and  N_1 
REMARK    1  A    between atoms: C_10  and  C_6 
REMARK    2  A    between atoms: O_20  and  C_16 
ROOT
ATOM      1  N   UNL d   1      -2.991   1.094  -0.099  0.00  0.00    -0.251 N 
ATOM      2  N   UNL d   1      -1.683   1.509  -0.210  0.00  0.00    -0.298 N 
ATOM      3  HN  UNL d   1      -1.350   2.431  -0.491  1.00  0.00     0.187 HD
ATOM      4  C   UNL d   1      -0.961   0.482   0.116  0.00  0.00     0.043 C 
ATOM      5  C   UNL d   1      -1.715  -0.700   0.672  0.00  0.00     0.068 C 
ATOM      6  C   UNL d   1      -3.112  -0.358   0.137  0.00  0.00     0.154 C 
ATOM      7  C   UNL d   1       0.497   0.419   0.041  0.00  0.00    -0.005 A 
ATOM      8  C   UNL d   1      -4.067   1.944  -0.235  0.00  0.00     0.234 C 
ATOM      9  C   UNL d   1      -1.057  -2.056   0.421  0.00  0.00     0.018 C 
ATOM     10  C   UNL d   1       1.069  -0.838  -0.185  0.00  0.00    -0.046 A 
ATOM     11  O   UNL d   1      -5.232   1.573  -0.081  0.00  0.00    -0.272 OA
ATOM     12  C   UNL d   1       0.173  -2.013  -0.489  0.00  0.00     0.040 C 
ATOM     13  C   UNL d   1       1.277   1.564   0.192  0.00  0.00     0.014 A 
ATOM     14  C   UNL d   1      -3.764   3.384  -0.569  0.00  0.00     0.119 C 
ATOM     15  C   UNL d   1       2.462  -0.942  -0.228  0.00  0.00     0.008 A 
ATOM     16  C   UNL d   1       2.664   1.446   0.159  0.00  0.00     0.001 A 
ATOM     17  C   UNL d   1       3.255   0.195  -0.041  0.00  0.00     0.001 A 
ENDROOT
BRANCH   6  18
ATOM     18  C   UNL d   1      -3.522  -1.130  -1.107  0.00  0.00    -0.033 A 
ATOM     19  C   UNL d   1      -4.249  -2.325  -0.976  0.00  0.00     0.012 A 
ATOM     20  C   UNL d   1      -4.562  -3.097  -2.098  0.00  0.00     0.037 A 
ATOM     21  C   UNL d   1      -4.177  -2.682  -3.373  0.00  0.00     0.068 A 
ATOM     22  C   UNL d   1      -3.503  -1.474  -3.521  0.00  0.00     0.037 A 
ATOM     23  C   UNL d   1      -3.167  -0.711  -2.398  0.00  0.00     0.012 A 
BRANCH  21  24
ATOM     24  O   UNL d   1      -4.507  -3.543  -4.386  0.00  0.00    -0.356 OA
ATOM     25  C   UNL d   1      -4.023  -3.211  -5.682  0.00  0.00     0.210 C 
ENDBRANCH  21  24
ENDBRANCH   6  18
TORSDOF 2
