REMARK  4 active torsions:
REMARK  status: ('A' for Active; 'I' for Inactive)
REMARK    1  A    between atoms: C_9  and  N_1 
REMARK    2  A    between atoms: C_8  and  C_2 
REMARK    3  A    between atoms: S_13  and  C_5 
REMARK    4  A    between atoms: C_11  and  C_9 
ROOT
ATOM      1  N   UNL d   1      -0.135  -1.224  -0.027  0.00  0.00    -0.305 N 
ATOM      2  C   UNL d   1       1.081  -0.547  -0.070  0.00  0.00     0.135 A 
ATOM      3  N   UNL d   1       0.809   0.748  -0.047  0.00  0.00    -0.283 N 
ATOM      4  HN  UNL d   1       1.503   1.495  -0.048  1.00  0.00     0.188 HD
ATOM      5  C   UNL d   1      -1.104  -0.250  -0.009  0.00  0.00     0.160 A 
ATOM      6  N   UNL d   1      -0.545   0.932  -0.023  0.00  0.00    -0.278 N 
ATOM      7  HN  UNL d   1      -1.031   1.828  -0.018  1.00  0.00     0.189 HD
ENDROOT
BRANCH   2   8
ATOM      8  C   UNL d   1       2.459  -1.098  -0.102  0.00  0.00     0.021 A 
ATOM      9  C   UNL d   1       3.512  -0.446  -0.831  0.00  0.00    -0.012 A 
ATOM     10  C   UNL d   1       4.841  -0.942  -0.708  0.00  0.00    -0.025 A 
ATOM     11  C   UNL d   1       3.341   0.685  -1.672  0.00  0.00     0.013 A 
ATOM     12  C   UNL d   1       5.910  -0.297  -1.351  0.00  0.00     0.012 A 
ATOM     13  C   UNL d   1       5.103  -2.074   0.070  0.00  0.00     0.012 A 
ATOM     14  C   UNL d   1       5.703   0.830  -2.140  0.00  0.00     0.001 A 
ATOM     15  C   UNL d   1       4.415   1.315  -2.310  0.00  0.00     0.001 A 
ATOM     16  C   UNL d   1       4.081  -2.715   0.754  0.00  0.00     0.002 A 
ATOM     17  C   UNL d   1       2.784  -2.216   0.686  0.00  0.00     0.016 A 
ENDBRANCH   2   8
BRANCH   1  18
ATOM     18  C   UNL d   1      -0.349  -2.658  -0.070  0.00  0.00     0.198 C 
BRANCH  18  19
ATOM     19  C   UNL d   1      -0.439  -3.252   1.293  0.00  0.00     0.070 A 
ATOM     20  O   UNL d   1      -0.076  -4.569   1.379  0.00  0.00    -0.325 OA
ATOM     21  C   UNL d   1      -0.146  -4.921   2.686  0.00  0.00     0.142 A 
ATOM     22  C   UNL d   1      -0.561  -3.860   3.451  0.00  0.00     0.027 A 
ATOM     23  C   UNL d   1      -0.764  -2.782   2.552  0.00  0.00     0.036 A 
ENDBRANCH  18  19
ENDBRANCH   1  18
BRANCH   5  24
ATOM     24  S   UNL d   1      -2.817  -0.489   0.052  0.00  0.00    -0.105 SA
ATOM     25  H   UNL d   1      -2.909  -1.822   0.064  0.00  0.00     0.110 HD
ENDBRANCH   5  24
TORSDOF 4
