REMARK  6 active torsions:
REMARK  status: ('A' for Active; 'I' for Inactive)
REMARK    1  A    between atoms: C_2  and  C_1 
REMARK       I    between atoms: N_6  and  C_2 
REMARK    2  A    between atoms: O_16  and  C_3 
REMARK    3  A    between atoms: C_4  and  O_10 
REMARK    4  A    between atoms: C_11  and  N_6 
REMARK    5  A    between atoms: O_10  and  C_15 
REMARK    6  A    between atoms: C_21  and  O_16 
ROOT
ATOM      1  C   UNL d   1      -0.254   2.527  -0.559  0.00  0.00     0.265 C 
ATOM      2  N   UNL d   1      -1.565   2.784  -0.173  0.00  0.00    -0.322 N 
ATOM      3  O   UNL d   1       0.436   3.531  -0.785  0.00  0.00    -0.267 OA
ATOM      4  H   UNL d   1      -1.668   3.719   0.202  0.00  0.00     0.169 HD
ENDROOT
BRANCH   2   5
ATOM      5  C   UNL d   1      -2.712   1.981  -0.174  0.00  0.00     0.035 A 
ATOM      6  C   UNL d   1      -3.568   2.024   0.926  0.00  0.00     0.032 A 
ATOM      7  C   UNL d   1      -4.732   1.241   0.953  0.00  0.00     0.039 A 
ATOM      8  C   UNL d   1      -5.072   0.448  -0.143  0.00  0.00     0.078 A 
ATOM      9  C   UNL d   1      -4.250   0.469  -1.271  0.00  0.00     0.039 A 
ATOM     10  C   UNL d   1      -3.093   1.251  -1.297  0.00  0.00     0.032 A 
BRANCH   8  11
ATOM     11  O   UNL d   1      -6.156  -0.372  -0.258  0.00  0.00    -0.255 OA
BRANCH  11  12
ATOM     12  C   UNL d   1      -7.124  -0.340   0.774  0.00  0.00     0.530 C 
ATOM     13  F   UNL d   1      -7.611   0.908   0.949  0.00  0.00    -0.144 F 
ATOM     14  F   UNL d   1      -8.153  -1.146   0.428  0.00  0.00    -0.144 F 
ATOM     15  F   UNL d   1      -6.610  -0.790   1.938  0.00  0.00    -0.144 F 
ENDBRANCH  11  12
ENDBRANCH   8  11
ENDBRANCH   2   5
BRANCH   1  16
ATOM     16  C   UNL d   1       0.330   1.193  -0.432  0.00  0.00     0.106 A 
ATOM     17  C   UNL d   1       1.507   0.827   0.214  0.00  0.00     0.091 A 
ATOM     18  C   UNL d   1       1.783  -0.572   0.118  0.00  0.00     0.045 A 
ATOM     19  C   UNL d   1       0.841  -1.238  -0.622  0.00  0.00     0.053 A 
ATOM     20  S   UNL d   1      -0.317  -0.171  -1.252  0.00  0.00    -0.094 SA
BRANCH  17  21
ATOM     21  O   UNL d   1       2.408   1.640   0.823  0.00  0.00    -0.350 OA
BRANCH  21  22
ATOM     22  C   UNL d   1       1.878   2.557   1.775  0.00  0.00     0.171 C 
ATOM     23  C   UNL d   1       2.872   2.654   2.921  0.00  0.00     0.034 C 
ENDBRANCH  21  22
ENDBRANCH  17  21
ENDBRANCH   1  16
TORSDOF 6
