REMARK  7 active torsions:
REMARK  status: ('A' for Active; 'I' for Inactive)
REMARK    1  A    between atoms: O_13  and  C_2 
REMARK    2  A    between atoms: C_8  and  C_3 
REMARK    3  A    between atoms: C_9  and  C_6 
REMARK    4  A    between atoms: C_20  and  O_13 
REMARK    5  A    between atoms: C_14  and  C_20 
REMARK    6  A    between atoms: C_16  and  C_14 
REMARK    7  A    between atoms: O_27  and  C_26 
ROOT
ATOM      1  C   UNL d   1       0.602   0.153   0.122  0.00  0.00     0.108 A 
ATOM      2  C   UNL d   1      -0.141  -1.034   0.195  0.00  0.00     0.165 A 
ATOM      3  C   UNL d   1      -0.093   1.370  -0.033  0.00  0.00     0.025 A 
ATOM      4  N   UNL d   1      -1.499  -1.036   0.123  0.00  0.00    -0.335 N 
ATOM      5  HN  UNL d   1      -2.018  -1.912   0.184  1.00  0.00     0.168 HD
ATOM      6  C   UNL d   1      -2.155   0.139  -0.030  0.00  0.00     0.052 A 
ATOM      7  C   UNL d   1      -1.486   1.351  -0.069  0.00  0.00     0.046 A 
ATOM      8  C   UNL d   1       2.030   0.179   0.239  0.00  0.00     0.105 C 
ATOM      9  N   UNL d   1       3.188   0.163   0.292  0.00  0.00    -0.191 NA
ENDROOT
BRANCH   2  10
ATOM     10  O   UNL d   1       0.343  -2.303   0.402  0.00  0.00    -0.327 OA
BRANCH  10  11
ATOM     11  C   UNL d   1       1.569  -2.652  -0.220  0.00  0.00     0.261 C 
BRANCH  11  12
ATOM     12  C   UNL d   1       1.975  -4.127  -0.168  0.00  0.00     0.183 C 
ATOM     13  O   UNL d   1       1.268  -5.001   0.326  0.00  0.00    -0.290 OA
BRANCH  12  14
ATOM     14  C   UNL d   1       3.333  -4.482  -0.712  0.00  0.00     0.015 A 
ATOM     15  C   UNL d   1       4.147  -3.536  -1.360  0.00  0.00     0.052 A 
ATOM     16  C   UNL d   1       5.400  -3.899  -1.860  0.00  0.00     0.069 A 
ATOM     17  C   UNL d   1       5.846  -5.212  -1.703  0.00  0.00     0.037 A 
ATOM     18  C   UNL d   1       5.054  -6.157  -1.048  0.00  0.00     0.004 A 
ATOM     19  C   UNL d   1       3.800  -5.793  -0.554  0.00  0.00     0.015 A 
BRANCH  16  20
ATOM     20  O   UNL d   1       6.271  -3.072  -2.515  0.00  0.00    -0.356 OA
ATOM     21  C   UNL d   1       5.874  -1.715  -2.689  0.00  0.00     0.210 C 
ENDBRANCH  16  20
ENDBRANCH  12  14
ENDBRANCH  11  12
ENDBRANCH  10  11
ENDBRANCH   2  10
BRANCH   3  22
ATOM     22  C   UNL d   1       0.572   2.662  -0.207  0.00  0.00     0.086 A 
ATOM     23  O   UNL d   1       1.734   2.644  -0.921  0.00  0.00    -0.322 OA
ATOM     24  C   UNL d   1       2.179   3.920  -1.015  0.00  0.00     0.142 A 
ATOM     25  C   UNL d   1       1.297   4.778  -0.404  0.00  0.00     0.027 A 
ATOM     26  C   UNL d   1       0.256   3.968   0.117  0.00  0.00     0.040 A 
ENDBRANCH   3  22
BRANCH   6  27
ATOM     27  C   UNL d   1      -3.611   0.037  -0.211  0.00  0.00     0.031 A 
ATOM     28  S   UNL d   1      -4.456   1.202  -1.164  0.00  0.00    -0.100 SA
ATOM     29  C   UNL d   1      -5.955   0.419  -0.945  0.00  0.00     0.050 A 
ATOM     30  C   UNL d   1      -5.834  -0.707  -0.165  0.00  0.00     0.008 A 
ATOM     31  C   UNL d   1      -4.487  -0.930   0.252  0.00  0.00     0.021 A 
ENDBRANCH   6  27
TORSDOF 7
