REMARK  5 active torsions:
REMARK  status: ('A' for Active; 'I' for Inactive)
REMARK    1  A    between atoms: N_11  and  C_1 
REMARK    2  A    between atoms: N_10  and  C_2 
REMARK    3  A    between atoms: O_12  and  C_9 
REMARK    4  A    between atoms: C_14  and  N_10 
REMARK    5  A    between atoms: C_13  and  N_11 
ROOT
ATOM      1  C   UNL d   1      -0.696   1.116   0.089  0.00  0.00     0.700 A 
ATOM      2  C   UNL d   1      -0.566  -1.144  -0.003  0.00  0.00     0.700 A 
ATOM      3  N   UNL d   1      -1.326  -0.061   0.053  0.00  0.00    -0.022 N 
ATOM      4  HN  UNL d   1      -2.344  -0.123   0.067  1.00  0.00     0.203 HD
ATOM      5  N   UNL d   1       0.620   1.249   0.132  0.00  0.00    -0.154 N 
ATOM      6  HN  UNL d   1       1.088   2.153   0.198  1.00  0.00     0.188 HD
ATOM      7  N   UNL d   1       0.760  -1.112   0.001  0.00  0.00    -0.154 N 
ATOM      8  HN  UNL d   1       1.336  -1.952  -0.054  1.00  0.00     0.188 HD
ATOM      9  C   UNL d   1       1.267   0.101   0.082  0.00  0.00     0.250 A 
ENDROOT
BRANCH   1  10
ATOM     10  N   UNL d   1      -1.446   2.292   0.107  0.00  0.00    -0.191 N 
ATOM     11  H   UNL d   1      -0.833   3.095   0.147  0.00  0.00     0.184 HD
BRANCH  10  12
ATOM     12  C   UNL d   1      -2.701   2.531  -0.474  0.00  0.00     0.049 A 
ATOM     13  C   UNL d   1      -3.504   3.556   0.040  0.00  0.00     0.030 A 
ATOM     14  C   UNL d   1      -4.785   3.784  -0.469  0.00  0.00     0.002 A 
ATOM     15  C   UNL d   1      -5.272   3.003  -1.514  0.00  0.00     0.000 A 
ATOM     16  C   UNL d   1      -4.477   1.996  -2.054  0.00  0.00     0.002 A 
ATOM     17  C   UNL d   1      -3.204   1.761  -1.532  0.00  0.00     0.030 A 
ENDBRANCH  10  12
ENDBRANCH   1  10
BRANCH   2  18
ATOM     18  N   UNL d   1      -1.230  -2.369  -0.039  0.00  0.00    -0.191 N 
ATOM     19  H   UNL d   1      -2.230  -2.237   0.034  0.00  0.00     0.184 HD
BRANCH  18  20
ATOM     20  C   UNL d   1      -0.819  -3.565  -0.642  0.00  0.00     0.049 A 
ATOM     21  C   UNL d   1      -1.320  -4.782  -0.166  0.00  0.00     0.030 A 
ATOM     22  C   UNL d   1      -0.868  -5.995  -0.693  0.00  0.00     0.002 A 
ATOM     23  C   UNL d   1       0.076  -6.004  -1.718  0.00  0.00     0.000 A 
ATOM     24  C   UNL d   1       0.564  -4.802  -2.220  0.00  0.00     0.002 A 
ATOM     25  C   UNL d   1       0.123  -3.594  -1.680  0.00  0.00     0.030 A 
ENDBRANCH  18  20
ENDBRANCH   2  18
BRANCH   9  26
ATOM     26  O   UNL d   1       2.624   0.140   0.095  0.00  0.00    -0.332 OA
ATOM     27  H   UNL d   1       2.806  -0.815   0.057  0.00  0.00     0.221 HD
ENDBRANCH   9  26
TORSDOF 5
