REMARK  3 active torsions:
REMARK  status: ('A' for Active; 'I' for Inactive)
REMARK    1  A    between atoms: N_10  and  C_3 
REMARK    2  A    between atoms: N_12  and  C_4 
REMARK    3  A    between atoms: C_13  and  N_10 
ROOT
ATOM      1  N   UNL d   1       1.532   0.792   0.501  0.00  0.00    -0.180 N 
ATOM      2  HN  UNL d   1       2.021   1.600   0.884  1.00  0.00     0.185 HD
ATOM      3  C   UNL d   1       2.204  -0.209  -0.089  0.00  0.00     0.683 A 
ATOM      4  C   UNL d   1       0.190   0.693   0.572  0.00  0.00     0.116 A 
ATOM      5  C   UNL d   1      -0.502  -0.387   0.056  0.00  0.00     0.099 A 
ATOM      6  N   UNL d   1       1.605  -1.283  -0.630  0.00  0.00    -0.200 N 
ATOM      7  HN  UNL d   1       2.146  -2.019  -1.084  1.00  0.00     0.183 HD
ATOM      8  C   UNL d   1      -1.915  -0.521   0.127  0.00  0.00     0.104 C 
ATOM      9  N   UNL d   1      -3.070  -0.639   0.152  0.00  0.00    -0.191 NA
ATOM     10  C   UNL d   1       0.264  -1.351  -0.549  0.00  0.00     0.132 A 
ENDROOT
BRANCH   4  11
ATOM     11  N   UNL d   1      -0.445   1.720   1.270  0.00  0.00    -0.287 NA
ATOM     12  H   UNL d   1       0.246   2.425   1.518  0.00  0.00     0.125 HD
ATOM     13  H   UNL d   1      -1.242   2.121   0.787  0.00  0.00     0.125 HD
ENDBRANCH   4  11
BRANCH   3  14
ATOM     14  N   UNL d   1       3.595  -0.096  -0.142  0.00  0.00    -0.192 N 
ATOM     15  H   UNL d   1       3.866   0.728   0.381  0.00  0.00     0.184 HD
BRANCH  14  16
ATOM     16  C   UNL d   1       4.526  -1.148  -0.044  0.00  0.00     0.049 A 
ATOM     17  C   UNL d   1       5.805  -0.979  -0.592  0.00  0.00     0.033 A 
ATOM     18  C   UNL d   1       6.753  -2.002  -0.516  0.00  0.00     0.044 A 
ATOM     19  C   UNL d   1       6.433  -3.188   0.134  0.00  0.00     0.116 A 
ATOM     20  C   UNL d   1       5.185  -3.367   0.713  0.00  0.00     0.044 A 
ATOM     21  F   UNL d   1       7.340  -4.170   0.205  0.00  0.00    -0.206 F 
ATOM     22  C   UNL d   1       4.236  -2.348   0.625  0.00  0.00     0.033 A 
ENDBRANCH  14  16
ENDBRANCH   3  14
TORSDOF 3
