REMARK  5 active torsions:
REMARK  status: ('A' for Active; 'I' for Inactive)
REMARK    1  A    between atoms: C_2  and  C_1 
REMARK       I    between atoms: N_6  and  C_2 
REMARK    2  A    between atoms: O_8  and  C_3 
REMARK    3  A    between atoms: C_4  and  C_5 
REMARK    4  A    between atoms: C_7  and  N_6 
REMARK    5  A    between atoms: C_19  and  O_8 
ROOT
ATOM      1  C   UNL d   1       0.706   1.166  -0.124  0.00  0.00     0.098 C 
ATOM      2  C   UNL d   1      -0.588   0.680  -0.006  0.00  0.00     0.164 C 
ATOM      3  C   UNL d   1       1.726   0.197  -0.248  0.00  0.00     0.069 C 
ATOM      4  N   UNL d   1      -0.930  -0.613  -0.271  0.00  0.00    -0.346 N 
ATOM      5  HN  UNL d   1      -1.910  -0.889  -0.338  1.00  0.00     0.167 HD
ATOM      6  C   UNL d   1       0.043  -1.511  -0.441  0.00  0.00     0.091 C 
ATOM      7  C   UNL d   1       1.369  -1.164  -0.383  0.00  0.00     0.034 C 
ENDROOT
BRANCH   1   8
ATOM      8  C   UNL d   1       0.999   2.583   0.124  0.00  0.00     0.261 C 
ATOM      9  N   UNL d   1       0.447   3.674  -0.510  0.00  0.00    -0.320 N 
ATOM     10  H   UNL d   1       0.837   4.512  -0.082  0.00  0.00     0.169 HD
ATOM     11  O   UNL d   1       1.818   2.807   1.024  0.00  0.00    -0.267 OA
BRANCH   9  12
ATOM     12  C   UNL d   1      -0.497   3.937  -1.532  0.00  0.00     0.074 A 
ATOM     13  C   UNL d   1      -1.129   3.017  -2.370  0.00  0.00     0.146 A 
ATOM     14  C   UNL d   1      -2.109   3.414  -3.290  0.00  0.00     0.086 A 
ATOM     15  F   UNL d   1      -0.793   1.725  -2.376  0.00  0.00    -0.204 F 
ATOM     16  C   UNL d   1      -2.426   4.757  -3.424  0.00  0.00     0.119 A 
ATOM     17  C   UNL d   1      -1.779   5.709  -2.653  0.00  0.00     0.044 A 
ATOM     18  F   UNL d   1      -3.349   5.139  -4.316  0.00  0.00    -0.206 F 
ATOM     19  C   UNL d   1      -0.825   5.298  -1.709  0.00  0.00     0.036 A 
ENDBRANCH   9  12
ENDBRANCH   1   8
BRANCH   2  20
ATOM     20  O   UNL d   1      -1.578   1.501   0.543  0.00  0.00    -0.293 OA
BRANCH  20  21
ATOM     21  C   UNL d   1      -2.674   0.818   1.035  0.00  0.00     0.077 A 
ATOM     22  C   UNL d   1      -2.533  -0.233   1.956  0.00  0.00     0.039 A 
ATOM     23  C   UNL d   1      -3.607  -1.083   2.204  0.00  0.00     0.026 A 
ATOM     24  C   UNL d   1      -4.835  -0.823   1.600  0.00  0.00     0.034 A 
ATOM     25  C   UNL d   1      -5.007   0.293   0.781  0.00  0.00     0.026 A 
ATOM     26 CL   UNL d   1      -6.142  -1.921   1.834  0.00  0.00    -0.084 Cl
ATOM     27  C   UNL d   1      -3.920   1.126   0.497  0.00  0.00     0.039 A 
ENDBRANCH  20  21
ENDBRANCH   2  20
BRANCH   3  28
ATOM     28  C   UNL d   1       3.202   0.457  -0.143  0.00  0.00     0.418 C 
ATOM     29  F   UNL d   1       3.621   1.728  -0.391  0.00  0.00    -0.166 F 
ATOM     30  F   UNL d   1       3.702   0.104   1.073  0.00  0.00    -0.166 F 
ATOM     31  F   UNL d   1       3.899  -0.310  -1.040  0.00  0.00    -0.166 F 
ENDBRANCH   3  28
TORSDOF 5
