REMARK  7 active torsions:
REMARK  status: ('A' for Active; 'I' for Inactive)
REMARK       I    between atoms: N_4  and  C_1 
REMARK    1  A    between atoms: C_7  and  C_1 
REMARK    2  A    between atoms: C_2  and  C_7 
REMARK    3  A    between atoms: C_10  and  C_2 
REMARK       I    between atoms: C_3  and  N_6 
REMARK    4  A    between atoms: C_12  and  N_4 
REMARK    5  A    between atoms: C_5  and  C_10 
REMARK    6  A    between atoms: O_14  and  C_5 
REMARK    7  A    between atoms: N_6  and  C_13 
ROOT
ATOM      1  C   UNL d   1       1.069  -0.090  -0.045  0.00  0.00     0.222 C 
ATOM      2  N   UNL d   1       2.428   0.102  -0.229  0.00  0.00    -0.327 N 
ATOM      3  O   UNL d   1       0.552  -0.945   0.661  0.00  0.00    -0.273 OA
ATOM      4  H   UNL d   1       2.702   0.833  -0.875  0.00  0.00     0.169 HD
ENDROOT
BRANCH   1   5
ATOM      5  C   UNL d   1       0.244   0.906  -0.859  0.00  0.00     0.113 C 
BRANCH   5   6
ATOM      6  C   UNL d   1      -1.296   0.784  -0.719  0.00  0.00    -0.023 C 
ATOM      7  C   UNL d   1      -1.788  -0.568  -1.292  0.00  0.00     0.010 C 
ATOM      8  C   UNL d   1      -3.183  -0.327  -1.867  0.00  0.00     0.001 C 
ATOM      9  C   UNL d   1      -3.369   1.181  -1.949  0.00  0.00     0.001 C 
ATOM     10  C   UNL d   1      -1.995   1.778  -1.675  0.00  0.00     0.010 C 
BRANCH   6  11
ATOM     11  C   UNL d   1      -1.799   0.956   0.744  0.00  0.00     0.119 C 
BRANCH  11  12
ATOM     12  C   UNL d   1      -1.439   2.267   1.416  0.00  0.00     0.140 C 
ATOM     13  O   UNL d   1      -0.842   3.197   0.899  0.00  0.00    -0.650 OA
BRANCH  12  14
ATOM     14  O   UNL d   1      -1.871   2.320   2.699  0.00  0.00    -0.776 OA
ATOM     15  H   UNL d   1      -2.313   1.502   2.996  0.00  0.00     0.167 HD
ENDBRANCH  12  14
ENDBRANCH  11  12
ENDBRANCH   6  11
ENDBRANCH   5   6
ENDBRANCH   1   5
BRANCH   2  16
ATOM     16  C   UNL d   1       3.483  -0.598   0.393  0.00  0.00     0.034 A 
ATOM     17  C   UNL d   1       3.308  -1.589   1.358  0.00  0.00     0.032 A 
ATOM     18  C   UNL d   1       4.416  -2.211   1.955  0.00  0.00     0.032 A 
ATOM     19  C   UNL d   1       5.720  -1.853   1.596  0.00  0.00     0.034 A 
ATOM     20  C   UNL d   1       5.892  -0.878   0.614  0.00  0.00     0.032 A 
ATOM     21  C   UNL d   1       4.785  -0.256   0.021  0.00  0.00     0.032 A 
BRANCH  19  22
ATOM     22  N   UNL d   1       6.785  -2.494   2.264  0.00  0.00    -0.328 N 
ATOM     23  C   UNL d   1       8.137  -2.256   2.097  0.00  0.00     0.218 C 
ATOM     24  O   UNL d   1       8.652  -1.462   1.315  0.00  0.00    -0.274 OA
ATOM     25  C   UNL d   1       9.013  -3.085   3.004  0.00  0.00     0.117 C 
ATOM     26  H   UNL d   1       6.519  -3.180   2.959  0.00  0.00     0.169 HD
ENDBRANCH  19  22
ENDBRANCH   2  16
TORSDOF 7
