REMARK  5 active torsions:
REMARK  status: ('A' for Active; 'I' for Inactive)
REMARK    1  A    between atoms: N_2  and  S_1 
REMARK    2  A    between atoms: C_3  and  S_1 
REMARK    3  A    between atoms: C_20  and  C_3 
REMARK    4  A    between atoms: C_16  and  N_4 
REMARK    5  A    between atoms: C_15  and  C_16 
ROOT
ATOM      1  N   UNL d   1       0.315   0.769  -0.954  0.00  0.00    -0.207 NA
ATOM      2  N   UNL d   1      -1.397   3.059  -0.040  0.00  0.00     0.095 N 
ATOM      3  C   UNL d   1       0.831   2.185  -0.948  0.00  0.00     0.137 C 
ATOM      4  C   UNL d   1      -1.167   0.776  -1.122  0.00  0.00     0.137 C 
ATOM      5  C   UNL d   1      -1.872   1.657  -0.075  0.00  0.00     0.288 C 
ATOM      6  C   UNL d   1       0.082   3.063   0.081  0.00  0.00     0.288 C 
ENDROOT
BRANCH   1   7
ATOM      7  S   UNL d   1       1.004  -0.209   0.271  0.00  0.00     0.215 S 
ATOM      8  O   UNL d   1       0.586   0.328   1.547  0.00  0.00    -0.211 OA
ATOM      9  O   UNL d   1       2.410  -0.328  -0.059  0.00  0.00    -0.211 OA
BRANCH   7  10
ATOM     10  C   UNL d   1       0.196  -1.796   0.031  0.00  0.00     0.196 C 
BRANCH  10  11
ATOM     11  C   UNL d   1       0.749  -2.805   1.003  0.00  0.00    -0.043 A 
ATOM     12  C   UNL d   1       0.177  -2.957   2.277  0.00  0.00     0.010 A 
ATOM     13  C   UNL d   1       0.663  -3.923   3.161  0.00  0.00     0.024 A 
ATOM     14  C   UNL d   1       1.727  -4.736   2.779  0.00  0.00     0.034 A 
ATOM     15  C   UNL d   1       2.319  -4.580   1.526  0.00  0.00     0.024 A 
ATOM     16 CL   UNL d   1       2.309  -5.945   3.855  0.00  0.00    -0.084 Cl
ATOM     17  C   UNL d   1       1.833  -3.615   0.642  0.00  0.00     0.010 A 
ENDBRANCH  10  11
ENDBRANCH   7  10
ENDBRANCH   1   7
BRANCH   2  18
ATOM     18  C   UNL d   1      -1.891   3.800  -1.208  0.00  0.00     0.311 C 
BRANCH  18  19
ATOM     19  C   UNL d   1      -1.513   5.263  -1.220  0.00  0.00    -0.027 A 
ATOM     20  C   UNL d   1      -0.737   5.772  -2.275  0.00  0.00     0.048 A 
ATOM     21  C   UNL d   1      -0.437   7.116  -2.269  0.00  0.00     0.105 A 
ATOM     22  O   UNL d   1       0.291   7.766  -3.215  0.00  0.00    -0.323 OA
ATOM     23  C   UNL d   1      -0.871   7.952  -1.268  0.00  0.00     0.105 A 
ATOM     24  C   UNL d   1       0.252   9.114  -2.703  0.00  0.00     0.352 A 
ATOM     25  O   UNL d   1      -0.476   9.239  -1.463  0.00  0.00    -0.323 OA
ATOM     26  C   UNL d   1      -1.623   7.489  -0.210  0.00  0.00     0.040 A 
ATOM     27  C   UNL d   1      -1.945   6.129  -0.189  0.00  0.00     0.012 A 
ENDBRANCH  18  19
ENDBRANCH   2  18
TORSDOF 5
