REMARK  6 active torsions:
REMARK  status: ('A' for Active; 'I' for Inactive)
REMARK    1  A    between atoms: C_7  and  C_1 
REMARK    2  A    between atoms: C_6  and  C_16 
REMARK       I    between atoms: N_15  and  C_7 
REMARK    3  A    between atoms: C_25  and  N_15 
REMARK    4  A    between atoms: C_16  and  S_19 
REMARK    5  A    between atoms: S_19  and  C_26 
REMARK    6  A    between atoms: C_26  and  C_25 
ROOT
ATOM      1  C   UNL d   1      -3.923   0.015  -0.494  0.00  0.00     0.268 C 
ATOM      2  O   UNL d   1      -4.524  -1.057  -0.508  0.00  0.00    -0.266 OA
ATOM      3  N   UNL d   1      -4.538   1.209  -0.770  0.00  0.00    -0.355 N 
ATOM      4  H   UNL d   1      -3.967   2.032  -0.915  0.00  0.00     0.162 HD
ENDROOT
BRANCH   1   5
ATOM      5  C   UNL d   1      -2.522   0.119  -0.155  0.00  0.00     0.102 A 
ATOM      6  N   UNL d   1      -1.751  -0.989   0.126  0.00  0.00    -0.351 N 
ATOM      7  C   UNL d   1      -0.506  -0.621   0.580  0.00  0.00     0.044 A 
ATOM      8  H   UNL d   1      -2.099  -1.938   0.075  0.00  0.00     0.166 HD
ATOM      9  C   UNL d   1       0.546  -1.409   1.066  0.00  0.00     0.037 A 
ATOM     10  C   UNL d   1      -0.438   0.768   0.507  0.00  0.00    -0.001 A 
ATOM     11  C   UNL d   1       1.698  -0.751   1.517  0.00  0.00    -0.059 A 
ATOM     12  C   UNL d   1       2.837  -1.524   2.119  0.00  0.00     0.048 C 
ATOM     13  C   UNL d   1       1.785   0.644   1.443  0.00  0.00     0.014 A 
ATOM     14  C   UNL d   1       0.734   1.433   0.932  0.00  0.00    -0.049 A 
ATOM     15  C   UNL d   1       0.895   2.928   0.916  0.00  0.00     0.049 C 
ATOM     16  C   UNL d   1      -1.694   1.214   0.008  0.00  0.00     0.049 A 
ENDBRANCH   1   5
BRANCH   3  17
ATOM     17  C   UNL d   1      -5.948   1.299  -1.085  0.00  0.00     0.133 C 
BRANCH  17  18
ATOM     18  C   UNL d   1      -6.377   2.720  -1.456  0.00  0.00     0.093 C 
BRANCH  18  19
ATOM     19  S   UNL d   1      -5.364   3.471  -2.788  0.00  0.00    -0.163 SA
BRANCH  19  20
ATOM     20  C   UNL d   1      -5.709   2.288  -4.132  0.00  0.00     0.117 C 
BRANCH  20  21
ATOM     21  C   UNL d   1      -5.037   2.686  -5.419  0.00  0.00     0.011 A 
ATOM     22  C   UNL d   1      -5.717   3.526  -6.309  0.00  0.00     0.125 A 
ATOM     23  F   UNL d   1      -6.950   3.959  -6.006  0.00  0.00    -0.205 F 
ATOM     24  C   UNL d   1      -5.158   3.921  -7.522  0.00  0.00     0.043 A 
ATOM     25  C   UNL d   1      -3.888   3.477  -7.873  0.00  0.00     0.005 A 
ATOM     26  C   UNL d   1      -3.184   2.647  -7.001  0.00  0.00     0.024 A 
ATOM     27  C   UNL d   1      -3.751   2.258  -5.780  0.00  0.00     0.044 A 
ATOM     28 CL   UNL d   1      -2.807   1.230  -4.759  0.00  0.00    -0.084 Cl
ENDBRANCH  20  21
ENDBRANCH  19  20
ENDBRANCH  18  19
ENDBRANCH  17  18
ENDBRANCH   3  17
TORSDOF 6
