REMARK  3 active torsions:
REMARK  status: ('A' for Active; 'I' for Inactive)
REMARK    1  A    between atoms: C_9  and  C_2 
REMARK       I    between atoms: C_5  and  N_7 
REMARK    2  A    between atoms: C_10  and  C_5 
REMARK    3  A    between atoms: N_7  and  C_16 
ROOT
ATOM      1  C   UNL d   1       2.348  -1.652   0.210  0.00  0.00    -0.008 A 
ATOM      2  C   UNL d   1       2.347  -2.733  -0.681  0.00  0.00     0.016 A 
ATOM      3  C   UNL d   1       3.470  -1.465   1.025  0.00  0.00     0.016 A 
ATOM      4  C   UNL d   1       4.598  -3.360   0.004  0.00  0.00     0.035 A 
ATOM      5  C   UNL d   1       3.461  -3.579  -0.781  0.00  0.00     0.030 A 
ATOM      6  C   UNL d   1       4.582  -2.308   0.919  0.00  0.00     0.030 A 
ENDROOT
BRANCH   4   7
ATOM      7  N   UNL d   1       5.704  -4.219  -0.179  0.00  0.00    -0.323 N 
ATOM      8  C   UNL d   1       6.938  -4.124   0.442  0.00  0.00     0.256 C 
ATOM      9  O   UNL d   1       7.282  -3.289   1.274  0.00  0.00    -0.267 OA
ATOM     10  H   UNL d   1       5.556  -4.991  -0.815  0.00  0.00     0.169 HD
BRANCH   8  11
ATOM     11  C   UNL d   1       7.926  -5.175   0.076  0.00  0.00     0.032 A 
ATOM     12  C   UNL d   1       8.012  -5.707  -1.217  0.00  0.00     0.018 A 
ATOM     13  C   UNL d   1       8.942  -6.715  -1.494  0.00  0.00     0.025 A 
ATOM     14  C   UNL d   1       9.788  -7.179  -0.486  0.00  0.00     0.034 A 
ATOM     15  C   UNL d   1       9.734  -6.628   0.792  0.00  0.00     0.025 A 
ATOM     16 CL   UNL d   1      10.906  -8.441  -0.824  0.00  0.00    -0.084 Cl
ATOM     17  C   UNL d   1       8.808  -5.622   1.071  0.00  0.00     0.018 A 
ENDBRANCH   8  11
ENDBRANCH   4   7
BRANCH   1  18
ATOM     18  C   UNL d   1       1.205  -0.751   0.276  0.00  0.00     0.063 A 
ATOM     19  N   UNL d   1      -0.070  -1.167  -0.092  0.00  0.00    -0.292 N 
ATOM     20  N   UNL d   1      -0.965  -0.200   0.036  0.00  0.00    -0.061 NA
ATOM     21  HN  UNL d   1      -0.290  -2.107  -0.422  1.00  0.00     0.183 HD
ATOM     22  S   UNL d   1      -0.299   1.233   0.579  0.00  0.00    -0.010 SA
ATOM     23  C   UNL d   1       1.284   0.576   0.667  0.00  0.00     0.096 A 
ENDBRANCH   1  18
TORSDOF 3
