REMARK  4 active torsions:
REMARK  status: ('A' for Active; 'I' for Inactive)
REMARK    1  A    between atoms: C_14  and  N_1 
REMARK    2  A    between atoms: S_3  and  C_2 
REMARK    3  A    between atoms: C_6  and  C_7 
REMARK    4  A    between atoms: N_8  and  C_15 
ROOT
ATOM      1  C   UNL d   1       3.990  -6.980   0.929  0.00  0.00     0.140 C 
ATOM      2  C   UNL d   1       4.341  -6.109   1.897  0.00  0.00     0.065 C 
ATOM      3  C   UNL d   1       4.191  -8.383   1.043  0.00  0.00     0.111 C 
ATOM      4  N   UNL d   1       4.363  -9.519   1.167  0.00  0.00    -0.191 NA
ENDROOT
BRANCH   1   5
ATOM      5  S   UNL d   1       3.255  -6.422  -0.548  0.00  0.00     0.181 S 
ATOM      6  O   UNL d   1       2.119  -7.260  -0.864  0.00  0.00    -0.222 OA
ATOM      7  O   UNL d   1       3.096  -4.979  -0.523  0.00  0.00    -0.222 OA
ATOM      8  C   UNL d   1       4.504  -6.760  -1.780  0.00  0.00     0.168 C 
ENDBRANCH   1   5
BRANCH   2   9
ATOM      9  C   UNL d   1       5.224  -6.525   2.944  0.00  0.00     0.041 A 
ATOM     10  N   UNL d   1       4.898  -6.595   4.317  0.00  0.00    -0.322 N 
ATOM     11  C   UNL d   1       6.067  -6.933   4.986  0.00  0.00     0.097 A 
ATOM     12  C   UNL d   1       7.100  -7.082   4.100  0.00  0.00     0.020 A 
ATOM     13  C   UNL d   1       6.576  -6.824   2.823  0.00  0.00     0.031 A 
BRANCH  10  14
ATOM     14  C   UNL d   1       3.678  -6.329   4.998  0.00  0.00     0.039 C 
ATOM     15  C   UNL d   1       2.431  -6.683   4.479  0.00  0.00     0.032 C 
ATOM     16  C   UNL d   1       1.253  -6.222   5.100  0.00  0.00     0.034 C 
ATOM     17  C   UNL d   1       1.333  -5.371   6.209  0.00  0.00     0.056 C 
ATOM     18  C   UNL d   1       2.580  -5.177   6.823  0.00  0.00     0.034 C 
ATOM     19  C   UNL d   1       3.742  -5.665   6.230  0.00  0.00     0.032 C 
BRANCH  17  20
ATOM     20  N   UNL d   1       0.258  -4.512   6.603  0.00  0.00    -0.261 N 
ATOM     21  N   UNL d   1       0.576  -3.378   7.298  0.00  0.00    -0.298 N 
ATOM     22  C   UNL d   1      -0.420  -2.527   7.054  0.00  0.00     0.024 C 
ATOM     23  HN  UNL d   1       1.400  -3.218   7.878  1.00  0.00     0.187 HD
ATOM     24  C   UNL d   1      -0.325  -1.105   7.461  0.00  0.00     0.070 C 
ATOM     25  C   UNL d   1      -1.491  -3.171   6.415  0.00  0.00     0.052 C 
ATOM     26  C   UNL d   1      -1.081  -4.477   6.227  0.00  0.00     0.032 C 
ATOM     27  C   UNL d   1      -1.895  -5.608   5.724  0.00  0.00     0.070 C 
ENDBRANCH  17  20
ENDBRANCH  10  14
ENDBRANCH   2   9
TORSDOF 4
