REMARK  6 active torsions:
REMARK  status: ('A' for Active; 'I' for Inactive)
REMARK    1  A    between atoms: N_2  and  C_1 
REMARK    2  A    between atoms: N_3  and  C_1 
REMARK    3  A    between atoms: C_4  and  N_2 
REMARK    4  A    between atoms: C_5  and  N_3 
REMARK    5  A    between atoms: O_9  and  C_7 
REMARK    6  A    between atoms: O_10  and  C_8 
ROOT
ATOM      1  C   UNL d   1       1.035   0.573   0.600  0.00  0.00     0.176 C 
ATOM      2  S   UNL d   1       2.414   1.007   1.443  0.00  0.00    -0.041 SA
ENDROOT
BRANCH   1   3
ATOM      3  N   UNL d   1       0.677   0.986  -0.657  0.00  0.00    -0.331 N 
ATOM      4  H   UNL d   1      -0.319   1.133  -0.783  0.00  0.00     0.168 HD
BRANCH   3   5
ATOM      5  C   UNL d   1       1.465   1.432  -1.735  0.00  0.00     0.068 A 
ATOM      6  C   UNL d   1       0.869   2.260  -2.701  0.00  0.00     0.095 A 
ATOM      7  C   UNL d   1       1.557   2.620  -3.860  0.00  0.00     0.039 A 
ATOM      8  C   UNL d   1       2.862   2.171  -4.056  0.00  0.00     0.003 A 
ATOM      9  C   UNL d   1       3.468   1.356  -3.100  0.00  0.00     0.002 A 
ATOM     10  C   UNL d   1       2.772   0.985  -1.946  0.00  0.00     0.032 A 
BRANCH   6  11
ATOM     11  O   UNL d   1      -0.423   2.708  -2.572  0.00  0.00    -0.354 OA
ATOM     12  C   UNL d   1      -0.540   3.702  -1.550  0.00  0.00     0.210 C 
ENDBRANCH   6  11
ENDBRANCH   3   5
ENDBRANCH   1   3
BRANCH   1  13
ATOM     13  N   UNL d   1       0.088  -0.146   1.279  0.00  0.00    -0.331 N 
ATOM     14  H   UNL d   1       0.247  -0.210   2.281  0.00  0.00     0.168 HD
BRANCH  13  15
ATOM     15  C   UNL d   1      -1.003  -0.908   0.806  0.00  0.00     0.068 A 
ATOM     16  C   UNL d   1      -2.007  -1.271   1.720  0.00  0.00     0.095 A 
ATOM     17  C   UNL d   1      -3.053  -2.111   1.335  0.00  0.00     0.039 A 
ATOM     18  C   UNL d   1      -3.124  -2.577   0.022  0.00  0.00     0.003 A 
ATOM     19  C   UNL d   1      -2.140  -2.216  -0.893  0.00  0.00     0.002 A 
ATOM     20  C   UNL d   1      -1.081  -1.392  -0.504  0.00  0.00     0.032 A 
BRANCH  16  21
ATOM     21  O   UNL d   1      -1.988  -0.864   3.030  0.00  0.00    -0.354 OA
ATOM     22  C   UNL d   1      -2.216   0.543   3.162  0.00  0.00     0.210 C 
ENDBRANCH  16  21
ENDBRANCH  13  15
ENDBRANCH   1  13
TORSDOF 6
