REMARK  7 active torsions:
REMARK  status: ('A' for Active; 'I' for Inactive)
REMARK    1  A    between atoms: C_10  and  C_1 
REMARK    2  A    between atoms: C_6  and  C_2 
REMARK    3  A    between atoms: C_24  and  N_3 
REMARK    4  A    between atoms: C_18  and  C_9 
REMARK    5  A    between atoms: N_13  and  C_25 
REMARK    6  A    between atoms: C_15  and  C_20 
REMARK    7  A    between atoms: C_16  and  C_19 
ROOT
ATOM      1  N   UNL d   1      -0.193  -3.810   0.084  0.00  0.00    -0.318 N 
ATOM      2  HN  UNL d   1       0.822  -3.912   0.114  1.00  0.00     0.169 HD
ATOM      3  C   UNL d   1      -0.893  -2.709  -0.066  0.00  0.00     0.186 A 
ATOM      4  C   UNL d   1      -1.149  -4.792   0.189  0.00  0.00     0.138 A 
ATOM      5  N   UNL d   1      -2.401  -4.338   0.018  0.00  0.00    -0.242 N 
ATOM      6  HN  UNL d   1      -3.268  -4.874   0.004  1.00  0.00     0.196 HD
ATOM      7  O   UNL d   1      -2.237  -2.965  -0.138  0.00  0.00    -0.217 OA
ENDROOT
BRANCH   3   8
ATOM      8  C   UNL d   1      -0.323  -1.336  -0.080  0.00  0.00     0.068 A 
ATOM      9  C   UNL d   1       1.003  -0.942  -0.053  0.00  0.00     0.156 A 
ATOM     10  N   UNL d   1       0.989   0.449  -0.038  0.00  0.00    -0.251 N 
ATOM     11  N   UNL d   1      -0.283   0.924   0.070  0.00  0.00    -0.303 N 
ATOM     12  C   UNL d   1      -1.063  -0.149  -0.035  0.00  0.00     0.126 A 
ATOM     13  HN  UNL d   1      -0.574   1.893   0.202  1.00  0.00     0.186 HD
BRANCH   9  14
ATOM     14  C   UNL d   1       2.250  -1.710   0.060  0.00  0.00     0.435 C 
ATOM     15  F   UNL d   1       2.085  -3.014   0.390  0.00  0.00    -0.165 F 
ATOM     16  F   UNL d   1       2.948  -1.725  -1.107  0.00  0.00    -0.165 F 
ATOM     17  F   UNL d   1       3.073  -1.204   1.010  0.00  0.00    -0.165 F 
ENDBRANCH   9  14
BRANCH  10  18
ATOM     18  C   UNL d   1       2.058   1.399  -0.092  0.00  0.00     0.057 A 
ATOM     19  C   UNL d   1       3.235   1.146  -0.804  0.00  0.00     0.034 A 
ATOM     20  C   UNL d   1       4.292   2.062  -0.792  0.00  0.00     0.038 A 
ATOM     21  C   UNL d   1       4.165   3.260  -0.084  0.00  0.00     0.103 A 
ATOM     22  C   UNL d   1       2.971   3.559   0.583  0.00  0.00     0.038 A 
ATOM     23  C   UNL d   1       1.917   2.634   0.568  0.00  0.00     0.034 A 
BRANCH  21  24
ATOM     24  N   UNL d   1       5.290   4.206  -0.061  0.00  0.00    -0.116 N 
ATOM     25  O   UNL d   1       5.135   5.268   0.559  0.00  0.00    -0.532 OA
ATOM     26  O   UNL d   1       6.326   3.886  -0.660  0.00  0.00    -0.532 OA
ENDBRANCH  21  24
ENDBRANCH  10  18
ENDBRANCH   3   8
BRANCH   4  27
ATOM     27  C   UNL d   1      -0.826  -6.170   0.565  0.00  0.00     0.011 A 
ATOM     28  C   UNL d   1       0.499  -6.555   0.834  0.00  0.00     0.031 A 
ATOM     29  C   UNL d   1       0.800  -7.850   1.302  0.00  0.00     0.049 A 
ATOM     30  C   UNL d   1      -0.248  -8.766   1.487  0.00  0.00     0.032 A 
ATOM     31  C   UNL d   1      -1.577  -8.408   1.222  0.00  0.00     0.049 A 
ATOM     32  C   UNL d   1      -1.850  -7.112   0.750  0.00  0.00     0.031 A 
BRANCH  29  33
ATOM     33  C   UNL d   1       2.223  -8.233   1.644  0.00  0.00     0.417 C 
ATOM     34  F   UNL d   1       2.334  -9.495   2.146  0.00  0.00    -0.166 F 
ATOM     35  F   UNL d   1       3.054  -8.185   0.568  0.00  0.00    -0.166 F 
ATOM     36  F   UNL d   1       2.769  -7.413   2.583  0.00  0.00    -0.166 F 
ENDBRANCH  29  33
BRANCH  31  37
ATOM     37  C   UNL d   1      -2.715  -9.367   1.482  0.00  0.00     0.417 C 
ATOM     38  F   UNL d   1      -2.310 -10.557   2.006  0.00  0.00    -0.166 F 
ATOM     39  F   UNL d   1      -3.620  -8.861   2.363  0.00  0.00    -0.166 F 
ATOM     40  F   UNL d   1      -3.412  -9.668   0.354  0.00  0.00    -0.166 F 
ENDBRANCH  31  37
ENDBRANCH   4  27
TORSDOF 7
