REMARK  2 active torsions:
REMARK  status: ('A' for Active; 'I' for Inactive)
REMARK    1  A    between atoms: C_8  and  C_2 
REMARK    2  A    between atoms: O_16  and  C_13 
ROOT
ATOM      1  C   UNL d   1      -0.174   0.810  -0.004  0.00  0.00    -0.007 A 
ATOM      2  C   UNL d   1      -1.579   1.319   0.188  0.00  0.00     0.287 C 
ATOM      3  C   UNL d   1       0.108  -0.531  -0.193  0.00  0.00    -0.007 A 
ATOM      4  S   UNL d   1       1.769  -0.853  -0.335  0.00  0.00    -0.106 SA
ATOM      5  N   UNL d   1      -2.564   0.344  -0.326  0.00  0.00     0.097 N 
ATOM      6  C   UNL d   1       1.030   1.587  -0.006  0.00  0.00     0.018 A 
ATOM      7  C   UNL d   1       2.155   0.805  -0.160  0.00  0.00     0.051 A 
ATOM      8  C   UNL d   1      -0.936  -1.599  -0.272  0.00  0.00     0.076 C 
ATOM      9  C   UNL d   1      -2.310  -1.031   0.147  0.00  0.00     0.276 C 
ATOM     10  H   UNL d   1      -2.475   0.345  -1.341  0.00  0.00     0.317 HD
ENDROOT
BRANCH   2  11
ATOM     11  C   UNL d   1      -1.767   1.682   1.656  0.00  0.00    -0.021 A 
ATOM     12  C   UNL d   1      -2.613   2.759   1.980  0.00  0.00     0.012 A 
ATOM     13  C   UNL d   1      -2.803   3.162   3.310  0.00  0.00     0.037 A 
ATOM     14  C   UNL d   1      -2.157   2.487   4.342  0.00  0.00     0.068 A 
ATOM     15  C   UNL d   1      -1.360   1.386   4.045  0.00  0.00     0.037 A 
ATOM     16  C   UNL d   1      -1.165   0.988   2.721  0.00  0.00     0.012 A 
BRANCH  14  17
ATOM     17  O   UNL d   1      -2.265   2.787   5.672  0.00  0.00    -0.356 OA
ATOM     18  C   UNL d   1      -2.492   4.160   5.968  0.00  0.00     0.210 C 
ENDBRANCH  14  17
ENDBRANCH   2  11
TORSDOF 2
