REMARK  7 active torsions:
REMARK  status: ('A' for Active; 'I' for Inactive)
REMARK    1  A    between atoms: C_5  and  C_1 
REMARK    2  A    between atoms: C_3  and  C_2 
REMARK    3  A    between atoms: C_20  and  N_4 
REMARK    4  A    between atoms: O_19  and  C_5 
REMARK    5  A    between atoms: N_9  and  C_21 
REMARK    6  A    between atoms: C_18  and  C_20 
REMARK    7  A    between atoms: C_21  and  C_18 
ROOT
ATOM      1  C   UNL d   1      -0.883   0.209  -1.264  0.00  0.00     0.121 C 
ATOM      2  C   UNL d   1       0.305   0.692  -0.849  0.00  0.00     0.058 C 
ATOM      3  C   UNL d   1      -1.551   0.683  -2.427  0.00  0.00     0.105 C 
ATOM      4  N   UNL d   1      -2.082   1.049  -3.395  0.00  0.00    -0.191 NA
ENDROOT
BRANCH   1   5
ATOM      5  C   UNL d   1      -1.489  -0.885  -0.465  0.00  0.00     0.303 C 
ATOM      6  O   UNL d   1      -1.007  -1.340   0.563  0.00  0.00    -0.258 OA
BRANCH   5   7
ATOM      7  O   UNL d   1      -2.636  -1.316  -1.049  0.00  0.00    -0.322 OA
ATOM      8  C   UNL d   1      -3.294  -2.389  -0.372  0.00  0.00     0.213 C 
ENDBRANCH   5   7
ENDBRANCH   1   5
BRANCH   2   9
ATOM      9  C   UNL d   1       0.951   1.775  -1.499  0.00  0.00     0.035 A 
ATOM     10  N   UNL d   1       1.939   1.571  -2.448  0.00  0.00    -0.357 N 
ATOM     11  C   UNL d   1       2.416   2.797  -2.850  0.00  0.00     0.091 A 
ATOM     12  C   UNL d   1       1.699   3.782  -2.211  0.00  0.00     0.019 A 
ATOM     13  C   UNL d   1       0.778   3.139  -1.359  0.00  0.00     0.031 A 
BRANCH  10  14
ATOM     14  C   UNL d   1       2.364   0.277  -2.982  0.00  0.00     0.130 C 
BRANCH  14  15
ATOM     15  C   UNL d   1       3.471   0.335  -4.037  0.00  0.00     0.040 C 
BRANCH  15  16
ATOM     16  C   UNL d   1       3.831  -1.043  -4.580  0.00  0.00     0.131 C 
BRANCH  16  17
ATOM     17  N   UNL d   1       4.909  -0.962  -5.548  0.00  0.00    -0.352 N 
ATOM     18  C   UNL d   1       6.244  -1.008  -5.262  0.00  0.00     0.182 A 
ATOM     19  N   UNL d   1       6.970  -0.890  -6.350  0.00  0.00    -0.361 N 
ATOM     20  C   UNL d   1       6.069  -0.760  -7.375  0.00  0.00     0.106 A 
ATOM     21  HN  UNL d   1       7.988  -0.893  -6.418  1.00  0.00     0.166 HD
ATOM     22  C   UNL d   1       4.779  -0.803  -6.898  0.00  0.00     0.108 A 
ENDBRANCH  16  17
ENDBRANCH  15  16
ENDBRANCH  14  15
ENDBRANCH  10  14
ENDBRANCH   2   9
TORSDOF 7
