REMARK  6 active torsions:
REMARK  status: ('A' for Active; 'I' for Inactive)
REMARK    1  A    between atoms: C_7  and  N_1 
REMARK    2  A    between atoms: N_2  and  O_6 
REMARK    3  A    between atoms: C_11  and  C_4 
REMARK    4  A    between atoms: C_19  and  C_4 
REMARK    5  A    between atoms: C_5  and  C_10 
REMARK    6  A    between atoms: O_6  and  C_5 
ROOT
ATOM      1  N   UNL d   1      -3.942   2.458   3.018  0.00  0.00    -0.260 N 
ATOM      2  HN  UNL d   1      -3.709   3.450   2.982  1.00  0.00     0.194 HD
ATOM      3  C   UNL d   1      -4.997   2.017   3.642  0.00  0.00     0.046 C 
ENDROOT
BRANCH   1   4
ATOM      4  O   UNL d   1      -3.140   1.475   2.397  0.00  0.00    -0.195 OA
BRANCH   4   5
ATOM      5  C   UNL d   1      -2.138   2.109   1.707  0.00  0.00     0.315 C 
ATOM      6  O   UNL d   1      -1.974   3.321   1.605  0.00  0.00    -0.257 OA
BRANCH   5   7
ATOM      7  C   UNL d   1      -1.186   1.161   1.051  0.00  0.00     0.041 A 
ATOM      8  C   UNL d   1      -1.312  -0.235   1.078  0.00  0.00     0.020 A 
ATOM      9  C   UNL d   1      -0.356  -1.043   0.435  0.00  0.00     0.037 A 
ATOM     10  C   UNL d   1       0.727  -0.453  -0.239  0.00  0.00     0.102 A 
ATOM     11  C   UNL d   1       0.858   0.936  -0.278  0.00  0.00     0.037 A 
ATOM     12  C   UNL d   1      -0.096   1.732   0.364  0.00  0.00     0.020 A 
BRANCH  10  13
ATOM     13  N   UNL d   1       1.735  -1.295  -0.907  0.00  0.00    -0.116 N 
ATOM     14  O   UNL d   1       2.667  -0.726  -1.494  0.00  0.00    -0.532 OA
ATOM     15  O   UNL d   1       1.592  -2.522  -0.838  0.00  0.00    -0.532 OA
ENDBRANCH  10  13
ENDBRANCH   5   7
ENDBRANCH   4   5
ENDBRANCH   1   4
BRANCH   3  16
ATOM     16  C   UNL d   1      -5.861   3.044   4.334  0.00  0.00    -0.011 A 
ATOM     17  C   UNL d   1      -7.232   2.848   4.545  0.00  0.00     0.014 A 
ATOM     18  C   UNL d   1      -7.983   3.783   5.266  0.00  0.00     0.007 A 
ATOM     19  C   UNL d   1      -7.384   4.942   5.775  0.00  0.00    -0.062 A 
ATOM     20  C   UNL d   1      -6.030   5.171   5.510  0.00  0.00     0.007 A 
ATOM     21  C   UNL d   1      -8.197   5.917   6.575  0.00  0.00     0.048 C 
ATOM     22  C   UNL d   1      -5.275   4.232   4.795  0.00  0.00     0.014 A 
ENDBRANCH   3  16
BRANCH   3  23
ATOM     23  C   UNL d   1      -5.410   0.542   3.759  0.00  0.00     0.030 C 
ATOM     24  C   UNL d   1      -5.787  -0.049   2.405  0.00  0.00     0.016 C 
ATOM     25  C   UNL d   1      -4.364  -0.288   4.497  0.00  0.00     0.016 C 
ENDBRANCH   3  23
TORSDOF 6
