REMARK  6 active torsions:
REMARK  status: ('A' for Active; 'I' for Inactive)
REMARK    1  A    between atoms: C_10  and  C_1 
REMARK    2  A    between atoms: C_16  and  C_5 
REMARK    3  A    between atoms: C_6  and  C_14 
REMARK    4  A    between atoms: O_20  and  C_10 
REMARK    5  A    between atoms: C_19  and  C_16 
REMARK    6  A    between atoms: C_23  and  O_20 
ROOT
ATOM      1  C   UNL d   1       3.628  -5.018   0.168  0.00  0.00    -0.008 A 
ATOM      2  C   UNL d   1       3.346  -4.066   1.157  0.00  0.00     0.014 A 
ATOM      3  C   UNL d   1       2.743  -5.145  -0.910  0.00  0.00     0.014 A 
ATOM      4  C   UNL d   1       1.295  -3.422   0.011  0.00  0.00    -0.052 A 
ATOM      5  C   UNL d   1       2.190  -3.280   1.081  0.00  0.00     0.008 A 
ATOM      6  C   UNL d   1       1.587  -4.360  -0.987  0.00  0.00     0.008 A 
ENDROOT
BRANCH   4   7
ATOM      7  C   UNL d   1       0.016  -2.612  -0.044  0.00  0.00     0.103 C 
BRANCH   7   8
ATOM      8  C   UNL d   1       0.238  -1.128  -0.086  0.00  0.00     0.055 A 
ATOM      9  N   UNL d   1       0.324  -0.364   0.984  0.00  0.00    -0.348 N 
ATOM     10  C   UNL d   1       0.546   0.964   0.617  0.00  0.00     0.115 A 
ATOM     11  HN  UNL d   1       0.240  -0.697   1.944  1.00  0.00     0.166 HD
ATOM     12  C   UNL d   1       0.586   1.173  -0.751  0.00  0.00     0.087 A 
ATOM     13  S   UNL d   1       0.378  -0.305  -1.589  0.00  0.00    -0.086 SA
BRANCH  10  14
ATOM     14  C   UNL d   1       0.780   2.023   1.601  0.00  0.00     0.310 C 
ATOM     15  O   UNL d   1       1.036   3.182   1.292  0.00  0.00    -0.258 OA
BRANCH  14  16
ATOM     16  O   UNL d   1       0.765   1.548   2.881  0.00  0.00    -0.317 OA
BRANCH  16  17
ATOM     17  C   UNL d   1       1.365   2.396   3.866  0.00  0.00     0.175 C 
ATOM     18  C   UNL d   1       2.850   2.084   3.918  0.00  0.00     0.034 C 
ENDBRANCH  16  17
ENDBRANCH  14  16
ENDBRANCH  10  14
ENDBRANCH   7   8
ENDBRANCH   4   7
BRANCH   1  19
ATOM     19  C   UNL d   1       4.809  -5.873   0.235  0.00  0.00     0.063 A 
ATOM     20  N   UNL d   1       5.382  -6.407  -0.916  0.00  0.00    -0.292 N 
ATOM     21  N   UNL d   1       6.428  -7.168  -0.645  0.00  0.00    -0.061 NA
ATOM     22  HN  UNL d   1       5.034  -6.231  -1.859  1.00  0.00     0.183 HD
ATOM     23  S   UNL d   1       6.745  -7.276   0.992  0.00  0.00    -0.010 SA
ATOM     24  C   UNL d   1       5.431  -6.256   1.413  0.00  0.00     0.096 A 
ENDBRANCH   1  19
TORSDOF 6
