REMARK  4 active torsions:
REMARK  status: ('A' for Active; 'I' for Inactive)
REMARK    1  A    between atoms: C_2  and  C_1 
REMARK       I    between atoms: N_4  and  C_2 
REMARK    2  A    between atoms: C_5  and  C_3 
REMARK    3  A    between atoms: C_6  and  N_4 
REMARK    4  A    between atoms: S_18  and  C_10 
ROOT
ATOM      1  C   UNL d   1       0.735   1.225  -0.320  0.00  0.00     0.062 A 
ATOM      2  C   UNL d   1      -0.299   0.652   0.425  0.00  0.00     0.067 A 
ATOM      3  C   UNL d   1       1.311   0.451  -1.326  0.00  0.00     0.106 A 
ATOM      4  N   UNL d   1       0.890  -0.786  -1.683  0.00  0.00    -0.360 N 
ATOM      5  HN  UNL d   1       1.344  -1.302  -2.438  1.00  0.00     0.166 HD
ATOM      6  C   UNL d   1      -0.147  -1.308  -1.006  0.00  0.00     0.070 A 
ATOM      7  C   UNL d   1      -0.753  -0.630   0.045  0.00  0.00     0.054 A 
ENDROOT
BRANCH   1   8
ATOM      8  C   UNL d   1       1.317   2.577  -0.144  0.00  0.00     0.258 C 
ATOM      9  N   UNL d   1       0.431   3.625   0.041  0.00  0.00    -0.322 N 
ATOM     10  H   UNL d   1      -0.537   3.453  -0.187  0.00  0.00     0.169 HD
ATOM     11  O   UNL d   1       2.533   2.680  -0.298  0.00  0.00    -0.267 OA
BRANCH   9  12
ATOM     12  C   UNL d   1       0.839   4.982   0.095  0.00  0.00     0.046 A 
ATOM     13  C   UNL d   1       0.111   5.940  -0.653  0.00  0.00    -0.035 A 
ATOM     14  C   UNL d   1       0.581   7.266  -0.716  0.00  0.00     0.009 A 
ATOM     15  C   UNL d   1      -1.106   5.632  -1.486  0.00  0.00     0.050 C 
ATOM     16  C   UNL d   1       1.719   7.660  -0.021  0.00  0.00     0.001 A 
ATOM     17  C   UNL d   1       2.381   6.741   0.780  0.00  0.00     0.009 A 
ATOM     18  C   UNL d   1       1.940   5.408   0.872  0.00  0.00    -0.035 A 
ATOM     19  C   UNL d   1       2.660   4.541   1.875  0.00  0.00     0.050 C 
ENDBRANCH   9  12
ENDBRANCH   1   8
BRANCH   2  20
ATOM     20  C   UNL d   1      -0.955   1.288   1.618  0.00  0.00     0.418 C 
ATOM     21  F   UNL d   1      -0.286   2.326   2.167  0.00  0.00    -0.166 F 
ATOM     22  F   UNL d   1      -2.193   1.755   1.307  0.00  0.00    -0.166 F 
ATOM     23  F   UNL d   1      -1.137   0.398   2.635  0.00  0.00    -0.166 F 
ENDBRANCH   2  20
BRANCH   6  24
ATOM     24  S   UNL d   1      -0.775  -2.903  -1.487  0.00  0.00    -0.117 SA
ATOM     25  C   UNL d   1       0.340  -3.302  -2.861  0.00  0.00     0.097 C 
ENDBRANCH   6  24
TORSDOF 4
