REMARK  4 active torsions:
REMARK  status: ('A' for Active; 'I' for Inactive)
REMARK    1  A    between atoms: C_3  and  C_1 
REMARK       I    between atoms: C_2  and  N_5 
REMARK    2  A    between atoms: O_14  and  C_2 
REMARK    3  A    between atoms: N_8  and  C_4 
REMARK    4  A    between atoms: N_5  and  N_8 
ROOT
ATOM      1  C   UNL d   1       0.624   1.412  -0.362  0.00  0.00     0.052 A 
ATOM      2  C   UNL d   1       1.023   3.784  -0.154  0.00  0.00     0.099 A 
ATOM      3  N   UNL d   1       0.107   4.065  -1.110  0.00  0.00    -0.356 N 
ATOM      4  HN  UNL d   1      -0.061   5.023  -1.417  1.00  0.00     0.166 HD
ATOM      5  C   UNL d   1       1.297   2.479   0.241  0.00  0.00     0.060 A 
ATOM      6  C   UNL d   1      -0.578   3.029  -1.643  0.00  0.00     0.090 A 
ATOM      7  C   UNL d   1      -0.356   1.703  -1.312  0.00  0.00     0.033 A 
ENDROOT
BRANCH   2   8
ATOM      8  N   UNL d   1       1.796   4.808   0.428  0.00  0.00    -0.186 NA
ATOM      9  H   UNL d   1       1.663   4.862   1.438  0.00  0.00     0.154 HD
BRANCH   8  10
ATOM     10  N   UNL d   1       1.661   6.063  -0.197  0.00  0.00    -0.261 N 
ATOM     11  C   UNL d   1       2.659   6.968   0.078  0.00  0.00     0.375 C 
ATOM     12  O   UNL d   1       3.346   6.959   1.094  0.00  0.00    -0.237 OA
ATOM     13  H   UNL d   1       1.284   6.034  -1.142  0.00  0.00     0.186 HD
BRANCH  11  14
ATOM     14  O   UNL d   1       2.802   7.847  -0.947  0.00  0.00    -0.308 OA
ATOM     15  C   UNL d   1       3.911   8.729  -0.779  0.00  0.00     0.215 C 
ENDBRANCH  11  14
ENDBRANCH   8  10
ENDBRANCH   2   8
BRANCH   1  16
ATOM     16  C   UNL d   1       0.968  -0.010  -0.023  0.00  0.00     0.417 C 
ATOM     17  F   UNL d   1       1.985  -0.126   0.875  0.00  0.00    -0.166 F 
ATOM     18  F   UNL d   1       1.354  -0.725  -1.116  0.00  0.00    -0.166 F 
ATOM     19  F   UNL d   1      -0.085  -0.687   0.515  0.00  0.00    -0.166 F 
ENDBRANCH   1  16
TORSDOF 4
