REMARK  6 active torsions:
REMARK  status: ('A' for Active; 'I' for Inactive)
REMARK    1  A    between atoms: O_10  and  C_1 
REMARK    2  A    between atoms: N_2  and  C_3 
REMARK       I    between atoms: C_4  and  N_2 
REMARK    3  A    between atoms: C_7  and  C_4 
REMARK    4  A    between atoms: C_8  and  C_9 
REMARK    5  A    between atoms: O_20  and  C_8 
REMARK    6  A    between atoms: C_11  and  O_10 
ROOT
ATOM      1  C   UNL d   1       6.775  -1.510  -3.379  0.00  0.00     0.052 A 
ATOM      2  C   UNL d   1       5.505  -0.972  -3.108  0.00  0.00     0.040 A 
ATOM      3  C   UNL d   1       5.206  -0.441  -1.851  0.00  0.00     0.058 A 
ATOM      4  C   UNL d   1       6.167  -0.456  -0.840  0.00  0.00     0.079 A 
ATOM      5  C   UNL d   1       7.758  -1.418  -2.391  0.00  0.00     0.034 A 
ATOM      6 BR   UNL d   1       4.121  -0.983  -4.415  0.00  0.00    -0.049 Br
ATOM      7  C   UNL d   1       7.459  -0.887  -1.130  0.00  0.00     0.039 A 
ENDROOT
BRANCH   1   8
ATOM      8  N   UNL d   1       6.975  -2.197  -4.599  0.00  0.00    -0.322 N 
ATOM      9  C   UNL d   1       8.120  -2.822  -5.028  0.00  0.00     0.245 C 
ATOM     10  O   UNL d   1       9.251  -2.743  -4.566  0.00  0.00    -0.268 OA
ATOM     11  H   UNL d   1       6.154  -2.279  -5.184  0.00  0.00     0.169 HD
BRANCH   9  12
ATOM     12  C   UNL d   1       7.841  -3.753  -6.146  0.00  0.00     0.081 C 
ATOM     13  C   UNL d   1       8.448  -3.679  -7.337  0.00  0.00     0.086 C 
BRANCH  13  14
ATOM     14  C   UNL d   1       9.347  -2.605  -7.764  0.00  0.00     0.165 C 
ATOM     15  O   UNL d   1      10.268  -2.746  -8.548  0.00  0.00    -0.647 OA
BRANCH  14  16
ATOM     16  O   UNL d   1       8.963  -1.399  -7.321  0.00  0.00    -0.773 OA
ATOM     17  H   UNL d   1       9.640  -0.789  -7.679  0.00  0.00     0.167 HD
ENDBRANCH  14  16
ENDBRANCH  13  14
ENDBRANCH   9  12
ENDBRANCH   1   8
BRANCH   4  18
ATOM     18  O   UNL d   1       5.735  -0.029   0.381  0.00  0.00    -0.255 OA
BRANCH  18  19
ATOM     19  C   UNL d   1       6.337  -0.649   1.512  0.00  0.00     0.530 C 
ATOM     20  F   UNL d   1       6.658  -1.942   1.285  0.00  0.00    -0.144 F 
ATOM     21  F   UNL d   1       5.457  -0.618   2.538  0.00  0.00    -0.144 F 
ATOM     22  F   UNL d   1       7.444   0.029   1.879  0.00  0.00    -0.144 F 
ENDBRANCH  18  19
ENDBRANCH   4  18
TORSDOF 6
