REMARK  2 active torsions:
REMARK  status: ('A' for Active; 'I' for Inactive)
REMARK    1  A    between atoms: N_11  and  N_4 
REMARK    2  A    between atoms: C_21  and  C_19 
ROOT
ATOM      1  C   UNL d   1       1.227   0.866  -0.029  0.00  0.00     0.104 A 
ATOM      2  C   UNL d   1       0.745  -0.411  -0.032  0.00  0.00     0.070 A 
ATOM      3  C   UNL d   1       2.626   1.179   0.025  0.00  0.00     0.287 C 
ATOM      4  N   UNL d   1       3.420   0.026   0.247  0.00  0.00    -0.207 N 
ATOM      5  N   UNL d   1       1.599  -1.518  -0.020  0.00  0.00    -0.343 N 
ATOM      6  HN  UNL d   1       1.253  -2.473  -0.119  1.00  0.00     0.167 HD
ATOM      7  S   UNL d   1      -0.008   2.021  -0.054  0.00  0.00    -0.064 SA
ATOM      8  C   UNL d   1      -0.683  -0.493  -0.038  0.00  0.00     0.032 A 
ATOM      9  C   UNL d   1      -1.209   0.801  -0.043  0.00  0.00     0.088 A 
ATOM     10  C   UNL d   1       2.867  -1.250   0.127  0.00  0.00     0.103 C 
ATOM     11  N   UNL d   1      -2.510   1.150  -0.036  0.00  0.00    -0.354 N 
ATOM     12  HN  UNL d   1      -2.820   2.122  -0.037  1.00  0.00     0.166 HD
ATOM     13  C   UNL d   1      -1.615  -1.563  -0.031  0.00  0.00    -0.045 A 
ATOM     14  O   UNL d   1       3.068   2.316  -0.117  0.00  0.00    -0.265 OA
ATOM     15  C   UNL d   1      -2.978  -1.220  -0.025  0.00  0.00     0.032 A 
ATOM     16  C   UNL d   1      -3.370   0.115  -0.026  0.00  0.00     0.006 A 
ATOM     17  C   UNL d   1       3.786  -2.453   0.176  0.00  0.00     0.091 C 
ATOM     18  C   UNL d   1      -1.258  -3.025  -0.022  0.00  0.00     0.049 C 
ATOM     19  C   UNL d   1      -4.834   0.449  -0.014  0.00  0.00     0.068 C 
ENDROOT
BRANCH   4  20
ATOM     20  N   UNL d   1       4.805   0.135   0.456  0.00  0.00    -0.300 N 
ATOM     21  C   UNL d   1       5.197   1.150   1.164  0.00  0.00     0.119 C 
ATOM     22  HN  UNL d   1       5.464  -0.544   0.073  1.00  0.00     0.186 HD
BRANCH  21  23
ATOM     23  C   UNL d   1       6.610   1.467   1.458  0.00  0.00    -0.019 A 
ATOM     24  C   UNL d   1       7.667   0.677   1.004  0.00  0.00     0.013 A 
ATOM     25  C   UNL d   1       8.978   1.017   1.351  0.00  0.00     0.001 A 
ATOM     26  C   UNL d   1       9.229   2.140   2.146  0.00  0.00     0.000 A 
ATOM     27  C   UNL d   1       8.172   2.936   2.586  0.00  0.00     0.001 A 
ATOM     28  C   UNL d   1       6.864   2.601   2.241  0.00  0.00     0.013 A 
ENDBRANCH  21  23
ENDBRANCH   4  20
TORSDOF 2
