REMARK  5 active torsions:
REMARK  status: ('A' for Active; 'I' for Inactive)
REMARK    1  A    between atoms: C3_5  and  C1_2 
REMARK    2  A    between atoms: C2_3  and  C5_7 
REMARK    3  A    between atoms: C6_8  and  C4_6 
REMARK    4  A    between atoms: O3_12  and  C5_7 
REMARK    5  A    between atoms: O4_13  and  C6_8 
ROOT
ATOM      1  N1  <1> d   1      -0.234  -0.998  -1.880  0.00  0.00     0.117 N 
ATOM      2  C1  <1> d   1       0.042  -1.123  -0.445  0.00  0.00     0.317 C 
ATOM      3  C2  <1> d   1      -0.732   0.396  -2.136  0.00  0.00     0.328 C 
ATOM      4  S1  <1> d   1      -1.189  -0.172   0.448  0.00  0.00    -0.126 SA
ATOM      5  C7  <1> d   1      -1.373   1.028  -0.898  0.00  0.00     0.123 C 
ATOM      6  H3  <1> d   1      -1.021  -1.615  -2.106  0.00  0.00     0.319 HD
ENDROOT
BRANCH   2   7
ATOM      7  C3  <1> d   1       0.190  -2.554   0.033  0.00  0.00     0.001 A 
ATOM      8  C4  <1> d   1      -0.739  -3.600  -0.176  0.00  0.00     0.046 A 
ATOM      9  C9  <1> d   1      -0.438  -4.913   0.234  0.00  0.00     0.019 A 
ATOM     10  C10 <1> d   1       0.766  -5.205   0.868  0.00  0.00     0.001 A 
ATOM     11  C11 <1> d   1       1.680  -4.188   1.105  0.00  0.00     0.001 A 
ATOM     12  C8  <1> d   1       1.393  -2.881   0.699  0.00  0.00     0.011 A 
BRANCH   8  13
ATOM     13  C6  <1> d   1      -2.019  -3.472  -0.909  0.00  0.00     0.176 C 
ATOM     14  O2  <1> d   1      -2.340  -4.231  -1.804  0.00  0.00    -0.646 OA
BRANCH  13  15
ATOM     15  O4  <1> d   1      -2.805  -2.458  -0.500  0.00  0.00    -0.773 OA
ATOM     16  H7  <1> d   1      -2.470  -1.949   0.267  0.00  0.00     0.167 HD
ENDBRANCH  13  15
ENDBRANCH   8  13
ENDBRANCH   2   7
BRANCH   3  17
ATOM     17  C5  <1> d   1       0.417   1.265  -2.657  0.00  0.00     0.175 C 
ATOM     18  O1  <1> d   1       0.350   2.470  -2.838  0.00  0.00    -0.648 OA
BRANCH  17  19
ATOM     19  O3  <1> d   1       1.529   0.535  -2.923  0.00  0.00    -0.775 OA
ATOM     20  H6  <1> d   1       1.310  -0.410  -2.740  0.00  0.00     0.167 HD
ENDBRANCH  17  19
ENDBRANCH   3  17
TORSDOF 5
