REMARK  10 active torsions:
REMARK  status: ('A' for Active; 'I' for Inactive)
REMARK    1  A    between atoms: C_2  and  S_1 
REMARK    2  A    between atoms: N_3  and  S_1 
REMARK    3  A    between atoms: C_13  and  N_3 
REMARK    4  A    between atoms: O_5  and  C_6 
REMARK    5  A    between atoms: C_14  and  O_5 
REMARK    6  A    between atoms: C_7  and  C_14 
REMARK    7  A    between atoms: O_21  and  C_7 
REMARK    8  A    between atoms: O_23  and  C_12 
REMARK    9  A    between atoms: O_24  and  C_18 
REMARK   10  A    between atoms: C_26  and  O_21 
ROOT
ATOM      1  C   UNL d   1       1.643  -3.611  -4.116  0.00  0.00     0.091 A 
ATOM      2  C   UNL d   1       0.368  -3.867  -3.581  0.00  0.00     0.069 A 
ATOM      3  C   UNL d   1      -0.098  -3.167  -2.463  0.00  0.00     0.056 A 
ATOM      4  C   UNL d   1       0.718  -2.211  -1.869  0.00  0.00     0.044 A 
ATOM      5  C   UNL d   1       2.439  -2.633  -3.516  0.00  0.00     0.041 A 
ATOM      6 CL   UNL d   1      -0.684  -5.035  -4.302  0.00  0.00    -0.081 Cl
ATOM      7  C   UNL d   1       1.976  -1.936  -2.398  0.00  0.00     0.033 A 
ENDROOT
BRANCH   4   8
ATOM      8  N   UNL d   1       0.297  -1.496  -0.720  0.00  0.00    -0.280 N 
ATOM      9  H   UNL d   1      -0.532  -0.909  -0.793  0.00  0.00     0.179 HD
BRANCH   8  10
ATOM     10  S   UNL d   1       0.425  -2.232   0.791  0.00  0.00     0.266 S 
ATOM     11  O   UNL d   1      -0.166  -1.327   1.759  0.00  0.00    -0.200 OA
ATOM     12  O   UNL d   1      -0.095  -3.578   0.665  0.00  0.00    -0.200 OA
BRANCH  10  13
ATOM     13  C   UNL d   1       2.167  -2.316   1.123  0.00  0.00     0.115 A 
ATOM     14  C   UNL d   1       2.659  -3.597   1.468  0.00  0.00     0.065 A 
ATOM     15  C   UNL d   1       4.024  -3.825   1.623  0.00  0.00     0.069 A 
ATOM     16  C   UNL d   1       4.905  -2.762   1.462  0.00  0.00     0.039 A 
ATOM     17  C   UNL d   1       4.424  -1.488   1.132  0.00  0.00     0.041 A 
ATOM     18  C   UNL d   1       3.054  -1.246   0.960  0.00  0.00     0.091 A 
BRANCH  15  19
ATOM     19  O   UNL d   1       4.615  -5.025   1.904  0.00  0.00    -0.356 OA
ATOM     20  C   UNL d   1       3.764  -6.163   2.005  0.00  0.00     0.210 C 
ENDBRANCH  15  19
BRANCH  18  21
ATOM     21  O   UNL d   1       2.804   0.011   0.484  0.00  0.00    -0.354 OA
ATOM     22  C   UNL d   1       1.771   0.767   1.104  0.00  0.00     0.210 C 
ENDBRANCH  18  21
ENDBRANCH  10  13
ENDBRANCH   8  10
ENDBRANCH   4   8
BRANCH   1  23
ATOM     23  O   UNL d   1       2.064  -4.403  -5.151  0.00  0.00    -0.335 OA
BRANCH  23  24
ATOM     24  C   UNL d   1       2.925  -3.828  -6.129  0.00  0.00     0.224 C 
ATOM     25  C   UNL d   1       2.627  -4.556  -7.440  0.00  0.00     0.051 C 
BRANCH  24  26
ATOM     26  C   UNL d   1       4.427  -3.930  -5.810  0.00  0.00     0.288 C 
ATOM     27  O   UNL d   1       4.910  -4.326  -4.758  0.00  0.00    -0.262 OA
BRANCH  26  28
ATOM     28  O   UNL d   1       5.140  -3.365  -6.831  0.00  0.00    -0.320 OA
BRANCH  28  29
ATOM     29  C   UNL d   1       6.494  -3.003  -6.529  0.00  0.00     0.174 C 
ATOM     30  C   UNL d   1       6.486  -1.585  -5.989  0.00  0.00     0.034 C 
ENDBRANCH  28  29
ENDBRANCH  26  28
ENDBRANCH  24  26
ENDBRANCH  23  24
ENDBRANCH   1  23
TORSDOF 10
