REMARK  5 active torsions:
REMARK  status: ('A' for Active; 'I' for Inactive)
REMARK    1  A    between atoms: C_9  and  C_4 
REMARK    2  A    between atoms: N_5  and  C_11 
REMARK    3  A    between atoms: O_21  and  C_10 
REMARK    4  A    between atoms: O_23  and  C_12 
REMARK    5  A    between atoms: O_22  and  C_13 
ROOT
ATOM      1  C   UNL d   1       0.864  -0.459  -2.709  0.00  0.00     0.060 A 
ATOM      2  N   UNL d   1       0.909  -2.267  -1.110  0.00  0.00    -0.332 N 
ATOM      3  C   UNL d   1       0.225  -1.647  -2.116  0.00  0.00     0.255 C 
ATOM      4  C   UNL d   1       1.923  -1.597  -0.354  0.00  0.00     0.219 C 
ATOM      5  N   UNL d   1       2.776  -0.845  -1.251  0.00  0.00    -0.364 N 
ATOM      6  C   UNL d   1       2.120  -0.070  -2.211  0.00  0.00     0.045 A 
ATOM      7  C   UNL d   1       0.256   0.209  -3.779  0.00  0.00     0.055 A 
ATOM      8  C   UNL d   1       0.925   1.284  -4.368  0.00  0.00     0.104 A 
ATOM      9  O   UNL d   1      -0.853  -2.069  -2.515  0.00  0.00    -0.268 OA
ATOM     10  C   UNL d   1       2.771   1.010  -2.818  0.00  0.00     0.032 A 
ATOM     11  C   UNL d   1       2.175   1.696  -3.884  0.00  0.00     0.038 A 
ATOM     12  H   UNL d   1       0.417  -3.035  -0.680  0.00  0.00     0.165 HD
ATOM     13  H   UNL d   1       3.554  -0.392  -0.785  0.00  0.00     0.162 HD
ENDROOT
BRANCH   4  14
ATOM     14  C   UNL d   1       2.752  -2.603   0.412  0.00  0.00    -0.011 A 
ATOM     15  C   UNL d   1       2.818  -2.572   1.812  0.00  0.00     0.050 A 
ATOM     16  C   UNL d   1       3.556  -3.528   2.533  0.00  0.00     0.104 A 
ATOM     17  C   UNL d   1       4.257  -4.541   1.839  0.00  0.00     0.135 A 
ATOM     18  C   UNL d   1       4.165  -4.589   0.432  0.00  0.00     0.104 A 
ATOM     19  C   UNL d   1       3.447  -3.613  -0.264  0.00  0.00     0.050 A 
BRANCH  16  20
ATOM     20  O   UNL d   1       3.617  -3.524   3.902  0.00  0.00    -0.353 OA
ATOM     21  C   UNL d   1       2.901  -2.537   4.628  0.00  0.00     0.210 C 
ENDBRANCH  16  20
BRANCH  17  22
ATOM     22  O   UNL d   1       5.069  -5.496   2.393  0.00  0.00    -0.351 OA
ATOM     23  C   UNL d   1       5.277  -5.551   3.793  0.00  0.00     0.210 C 
ENDBRANCH  17  22
BRANCH  18  24
ATOM     24  O   UNL d   1       4.773  -5.506  -0.393  0.00  0.00    -0.353 OA
ATOM     25  C   UNL d   1       4.761  -6.854   0.069  0.00  0.00     0.210 C 
ENDBRANCH  18  24
ENDBRANCH   4  14
BRANCH   8  26
ATOM     26  N   UNL d   1       0.333   1.964  -5.527  0.00  0.00    -0.116 N 
ATOM     27  O   UNL d   1      -0.756   1.549  -5.946  0.00  0.00    -0.532 OA
ATOM     28  O   UNL d   1       0.960   2.914  -6.017  0.00  0.00    -0.532 OA
ENDBRANCH   8  26
TORSDOF 5
