REMARK  11 active torsions:
REMARK  status: ('A' for Active; 'I' for Inactive)
REMARK       I    between atoms: N_2  and  C_1 
REMARK       I    between atoms: N_3  and  C_1 
REMARK    1  A    between atoms: C_4  and  N_2 
REMARK    2  A    between atoms: C_6  and  N_2 
REMARK    3  A    between atoms: C_10  and  N_3 
REMARK    4  A    between atoms: C_9  and  C_4 
REMARK    5  A    between atoms: C_11  and  C_6 
REMARK    6  A    between atoms: C_26  and  C_14 
REMARK    7  A    between atoms: C_27  and  C_26 
REMARK    8  A    between atoms: C_30  and  C_27 
REMARK    9  A    between atoms: C_28  and  C_29 
REMARK   10  A    between atoms: C_29  and  C_31 
REMARK   11  A    between atoms: C_31  and  C_30 
ROOT
ATOM      1  C   UNL d   1       0.796   0.091  -0.579  0.00  0.00     0.323 C 
ATOM      2  N   UNL d   1       2.177   0.126  -0.795  0.00  0.00    -0.325 N 
ATOM      3  N   UNL d   1       0.145  -1.121  -0.644  0.00  0.00    -0.309 N 
ATOM      4  O   UNL d   1       0.193   1.151  -0.324  0.00  0.00    -0.247 OA
ATOM      5  H   UNL d   1       0.663  -1.921  -0.315  0.00  0.00     0.170 HD
ENDROOT
BRANCH   2   6
ATOM      6  C   UNL d   1       2.812   1.451  -0.730  0.00  0.00     0.168 C 
BRANCH   6   7
ATOM      7  C   UNL d   1       3.250   2.002   0.617  0.00  0.00    -0.025 A 
ATOM      8  C   UNL d   1       4.011   3.178   0.607  0.00  0.00     0.096 A 
ATOM      9  N   UNL d   1       4.286   3.946   1.689  0.00  0.00    -0.375 N 
ATOM     10  C   UNL d   1       3.772   3.533   2.862  0.00  0.00     0.087 A 
ATOM     11  HN  UNL d   1       4.851   4.792   1.618  1.00  0.00     0.164 HD
ATOM     12  C   UNL d   1       3.070   2.347   3.008  0.00  0.00     0.018 A 
ATOM     13  C   UNL d   1       2.816   1.566   1.871  0.00  0.00     0.011 A 
ENDBRANCH   6   7
ENDBRANCH   2   6
BRANCH   2  14
ATOM     14  C   UNL d   1       2.998  -0.972  -1.310  0.00  0.00     0.166 C 
BRANCH  14  15
ATOM     15  C   UNL d   1       3.135  -1.130  -2.824  0.00  0.00    -0.040 A 
ATOM     16  C   UNL d   1       2.421  -0.390  -3.777  0.00  0.00     0.010 A 
ATOM     17  C   UNL d   1       2.609  -0.615  -5.154  0.00  0.00     0.024 A 
ATOM     18  C   UNL d   1       3.508  -1.584  -5.594  0.00  0.00     0.034 A 
ATOM     19  C   UNL d   1       4.228  -2.331  -4.672  0.00  0.00     0.024 A 
ATOM     20 CL   UNL d   1       3.731  -1.861  -7.280  0.00  0.00    -0.084 Cl
ATOM     21  C   UNL d   1       4.042  -2.103  -3.301  0.00  0.00     0.010 A 
ENDBRANCH  14  15
ENDBRANCH   2  14
BRANCH   3  22
ATOM     22  C   UNL d   1      -1.280  -1.224  -0.566  0.00  0.00     0.036 A 
ATOM     23  C   UNL d   1      -2.118  -0.274  -1.163  0.00  0.00     0.030 A 
ATOM     24  C   UNL d   1      -3.514  -0.339  -1.041  0.00  0.00     0.009 A 
ATOM     25  C   UNL d   1      -4.120  -1.360  -0.303  0.00  0.00    -0.058 A 
ATOM     26  C   UNL d   1      -3.290  -2.346   0.256  0.00  0.00     0.009 A 
ATOM     27  C   UNL d   1      -1.889  -2.290   0.114  0.00  0.00     0.030 A 
BRANCH  25  28
ATOM     28  C   UNL d   1      -5.625  -1.361  -0.097  0.00  0.00     0.038 C 
BRANCH  28  29
ATOM     29  C   UNL d   1      -5.996  -1.079   1.364  0.00  0.00     0.005 C 
BRANCH  29  30
ATOM     30  C   UNL d   1      -7.508  -1.025   1.616  0.00  0.00     0.000 C 
BRANCH  30  31
ATOM     31  C   UNL d   1      -7.778  -0.789   3.107  0.00  0.00     0.000 C 
BRANCH  31  32
ATOM     32  C   UNL d   1      -9.271  -0.733   3.423  0.00  0.00    -0.000 C 
BRANCH  32  33
ATOM     33  C   UNL d   1      -9.513  -0.498   4.915  0.00  0.00    -0.005 C 
ATOM     34  C   UNL d   1     -11.000  -0.439   5.224  0.00  0.00     0.005 C 
ENDBRANCH  32  33
ENDBRANCH  31  32
ENDBRANCH  30  31
ENDBRANCH  29  30
ENDBRANCH  28  29
ENDBRANCH  25  28
ENDBRANCH   3  22
TORSDOF 11
