REMARK  5 active torsions:
REMARK  status: ('A' for Active; 'I' for Inactive)
REMARK    1  A    between atoms: C_2  and  S_1 
REMARK    2  A    between atoms: C_5  and  S_1 
REMARK    3  A    between atoms: C_3  and  C_2 
REMARK    4  A    between atoms: C_4  and  C_3 
REMARK       I    between atoms: N_8  and  C_4 
REMARK    5  A    between atoms: C_12  and  N_8 
ROOT
ATOM      1  C   UNL d   1       0.183  -1.028   0.768  0.00  0.00     0.118 C 
ATOM      2  C   UNL d   1       0.346  -2.520   1.063  0.00  0.00     0.027 C 
ENDROOT
BRANCH   1   3
ATOM      3  S   UNL d   1       0.702  -0.645  -0.893  0.00  0.00     0.179 S 
ATOM      4  O   UNL d   1      -0.323  -1.109  -1.806  0.00  0.00    -0.222 OA
ATOM      5  O   UNL d   1       2.062  -1.132  -1.046  0.00  0.00    -0.222 OA
BRANCH   3   6
ATOM      6  C   UNL d   1       0.787   1.127  -1.001  0.00  0.00     0.059 A 
ATOM      7  C   UNL d   1       2.014   1.763  -0.772  0.00  0.00     0.025 A 
ATOM      8  C   UNL d   1       2.125   3.143  -0.958  0.00  0.00     0.025 A 
ATOM      9  C   UNL d   1       1.016   3.877  -1.374  0.00  0.00     0.034 A 
ATOM     10  C   UNL d   1      -0.207   3.244  -1.604  0.00  0.00     0.025 A 
ATOM     11 CL   UNL d   1       1.165   5.573  -1.630  0.00  0.00    -0.084 Cl
ATOM     12  C   UNL d   1      -0.323   1.862  -1.429  0.00  0.00     0.025 A 
ENDBRANCH   3   6
ENDBRANCH   1   3
BRANCH   1  13
ATOM     13  C   UNL d   1      -1.188  -0.488   1.167  0.00  0.00     0.123 C 
BRANCH  13  14
ATOM     14  C   UNL d   1      -2.503  -0.807   0.451  0.00  0.00     0.223 C 
ATOM     15  N   UNL d   1      -2.513  -1.806  -0.488  0.00  0.00    -0.327 N 
ATOM     16  H   UNL d   1      -1.620  -2.116  -0.859  0.00  0.00     0.169 HD
ATOM     17  O   UNL d   1      -3.494  -0.164   0.801  0.00  0.00    -0.273 OA
BRANCH  15  18
ATOM     18  C   UNL d   1      -3.617  -2.272  -1.242  0.00  0.00     0.034 A 
ATOM     19  C   UNL d   1      -4.926  -1.803  -1.103  0.00  0.00     0.031 A 
ATOM     20  C   UNL d   1      -5.949  -2.291  -1.927  0.00  0.00     0.026 A 
ATOM     21  C   UNL d   1      -5.672  -3.265  -2.881  0.00  0.00     0.034 A 
ATOM     22  C   UNL d   1      -4.378  -3.758  -3.019  0.00  0.00     0.026 A 
ATOM     23 CL   UNL d   1      -6.928  -3.857  -3.895  0.00  0.00    -0.084 Cl
ATOM     24  C   UNL d   1      -3.356  -3.259  -2.205  0.00  0.00     0.031 A 
ENDBRANCH  15  18
ENDBRANCH  13  14
ENDBRANCH   1  13
TORSDOF 5
