REMARK  4 active torsions:
REMARK  status: ('A' for Active; 'I' for Inactive)
REMARK    1  A    between atoms: N_16  and  C_1 
REMARK    2  A    between atoms: C_20  and  C_3 
REMARK    3  A    between atoms: C_6  and  N_13 
REMARK    4  A    between atoms: C_17  and  C_7 
REMARK       I    between atoms: N_13  and  C_14 
REMARK       I    between atoms: C_14  and  N_16 
ROOT
ATOM      1  N   UNL d   1       1.488  -4.566   0.239  0.00  0.00    -0.287 N 
ATOM      2  C   UNL d   1       1.350  -3.275  -0.200  0.00  0.00     0.326 C 
ATOM      3  N   UNL d   1       0.428  -2.500   0.456  0.00  0.00    -0.304 N 
ATOM      4  O   UNL d   1       2.023  -2.905  -1.163  0.00  0.00    -0.247 OA
ATOM      5  H   UNL d   1       2.152  -5.135  -0.264  0.00  0.00     0.172 HD
ATOM      6  H   UNL d   1      -0.306  -3.027   0.924  0.00  0.00     0.171 HD
ENDROOT
BRANCH   3   7
ATOM      7  C   UNL d   1       0.052  -1.234   0.030  0.00  0.00     0.097 A 
ATOM      8  C   UNL d   1      -1.289  -0.774  -0.162  0.00  0.00     0.094 A 
ATOM      9  N   UNL d   1      -1.298   0.529  -0.478  0.00  0.00    -0.258 N 
ATOM     10  O   UNL d   1       0.022   0.925  -0.512  0.00  0.00    -0.240 OA
ATOM     11  HN  UNL d   1      -2.117   1.111  -0.656  1.00  0.00     0.195 HD
ATOM     12  C   UNL d   1       0.833  -0.125  -0.204  0.00  0.00     0.101 A 
ATOM     13  C   UNL d   1       2.263   0.214  -0.089  0.00  0.00     0.081 C 
BRANCH   8  14
ATOM     14  C   UNL d   1      -2.525  -1.550  -0.087  0.00  0.00    -0.005 A 
ATOM     15  C   UNL d   1      -3.673  -1.001   0.493  0.00  0.00     0.014 A 
ATOM     16  C   UNL d   1      -4.849  -1.750   0.584  0.00  0.00     0.001 A 
ATOM     17  C   UNL d   1      -4.888  -3.053   0.088  0.00  0.00     0.000 A 
ATOM     18  C   UNL d   1      -3.757  -3.604  -0.504  0.00  0.00     0.001 A 
ATOM     19  C   UNL d   1      -2.586  -2.857  -0.605  0.00  0.00     0.014 A 
ENDBRANCH   8  14
ENDBRANCH   3   7
BRANCH   1  20
ATOM     20  C   UNL d   1       0.861  -5.103   1.328  0.00  0.00     0.169 A 
ATOM     21  S   UNL d   1       1.311  -6.691   1.753  0.00  0.00    -0.037 SA
ATOM     22  C   UNL d   1       0.246  -6.537   3.094  0.00  0.00     0.074 A 
ATOM     23  N   UNL d   1      -0.399  -5.391   3.144  0.00  0.00    -0.296 N 
ATOM     24  N   UNL d   1      -0.046  -4.556   2.102  0.00  0.00    -0.279 N 
ATOM     25  HN  UNL d   1      -1.077  -5.148   3.866  1.00  0.00     0.187 HD
ATOM     26  HN  UNL d   1      -0.441  -3.628   1.952  1.00  0.00     0.189 HD
BRANCH  22  27
ATOM     27  C   UNL d   1       0.062  -7.644   4.133  0.00  0.00     0.044 A 
ATOM     28  C   UNL d   1      -1.299  -7.792   4.787  0.00  0.00     0.012 A 
ATOM     29  C   UNL d   1      -0.158  -7.264   5.585  0.00  0.00     0.012 A 
ENDBRANCH  22  27
ENDBRANCH   1  20
TORSDOF 4
