REMARK  3 active torsions:
REMARK  status: ('A' for Active; 'I' for Inactive)
REMARK    1  A    between atoms: S_2  and  C_1 
REMARK    2  A    between atoms: C_6  and  C_3 
REMARK    3  A    between atoms: C_4  and  C_5 
ROOT
ATOM      1  C   UNL d   1       1.112  -1.753   0.755  0.00  0.00     0.140 C 
ATOM      2  C   UNL d   1       0.321  -0.665   0.716  0.00  0.00     0.054 C 
ATOM      3  C   UNL d   1       0.658  -3.086   0.604  0.00  0.00     0.111 C 
ATOM      4  N   UNL d   1       0.272  -4.171   0.494  0.00  0.00    -0.191 NA
ENDROOT
BRANCH   1   5
ATOM      5  S   UNL d   1       2.811  -1.528   1.042  0.00  0.00     0.181 S 
ATOM      6  O   UNL d   1       3.560  -2.653   0.515  0.00  0.00    -0.222 OA
ATOM      7  O   UNL d   1       3.201  -0.175   0.686  0.00  0.00    -0.222 OA
ATOM      8  C   UNL d   1       2.917  -1.630   2.816  0.00  0.00     0.168 C 
ENDBRANCH   1   5
BRANCH   2   9
ATOM      9  C   UNL d   1      -1.099  -0.752   0.595  0.00  0.00     0.018 A 
ATOM     10  C   UNL d   1      -1.920  -0.776  -0.532  0.00  0.00     0.014 A 
ATOM     11  C   UNL d   1      -3.311  -0.780  -0.147  0.00  0.00     0.020 A 
ATOM     12  C   UNL d   1      -3.496  -0.819   1.214  0.00  0.00     0.051 A 
ATOM     13  S   UNL d   1      -2.018  -0.798   2.053  0.00  0.00    -0.101 SA
BRANCH  10  14
ATOM     14  C   UNL d   1      -1.471  -0.754  -1.978  0.00  0.00     0.295 C 
ATOM     15  O   UNL d   1      -2.415  -1.409  -2.847  0.00  0.00    -0.355 OA
ATOM     16  C   UNL d   1      -1.736  -2.558  -3.346  0.00  0.00     0.197 C 
ATOM     17  C   UNL d   1      -0.282  -2.181  -3.290  0.00  0.00     0.197 C 
ATOM     18  O   UNL d   1      -0.175  -1.350  -2.141  0.00  0.00    -0.355 OA
ENDBRANCH  10  14
ENDBRANCH   2   9
TORSDOF 3
