REMARK  7 active torsions:
REMARK  status: ('A' for Active; 'I' for Inactive)
REMARK    1  A    between atoms: C_3  and  O_16 
REMARK    2  A    between atoms: C_17  and  C_7 
REMARK    3  A    between atoms: C_24  and  C_17 
REMARK    4  A    between atoms: O_22  and  C_18 
REMARK    5  A    between atoms: C_23  and  C_24 
REMARK    6  A    between atoms: C_26  and  C_23 
REMARK    7  A    between atoms: C_27  and  C_26 
ROOT
ATOM      1  C   UNL d   1      12.392   4.072  -7.536  0.00  0.00    -0.036 C 
ATOM      2  C   UNL d   1      11.050   4.513  -3.318  0.00  0.00    -0.009 C 
ATOM      3  C   UNL d   1      11.551   3.479  -2.213  0.00  0.00     0.068 C 
ATOM      4  C   UNL d   1      13.102   3.418  -6.309  0.00  0.00    -0.002 C 
ATOM      5  C   UNL d   1      11.008   3.871  -4.773  0.00  0.00     0.001 C 
ATOM      6  C   UNL d   1      12.182   2.934  -5.178  0.00  0.00    -0.005 C 
ATOM      7  C   UNL d   1      12.601   3.012  -8.662  0.00  0.00    -0.002 C 
ATOM      8  C   UNL d   1      10.889   4.310  -7.287  0.00  0.00     0.010 C 
ATOM      9  C   UNL d   1      10.628   4.869  -5.897  0.00  0.00     0.007 C 
ATOM     10  C   UNL d   1      13.935   2.239  -6.883  0.00  0.00     0.006 C 
ATOM     11  C   UNL d   1      10.470   2.963  -1.253  0.00  0.00     0.070 C 
ATOM     12  C   UNL d   1       9.590   5.000  -3.013  0.00  0.00     0.015 C 
ATOM     13  C   UNL d   1      14.000   2.476  -8.385  0.00  0.00     0.006 C 
ATOM     14  C   UNL d   1      13.046   2.472  -4.003  0.00  0.00     0.008 C 
ATOM     15  C   UNL d   1      12.199   2.203  -2.789  0.00  0.00     0.039 C 
ATOM     16  C   UNL d   1       9.495   3.976  -0.684  0.00  0.00     0.121 C 
ATOM     17  C   UNL d   1      13.097   5.427  -7.773  0.00  0.00     0.016 C 
ATOM     18  C   UNL d   1       9.235   5.196  -1.549  0.00  0.00     0.032 C 
ATOM     19  C   UNL d   1      11.957   5.779  -3.339  0.00  0.00     0.019 C 
ENDROOT
BRANCH   7  20
ATOM     20  C   UNL d   1      12.288   3.323 -10.149  0.00  0.00    -0.014 C 
ATOM     21  C   UNL d   1      13.122   4.439 -10.784  0.00  0.00     0.010 C 
BRANCH  20  22
ATOM     22  C   UNL d   1      12.442   2.061 -11.048  0.00  0.00     0.005 C 
BRANCH  22  23
ATOM     23  C   UNL d   1      11.750   0.774 -10.570  0.00  0.00     0.001 C 
BRANCH  23  24
ATOM     24  C   UNL d   1      10.236   0.922 -10.417  0.00  0.00     0.004 C 
BRANCH  24  25
ATOM     25  C   UNL d   1       9.543  -0.352  -9.902  0.00  0.00    -0.023 C 
ATOM     26  C   UNL d   1       9.988  -0.730  -8.487  0.00  0.00     0.009 C 
ATOM     27  C   UNL d   1       8.026  -0.149  -9.924  0.00  0.00     0.009 C 
ENDBRANCH  24  25
ENDBRANCH  23  24
ENDBRANCH  22  23
ENDBRANCH  20  22
ENDBRANCH   7  20
BRANCH   3  28
ATOM     28  O   UNL d   1      12.553   4.104  -1.381  0.00  0.00    -0.389 OA
ATOM     29  H   UNL d   1      13.371   4.192  -1.886  0.00  0.00     0.210 HD
ENDBRANCH   3  28
BRANCH  16  30
ATOM     30  O   UNL d   1       8.252   3.292  -0.453  0.00  0.00    -0.395 OA
ATOM     31  H   UNL d   1       7.955   2.916  -1.302  0.00  0.00     0.210 HD
ENDBRANCH  16  30
TORSDOF 7
