REMARK  9 active torsions:
REMARK  status: ('A' for Active; 'I' for Inactive)
REMARK    1  A    between atoms: C_3  and  N_1 
REMARK       I    between atoms: C_2  and  N_7 
REMARK       I    between atoms: N_5  and  C_2 
REMARK    2  A    between atoms: C_15  and  N_5 
REMARK    3  A    between atoms: N_7  and  C_19 
REMARK    4  A    between atoms: C_8  and  C_9 
REMARK    5  A    between atoms: O_16  and  C_18 
REMARK    6  A    between atoms: C_20  and  O_16 
REMARK    7  A    between atoms: C_17  and  C_20 
REMARK    8  A    between atoms: C_19  and  C_17 
REMARK    9  A    between atoms: O_25  and  C_17 
ROOT
ATOM      1  C   UNL d   1      -2.877   6.957   1.475  0.00  0.00     0.320 C 
ATOM      2  N   UNL d   1      -2.531   8.256   1.748  0.00  0.00    -0.309 N 
ATOM      3  N   UNL d   1      -3.063   6.717   0.134  0.00  0.00    -0.340 N 
ATOM      4  O   UNL d   1      -3.027   6.055   2.293  0.00  0.00    -0.247 OA
ATOM      5  H   UNL d   1      -2.327   8.851   0.961  0.00  0.00     0.170 HD
ATOM      6  H   UNL d   1      -2.872   7.456  -0.526  0.00  0.00     0.164 HD
ENDROOT
BRANCH   3   7
ATOM      7  C   UNL d   1      -3.216   5.354  -0.375  0.00  0.00     0.158 C 
BRANCH   7   8
ATOM      8  C   UNL d   1      -4.585   4.697  -0.096  0.00  0.00     0.160 C 
BRANCH   8   9
ATOM      9  C   UNL d   1      -5.736   5.575  -0.594  0.00  0.00     0.209 C 
BRANCH   9  10
ATOM     10  O   UNL d   1      -6.964   4.853  -0.468  0.00  0.00    -0.349 OA
BRANCH  10  11
ATOM     11  C   UNL d   1      -8.102   5.511  -0.838  0.00  0.00     0.069 A 
ATOM     12  C   UNL d   1      -9.197   4.680  -1.089  0.00  0.00     0.039 A 
ATOM     13  C   UNL d   1     -10.423   5.219  -1.482  0.00  0.00     0.039 A 
ATOM     14  C   UNL d   1     -10.553   6.604  -1.608  0.00  0.00     0.103 A 
ATOM     15  C   UNL d   1      -9.469   7.449  -1.333  0.00  0.00     0.039 A 
ATOM     16  C   UNL d   1      -8.245   6.897  -0.947  0.00  0.00     0.039 A 
BRANCH  14  17
ATOM     17  N   UNL d   1     -11.835   7.181  -2.022  0.00  0.00    -0.116 N 
ATOM     18  O   UNL d   1     -11.920   8.417  -2.090  0.00  0.00    -0.532 OA
ATOM     19  O   UNL d   1     -12.761   6.401  -2.288  0.00  0.00    -0.532 OA
ENDBRANCH  14  17
ENDBRANCH  10  11
ENDBRANCH   9  10
ENDBRANCH   8   9
BRANCH   8  20
ATOM     20  O   UNL d   1      -4.768   4.380   1.288  0.00  0.00    -0.392 OA
ATOM     21  H   UNL d   1      -4.275   5.036   1.827  0.00  0.00     0.210 HD
ENDBRANCH   8  20
ENDBRANCH   7   8
ENDBRANCH   3   7
BRANCH   2  22
ATOM     22  C   UNL d   1      -2.199   8.775   3.023  0.00  0.00     0.036 A 
ATOM     23  C   UNL d   1      -2.388   8.082   4.218  0.00  0.00     0.030 A 
ATOM     24  C   UNL d   1      -1.923   8.605   5.432  0.00  0.00     0.010 A 
ATOM     25  C   UNL d   1      -1.261   9.841   5.496  0.00  0.00    -0.051 A 
ATOM     26  C   UNL d   1      -1.149  10.562   4.296  0.00  0.00     0.010 A 
ATOM     27  C   UNL d   1      -1.615  10.040   3.080  0.00  0.00     0.030 A 
BRANCH  25  28
ATOM     28  C   UNL d   1      -0.671  10.334   6.830  0.00  0.00    -0.024 C 
ATOM     29  C   UNL d   1       0.025  11.708   6.718  0.00  0.00     0.019 C 
ATOM     30  C   UNL d   1      -1.779  10.460   7.896  0.00  0.00     0.019 C 
ATOM     31  C   UNL d   1       0.388   9.328   7.334  0.00  0.00     0.019 C 
ENDBRANCH  25  28
ENDBRANCH   2  22
TORSDOF 9
