REMARK  6 active torsions:
REMARK  status: ('A' for Active; 'I' for Inactive)
REMARK    1  A    between atoms: C_4  and  N_1 
REMARK    2  A    between atoms: C_2  and  N_8 
REMARK    3  A    between atoms: N_10  and  C_2 
REMARK    4  A    between atoms: C_3  and  C_6 
REMARK       I    between atoms: N_5  and  C_3 
REMARK    5  A    between atoms: N_8  and  N_5 
REMARK    6  A    between atoms: C_14  and  N_10 
ROOT
ATOM      1  C   UNL d   1       0.316  -3.221   3.484  0.00  0.00     0.270 C 
ATOM      2  N   UNL d   1      -0.268  -4.274   4.164  0.00  0.00    -0.264 N 
ATOM      3  O   UNL d   1      -0.331  -2.290   3.011  0.00  0.00    -0.266 OA
ATOM      4  H   UNL d   1       0.276  -4.883   4.770  0.00  0.00     0.190 HD
ENDROOT
BRANCH   2   5
ATOM      5  N   UNL d   1      -1.612  -4.112   4.538  0.00  0.00    -0.273 N 
ATOM      6  H   UNL d   1      -2.166  -3.555   3.889  0.00  0.00     0.189 HD
BRANCH   5   7
ATOM      7  C   UNL d   1      -2.240  -4.999   5.357  0.00  0.00     0.191 C 
ATOM      8  S   UNL d   1      -1.618  -6.508   5.757  0.00  0.00    -0.039 SA
BRANCH   7   9
ATOM      9  N   UNL d   1      -3.415  -4.633   5.946  0.00  0.00    -0.332 N 
ATOM     10  H   UNL d   1      -3.809  -5.399   6.484  0.00  0.00     0.168 HD
BRANCH   9  11
ATOM     11  C   UNL d   1      -4.018  -3.374   6.173  0.00  0.00     0.034 A 
ATOM     12  C   UNL d   1      -3.592  -2.151   5.645  0.00  0.00     0.032 A 
ATOM     13  C   UNL d   1      -4.233  -0.958   6.000  0.00  0.00     0.044 A 
ATOM     14  C   UNL d   1      -5.283  -0.979   6.905  0.00  0.00     0.116 A 
ATOM     15  C   UNL d   1      -5.722  -2.176   7.447  0.00  0.00     0.044 A 
ATOM     16  F   UNL d   1      -5.868   0.169   7.269  0.00  0.00    -0.206 F 
ATOM     17  C   UNL d   1      -5.100  -3.370   7.072  0.00  0.00     0.032 A 
ENDBRANCH   9  11
ENDBRANCH   7   9
ENDBRANCH   5   7
ENDBRANCH   2   5
BRANCH   1  18
ATOM     18  C   UNL d   1       1.802  -3.237   3.389  0.00  0.00     0.036 A 
ATOM     19  C   UNL d   1       2.467  -2.018   3.196  0.00  0.00     0.053 A 
ATOM     20  C   UNL d   1       3.865  -2.002   3.112  0.00  0.00     0.103 A 
ATOM     21  C   UNL d   1       4.602  -3.190   3.213  0.00  0.00     0.036 A 
ATOM     22  C   UNL d   1       3.934  -4.401   3.393  0.00  0.00     0.003 A 
ATOM     23  C   UNL d   1       2.539  -4.427   3.478  0.00  0.00     0.017 A 
BRANCH  20  24
ATOM     24  N   UNL d   1       4.572  -0.729   2.918  0.00  0.00    -0.116 N 
ATOM     25  O   UNL d   1       3.896   0.311   2.918  0.00  0.00    -0.532 OA
ATOM     26  O   UNL d   1       5.801  -0.770   2.770  0.00  0.00    -0.532 OA
ENDBRANCH  20  24
ENDBRANCH   1  18
TORSDOF 6
