REMARK  6 active torsions:
REMARK  status: ('A' for Active; 'I' for Inactive)
REMARK    1  A    between atoms: C_6  and  C_1 
REMARK    2  A    between atoms: C_7  and  C_1 
REMARK    3  A    between atoms: C_3  and  C_2 
REMARK    4  A    between atoms: S_14  and  C_5 
REMARK    5  A    between atoms: O_15  and  C_6 
REMARK    6  A    between atoms: N_8  and  C_7 
ROOT
ATOM      1  C   UNL d   1       0.930  -0.053   0.049  0.00  0.00     0.102 C 
ATOM      2  C   UNL d   1       0.233   0.612   0.990  0.00  0.00     0.046 C 
ENDROOT
BRANCH   1   3
ATOM      3  C   UNL d   1       0.203  -0.785  -1.012  0.00  0.00     0.302 C 
ATOM      4  O   UNL d   1      -1.015  -0.867  -1.078  0.00  0.00    -0.259 OA
BRANCH   3   5
ATOM      5  O   UNL d   1       1.079  -1.341  -1.883  0.00  0.00    -0.322 OA
ATOM      6  C   UNL d   1       0.473  -2.069  -2.955  0.00  0.00     0.213 C 
ENDBRANCH   3   5
ENDBRANCH   1   3
BRANCH   1   7
ATOM      7  C   UNL d   1       2.450  -0.053   0.049  0.00  0.00    -0.031 C 
BRANCH   7   8
ATOM      8  N   UNL d   1       3.712  -0.053   0.049  0.00  0.00    -0.365 N 
ATOM      9  HN2 UNL d   1       2.692  -0.053   0.049  1.00  0.00     0.165 HD
ATOM     10  HN1 UNL d   1       4.732  -0.053   0.049  1.00  0.00     0.165 HD
ENDBRANCH   7   8
ENDBRANCH   1   7
BRANCH   2  11
ATOM     11  C   UNL d   1       0.884   1.342   2.024  0.00  0.00     0.007 A 
ATOM     12  S   UNL d   1       1.083   3.043   1.880  0.00  0.00    -0.084 SA
ATOM     13  C   UNL d   1       1.942   3.151   3.353  0.00  0.00     0.041 A 
ATOM     14  C   UNL d   1       2.039   1.926   3.974  0.00  0.00     0.027 A 
ATOM     15  C   UNL d   1       1.427   0.885   3.212  0.00  0.00     0.021 A 
BRANCH  13  16
ATOM     16  S   UNL d   1       2.544   4.689   3.953  0.00  0.00    -0.127 SA
ATOM     17  C   UNL d   1       4.295   4.309   4.194  0.00  0.00     0.096 C 
ENDBRANCH  13  16
ENDBRANCH   2  11
TORSDOF 6
