REMARK  4 active torsions:
REMARK  status: ('A' for Active; 'I' for Inactive)
REMARK    1  A    between atoms: C_11  and  C_2 
REMARK    2  A    between atoms: N_17  and  C_3 
REMARK    3  A    between atoms: C_12  and  C_5 
REMARK    4  A    between atoms: C_20  and  C_11 
ROOT
ATOM      1  C   UNL d   1      -2.688  -0.778  -0.074  0.00  0.00     0.058 A 
ATOM      2  C   UNL d   1      -4.425   0.672  -0.051  0.00  0.00     0.155 A 
ATOM      3  C   UNL d   1      -4.103  -0.663  -0.161  0.00  0.00     0.080 A 
ATOM      4  C   UNL d   1      -2.222   0.534  -0.043  0.00  0.00     0.162 A 
ATOM      5  C   UNL d   1      -1.720  -1.806  -0.021  0.00  0.00     0.023 A 
ATOM      6  O   UNL d   1      -3.274   1.413  -0.026  0.00  0.00    -0.286 OA
ATOM      7  C   UNL d   1      -0.021  -0.060  -0.011  0.00  0.00     0.052 A 
ATOM      8  N   UNL d   1      -0.940   0.940  -0.018  0.00  0.00    -0.335 N 
ATOM      9  HN  UNL d   1      -0.678   1.926  -0.006  1.00  0.00     0.168 HD
ATOM     10  C   UNL d   1      -0.354  -1.426  -0.011  0.00  0.00    -0.016 A 
ATOM     11  C   UNL d   1       1.403   0.373   0.018  0.00  0.00    -0.003 A 
ATOM     12  C   UNL d   1       0.723  -2.475   0.085  0.00  0.00     0.046 C 
ATOM     13  C   UNL d   1       2.447  -0.572   0.015  0.00  0.00    -0.045 A 
ATOM     14  C   UNL d   1       2.175  -2.042  -0.070  0.00  0.00     0.044 C 
ATOM     15  C   UNL d   1       1.775   1.733   0.033  0.00  0.00     0.014 A 
ATOM     16  C   UNL d   1       3.796  -0.167   0.022  0.00  0.00     0.008 A 
ATOM     17  C   UNL d   1       3.119   2.132   0.039  0.00  0.00     0.001 A 
ATOM     18  C   UNL d   1       4.130   1.181   0.034  0.00  0.00     0.001 A 
ENDROOT
BRANCH   2  19
ATOM     19  C   UNL d   1      -5.726   1.290   0.093  0.00  0.00     0.218 C 
ATOM     20  O   UNL d   1      -6.656   0.735   0.676  0.00  0.00    -0.284 OA
BRANCH  19  21
ATOM     21  C   UNL d   1      -6.017   2.606  -0.532  0.00  0.00     0.017 A 
ATOM     22  C   UNL d   1      -7.028   3.405   0.026  0.00  0.00     0.015 A 
ATOM     23  C   UNL d   1      -7.413   4.590  -0.600  0.00  0.00     0.001 A 
ATOM     24  C   UNL d   1      -6.804   4.971  -1.796  0.00  0.00     0.000 A 
ATOM     25  C   UNL d   1      -5.803   4.180  -2.357  0.00  0.00     0.001 A 
ATOM     26  C   UNL d   1      -5.405   2.997  -1.729  0.00  0.00     0.015 A 
ENDBRANCH  19  21
ENDBRANCH   2  19
BRANCH   3  27
ATOM     27  N   UNL d   1      -5.000  -1.661  -0.322  0.00  0.00    -0.396 N 
ATOM     28  H   UNL d   1      -5.982  -1.492  -0.101  0.00  0.00     0.156 HD
ATOM     29  H   UNL d   1      -4.718  -2.616  -0.111  0.00  0.00     0.156 HD
ENDBRANCH   3  27
BRANCH   5  30
ATOM     30  C   UNL d   1      -2.178  -3.192   0.083  0.00  0.00     0.086 A 
ATOM     31  O   UNL d   1      -3.207  -3.415   0.960  0.00  0.00    -0.322 OA
ATOM     32  C   UNL d   1      -3.476  -4.745   0.956  0.00  0.00     0.142 A 
ATOM     33  C   UNL d   1      -2.623  -5.401   0.106  0.00  0.00     0.027 A 
ATOM     34  C   UNL d   1      -1.797  -4.402  -0.467  0.00  0.00     0.040 A 
ENDBRANCH   5  30
TORSDOF 4
