REMARK  5 active torsions:
REMARK  status: ('A' for Active; 'I' for Inactive)
REMARK    1  A    between atoms: N_3  and  C_1 
REMARK    2  A    between atoms: C_2  and  C_5 
REMARK    3  A    between atoms: C_5  and  C_11 
REMARK    4  A    between atoms: O_20  and  C_5 
REMARK    5  A    between atoms: C_11  and  N_9 
ROOT
ATOM      1  N   UNL d   1      -0.569   3.085  -0.222  0.00  0.00    -0.279 NA
ATOM      2  N   UNL d   1      -0.146   6.013   0.093  0.00  0.00     0.093 N 
ATOM      3  C   UNL d   1      -1.309   3.854   0.805  0.00  0.00     0.126 C 
ATOM      4  C   UNL d   1       0.740   3.689  -0.563  0.00  0.00     0.126 C 
ATOM      5  C   UNL d   1      -1.437   5.341   0.398  0.00  0.00     0.287 C 
ATOM      6  C   UNL d   1       0.554   5.189  -0.924  0.00  0.00     0.287 C 
ENDROOT
BRANCH   1   7
ATOM      7  C   UNL d   1      -0.533   1.679  -0.046  0.00  0.00     0.025 A 
ATOM      8  C   UNL d   1      -0.477   0.793  -1.163  0.00  0.00     0.012 A 
ATOM      9  C   UNL d   1      -0.514  -0.597  -0.903  0.00  0.00     0.044 A 
ATOM     10  C   UNL d   1      -0.419   1.212  -2.515  0.00  0.00     0.015 A 
ATOM     11  C   UNL d   1      -0.484  -1.493  -1.968  0.00  0.00     0.030 A 
ATOM     12  N   UNL d   1      -0.603  -1.116   0.330  0.00  0.00    -0.359 N 
ATOM     13  C   UNL d   1      -0.402  -1.062  -3.292  0.00  0.00     0.002 A 
ATOM     14  C   UNL d   1      -0.369   0.296  -3.566  0.00  0.00     0.001 A 
ATOM     15  C   UNL d   1      -0.655  -0.273   1.377  0.00  0.00     0.007 A 
ATOM     16  HN  UNL d   1      -0.631  -2.126   0.470  1.00  0.00     0.166 HD
ATOM     17  C   UNL d   1      -0.607   1.106   1.231  0.00  0.00     0.049 A 
ATOM     18  C   UNL d   1      -0.795  -0.877   2.743  0.00  0.00     0.068 C 
ENDBRANCH   1   7
BRANCH   2  19
ATOM     19  C   UNL d   1       0.633   6.223   1.326  0.00  0.00     0.313 C 
BRANCH  19  20
ATOM     20  C   UNL d   1       1.928   7.043   1.196  0.00  0.00     0.253 C 
BRANCH  20  21
ATOM     21  C   UNL d   1       1.690   8.507   0.787  0.00  0.00     0.414 C 
ATOM     22  F   UNL d   1       0.400   8.825   0.573  0.00  0.00    -0.168 F 
ATOM     23  F   UNL d   1       2.130   9.326   1.783  0.00  0.00    -0.168 F 
ATOM     24  F   UNL d   1       2.395   8.826  -0.322  0.00  0.00    -0.168 F 
ENDBRANCH  20  21
BRANCH  20  25
ATOM     25  O   UNL d   1       2.627   6.929   2.466  0.00  0.00    -0.385 OA
ATOM     26  H   UNL d   1       2.473   7.760   2.958  0.00  0.00     0.210 HD
ENDBRANCH  20  25
ENDBRANCH  19  20
ENDBRANCH   2  19
TORSDOF 5
