REMARK  4 active torsions:
REMARK  status: ('A' for Active; 'I' for Inactive)
REMARK    1  A    between atoms: C_2  and  C_1 
REMARK       I    between atoms: N_5  and  C_2 
REMARK    2  A    between atoms: C_4  and  C_3 
REMARK    3  A    between atoms: C_9  and  N_5 
REMARK    4  A    between atoms: N_20  and  C_11 
ROOT
ATOM      1  C   UNL d   1       0.794   1.229  -0.167  0.00  0.00     0.062 A 
ATOM      2  C   UNL d   1       1.583   0.085  -0.001  0.00  0.00     0.068 A 
ATOM      3  C   UNL d   1      -0.572   0.995  -0.356  0.00  0.00     0.107 A 
ATOM      4  N   UNL d   1      -1.186  -0.216  -0.302  0.00  0.00    -0.352 N 
ATOM      5  HN  UNL d   1      -2.189  -0.303  -0.463  1.00  0.00     0.166 HD
ATOM      6  C   UNL d   1      -0.438  -1.290  -0.031  0.00  0.00     0.101 A 
ATOM      7  C   UNL d   1       0.935  -1.174   0.097  0.00  0.00     0.065 A 
ENDROOT
BRANCH   1   8
ATOM      8  C   UNL d   1       1.152   2.685  -0.055  0.00  0.00     0.258 C 
ATOM      9  N   UNL d   1       2.423   3.059   0.332  0.00  0.00    -0.321 N 
ATOM     10  H   UNL d   1       3.212   2.471   0.085  0.00  0.00     0.169 HD
ATOM     11  O   UNL d   1       0.266   3.506  -0.290  0.00  0.00    -0.267 OA
BRANCH   9  12
ATOM     12  C   UNL d   1       2.793   4.359   0.781  0.00  0.00     0.057 A 
ATOM     13  C   UNL d   1       4.136   4.764   0.710  0.00  0.00     0.062 A 
ATOM     14  C   UNL d   1       4.542   6.019   1.169  0.00  0.00     0.050 A 
ATOM     15 CL   UNL d   1       5.346   3.733   0.021  0.00  0.00    -0.082 Cl
ATOM     16  C   UNL d   1       3.602   6.876   1.735  0.00  0.00     0.035 A 
ATOM     17  C   UNL d   1       2.264   6.489   1.831  0.00  0.00     0.026 A 
ATOM     18 CL   UNL d   1       4.090   8.413   2.321  0.00  0.00    -0.084 Cl
ATOM     19  C   UNL d   1       1.863   5.238   1.353  0.00  0.00     0.033 A 
ENDBRANCH   9  12
ENDBRANCH   1   8
BRANCH   2  20
ATOM     20  C   UNL d   1       3.073   0.041   0.130  0.00  0.00     0.418 C 
ATOM     21  F   UNL d   1       3.712   1.098  -0.432  0.00  0.00    -0.166 F 
ATOM     22  F   UNL d   1       3.482  -0.007   1.425  0.00  0.00    -0.166 F 
ATOM     23  F   UNL d   1       3.619  -1.055  -0.473  0.00  0.00    -0.166 F 
ENDBRANCH   2  20
BRANCH   6  24
ATOM     24  N   UNL d   1      -1.140  -2.443   0.226  0.00  0.00    -0.381 N 
ATOM     25  C   UNL d   1      -0.653  -3.752  -0.140  0.00  0.00     0.147 C 
ATOM     26  H   UNL d   1      -2.116  -2.270  -0.008  0.00  0.00     0.160 HD
ENDBRANCH   6  24
TORSDOF 4
