REMARK  3 active torsions:
REMARK  status: ('A' for Active; 'I' for Inactive)
REMARK    1  A    between atoms: C_2  and  C_1 
REMARK       I    between atoms: N_3  and  C_1 
REMARK    2  A    between atoms: C_6  and  N_3 
REMARK    3  A    between atoms: N_7  and  C_4 
ROOT
ATOM      1  C   UNL d   1       1.123  -0.085  -0.042  0.00  0.00     0.258 C 
ATOM      2  N   UNL d   1       0.419   1.033   0.378  0.00  0.00    -0.323 N 
ATOM      3  O   UNL d   1       2.293  -0.095  -0.423  0.00  0.00    -0.267 OA
ATOM      4  H   UNL d   1      -0.428   0.879   0.907  0.00  0.00     0.169 HD
ENDROOT
BRANCH   1   5
ATOM      5  C   UNL d   1       0.405  -1.389  -0.001  0.00  0.00     0.053 A 
ATOM      6  C   UNL d   1       1.132  -2.570   0.270  0.00  0.00     0.021 A 
ATOM      7  C   UNL d   1       0.460  -3.797   0.223  0.00  0.00     0.024 A 
ATOM      8  C   UNL d   1      -0.876  -3.866  -0.176  0.00  0.00     0.002 A 
ATOM      9  C   UNL d   1      -1.576  -2.700  -0.482  0.00  0.00     0.001 A 
ATOM     10  C   UNL d   1      -0.942  -1.460  -0.390  0.00  0.00     0.019 A 
BRANCH   6  11
ATOM     11  N   UNL d   1       2.440  -2.540   0.800  0.00  0.00    -0.302 NA
ATOM     12  H   UNL d   1       2.928  -1.684   0.504  0.00  0.00     0.124 HD
ATOM     13  H   UNL d   1       2.988  -3.363   0.573  0.00  0.00     0.124 HD
ENDBRANCH   6  11
ENDBRANCH   1   5
BRANCH   2  14
ATOM     14  C   UNL d   1       0.867   2.369   0.257  0.00  0.00     0.035 A 
ATOM     15  C   UNL d   1       1.933   2.737  -0.567  0.00  0.00     0.030 A 
ATOM     16  C   UNL d   1       2.340   4.069  -0.666  0.00  0.00     0.009 A 
ATOM     17  C   UNL d   1       1.684   5.066   0.057  0.00  0.00    -0.062 A 
ATOM     18  C   UNL d   1       0.607   4.708   0.875  0.00  0.00     0.009 A 
ATOM     19  C   UNL d   1       2.145   6.487  -0.070  0.00  0.00     0.048 C 
ATOM     20  C   UNL d   1       0.196   3.370   0.968  0.00  0.00     0.030 A 
ENDBRANCH   2  14
TORSDOF 3
