REMARK  2 active torsions:
REMARK  status: ('A' for Active; 'I' for Inactive)
REMARK    1  A    between atoms: C_2  and  C_1 
REMARK    2  A    between atoms: C_14  and  C_3 
ROOT
ATOM      1  C   UNL d   1      -0.252   1.021  -0.498  0.00  0.00     0.184 A 
ATOM      2  C   UNL d   1      -0.201  -1.077  -0.060  0.00  0.00     0.175 A 
ATOM      3  O   UNL d   1      -1.010  -0.124  -0.626  0.00  0.00    -0.272 OA
ATOM      4  N   UNL d   1       0.907   0.769   0.078  0.00  0.00    -0.276 N 
ATOM      5  HN  UNL d   1       1.640   1.448   0.282  1.00  0.00     0.189 HD
ATOM      6  N   UNL d   1       0.944  -0.575   0.353  0.00  0.00    -0.277 N 
ATOM      7  HN  UNL d   1       1.711  -1.086   0.792  1.00  0.00     0.189 HD
ENDROOT
BRANCH   2   8
ATOM      8  C   UNL d   1      -0.709  -2.447  -0.005  0.00  0.00     0.028 A 
ATOM      9  C   UNL d   1      -0.342  -3.346   1.043  0.00  0.00    -0.011 A 
ATOM     10  C   UNL d   1      -0.826  -4.680   0.993  0.00  0.00    -0.025 A 
ATOM     11  C   UNL d   1       0.471  -3.002   2.155  0.00  0.00     0.013 A 
ATOM     12  C   UNL d   1      -0.479  -5.599   1.998  0.00  0.00     0.012 A 
ATOM     13  C   UNL d   1      -1.656  -5.088  -0.061  0.00  0.00     0.012 A 
ATOM     14  C   UNL d   1       0.334  -5.226   3.067  0.00  0.00     0.001 A 
ATOM     15  C   UNL d   1       0.806  -3.925   3.147  0.00  0.00     0.001 A 
ATOM     16  C   UNL d   1      -2.023  -4.202  -1.068  0.00  0.00     0.002 A 
ATOM     17  C   UNL d   1      -1.554  -2.892  -1.040  0.00  0.00     0.017 A 
ENDBRANCH   2   8
BRANCH   1  18
ATOM     18  C   UNL d   1      -0.661   2.317  -0.929  0.00  0.00     0.095 A 
ATOM     19  C   UNL d   1      -0.005   3.542  -0.871  0.00  0.00     0.041 A 
ATOM     20  N   UNL d   1      -0.733   4.608  -1.399  0.00  0.00    -0.296 N 
ATOM     21  C   UNL d   1       1.343   3.860  -0.331  0.00  0.00     0.071 C 
ATOM     22  N   UNL d   1      -1.914   4.230  -1.853  0.00  0.00    -0.061 NA
ATOM     23  HN  UNL d   1      -0.392   5.569  -1.431  1.00  0.00     0.183 HD
ATOM     24  S   UNL d   1      -2.187   2.596  -1.661  0.00  0.00     0.006 SA
ENDBRANCH   1  18
TORSDOF 2
