REMARK  5 active torsions:
REMARK  status: ('A' for Active; 'I' for Inactive)
REMARK    1  A    between atoms: N_7  and  C_1 
REMARK    2  A    between atoms: C_9  and  N_2 
REMARK    3  A    between atoms: N_5  and  N_7 
REMARK    4  A    between atoms: C_10  and  C_8 
REMARK    5  A    between atoms: C_15  and  C_9 
ROOT
ATOM      1  C   UNL d   1      -0.280  -1.122  -0.114  0.00  0.00     0.691 A 
ATOM      2  N   UNL d   1       0.986  -0.609  -0.053  0.00  0.00    -0.211 N 
ATOM      3  N   UNL d   1      -1.247  -0.245  -0.201  0.00  0.00    -0.223 N 
ATOM      4  HN  UNL d   1      -2.250  -0.431  -0.227  1.00  0.00     0.177 HD
ATOM      5  C   UNL d   1      -0.575   1.077  -0.255  0.00  0.00     0.158 A 
ATOM      6  C   UNL d   1       0.921   0.834  -0.053  0.00  0.00     0.161 A 
ENDROOT
BRANCH   1   7
ATOM      7  N   UNL d   1      -0.419  -2.485  -0.069  0.00  0.00    -0.132 N 
ATOM      8  H   UNL d   1       0.326  -2.958   0.420  0.00  0.00     0.205 HD
BRANCH   7   9
ATOM      9  N   UNL d   1      -1.563  -3.136  -0.407  0.00  0.00    -0.290 N 
ATOM     10  C   UNL d   1      -1.700  -4.417  -0.228  0.00  0.00     0.032 C 
ATOM     11  C   UNL d   1      -0.668  -5.327   0.408  0.00  0.00     0.070 C 
ATOM     12  HN  UNL d   1      -2.335  -2.606  -0.812  1.00  0.00     0.187 HD
BRANCH  10  13
ATOM     13  C   UNL d   1      -2.980  -5.057  -0.711  0.00  0.00    -0.013 A 
ATOM     14  C   UNL d   1      -3.961  -4.259  -1.317  0.00  0.00     0.014 A 
ATOM     15  C   UNL d   1      -5.142  -4.827  -1.808  0.00  0.00     0.007 A 
ATOM     16  C   UNL d   1      -5.366  -6.203  -1.702  0.00  0.00    -0.062 A 
ATOM     17  C   UNL d   1      -4.394  -7.001  -1.092  0.00  0.00     0.007 A 
ATOM     18  C   UNL d   1      -6.632  -6.803  -2.240  0.00  0.00     0.048 C 
ATOM     19  C   UNL d   1      -3.211  -6.435  -0.601  0.00  0.00     0.014 A 
ENDBRANCH  10  13
ENDBRANCH   7   9
ENDBRANCH   1   7
BRANCH   2  20
ATOM     20  C   UNL d   1       2.240  -1.274  -0.324  0.00  0.00     0.179 C 
BRANCH  20  21
ATOM     21  C   UNL d   1       2.970  -1.690   0.938  0.00  0.00    -0.040 A 
ATOM     22  C   UNL d   1       2.459  -1.458   2.224  0.00  0.00     0.009 A 
ATOM     23  C   UNL d   1       3.192  -1.814   3.361  0.00  0.00     0.001 A 
ATOM     24  C   UNL d   1       4.439  -2.417   3.223  0.00  0.00     0.000 A 
ATOM     25  C   UNL d   1       4.954  -2.673   1.956  0.00  0.00     0.001 A 
ATOM     26  C   UNL d   1       4.223  -2.313   0.819  0.00  0.00     0.009 A 
ENDBRANCH  20  21
ENDBRANCH   2  20
TORSDOF 5
