REMARK  8 active torsions:
REMARK  status: ('A' for Active; 'I' for Inactive)
REMARK    1  A    between atoms: C_2  and  N_1 
REMARK    2  A    between atoms: C_25  and  C_4 
REMARK    3  A    between atoms: C_6  and  C_7 
REMARK    4  A    between atoms: C_7  and  O_22 
REMARK    5  A    between atoms: O_22  and  C_28 
REMARK    6  A    between atoms: S_26  and  C_25 
REMARK    7  A    between atoms: C_27  and  S_26 
REMARK    8  A    between atoms: C_28  and  C_27 
ROOT
ATOM      1  C   UNL d   1       0.175   5.076  -0.297  0.00  0.00     0.115 C 
ENDROOT
BRANCH   1   2
ATOM      2  C   UNL d   1      -0.202   3.694   0.199  0.00  0.00    -0.012 A 
ATOM      3  C   UNL d   1      -0.885   2.814  -0.661  0.00  0.00     0.046 A 
ATOM      4  C   UNL d   1      -1.316   1.562  -0.196  0.00  0.00     0.104 A 
ATOM      5  C   UNL d   1      -1.071   1.168   1.123  0.00  0.00     0.048 A 
ATOM      6  C   UNL d   1      -0.386   2.031   1.987  0.00  0.00     0.002 A 
ATOM      7  C   UNL d   1      -0.145   1.632   3.414  0.00  0.00     0.212 C 
ATOM      8  C   UNL d   1       0.028   3.291   1.529  0.00  0.00     0.087 A 
ATOM      9  O   UNL d   1       0.830   2.470   4.020  0.00  0.00    -0.362 OA
ATOM     10  C   UNL d   1       0.532   3.832   3.740  0.00  0.00     0.345 C 
ATOM     11  O   UNL d   1       0.679   4.167   2.359  0.00  0.00    -0.325 OA
BRANCH   4  12
ATOM     12  N   UNL d   1      -2.045   0.657  -1.098  0.00  0.00    -0.116 N 
ATOM     13  O   UNL d   1      -2.430  -0.426  -0.635  0.00  0.00    -0.532 OA
ATOM     14  O   UNL d   1      -2.225   1.029  -2.264  0.00  0.00    -0.532 OA
ENDBRANCH   4  12
ENDBRANCH   1   2
BRANCH   1  15
ATOM     15  S   UNL d   1      -1.185   6.246   0.055  0.00  0.00    -0.162 SA
BRANCH  15  16
ATOM     16  C   UNL d   1      -0.573   7.745  -0.802  0.00  0.00     0.101 C 
BRANCH  16  17
ATOM     17  C   UNL d   1      -1.613   8.867  -0.670  0.00  0.00     0.189 C 
BRANCH  17  18
ATOM     18  O   UNL d   1      -2.870   8.508  -1.279  0.00  0.00    -0.317 OA
BRANCH  18  19
ATOM     19  C   UNL d   1      -2.965   8.701  -2.614  0.00  0.00     0.293 C 
ATOM     20  O   UNL d   1      -2.102   9.195  -3.325  0.00  0.00    -0.259 OA
BRANCH  19  21
ATOM     21  C   UNL d   1      -4.274   8.217  -3.131  0.00  0.00     0.042 A 
ATOM     22  C   UNL d   1      -4.576   8.454  -4.479  0.00  0.00     0.041 A 
ATOM     23  C   UNL d   1      -5.781   8.000  -5.014  0.00  0.00     0.036 A 
ATOM     24 CL   UNL d   1      -6.146   8.299  -6.668  0.00  0.00    -0.084 Cl
ATOM     25  C   UNL d   1      -6.692   7.306  -4.223  0.00  0.00     0.047 A 
ATOM     26  C   UNL d   1      -6.389   7.069  -2.884  0.00  0.00     0.036 A 
ATOM     27  C   UNL d   1      -5.189   7.521  -2.330  0.00  0.00     0.041 A 
ATOM     28 CL   UNL d   1      -7.506   6.202  -1.904  0.00  0.00    -0.084 Cl
ENDBRANCH  19  21
ENDBRANCH  18  19
ENDBRANCH  17  18
ENDBRANCH  16  17
ENDBRANCH  15  16
ENDBRANCH   1  15
TORSDOF 8
