REMARK  4 active torsions:
REMARK  status: ('A' for Active; 'I' for Inactive)
REMARK    1  A    between atoms: N_2  and  S_1 
REMARK    2  A    between atoms: C_6  and  S_1 
REMARK    3  A    between atoms: C_3  and  N_2 
REMARK    4  A    between atoms: N_4  and  C_5 
ROOT
ATOM      1  C   UNL d   1       0.826  -2.380   0.976  0.00  0.00     0.049 A 
ATOM      2  C   UNL d   1       2.118  -2.832   0.610  0.00  0.00     0.052 A 
ATOM      3  C   UNL d   1      -0.218  -3.291   1.217  0.00  0.00     0.027 A 
ATOM      4  C   UNL d   1       2.298  -4.232   0.560  0.00  0.00     0.031 A 
ATOM      5  C   UNL d   1       0.000  -4.664   1.133  0.00  0.00     0.002 A 
ATOM      6  C   UNL d   1       1.264  -5.136   0.815  0.00  0.00     0.002 A 
ENDROOT
BRANCH   1   7
ATOM      7  N   UNL d   1       0.521  -0.980   1.088  0.00  0.00    -0.179 NA
ATOM      8  H   UNL d   1      -0.098  -0.766   1.867  0.00  0.00     0.146 HD
BRANCH   7   9
ATOM      9  S   UNL d   1       0.053  -0.151  -0.311  0.00  0.00     0.245 S 
ATOM     10  O   UNL d   1       0.566  -0.794  -1.503  0.00  0.00    -0.206 OA
ATOM     11  O   UNL d   1       0.280   1.256  -0.053  0.00  0.00    -0.206 OA
BRANCH   9  12
ATOM     12  C   UNL d   1      -1.720  -0.378  -0.290  0.00  0.00     0.075 A 
ATOM     13  C   UNL d   1      -2.526   0.540   0.398  0.00  0.00     0.028 A 
ATOM     14  C   UNL d   1      -3.911   0.379   0.398  0.00  0.00     0.044 A 
ATOM     15  C   UNL d   1      -4.475  -0.688  -0.297  0.00  0.00     0.116 A 
ATOM     16  C   UNL d   1      -3.681  -1.591  -0.999  0.00  0.00     0.044 A 
ATOM     17  F   UNL d   1      -5.805  -0.844  -0.296  0.00  0.00    -0.206 F 
ATOM     18  C   UNL d   1      -2.294  -1.434  -1.006  0.00  0.00     0.028 A 
ENDBRANCH   9  12
ENDBRANCH   7   9
ENDBRANCH   1   7
BRANCH   2  19
ATOM     19  N   UNL d   1       3.233  -2.031   0.385  0.00  0.00    -0.379 N 
ATOM     20  C   UNL d   1       3.404  -0.699   0.962  0.00  0.00     0.123 C 
ATOM     21  C   UNL d   1       4.872  -0.526   1.371  0.00  0.00     0.020 C 
ATOM     22  C   UNL d   1       5.838  -0.852   0.231  0.00  0.00     0.003 C 
ATOM     23  C   UNL d   1       5.526  -2.214  -0.387  0.00  0.00     0.020 C 
ATOM     24  C   UNL d   1       4.058  -2.290  -0.803  0.00  0.00     0.123 C 
ENDBRANCH   2  19
TORSDOF 4
