REMARK  7 active torsions:
REMARK  status: ('A' for Active; 'I' for Inactive)
REMARK       I    between atoms: N_2  and  C_1 
REMARK    1  A    between atoms: C_7  and  C_1 
REMARK    2  A    between atoms: C_5  and  N_2 
REMARK    3  A    between atoms: C_3  and  O_4 
REMARK    4  A    between atoms: O_4  and  C_6 
REMARK    5  A    between atoms: C_9  and  C_7 
REMARK    6  A    between atoms: C_18  and  C_15 
REMARK    7  A    between atoms: C_22  and  C_18 
ROOT
ATOM      1  C   UNL d   1       0.590  -0.232   0.527  0.00  0.00     0.230 C 
ATOM      2  N   UNL d   1       0.067  -0.790   1.685  0.00  0.00    -0.324 N 
ATOM      3  O   UNL d   1       1.478   0.621   0.517  0.00  0.00    -0.272 OA
ATOM      4  H   UNL d   1      -0.361  -1.697   1.587  0.00  0.00     0.169 HD
ENDROOT
BRANCH   1   5
ATOM      5  C   UNL d   1      -0.032  -0.714  -0.771  0.00  0.00     0.107 C 
ATOM      6  C   UNL d   1      -1.530  -0.394  -0.811  0.00  0.00     0.025 C 
BRANCH   5   7
ATOM      7  C   UNL d   1       0.291  -2.156  -1.129  0.00  0.00    -0.045 A 
ATOM      8  C   UNL d   1      -0.536  -3.228  -0.762  0.00  0.00     0.008 A 
ATOM      9  C   UNL d   1      -0.313  -4.507  -1.279  0.00  0.00     0.007 A 
ATOM     10  C   UNL d   1       0.739  -4.749  -2.171  0.00  0.00    -0.058 A 
ATOM     11  C   UNL d   1       1.616  -3.701  -2.470  0.00  0.00     0.007 A 
ATOM     12  C   UNL d   1       1.400  -2.423  -1.945  0.00  0.00     0.008 A 
BRANCH  10  13
ATOM     13  C   UNL d   1       0.840  -6.086  -2.866  0.00  0.00     0.042 C 
BRANCH  13  14
ATOM     14  C   UNL d   1       2.176  -6.832  -2.707  0.00  0.00    -0.019 C 
ATOM     15  C   UNL d   1       2.445  -7.215  -1.251  0.00  0.00     0.010 C 
ATOM     16  C   UNL d   1       2.160  -8.092  -3.578  0.00  0.00     0.010 C 
ENDBRANCH  13  14
ENDBRANCH  10  13
ENDBRANCH   5   7
ENDBRANCH   1   5
BRANCH   2  17
ATOM     17  C   UNL d   1       0.311  -0.298   2.986  0.00  0.00     0.068 A 
ATOM     18  C   UNL d   1       0.456  -1.158   4.090  0.00  0.00     0.105 A 
ATOM     19  C   UNL d   1       0.789  -0.605   5.342  0.00  0.00     0.039 A 
ATOM     20  C   UNL d   1       0.915   0.771   5.514  0.00  0.00     0.003 A 
ATOM     21  C   UNL d   1       0.714   1.624   4.438  0.00  0.00     0.002 A 
ATOM     22  C   UNL d   1       0.412   1.088   3.183  0.00  0.00     0.032 A 
BRANCH  18  23
ATOM     23  O   UNL d   1       0.583  -2.515   4.041  0.00  0.00    -0.253 OA
BRANCH  23  24
ATOM     24  C   UNL d   1      -0.438  -3.313   3.465  0.00  0.00     0.530 C 
ATOM     25  F   UNL d   1      -1.279  -2.631   2.659  0.00  0.00    -0.144 F 
ATOM     26  F   UNL d   1       0.146  -4.278   2.723  0.00  0.00    -0.144 F 
ATOM     27  F   UNL d   1      -1.161  -3.907   4.437  0.00  0.00    -0.144 F 
ENDBRANCH  23  24
ENDBRANCH  18  23
ENDBRANCH   2  17
TORSDOF 7
