REMARK  1 active torsions:
REMARK  status: ('A' for Active; 'I' for Inactive)
REMARK    1  A    between atoms: N_2  and  C_1 
REMARK       I    between atoms: C_4  and  N_2 
ROOT
ATOM      1  C   UNL d   1       1.159  -1.218   0.096  0.00  0.00     0.075 A 
ATOM      2  C   UNL d   1      -0.026  -1.673   0.700  0.00  0.00     0.146 A 
ATOM      3  C   UNL d   1      -1.206  -0.928   0.672  0.00  0.00     0.086 A 
ATOM      4  C   UNL d   1       1.120   0.055  -0.505  0.00  0.00     0.036 A 
ATOM      5  C   UNL d   1      -1.206   0.318   0.067  0.00  0.00     0.119 A 
ATOM      6  F   UNL d   1      -0.051  -2.810   1.407  0.00  0.00    -0.204 F 
ATOM      7  C   UNL d   1      -0.052   0.820  -0.514  0.00  0.00     0.044 A 
ATOM      8  F   UNL d   1      -2.326   1.050   0.057  0.00  0.00    -0.206 F 
ENDROOT
BRANCH   1   9
ATOM      9  N   UNL d   1       2.393  -1.954   0.135  0.00  0.00    -0.320 N 
ATOM     10  C   UNL d   1       2.550  -3.344   0.149  0.00  0.00     0.220 C 
ATOM     11  O   UNL d   1       3.644  -3.868   0.383  0.00  0.00    -0.274 OA
ATOM     12  C   UNL d   1       1.405  -4.248  -0.236  0.00  0.00     0.117 C 
ATOM     13  C   UNL d   1       3.643  -1.196   0.168  0.00  0.00     0.159 C 
ENDBRANCH   1   9
TORSDOF 1
