REMARK  5 active torsions:
REMARK  status: ('A' for Active; 'I' for Inactive)
REMARK    1  A    between atoms: S_2  and  C_1 
REMARK    2  A    between atoms: N_8  and  S_2 
REMARK    3  A    between atoms: N_6  and  C_12 
REMARK    4  A    between atoms: C_19  and  N_8 
REMARK    5  A    between atoms: C_20  and  C_19 
ROOT
ATOM      1  C   UNL d   1      -1.374  -5.563  -6.174  0.00  0.00     0.030 A 
ATOM      2  C   UNL d   1      -1.449  -4.166  -6.238  0.00  0.00     0.030 A 
ATOM      3  C   UNL d   1      -1.345  -6.127  -4.893  0.00  0.00     0.030 A 
ATOM      4  C   UNL d   1      -1.555  -3.949  -3.820  0.00  0.00    -0.044 A 
ATOM      5  C   UNL d   1      -1.525  -3.371  -5.092  0.00  0.00     0.010 A 
ATOM      6  C   UNL d   1      -1.428  -5.341  -3.734  0.00  0.00     0.010 A 
ENDROOT
BRANCH   4   7
ATOM      7  C   UNL d   1      -1.659  -3.124  -2.558  0.00  0.00     0.143 C 
BRANCH   7   8
ATOM      8  N   UNL d   1      -2.439  -1.892  -2.735  0.00  0.00    -0.211 NA
ATOM      9  H   UNL d   1      -2.172  -1.300  -3.514  0.00  0.00     0.140 HD
BRANCH   8  10
ATOM     10  S   UNL d   1      -2.725  -0.970  -1.365  0.00  0.00     0.242 S 
ATOM     11  O   UNL d   1      -3.421  -1.788  -0.398  0.00  0.00    -0.206 OA
ATOM     12  O   UNL d   1      -3.219   0.312  -1.809  0.00  0.00    -0.206 OA
BRANCH  10  13
ATOM     13  C   UNL d   1      -1.189  -0.610  -0.634  0.00  0.00     0.088 A 
ATOM     14  C   UNL d   1      -0.133   0.032  -1.258  0.00  0.00     0.002 A 
ATOM     15  S   UNL d   1       1.226   0.138  -0.210  0.00  0.00    -0.099 SA
ATOM     16  C   UNL d   1      -0.008   0.607  -2.630  0.00  0.00     0.058 C 
ATOM     17  C   UNL d   1       0.413  -0.665   1.058  0.00  0.00    -0.019 A 
ATOM     18  C   UNL d   1      -0.872  -1.006   0.701  0.00  0.00     0.039 A 
ATOM     19  C   UNL d   1       1.106  -0.915   2.352  0.00  0.00     0.056 C 
ENDBRANCH  10  13
ENDBRANCH   8  10
ENDBRANCH   7   8
ENDBRANCH   4   7
BRANCH   1  20
ATOM     20  N   UNL d   1      -1.398  -6.320  -7.327  0.00  0.00    -0.378 N 
ATOM     21  C   UNL d   1      -1.840  -7.721  -7.341  0.00  0.00     0.153 C 
ATOM     22  C   UNL d   1      -2.630  -8.003  -8.644  0.00  0.00     0.291 C 
ATOM     23  N   UNL d   1      -1.882  -7.644  -9.872  0.00  0.00     0.087 N 
ATOM     24  C   UNL d   1      -1.465  -6.225  -9.791  0.00  0.00     0.291 C 
ATOM     25  C   UNL d   1      -2.708  -7.866 -11.057  0.00  0.00     0.310 C 
ATOM     26  C   UNL d   1      -0.635  -5.926  -8.522  0.00  0.00     0.153 C 
ENDBRANCH   1  20
TORSDOF 5
