REMARK  5 active torsions:
REMARK  status: ('A' for Active; 'I' for Inactive)
REMARK    1  A    between atoms: C_9  and  C_1 
REMARK    2  A    between atoms: O_13  and  C_1 
REMARK    3  A    between atoms: C_2  and  C_3 
REMARK    4  A    between atoms: O_8  and  C_9 
REMARK    5  A    between atoms: C_10  and  O_8 
ROOT
ATOM      1  C   UNL d   1      -3.910   2.306  -3.463  0.00  0.00     0.009 A 
ATOM      2  C   UNL d   1      -4.182   2.377  -2.091  0.00  0.00     0.018 A 
ATOM      3  C   UNL d   1      -2.706   1.747  -3.898  0.00  0.00     0.018 A 
ATOM      4  C   UNL d   1      -2.076   1.300  -1.595  0.00  0.00     0.069 A 
ATOM      5  C   UNL d   1      -3.263   1.889  -1.159  0.00  0.00     0.038 A 
ATOM      6  C   UNL d   1      -1.789   1.253  -2.963  0.00  0.00     0.038 A 
ENDROOT
BRANCH   4   7
ATOM      7  O   UNL d   1      -1.133   0.744  -0.776  0.00  0.00    -0.342 OA
BRANCH   7   8
ATOM      8  C   UNL d   1      -1.621   0.268   0.475  0.00  0.00     0.286 C 
BRANCH   8   9
ATOM      9  C   UNL d   1      -0.677  -0.750   1.094  0.00  0.00     0.282 C 
ATOM     10  O   UNL d   1       0.403  -1.105   0.643  0.00  0.00    -0.263 OA
BRANCH   9  11
ATOM     11  O   UNL d   1      -1.235  -1.229   2.248  0.00  0.00    -0.325 OA
ATOM     12  C   UNL d   1      -0.460  -2.238   2.894  0.00  0.00     0.213 C 
ENDBRANCH   9  11
ENDBRANCH   8   9
ENDBRANCH   7   8
ENDBRANCH   4   7
BRANCH   1  13
ATOM     13  C   UNL d   1      -4.950   2.813  -4.400  0.00  0.00     0.155 C 
ATOM     14  O   UNL d   1      -6.129   2.800  -4.049  0.00  0.00    -0.293 OA
ATOM     15  C   UNL d   1      -4.550   3.370  -5.740  0.00  0.00     0.096 C 
ENDBRANCH   1  13
TORSDOF 5
