REMARK  2 active torsions:
REMARK  status: ('A' for Active; 'I' for Inactive)
REMARK    1  A    between atoms: S_2  and  N_1 
REMARK    2  A    between atoms: C_8  and  S_2 
ROOT
ATOM      1  S   UNL d   1      -2.964   1.453  -0.626  0.00  0.00     0.263 S 
ATOM      2  O   UNL d   1      -2.748   1.857  -1.997  0.00  0.00    -0.200 OA
ATOM      3  O   UNL d   1      -4.025   0.540  -0.263  0.00  0.00    -0.200 OA
ENDROOT
BRANCH   1   4
ATOM      4  N   UNL d   1      -1.514   0.862  -0.040  0.00  0.00    -0.251 N 
ATOM      5  C   UNL d   1      -0.285   1.564  -0.357  0.00  0.00     0.412 C 
ATOM      6  N   UNL d   1       0.840   1.157   0.506  0.00  0.00     0.136 N 
ATOM      7  C   UNL d   1       1.726   0.226  -0.215  0.00  0.00     0.307 C 
ATOM      8  C   UNL d   1       0.322   0.267   1.547  0.00  0.00     0.547 C 
ATOM      9  C   UNL d   1       0.966  -1.099  -0.201  0.00  0.00     0.307 C 
ATOM     10  N   UNL d   1      -0.107  -0.922   0.805  0.00  0.00     0.136 N 
ATOM     11  C   UNL d   1      -1.379  -0.567   0.158  0.00  0.00     0.412 C 
ENDBRANCH   1   4
BRANCH   1  12
ATOM     12  C   UNL d   1      -3.183   2.913   0.367  0.00  0.00     0.079 A 
ATOM     13  C   UNL d   1      -3.323   4.160  -0.241  0.00  0.00     0.026 A 
ATOM     14  C   UNL d   1      -3.494   5.295   0.558  0.00  0.00     0.008 A 
ATOM     15  C   UNL d   1      -3.524   5.187   1.957  0.00  0.00    -0.062 A 
ATOM     16  C   UNL d   1      -3.370   3.928   2.551  0.00  0.00     0.008 A 
ATOM     17  C   UNL d   1      -3.724   6.415   2.796  0.00  0.00     0.048 C 
ATOM     18  C   UNL d   1      -3.203   2.789   1.760  0.00  0.00     0.026 A 
ENDBRANCH   1  12
TORSDOF 2
