REMARK  7 active torsions:
REMARK  status: ('A' for Active; 'I' for Inactive)
REMARK    1  A    between atoms: O_17  and  C_13 
REMARK    2  A    between atoms: C_14  and  O_18 
REMARK    3  A    between atoms: C_21  and  O_17 
REMARK    4  A    between atoms: O_18  and  C_20 
REMARK    5  A    between atoms: C_19  and  C_21 
REMARK    6  A    between atoms: C_20  and  C_19 
REMARK    7  A    between atoms: O_24  and  C_19 
ROOT
ATOM      1  C   UNL d   1       5.768  -1.705  -0.094  0.00  0.00     0.166 C 
ENDROOT
BRANCH   1   2
ATOM      2  C   UNL d   1       4.607  -0.697  -0.026  0.00  0.00     0.209 C 
BRANCH   2   3
ATOM      3  O   UNL d   1       4.733   0.083   1.169  0.00  0.00    -0.348 OA
BRANCH   3   4
ATOM      4  C   UNL d   1       3.791   1.055   1.382  0.00  0.00     0.071 A 
ATOM      5  C   UNL d   1       3.988   1.815   2.542  0.00  0.00     0.076 A 
ATOM      6  C   UNL d   1       3.091   2.826   2.818  0.00  0.00     0.107 A 
ATOM      7  C   UNL d   1       2.023   3.089   1.996  0.00  0.00     0.105 A 
ATOM      8  O   UNL d   1       3.137   3.663   3.889  0.00  0.00    -0.323 OA
ATOM      9  O   UNL d   1       1.264   4.125   2.442  0.00  0.00    -0.323 OA
ATOM     10  C   UNL d   1       1.790   2.356   0.854  0.00  0.00     0.042 A 
ATOM     11  C   UNL d   1       2.009   4.519   3.613  0.00  0.00     0.352 A 
ATOM     12  C   UNL d   1       2.691   1.327   0.544  0.00  0.00     0.039 A 
ENDBRANCH   3   4
ENDBRANCH   2   3
ENDBRANCH   1   2
BRANCH   1  13
ATOM     13  C   UNL d   1       5.667  -2.602  -1.333  0.00  0.00     0.209 C 
BRANCH  13  14
ATOM     14  O   UNL d   1       4.431  -3.309  -1.324  0.00  0.00    -0.348 OA
BRANCH  14  15
ATOM     15  C   UNL d   1       4.239  -4.231  -2.317  0.00  0.00     0.071 A 
ATOM     16  C   UNL d   1       3.019  -4.914  -2.246  0.00  0.00     0.076 A 
ATOM     17  C   UNL d   1       2.759  -5.881  -3.193  0.00  0.00     0.107 A 
ATOM     18  O   UNL d   1       1.635  -6.643  -3.265  0.00  0.00    -0.323 OA
ATOM     19  C   UNL d   1       3.657  -6.177  -4.189  0.00  0.00     0.105 A 
ATOM     20  C   UNL d   1       1.931  -7.450  -4.424  0.00  0.00     0.352 A 
ATOM     21  O   UNL d   1       3.218  -7.166  -5.010  0.00  0.00    -0.323 OA
ATOM     22  C   UNL d   1       4.859  -5.515  -4.298  0.00  0.00     0.042 A 
ATOM     23  C   UNL d   1       5.150  -4.527  -3.349  0.00  0.00     0.039 A 
ENDBRANCH  14  15
ENDBRANCH  13  14
ENDBRANCH   1  13
BRANCH   1  24
ATOM     24  O   UNL d   1       7.041  -1.042  -0.119  0.00  0.00    -0.391 OA
ATOM     25  H   UNL d   1       7.017  -0.359  -0.811  0.00  0.00     0.210 HD
ENDBRANCH   1  24
TORSDOF 7
