REMARK  6 active torsions:
REMARK  status: ('A' for Active; 'I' for Inactive)
REMARK    1  A    between atoms: O_3  and  C_1 
REMARK    2  A    between atoms: C_2  and  C_9 
REMARK    3  A    between atoms: O_12  and  C_2 
REMARK    4  A    between atoms: C_10  and  O_3 
REMARK    5  A    between atoms: O_8  and  C_11 
REMARK    6  A    between atoms: C_9  and  O_8 
ROOT
ATOM      1  C   UNL d   1       0.866   1.935  -1.402  0.00  0.00     0.078 A 
ATOM      2  C   UNL d   1       1.698   4.513  -2.162  0.00  0.00     0.069 A 
ATOM      3  C   UNL d   1       2.206   2.300  -1.301  0.00  0.00     0.040 A 
ATOM      4  C   UNL d   1      -0.041   2.845  -1.954  0.00  0.00     0.040 A 
ATOM      5  C   UNL d   1       0.372   4.124  -2.335  0.00  0.00     0.039 A 
ATOM      6  C   UNL d   1       2.619   3.590  -1.665  0.00  0.00     0.039 A 
ENDROOT
BRANCH   2   7
ATOM      7  O   UNL d   1       1.996   5.787  -2.561  0.00  0.00    -0.341 OA
BRANCH   7   8
ATOM      8  C   UNL d   1       3.056   6.423  -1.835  0.00  0.00     0.285 C 
BRANCH   8   9
ATOM      9  C   UNL d   1       3.199   7.850  -2.329  0.00  0.00     0.164 C 
ATOM     10  O   UNL d   1       4.003   8.654  -1.879  0.00  0.00    -0.648 OA
BRANCH   9  11
ATOM     11  O   UNL d   1       2.350   8.160  -3.347  0.00  0.00    -0.775 OA
ATOM     12  H   UNL d   1       1.798   7.375  -3.558  0.00  0.00     0.167 HD
ENDBRANCH   9  11
ENDBRANCH   8   9
ENDBRANCH   7   8
ENDBRANCH   2   7
BRANCH   1  13
ATOM     13  O   UNL d   1       0.314   0.747  -1.038  0.00  0.00    -0.255 OA
BRANCH  13  14
ATOM     14  C   UNL d   1       0.969  -0.074  -0.083  0.00  0.00     0.530 C 
ATOM     15  F   UNL d   1       1.835   0.596   0.707  0.00  0.00    -0.144 F 
ATOM     16  F   UNL d   1       1.624  -1.072  -0.712  0.00  0.00    -0.144 F 
ATOM     17  F   UNL d   1       0.029  -0.625   0.719  0.00  0.00    -0.144 F 
ENDBRANCH  13  14
ENDBRANCH   1  13
TORSDOF 6
