REMARK  2 active torsions:
REMARK  status: ('A' for Active; 'I' for Inactive)
REMARK       I    between atoms: N_2  and  C_1 
REMARK    1  A    between atoms: C_4  and  C_1 
REMARK    2  A    between atoms: C_7  and  N_2 
ROOT
ATOM      1  C   UNL d   1       0.985  -0.109  -0.119  0.00  0.00     0.256 C 
ATOM      2  N   UNL d   1       0.380  -1.333   0.114  0.00  0.00    -0.323 N 
ATOM      3  O   UNL d   1       0.405   0.967  -0.246  0.00  0.00    -0.267 OA
ATOM      4  H   UNL d   1       0.971  -2.095   0.423  0.00  0.00     0.169 HD
ENDROOT
BRANCH   2   5
ATOM      5  C   UNL d   1      -1.019  -1.550   0.166  0.00  0.00     0.037 A 
ATOM      6  C   UNL d   1      -1.950  -0.647  -0.343  0.00  0.00     0.046 A 
ATOM      7  C   UNL d   1      -3.299  -0.928  -0.200  0.00  0.00     0.090 A 
ATOM      8  N   UNL d   1      -3.774  -2.039   0.398  0.00  0.00    -0.375 N 
ATOM      9  C   UNL d   1      -2.855  -2.910   0.864  0.00  0.00     0.090 A 
ATOM     10  HN  UNL d   1      -4.775  -2.212   0.494  1.00  0.00     0.164 HD
ATOM     11  C   UNL d   1      -1.484  -2.722   0.759  0.00  0.00     0.046 A 
ENDBRANCH   2   5
BRANCH   1  12
ATOM     12  C   UNL d   1       2.473  -0.098  -0.168  0.00  0.00     0.032 A 
ATOM     13  C   UNL d   1       3.213  -1.157  -0.705  0.00  0.00     0.017 A 
ATOM     14  C   UNL d   1       4.601  -1.040  -0.827  0.00  0.00     0.001 A 
ATOM     15  C   UNL d   1       5.248   0.126  -0.413  0.00  0.00     0.000 A 
ATOM     16  C   UNL d   1       4.516   1.175   0.137  0.00  0.00     0.001 A 
ATOM     17  C   UNL d   1       3.132   1.065   0.259  0.00  0.00     0.017 A 
ENDBRANCH   1  12
TORSDOF 2
