REMARK  4 active torsions:
REMARK  status: ('A' for Active; 'I' for Inactive)
REMARK    1  A    between atoms: C_21  and  N_1 
REMARK    2  A    between atoms: C_3  and  C_11 
REMARK       I    between atoms: C_11  and  N_19 
REMARK    3  A    between atoms: C_16  and  C_22 
REMARK       I    between atoms: N_20  and  C_16 
REMARK    4  A    between atoms: N_19  and  N_20 
ROOT
ATOM      1  C   UNL d   1       5.744  -3.787  -0.299  0.00  0.00     0.270 C 
ATOM      2  N   UNL d   1       6.770  -3.530   0.586  0.00  0.00    -0.263 N 
ATOM      3  O   UNL d   1       5.837  -4.662  -1.159  0.00  0.00    -0.266 OA
ATOM      4  H   UNL d   1       6.766  -2.813   1.307  0.00  0.00     0.190 HD
ENDROOT
BRANCH   2   5
ATOM      5  N   UNL d   1       7.892  -4.369   0.573  0.00  0.00    -0.263 N 
ATOM      6  C   UNL d   1       8.872  -4.137   1.514  0.00  0.00     0.270 C 
ATOM      7  O   UNL d   1       8.867  -3.159   2.258  0.00  0.00    -0.266 OA
ATOM      8  H   UNL d   1       7.900  -5.114  -0.121  0.00  0.00     0.190 HD
BRANCH   6   9
ATOM      9  C   UNL d   1       9.952  -5.150   1.627  0.00  0.00     0.035 A 
ATOM     10  C   UNL d   1       9.620  -6.519   1.581  0.00  0.00     0.049 A 
ATOM     11  C   UNL d   1      10.673  -7.413   1.892  0.00  0.00     0.067 A 
ATOM     12  N   UNL d   1      10.569  -8.748   1.968  0.00  0.00    -0.310 N 
ATOM     13  C   UNL d   1      12.061  -6.910   2.203  0.00  0.00     0.067 A 
ATOM     14  S   UNL d   1      12.068  -9.313   2.413  0.00  0.00     0.068 SA
ATOM     15  HN  UNL d   1       9.734  -9.307   1.789  1.00  0.00     0.176 HD
ATOM     16  N   UNL d   1      12.925  -7.893   2.495  0.00  0.00    -0.310 N 
ATOM     17  HN  UNL d   1      13.914  -7.788   2.722  1.00  0.00     0.176 HD
ATOM     18  C   UNL d   1      12.351  -5.526   2.186  0.00  0.00     0.033 A 
ATOM     19  C   UNL d   1      11.263  -4.676   1.912  0.00  0.00     0.019 A 
ENDBRANCH   6   9
ENDBRANCH   2   5
BRANCH   1  20
ATOM     20  C   UNL d   1       4.502  -2.959  -0.180  0.00  0.00     0.033 A 
ATOM     21  C   UNL d   1       4.229  -2.138   0.915  0.00  0.00     0.019 A 
ATOM     22  C   UNL d   1       3.034  -1.403   0.972  0.00  0.00     0.031 A 
ATOM     23  C   UNL d   1       2.101  -1.469  -0.071  0.00  0.00     0.039 A 
ATOM     24  C   UNL d   1       2.368  -2.304  -1.162  0.00  0.00     0.031 A 
ATOM     25  C   UNL d   1       3.557  -3.048  -1.210  0.00  0.00     0.019 A 
BRANCH  23  26
ATOM     26  N   UNL d   1       0.902  -0.684  -0.028  0.00  0.00    -0.320 N 
ATOM     27  C   UNL d   1      -0.366  -1.071  -0.478  0.00  0.00     0.013 A 
ATOM     28  C   UNL d   1      -1.236  -0.011  -0.298  0.00  0.00     0.027 A 
ATOM     29  C   UNL d   1      -0.748  -2.422  -0.981  0.00  0.00     0.068 C 
ATOM     30  C   UNL d   1      -0.525   1.035   0.302  0.00  0.00     0.027 A 
ATOM     31  C   UNL d   1       0.786   0.625   0.457  0.00  0.00     0.013 A 
ATOM     32  C   UNL d   1       1.902   1.476   0.962  0.00  0.00     0.068 C 
ENDBRANCH  23  26
ENDBRANCH   1  20
TORSDOF 4
