REMARK  5 active torsions:
REMARK  status: ('A' for Active; 'I' for Inactive)
REMARK    1  A    between atoms: C_2  and  S_1 
REMARK    2  A    between atoms: N_4  and  S_1 
REMARK    3  A    between atoms: C_3  and  C_2 
REMARK       I    between atoms: N_7  and  C_3 
REMARK    4  A    between atoms: C_9  and  N_4 
REMARK    5  A    between atoms: C_10  and  N_7 
ROOT
ATOM      1  S   UNL d   1       0.765  -0.145   0.081  0.00  0.00     0.222 S 
ATOM      2  O   UNL d   1       0.154   1.163  -0.012  0.00  0.00    -0.211 OA
ATOM      3  O   UNL d   1       2.185  -0.277   0.327  0.00  0.00    -0.211 OA
ENDROOT
BRANCH   1   4
ATOM      4  C   UNL d   1       0.351  -1.052  -1.362  0.00  0.00     0.260 C 
BRANCH   4   5
ATOM      5  C   UNL d   1       0.816  -0.470  -2.668  0.00  0.00     0.237 C 
ATOM      6  N   UNL d   1       1.764   0.532  -2.684  0.00  0.00    -0.326 N 
ATOM      7  H   UNL d   1       2.239   0.776  -1.820  0.00  0.00     0.169 HD
ATOM      8  O   UNL d   1       0.328  -0.970  -3.688  0.00  0.00    -0.272 OA
BRANCH   6   9
ATOM      9  C   UNL d   1       2.137   1.321  -3.804  0.00  0.00     0.034 A 
ATOM     10  C   UNL d   1       1.583   1.182  -5.082  0.00  0.00     0.031 A 
ATOM     11  C   UNL d   1       1.936   2.052  -6.120  0.00  0.00     0.026 A 
ATOM     12  C   UNL d   1       2.852   3.071  -5.890  0.00  0.00     0.034 A 
ATOM     13  C   UNL d   1       3.437   3.210  -4.634  0.00  0.00     0.026 A 
ATOM     14 CL   UNL d   1       3.247   4.169  -7.153  0.00  0.00    -0.084 Cl
ATOM     15  C   UNL d   1       3.084   2.336  -3.598  0.00  0.00     0.031 A 
ENDBRANCH   6   9
ENDBRANCH   4   5
ENDBRANCH   1   4
BRANCH   1  16
ATOM     16  N   UNL d   1      -0.125  -0.963   1.262  0.00  0.00    -0.185 NA
ATOM     17  H   UNL d   1      -0.694  -0.296   1.789  0.00  0.00     0.146 HD
BRANCH  16  18
ATOM     18  C   UNL d   1       0.514  -1.964   2.047  0.00  0.00     0.022 A 
ATOM     19  C   UNL d   1       1.163  -1.611   3.231  0.00  0.00     0.026 A 
ATOM     20  C   UNL d   1       1.726  -2.607   4.036  0.00  0.00     0.026 A 
ATOM     21  C   UNL d   1       1.643  -3.942   3.648  0.00  0.00     0.034 A 
ATOM     22  C   UNL d   1       1.019  -4.292   2.449  0.00  0.00     0.026 A 
ATOM     23 CL   UNL d   1       2.294  -5.170   4.661  0.00  0.00    -0.084 Cl
ATOM     24  C   UNL d   1       0.459  -3.296   1.642  0.00  0.00     0.026 A 
ENDBRANCH  16  18
ENDBRANCH   1  16
TORSDOF 5
