REMARK  4 active torsions:
REMARK  status: ('A' for Active; 'I' for Inactive)
REMARK    1  A    between atoms: N_3  and  S_1 
REMARK    2  A    between atoms: C_9  and  S_1 
REMARK    3  A    between atoms: C_2  and  N_3 
REMARK    4  A    between atoms: C_12  and  C_8 
ROOT
ATOM      1  C   UNL d   1       0.813   2.494  -1.217  0.00  0.00     0.133 A 
ATOM      2  C   UNL d   1      -0.030   3.494  -1.633  0.00  0.00     0.082 A 
ATOM      3  N   UNL d   1       1.915   4.446  -0.956  0.00  0.00    -0.296 N 
ATOM      4  HN  UNL d   1       2.647   5.120  -0.735  1.00  0.00     0.187 HD
ATOM      5  N   UNL d   1       1.981   3.105  -0.856  0.00  0.00    -0.280 N 
ATOM      6  C   UNL d   1       0.678   4.707  -1.410  0.00  0.00     0.062 A 
ATOM      7  C   UNL d   1       3.247   2.488  -0.537  0.00  0.00     0.179 C 
ENDROOT
BRANCH   1   8
ATOM      8  N   UNL d   1       0.479   1.157  -1.212  0.00  0.00    -0.264 N 
ATOM      9  H   UNL d   1       0.130   0.736  -2.055  0.00  0.00     0.180 HD
BRANCH   8  10
ATOM     10  S   UNL d   1       0.001   0.387   0.152  0.00  0.00     0.264 S 
ATOM     11  O   UNL d   1       0.885   0.682   1.253  0.00  0.00    -0.200 OA
ATOM     12  O   UNL d   1      -0.319  -0.986  -0.188  0.00  0.00    -0.200 OA
BRANCH  10  13
ATOM     13  C   UNL d   1      -1.576   1.181   0.517  0.00  0.00     0.080 A 
ATOM     14  C   UNL d   1      -2.755   0.684  -0.058  0.00  0.00     0.028 A 
ATOM     15  C   UNL d   1      -3.979   1.280   0.257  0.00  0.00     0.044 A 
ATOM     16  C   UNL d   1      -4.018   2.356   1.141  0.00  0.00     0.116 A 
ATOM     17  C   UNL d   1      -2.852   2.846   1.723  0.00  0.00     0.044 A 
ATOM     18  F   UNL d   1      -5.195   2.920   1.442  0.00  0.00    -0.206 F 
ATOM     19  C   UNL d   1      -1.619   2.253   1.417  0.00  0.00     0.028 A 
ENDBRANCH  10  13
ENDBRANCH   8  10
ENDBRANCH   1   8
BRANCH   6  20
ATOM     20  C   UNL d   1       0.199   6.081  -1.599  0.00  0.00    -0.008 A 
ATOM     21  C   UNL d   1      -1.137   6.345  -1.938  0.00  0.00     0.015 A 
ATOM     22  C   UNL d   1      -1.591   7.660  -2.087  0.00  0.00     0.024 A 
ATOM     23  C   UNL d   1      -0.712   8.723  -1.899  0.00  0.00     0.034 A 
ATOM     24  C   UNL d   1       0.618   8.483  -1.568  0.00  0.00     0.024 A 
ATOM     25 CL   UNL d   1      -1.276  10.337  -2.072  0.00  0.00    -0.084 Cl
ATOM     26  C   UNL d   1       1.070   7.168  -1.419  0.00  0.00     0.015 A 
ENDBRANCH   6  20
TORSDOF 4
