REMARK  1 active torsions:
REMARK  status: ('A' for Active; 'I' for Inactive)
REMARK    1  A    between atoms: C_2  and  N_1 
ROOT
ATOM      1  N   UNL d   1      -0.011   0.898  -0.013  0.00  0.00    -0.245 N 
ATOM      2  C   UNL d   1      -0.916   0.109   0.643  0.00  0.00     0.255 A 
ATOM      3  C   UNL d   1       0.896   0.099  -0.655  0.00  0.00     0.255 A 
ATOM      4  C   UNL d   1      -0.549  -1.289   0.395  0.00  0.00     0.080 A 
ATOM      5  C   UNL d   1       0.531  -1.296  -0.380  0.00  0.00     0.080 A 
ATOM      6  O   UNL d   1      -1.904   0.393   1.301  0.00  0.00    -0.268 OA
ATOM      7  O   UNL d   1       1.884   0.370  -1.317  0.00  0.00    -0.268 OA
ENDROOT
BRANCH   1   8
ATOM      8  C   UNL d   1      -0.012   2.323  -0.027  0.00  0.00     0.047 A 
ATOM      9  C   UNL d   1      -0.710   3.061   0.943  0.00  0.00     0.049 A 
ATOM     10  C   UNL d   1      -0.694   4.459   0.929  0.00  0.00     0.013 A 
ATOM     11 BR   UNL d   1      -1.603   5.421   2.281  0.00  0.00    -0.051 Br
ATOM     12  C   UNL d   1      -0.004   5.153  -0.059  0.00  0.00     0.019 A 
ATOM     13  C   UNL d   1       0.685   4.441  -1.034  0.00  0.00     0.004 A 
ATOM     14  C   UNL d   1       0.688   3.041  -1.011  0.00  0.00     0.030 A 
ENDBRANCH   1   8
TORSDOF 1
