REMARK  5 active torsions:
REMARK  status: ('A' for Active; 'I' for Inactive)
REMARK    1  A    between atoms: C_14  and  N_7 
REMARK    2  A    between atoms: N_11  and  C_10 
REMARK    3  A    between atoms: N_12  and  N_11 
REMARK    4  A    between atoms: C_23  and  C_14 
REMARK    5  A    between atoms: C_22  and  C_17 
ROOT
ATOM      1  C   UNL d   1      -0.066  -1.230  -0.003  0.00  0.00     0.160 A 
ATOM      2  C   UNL d   1       0.681  -2.366  -0.020  0.00  0.00     0.165 A 
ATOM      3  N   UNL d   1      -1.389  -1.495   0.051  0.00  0.00    -0.172 N 
ATOM      4  HN  UNL d   1      -2.152  -0.818   0.067  1.00  0.00     0.186 HD
ATOM      5  N   UNL d   1       0.498   0.020  -0.004  0.00  0.00    -0.287 N 
ATOM      6  N   UNL d   1       2.636  -1.043  -0.011  0.00  0.00    -0.269 N 
ATOM      7  N   UNL d   1      -0.235  -3.395  -0.019  0.00  0.00    -0.168 N 
ATOM      8  C   UNL d   1       1.887   0.147  -0.007  0.00  0.00     0.332 A 
ATOM      9  C   UNL d   1       2.106  -2.341  -0.012  0.00  0.00     0.282 A 
ATOM     10  C   UNL d   1      -1.492  -2.814   0.079  0.00  0.00     0.701 A 
ATOM     11  O   UNL d   1       2.425   1.258   0.005  0.00  0.00    -0.246 OA
ATOM     12  O   UNL d   1       2.800  -3.354   0.020  0.00  0.00    -0.265 OA
ATOM     13  C   UNL d   1      -0.315   1.220   0.024  0.00  0.00     0.163 C 
ATOM     14  C   UNL d   1       4.082  -0.939   0.022  0.00  0.00     0.164 C 
ENDROOT
BRANCH  10  15
ATOM     15  N   UNL d   1      -2.646  -3.524   0.213  0.00  0.00    -0.132 N 
ATOM     16  H   UNL d   1      -2.617  -4.535   0.267  0.00  0.00     0.205 HD
BRANCH  15  17
ATOM     17  N   UNL d   1      -3.728  -2.904   0.759  0.00  0.00    -0.290 N 
ATOM     18  C   UNL d   1      -4.914  -3.433   0.710  0.00  0.00     0.033 C 
ATOM     19  C   UNL d   1      -5.252  -4.733   0.015  0.00  0.00     0.070 C 
ATOM     20  HN  UNL d   1      -3.605  -2.001   1.218  1.00  0.00     0.187 HD
BRANCH  18  21
ATOM     21  C   UNL d   1      -6.030  -2.687   1.391  0.00  0.00    -0.010 A 
ATOM     22  C   UNL d   1      -5.766  -1.431   1.947  0.00  0.00     0.030 A 
ATOM     23  C   UNL d   1      -6.793  -0.764   2.593  0.00  0.00     0.088 A 
ATOM     24  N   UNL d   1      -8.041  -1.258   2.715  0.00  0.00    -0.375 N 
ATOM     25  C   UNL d   1      -8.276  -2.468   2.170  0.00  0.00     0.088 A 
ATOM     26  HN  UNL d   1      -8.775  -0.739   3.199  1.00  0.00     0.164 HD
ATOM     27  C   UNL d   1      -7.317  -3.215   1.505  0.00  0.00     0.030 A 
ENDBRANCH  18  21
ENDBRANCH  15  17
ENDBRANCH  10  15
BRANCH   7  28
ATOM     28  C   UNL d   1       0.087  -4.814   0.014  0.00  0.00     0.186 C 
BRANCH  28  29
ATOM     29  C   UNL d   1       0.312  -5.390  -1.364  0.00  0.00    -0.039 A 
ATOM     30  C   UNL d   1       1.579  -5.878  -1.725  0.00  0.00     0.009 A 
ATOM     31  C   UNL d   1       1.797  -6.433  -2.988  0.00  0.00     0.001 A 
ATOM     32  C   UNL d   1       0.753  -6.511  -3.906  0.00  0.00     0.000 A 
ATOM     33  C   UNL d   1      -0.510  -6.035  -3.561  0.00  0.00     0.001 A 
ATOM     34  C   UNL d   1      -0.731  -5.479  -2.298  0.00  0.00     0.009 A 
ENDBRANCH  28  29
ENDBRANCH   7  28
TORSDOF 5
