REMARK  7 active torsions:
REMARK  status: ('A' for Active; 'I' for Inactive)
REMARK    1  A    between atoms: C_3  and  C_1 
REMARK    2  A    between atoms: O_9  and  C_1 
REMARK    3  A    between atoms: C_4  and  C_2 
REMARK    4  A    between atoms: N_18  and  C_2 
REMARK    5  A    between atoms: N_5  and  O_9 
REMARK    6  A    between atoms: S_19  and  C_11 
REMARK    7  A    between atoms: C_21  and  S_19 
ROOT
ATOM      1  C   UNL d   1      -1.740   0.759   2.095  0.00  0.00     0.110 C 
ATOM      2  N   UNL d   1      -3.007   0.488   2.186  0.00  0.00    -0.246 N 
ATOM      3  HN  UNL d   1      -3.547   0.567   3.048  1.00  0.00     0.196 HD
ENDROOT
BRANCH   1   4
ATOM      4  C   UNL d   1      -1.042   1.248   3.320  0.00  0.00     0.019 A 
ATOM      5  C   UNL d   1      -1.485   0.884   4.585  0.00  0.00     0.103 A 
ATOM      6  N   UNL d   1      -0.880   1.268   5.741  0.00  0.00    -0.360 N 
ATOM      7  C   UNL d   1       0.196   2.079   5.640  0.00  0.00     0.069 A 
ATOM      8  HN  UNL d   1      -1.224   0.955   6.649  1.00  0.00     0.166 HD
ATOM      9  C   UNL d   1       0.689   2.518   4.415  0.00  0.00     0.038 A 
ATOM     10  C   UNL d   1       0.068   2.088   3.239  0.00  0.00     0.019 A 
BRANCH   7  11
ATOM     11  S   UNL d   1       0.983   2.644   7.139  0.00  0.00    -0.113 SA
BRANCH  11  12
ATOM     12  C   UNL d   1       0.561   1.272   8.262  0.00  0.00     0.076 C 
ATOM     13  C   UNL d   1       1.110   1.543   9.653  0.00  0.00     0.016 C 
ENDBRANCH  11  12
ENDBRANCH   7  11
ENDBRANCH   1   4
BRANCH   1  14
ATOM     14  N   UNL d   1      -1.008   0.607   0.939  0.00  0.00    -0.286 NA
ATOM     15  H   UNL d   1      -1.488   0.041   0.246  0.00  0.00     0.125 HD
ATOM     16  H   UNL d   1      -0.042   0.323   1.060  0.00  0.00     0.125 HD
ENDBRANCH   1  14
BRANCH   2  17
ATOM     17  O   UNL d   1      -3.548   0.072   0.946  0.00  0.00    -0.193 OA
BRANCH  17  18
ATOM     18  C   UNL d   1      -4.898  -0.187   1.084  0.00  0.00     0.322 C 
ATOM     19  O   UNL d   1      -5.527  -0.118   2.138  0.00  0.00    -0.257 OA
BRANCH  18  20
ATOM     20  C   UNL d   1      -5.505  -0.589  -0.179  0.00  0.00     0.082 A 
ATOM     21  S   UNL d   1      -4.666  -0.594  -1.673  0.00  0.00    -0.096 SA
ATOM     22  C   UNL d   1      -6.037  -1.158  -2.529  0.00  0.00     0.050 A 
ATOM     23  C   UNL d   1      -7.122  -1.341  -1.701  0.00  0.00     0.009 A 
ATOM     24  C   UNL d   1      -6.816  -1.007  -0.351  0.00  0.00     0.026 A 
ENDBRANCH  18  20
ENDBRANCH  17  18
ENDBRANCH   2  17
TORSDOF 7
