REMARK  4 active torsions:
REMARK  status: ('A' for Active; 'I' for Inactive)
REMARK    1  A    between atoms: N_14  and  C_2 
REMARK    2  A    between atoms: C_12  and  C_3 
REMARK    3  A    between atoms: C_11  and  C_6 
REMARK    4  A    between atoms: C_17  and  C_9 
ROOT
ATOM      1  C   UNL d   1       0.223   0.898   0.004  0.00  0.00     0.056 A 
ATOM      2  C   UNL d   1       1.605   1.223   0.126  0.00  0.00     0.079 A 
ATOM      3  C   UNL d   1       2.324   0.045   0.064  0.00  0.00     0.150 A 
ATOM      4  C   UNL d   1       0.187  -0.499  -0.025  0.00  0.00     0.162 A 
ATOM      5  O   UNL d   1       1.454  -1.006  -0.013  0.00  0.00    -0.287 OA
ATOM      6  C   UNL d   1      -1.020   1.558  -0.052  0.00  0.00    -0.000 A 
ATOM      7  N   UNL d   1      -0.896  -1.295  -0.050  0.00  0.00    -0.335 N 
ATOM      8  HN  UNL d   1      -0.833  -2.313  -0.057  1.00  0.00     0.168 HD
ATOM      9  C   UNL d   1      -2.077  -0.635  -0.063  0.00  0.00     0.045 A 
ATOM     10  C   UNL d   1      -2.172   0.757  -0.072  0.00  0.00     0.044 A 
ENDROOT
BRANCH   9  11
ATOM     11  C   UNL d   1      -3.301  -1.466   0.003  0.00  0.00    -0.009 A 
ATOM     12  C   UNL d   1      -4.487  -1.088  -0.660  0.00  0.00     0.013 A 
ATOM     13  C   UNL d   1      -5.675  -1.809  -0.504  0.00  0.00     0.001 A 
ATOM     14  C   UNL d   1      -5.700  -2.938   0.307  0.00  0.00     0.000 A 
ATOM     15  C   UNL d   1      -4.535  -3.358   0.943  0.00  0.00     0.001 A 
ATOM     16  C   UNL d   1      -3.348  -2.633   0.787  0.00  0.00     0.013 A 
ENDBRANCH   9  11
BRANCH   6  17
ATOM     17  C   UNL d   1      -1.148   3.017  -0.034  0.00  0.00     0.016 A 
ATOM     18  S   UNL d   1      -0.262   4.006  -1.123  0.00  0.00    -0.101 SA
ATOM     19  C   UNL d   1      -0.904   5.443  -0.459  0.00  0.00     0.050 A 
ATOM     20  C   UNL d   1      -1.871   5.184   0.484  0.00  0.00     0.008 A 
ATOM     21  C   UNL d   1      -2.021   3.786   0.717  0.00  0.00     0.020 A 
ENDBRANCH   6  17
BRANCH   2  22
ATOM     22  N   UNL d   1       2.152   2.444   0.281  0.00  0.00    -0.396 N 
ATOM     23  H   UNL d   1       1.617   3.301   0.164  0.00  0.00     0.156 HD
ATOM     24  H   UNL d   1       3.164   2.575   0.234  0.00  0.00     0.156 HD
ENDBRANCH   2  22
BRANCH   3  25
ATOM     25  C   UNL d   1       3.755  -0.183   0.075  0.00  0.00     0.181 C 
ATOM     26  O   UNL d   1       4.575   0.739   0.130  0.00  0.00    -0.291 OA
ATOM     27  C   UNL d   1       4.262  -1.602  -0.008  0.00  0.00     0.099 C 
ENDBRANCH   3  25
TORSDOF 4
