REMARK  2 active torsions:
REMARK  status: ('A' for Active; 'I' for Inactive)
REMARK    1  A    between atoms: C_2  and  N_1 
REMARK    2  A    between atoms: N_4  and  C_3 
ROOT
ATOM      1  C   UNL d   1       2.053  -1.448  -0.069  0.00  0.00     0.160 A 
ATOM      2  C   UNL d   1       3.257  -1.000   0.461  0.00  0.00     0.148 A 
ATOM      3  N   UNL d   1       1.994  -2.577  -0.843  0.00  0.00    -0.349 N 
ATOM      4  HN  UNL d   1       1.104  -2.920  -1.206  1.00  0.00     0.167 HD
ATOM      5  C   UNL d   1       4.441  -1.701   0.194  0.00  0.00     0.041 A 
ATOM      6  C   UNL d   1       3.153  -3.223  -1.109  0.00  0.00     0.090 A 
ATOM      7  C   UNL d   1       4.386  -2.826  -0.622  0.00  0.00     0.020 A 
ENDROOT
BRANCH   1   8
ATOM      8  N   UNL d   1       0.852  -0.692   0.087  0.00  0.00    -0.242 N 
ATOM      9  N   UNL d   1       0.911   0.665   0.166  0.00  0.00    -0.297 N 
ATOM     10  C   UNL d   1      -0.356   1.077   0.092  0.00  0.00     0.024 A 
ATOM     11  HN  UNL d   1       1.746   1.244   0.262  1.00  0.00     0.187 HD
ATOM     12  C   UNL d   1      -0.685   2.522   0.084  0.00  0.00     0.070 C 
ATOM     13  C   UNL d   1      -1.251  -0.007   0.033  0.00  0.00     0.052 A 
ATOM     14  C   UNL d   1      -0.461  -1.138   0.047  0.00  0.00     0.034 A 
ATOM     15  C   UNL d   1      -0.883  -2.562   0.085  0.00  0.00     0.070 C 
ENDBRANCH   1   8
BRANCH   2  16
ATOM     16  N   UNL d   1       3.312   0.052   1.451  0.00  0.00    -0.112 N 
ATOM     17  O   UNL d   1       2.683  -0.135   2.501  0.00  0.00    -0.532 OA
ATOM     18  O   UNL d   1       4.095   0.989   1.231  0.00  0.00    -0.532 OA
ENDBRANCH   2  16
TORSDOF 2
