REMARK  3 active torsions:
REMARK  status: ('A' for Active; 'I' for Inactive)
REMARK    1  A    between atoms: C_5  and  C_3 
REMARK    2  A    between atoms: O_11  and  C_6 
REMARK    3  A    between atoms: C_14  and  O_11 
ROOT
ATOM      1  C   UNL d   1      -3.302  -1.824   0.157  0.00  0.00     0.039 A 
ATOM      2  C   UNL d   1      -4.023  -1.492  -0.978  0.00  0.00     0.093 A 
ATOM      3  S   UNL d   1      -4.365  -2.167   1.476  0.00  0.00    -0.099 SA
ATOM      4  C   UNL d   1      -5.435  -1.477  -0.742  0.00  0.00     0.046 A 
ATOM      5  C   UNL d   1      -5.755  -1.860   0.539  0.00  0.00     0.053 A 
ENDROOT
BRANCH   1   6
ATOM      6  C   UNL d   1      -1.905  -1.897   0.407  0.00  0.00     0.039 C 
ATOM      7  C   UNL d   1      -1.153  -2.961   0.091  0.00  0.00     0.046 A 
ATOM      8  C   UNL d   1      -1.553  -4.190  -0.685  0.00  0.00     0.257 A 
ATOM      9  C   UNL d   1       0.226  -3.175   0.554  0.00  0.00     0.006 A 
ATOM     10  N   UNL d   1      -0.438  -5.019  -0.636  0.00  0.00    -0.322 N 
ATOM     11  O   UNL d   1      -2.607  -4.436  -1.238  0.00  0.00    -0.267 OA
ATOM     12  C   UNL d   1       0.594  -4.444   0.099  0.00  0.00     0.046 A 
ATOM     13  H   UNL d   1      -0.424  -5.930  -1.064  0.00  0.00     0.169 HD
ATOM     14  C   UNL d   1       1.813  -5.016   0.403  0.00  0.00     0.030 A 
ATOM     15  C   UNL d   1       2.685  -4.281   1.209  0.00  0.00     0.002 A 
ATOM     16  C   UNL d   1       2.326  -3.003   1.676  0.00  0.00     0.001 A 
ATOM     17  C   UNL d   1       1.090  -2.438   1.347  0.00  0.00     0.015 A 
ENDBRANCH   1   6
BRANCH   2  18
ATOM     18  O   UNL d   1      -3.395  -1.176  -2.145  0.00  0.00    -0.309 OA
BRANCH  18  19
ATOM     19  C   UNL d   1      -4.074  -1.261  -3.340  0.00  0.00     0.076 A 
ATOM     20  C   UNL d   1      -4.047  -0.157  -4.193  0.00  0.00     0.037 A 
ATOM     21  C   UNL d   1      -4.740  -0.200  -5.405  0.00  0.00     0.003 A 
ATOM     22  C   UNL d   1      -5.451  -1.347  -5.764  0.00  0.00     0.000 A 
ATOM     23  C   UNL d   1      -5.450  -2.461  -4.924  0.00  0.00     0.003 A 
ATOM     24  C   UNL d   1      -4.747  -2.425  -3.719  0.00  0.00     0.037 A 
ENDBRANCH  18  19
ENDBRANCH   2  18
TORSDOF 3
