REMARK  3 active torsions:
REMARK  status: ('A' for Active; 'I' for Inactive)
REMARK    1  A    between atoms: C_6  and  C_1 
REMARK    2  A    between atoms: O_11  and  C_2 
REMARK    3  A    between atoms: C_12  and  N_8 
ROOT
ATOM      1  C   UNL d   1       1.856  -0.812   0.073  0.00  0.00     0.089 A 
ATOM      2  C   UNL d   1       0.643  -1.388   0.032  0.00  0.00     0.096 A 
ATOM      3  C   UNL d   1       2.005   0.659   0.057  0.00  0.00     0.302 A 
ATOM      4  O   UNL d   1       0.850   1.424   0.058  0.00  0.00    -0.274 OA
ATOM      5  C   UNL d   1      -0.563  -0.557  -0.001  0.00  0.00     0.032 A 
ATOM      6  C   UNL d   1      -0.421   0.827   0.030  0.00  0.00     0.092 A 
ATOM      7  O   UNL d   1       3.114   1.186   0.044  0.00  0.00    -0.259 OA
ATOM      8  C   UNL d   1      -1.860  -1.082  -0.042  0.00  0.00     0.017 A 
ATOM      9  C   UNL d   1      -1.518   1.688   0.034  0.00  0.00     0.038 A 
ATOM     10  C   UNL d   1      -2.973  -0.233  -0.042  0.00  0.00     0.001 A 
ATOM     11  C   UNL d   1      -2.802   1.152   0.001  0.00  0.00     0.003 A 
ENDROOT
BRANCH   1  12
ATOM     12  C   UNL d   1       3.089  -1.643   0.175  0.00  0.00     0.108 C 
ATOM     13  N   UNL d   1       3.094  -2.938   0.085  0.00  0.00    -0.365 N 
ATOM     14  HN  UNL d   1       2.229  -3.452  -0.079  1.00  0.00     0.165 HD
BRANCH  13  15
ATOM     15  C   UNL d   1       4.322  -3.617   0.218  0.00  0.00     0.032 A 
ATOM     16  C   UNL d   1       4.323  -4.845   0.889  0.00  0.00     0.031 A 
ATOM     17  C   UNL d   1       5.500  -5.587   1.035  0.00  0.00     0.026 A 
ATOM     18  C   UNL d   1       6.692  -5.099   0.507  0.00  0.00     0.034 A 
ATOM     19  C   UNL d   1       6.712  -3.886  -0.174  0.00  0.00     0.026 A 
ATOM     20 CL   UNL d   1       8.144  -6.005   0.684  0.00  0.00    -0.084 Cl
ATOM     21  C   UNL d   1       5.528  -3.156  -0.329  0.00  0.00     0.031 A 
ENDBRANCH  13  15
ENDBRANCH   1  12
BRANCH   2  22
ATOM     22  O   UNL d   1       0.423  -2.753   0.040  0.00  0.00    -0.359 OA
ATOM     23  H   UNL d   1       1.298  -3.204   0.036  0.00  0.00     0.217 HD
ENDBRANCH   2  22
TORSDOF 3
