REMARK  3 active torsions:
REMARK  status: ('A' for Active; 'I' for Inactive)
REMARK    1  A    between atoms: C_11  and  N_3 
REMARK    2  A    between atoms: C_7  and  C_4 
REMARK    3  A    between atoms: C_10  and  C_5 
ROOT
ATOM      1  N   UNL d   1       1.146  -0.172   0.133  0.00  0.00    -0.301 N 
ATOM      2  HN  UNL d   1       2.146  -0.366   0.199  1.00  0.00     0.187 HD
ATOM      3  N   UNL d   1       0.137  -1.093   0.133  0.00  0.00    -0.283 N 
ATOM      4  C   UNL d   1      -1.193  -0.503   0.018  0.00  0.00     0.147 A 
ATOM      5  C   UNL d   1       0.592   0.998   0.036  0.00  0.00     0.038 A 
ATOM      6  C   UNL d   1      -0.912   0.996  -0.004  0.00  0.00     0.091 A 
ENDROOT
BRANCH   4   7
ATOM      7  C   UNL d   1      -2.103  -0.882   1.179  0.00  0.00    -0.031 A 
ATOM      8  C   UNL d   1      -3.483  -1.023   0.969  0.00  0.00     0.035 A 
ATOM      9  C   UNL d   1      -4.334  -1.388   2.020  0.00  0.00     0.056 A 
ATOM     10 CL   UNL d   1      -6.018  -1.546   1.666  0.00  0.00    -0.083 Cl
ATOM     11  C   UNL d   1      -3.812  -1.613   3.298  0.00  0.00     0.055 A 
ATOM     12  C   UNL d   1      -2.444  -1.460   3.522  0.00  0.00     0.026 A 
ATOM     13 CL   UNL d   1      -4.800  -2.078   4.636  0.00  0.00    -0.083 Cl
ATOM     14  C   UNL d   1      -1.598  -1.090   2.475  0.00  0.00     0.011 A 
ENDBRANCH   4   7
BRANCH   3  15
ATOM     15  C   UNL d   1       0.412  -2.460   0.062  0.00  0.00     0.051 A 
ATOM     16  C   UNL d   1       1.618  -2.974   0.563  0.00  0.00     0.031 A 
ATOM     17  C   UNL d   1       1.890  -4.347   0.554  0.00  0.00     0.002 A 
ATOM     18  C   UNL d   1       0.967  -5.237   0.015  0.00  0.00     0.000 A 
ATOM     19  C   UNL d   1      -0.227  -4.753  -0.508  0.00  0.00     0.002 A 
ATOM     20  C   UNL d   1      -0.501  -3.382  -0.476  0.00  0.00     0.031 A 
ENDBRANCH   3  15
BRANCH   5  21
ATOM     21  C   UNL d   1       1.358   2.265  -0.050  0.00  0.00    -0.012 A 
ATOM     22  C   UNL d   1       2.758   2.219  -0.068  0.00  0.00     0.015 A 
ATOM     23  C   UNL d   1       3.500   3.401  -0.171  0.00  0.00     0.024 A 
ATOM     24  C   UNL d   1       2.842   4.627  -0.256  0.00  0.00     0.034 A 
ATOM     25  C   UNL d   1       1.450   4.682  -0.238  0.00  0.00     0.024 A 
ATOM     26 CL   UNL d   1       3.751   6.081  -0.386  0.00  0.00    -0.084 Cl
ATOM     27  C   UNL d   1       0.707   3.502  -0.135  0.00  0.00     0.015 A 
ENDBRANCH   5  21
TORSDOF 3
