REMARK  9 active torsions:
REMARK  status: ('A' for Active; 'I' for Inactive)
REMARK    1  A    between atoms: C_17  and  C_1 
REMARK    2  A    between atoms: O_18  and  C_2 
REMARK    3  A    between atoms: C_3  and  C_4 
REMARK       I    between atoms: C_4  and  N_10 
REMARK    4  A    between atoms: O_20  and  C_5 
REMARK    5  A    between atoms: O_19  and  C_6 
REMARK    6  A    between atoms: C_7  and  C_23 
REMARK       I    between atoms: N_11  and  C_7 
REMARK    7  A    between atoms: N_10  and  N_11 
REMARK    8  A    between atoms: S_16  and  C_17 
REMARK    9  A    between atoms: C_23  and  S_16 
ROOT
ATOM      1  C   UNL d   1      -5.177   1.995   0.131  0.00  0.00     0.270 C 
ATOM      2  N   UNL d   1      -4.120   2.872  -0.013  0.00  0.00    -0.263 N 
ATOM      3  O   UNL d   1      -5.037   0.783   0.250  0.00  0.00    -0.266 OA
ATOM      4  H   UNL d   1      -4.222   3.880   0.085  0.00  0.00     0.190 HD
ENDROOT
BRANCH   2   5
ATOM      5  N   UNL d   1      -2.809   2.397   0.129  0.00  0.00    -0.267 N 
ATOM      6  C   UNL d   1      -1.798   3.328   0.120  0.00  0.00     0.245 C 
ATOM      7  O   UNL d   1      -2.042   4.539   0.089  0.00  0.00    -0.271 OA
ATOM      8  H   UNL d   1      -2.647   1.393   0.026  0.00  0.00     0.190 HD
BRANCH   6   9
ATOM      9  C   UNL d   1      -0.379   2.823   0.286  0.00  0.00     0.178 C 
BRANCH   9  10
ATOM     10  S   UNL d   1      -0.061   1.184  -0.432  0.00  0.00    -0.155 SA
BRANCH  10  11
ATOM     11  C   UNL d   1       1.730   1.137  -0.102  0.00  0.00     0.116 C 
BRANCH  11  12
ATOM     12  C   UNL d   1       2.392  -0.147  -0.545  0.00  0.00    -0.005 A 
ATOM     13  C   UNL d   1       3.014  -0.257  -1.803  0.00  0.00     0.042 A 
ATOM     14 CL   UNL d   1       3.012   1.039  -2.951  0.00  0.00    -0.084 Cl
ATOM     15  C   UNL d   1       3.682  -1.428  -2.182  0.00  0.00     0.024 A 
ATOM     16  C   UNL d   1       3.733  -2.521  -1.322  0.00  0.00     0.003 A 
ATOM     17  C   UNL d   1       3.100  -2.444  -0.084  0.00  0.00     0.024 A 
ATOM     18  C   UNL d   1       2.435  -1.273   0.301  0.00  0.00     0.042 A 
ATOM     19 CL   UNL d   1       1.696  -1.279   1.865  0.00  0.00    -0.084 Cl
ENDBRANCH  11  12
ENDBRANCH  10  11
ENDBRANCH   9  10
ENDBRANCH   6   9
ENDBRANCH   2   5
BRANCH   1  20
ATOM     20  C   UNL d   1      -6.531   2.619   0.191  0.00  0.00     0.039 A 
ATOM     21  C   UNL d   1      -6.806   3.855  -0.400  0.00  0.00     0.057 A 
ATOM     22  C   UNL d   1      -8.066   4.457  -0.270  0.00  0.00     0.105 A 
ATOM     23  C   UNL d   1      -9.072   3.796   0.455  0.00  0.00     0.135 A 
ATOM     24  C   UNL d   1      -8.827   2.501   0.971  0.00  0.00     0.105 A 
ATOM     25  C   UNL d   1      -7.551   1.936   0.859  0.00  0.00     0.057 A 
BRANCH  22  26
ATOM     26  O   UNL d   1      -8.113   5.668  -0.908  0.00  0.00    -0.353 OA
ATOM     27  C   UNL d   1      -9.288   6.457  -0.820  0.00  0.00     0.210 C 
ENDBRANCH  22  26
BRANCH  23  28
ATOM     28  O   UNL d   1     -10.318   4.363   0.549  0.00  0.00    -0.351 OA
ATOM     29  C   UNL d   1     -10.788   4.538   1.887  0.00  0.00     0.210 C 
ENDBRANCH  23  28
BRANCH  24  30
ATOM     30  O   UNL d   1      -9.886   1.862   1.571  0.00  0.00    -0.353 OA
ATOM     31  C   UNL d   1      -9.767   0.459   1.776  0.00  0.00     0.210 C 
ENDBRANCH  24  30
ENDBRANCH   1  20
TORSDOF 9
