REMARK  3 active torsions:
REMARK  status: ('A' for Active; 'I' for Inactive)
REMARK    1  A    between atoms: C_8  and  C_3 
REMARK    2  A    between atoms: C_9  and  C_4 
REMARK    3  A    between atoms: O_18  and  C_13 
ROOT
ATOM      1  N   UNL d   1       1.083   0.313   0.188  0.00  0.00    -0.325 N 
ATOM      2  HN  UNL d   1       2.034   0.655   0.321  1.00  0.00     0.169 HD
ATOM      3  C   UNL d   1       0.675  -0.939   0.087  0.00  0.00     0.134 A 
ATOM      4  C   UNL d   1      -0.078   1.053   0.070  0.00  0.00     0.132 A 
ATOM      5  N   UNL d   1      -1.190   0.299   0.020  0.00  0.00    -0.283 N 
ATOM      6  HN  UNL d   1      -2.165   0.596  -0.022  1.00  0.00     0.188 HD
ATOM      7  N   UNL d   1      -0.689  -0.941   0.039  0.00  0.00    -0.283 N 
ATOM      8  H   UNL d   1      -1.321  -1.732   0.010  0.00  0.00     0.188 HD
ENDROOT
BRANCH   4   9
ATOM      9  C   UNL d   1      -0.079   2.504  -0.095  0.00  0.00     0.010 A 
ATOM     10  C   UNL d   1       1.130   3.220  -0.136  0.00  0.00     0.025 A 
ATOM     11  C   UNL d   1       1.088   4.580  -0.410  0.00  0.00    -0.022 A 
ATOM     12  C   UNL d   1       2.195   5.543  -0.597  0.00  0.00     0.068 C 
ATOM     13  C   UNL d   1      -0.117   5.219  -0.653  0.00  0.00     0.075 A 
ATOM     14  C   UNL d   1       1.386   6.843  -0.629  0.00  0.00     0.180 C 
ATOM     15  O   UNL d   1       0.015   6.544  -0.976  0.00  0.00    -0.350 OA
ATOM     16  C   UNL d   1      -1.321   4.554  -0.603  0.00  0.00     0.038 A 
ATOM     17  C   UNL d   1      -1.299   3.188  -0.309  0.00  0.00     0.018 A 
ENDBRANCH   4   9
BRANCH   3  18
ATOM     18  C   UNL d   1       1.511  -2.133   0.073  0.00  0.00     0.042 A 
ATOM     19  C   UNL d   1       2.720  -2.169   0.786  0.00  0.00     0.079 A 
ATOM     20  C   UNL d   1       3.513  -3.313   0.801  0.00  0.00     0.037 A 
ATOM     21  C   UNL d   1       3.125  -4.436   0.070  0.00  0.00     0.003 A 
ATOM     22  C   UNL d   1       1.945  -4.410  -0.670  0.00  0.00     0.001 A 
ATOM     23  C   UNL d   1       1.139  -3.268  -0.666  0.00  0.00     0.018 A 
BRANCH  19  24
ATOM     24  O   UNL d   1       3.179  -1.091   1.497  0.00  0.00    -0.360 OA
ATOM     25  H   UNL d   1       2.628  -0.319   1.251  0.00  0.00     0.217 HD
ENDBRANCH  19  24
ENDBRANCH   3  18
TORSDOF 3
