REMARK  10 active torsions:
REMARK  status: ('A' for Active; 'I' for Inactive)
REMARK    1  A    between atoms: C_9  and  N_1 
REMARK    2  A    between atoms: C_8  and  N_2 
REMARK    3  A    between atoms: C_6  and  C_3 
REMARK    4  A    between atoms: C_21  and  C_3 
REMARK    5  A    between atoms: O_12  and  C_6 
REMARK    6  A    between atoms: C_7  and  O_12 
REMARK    7  A    between atoms: C_13  and  C_7 
REMARK    8  A    between atoms: C_14  and  C_15 
REMARK    9  A    between atoms: C_29  and  C_21 
REMARK   10  A    between atoms: C_30  and  C_29 
ROOT
ATOM      1  N   UNL d   1       0.672   1.159  -0.133  0.00  0.00    -0.213 N 
ATOM      2  N   UNL d   1      -0.725   1.167  -0.336  0.00  0.00    -0.213 N 
ATOM      3  C   UNL d   1      -0.059  -1.053  -0.056  0.00  0.00     0.147 C 
ATOM      4  C   UNL d   1       1.148  -0.143   0.052  0.00  0.00     0.264 C 
ATOM      5  C   UNL d   1      -1.217  -0.085   0.079  0.00  0.00     0.264 C 
ATOM      6  O   UNL d   1      -2.361  -0.378   0.402  0.00  0.00    -0.270 OA
ATOM      7  O   UNL d   1       2.305  -0.521   0.165  0.00  0.00    -0.270 OA
ENDROOT
BRANCH   3   8
ATOM      8  C   UNL d   1      -0.008  -2.131   1.018  0.00  0.00     0.208 C 
BRANCH   8   9
ATOM      9  O   UNL d   1       0.009  -1.575   2.346  0.00  0.00    -0.316 OA
BRANCH   9  10
ATOM     10  C   UNL d   1      -0.894  -2.121   3.204  0.00  0.00     0.293 C 
ATOM     11  O   UNL d   1      -1.754  -2.929   2.920  0.00  0.00    -0.259 OA
BRANCH  10  12
ATOM     12  C   UNL d   1      -0.705  -1.628   4.588  0.00  0.00     0.039 A 
ATOM     13  C   UNL d   1      -1.708  -1.894   5.521  0.00  0.00     0.018 A 
ATOM     14  C   UNL d   1      -1.567  -1.478   6.850  0.00  0.00     0.009 A 
ATOM     15  C   UNL d   1      -0.419  -0.789   7.282  0.00  0.00    -0.051 A 
ATOM     16  C   UNL d   1       0.588  -0.550   6.329  0.00  0.00     0.009 A 
ATOM     17  C   UNL d   1       0.450  -0.959   4.996  0.00  0.00     0.018 A 
BRANCH  15  18
ATOM     18  C   UNL d   1      -0.316  -0.304   8.740  0.00  0.00    -0.024 C 
ATOM     19  C   UNL d   1       1.015   0.413   9.055  0.00  0.00     0.019 C 
ATOM     20  C   UNL d   1      -1.458   0.696   9.024  0.00  0.00     0.019 C 
ATOM     21  C   UNL d   1      -0.437  -1.492   9.720  0.00  0.00     0.019 C 
ENDBRANCH  15  18
ENDBRANCH  10  12
ENDBRANCH   9  10
ENDBRANCH   8   9
ENDBRANCH   3   8
BRANCH   3  22
ATOM     22  C   UNL d   1      -0.090  -1.653  -1.495  0.00  0.00     0.031 C 
BRANCH  22  23
ATOM     23  C   UNL d   1      -1.269  -2.607  -1.740  0.00  0.00     0.001 C 
BRANCH  23  24
ATOM     24  C   UNL d   1      -1.299  -3.168  -3.160  0.00  0.00    -0.005 C 
ATOM     25  C   UNL d   1      -2.484  -4.111  -3.326  0.00  0.00     0.005 C 
ENDBRANCH  23  24
ENDBRANCH  22  23
ENDBRANCH   3  22
BRANCH   1  26
ATOM     26  C   UNL d   1       1.520   2.270  -0.316  0.00  0.00     0.060 A 
ATOM     27  C   UNL d   1       1.386   3.119  -1.421  0.00  0.00     0.031 A 
ATOM     28  C   UNL d   1       2.235   4.216  -1.570  0.00  0.00     0.002 A 
ATOM     29  C   UNL d   1       3.195   4.495  -0.598  0.00  0.00     0.000 A 
ATOM     30  C   UNL d   1       3.325   3.660   0.510  0.00  0.00     0.002 A 
ATOM     31  C   UNL d   1       2.508   2.537   0.638  0.00  0.00     0.031 A 
ENDBRANCH   1  26
BRANCH   2  32
ATOM     32  C   UNL d   1      -1.476   2.333  -0.063  0.00  0.00     0.060 A 
ATOM     33  C   UNL d   1      -1.601   2.880   1.220  0.00  0.00     0.031 A 
ATOM     34  C   UNL d   1      -2.278   4.094   1.391  0.00  0.00     0.002 A 
ATOM     35  C   UNL d   1      -2.820   4.756   0.287  0.00  0.00     0.000 A 
ATOM     36  C   UNL d   1      -2.710   4.200  -0.987  0.00  0.00     0.002 A 
ATOM     37  C   UNL d   1      -2.054   2.984  -1.156  0.00  0.00     0.031 A 
ENDBRANCH   2  32
TORSDOF 10
