REMARK  4 active torsions:
REMARK  status: ('A' for Active; 'I' for Inactive)
REMARK    1  A    between atoms: C_3  and  C_1 
REMARK    2  A    between atoms: N_8  and  C_2 
REMARK       I    between atoms: C_4  and  N_9 
REMARK    3  A    between atoms: C_7  and  C_4 
REMARK    4  A    between atoms: N_9  and  N_8 
ROOT
ATOM      1  N   UNL d   1      -3.643   0.002   0.135  0.00  0.00    -0.182 NA
ATOM      2  C   UNL d   1      -4.658  -1.057   0.059  0.00  0.00     0.144 C 
ENDROOT
BRANCH   1   3
ATOM      3  C   UNL d   1      -2.500  -0.362   0.892  0.00  0.00     0.115 A 
ATOM      4  C   UNL d   1      -1.361   0.448   0.925  0.00  0.00     0.089 A 
ATOM      5  C   UNL d   1      -0.317   0.113   1.814  0.00  0.00     0.044 A 
ATOM      6  C   UNL d   1      -0.400  -1.035   2.585  0.00  0.00     0.050 A 
ATOM      7  C   UNL d   1      -1.520  -1.823   2.441  0.00  0.00     0.113 A 
ATOM      8 CL   UNL d   1       0.849  -1.455   3.680  0.00  0.00    -0.083 Cl
ATOM      9  N   UNL d   1      -2.556  -1.506   1.629  0.00  0.00    -0.353 N 
ATOM     10  HN  UNL d   1      -3.371  -2.117   1.570  1.00  0.00     0.166 HD
BRANCH   4  11
ATOM     11  C   UNL d   1      -1.207   1.675   0.073  0.00  0.00     0.420 C 
ATOM     12  F   UNL d   1      -1.819   1.647  -1.138  0.00  0.00    -0.166 F 
ATOM     13  F   UNL d   1      -1.645   2.801   0.708  0.00  0.00    -0.166 F 
ATOM     14  F   UNL d   1       0.109   1.925  -0.214  0.00  0.00    -0.166 F 
ENDBRANCH   4  11
ENDBRANCH   1   3
BRANCH   1  15
ATOM     15  N   UNL d   1      -4.179   1.243   0.578  0.00  0.00    -0.279 N 
ATOM     16  C   UNL d   1      -4.937   2.000  -0.296  0.00  0.00     0.268 C 
ATOM     17  O   UNL d   1      -5.071   1.742  -1.490  0.00  0.00    -0.266 OA
ATOM     18  H   UNL d   1      -4.251   1.363   1.585  0.00  0.00     0.184 HD
BRANCH  16  19
ATOM     19  C   UNL d   1      -5.611   3.212   0.264  0.00  0.00     0.054 A 
ATOM     20  C   UNL d   1      -5.945   3.422   1.609  0.00  0.00     0.049 A 
ATOM     21 CL   UNL d   1      -5.666   2.269   2.871  0.00  0.00    -0.083 Cl
ATOM     22  C   UNL d   1      -6.580   4.609   2.001  0.00  0.00     0.025 A 
ATOM     23  C   UNL d   1      -6.897   5.590   1.063  0.00  0.00     0.002 A 
ATOM     24  C   UNL d   1      -6.580   5.391  -0.278  0.00  0.00     0.001 A 
ATOM     25  C   UNL d   1      -5.943   4.214  -0.673  0.00  0.00     0.019 A 
ENDBRANCH  16  19
ENDBRANCH   1  15
TORSDOF 4
