REMARK  2 active torsions:
REMARK  status: ('A' for Active; 'I' for Inactive)
REMARK    1  A    between atoms: N_7  and  C_1 
REMARK    2  A    between atoms: C_5  and  C_11 
REMARK       I    between atoms: C_11  and  N_7 
ROOT
ATOM      1  C   UNL d   1      -3.105   1.079  -0.191  0.00  0.00     0.152 A 
ATOM      2  C   UNL d   1      -1.044   0.366  -0.058  0.00  0.00     0.058 A 
ATOM      3  N   UNL d   1      -1.861   1.480  -0.095  0.00  0.00    -0.335 N 
ATOM      4  HN  UNL d   1      -1.549   2.451  -0.053  1.00  0.00     0.168 HD
ATOM      5  C   UNL d   1      -1.703  -0.846  -0.056  0.00  0.00     0.014 A 
ATOM      6  S   UNL d   1      -3.368  -0.612  -0.291  0.00  0.00    -0.056 SA
ATOM      7  C   UNL d   1       0.410   0.379   0.015  0.00  0.00    -0.002 A 
ATOM      8  C   UNL d   1      -1.056  -2.168   0.152  0.00  0.00     0.053 C 
ATOM      9  C   UNL d   1       1.115  -0.846  -0.111  0.00  0.00    -0.045 A 
ATOM     10  C   UNL d   1       0.375  -2.141  -0.401  0.00  0.00     0.044 C 
ATOM     11  C   UNL d   1       1.117   1.571   0.190  0.00  0.00     0.014 A 
ATOM     12  C   UNL d   1       2.514  -0.844  -0.066  0.00  0.00     0.008 A 
ATOM     13  C   UNL d   1       2.513   1.555   0.242  0.00  0.00     0.001 A 
ATOM     14  C   UNL d   1       3.208   0.352   0.117  0.00  0.00     0.001 A 
ENDROOT
BRANCH   1  15
ATOM     15  N   UNL d   1      -4.269   1.785  -0.165  0.00  0.00    -0.302 N 
ATOM     16  C   UNL d   1      -4.364   3.056   0.354  0.00  0.00     0.276 C 
ATOM     17  O   UNL d   1      -3.447   3.798   0.676  0.00  0.00    -0.266 OA
ATOM     18  H   UNL d   1      -5.129   1.265  -0.285  0.00  0.00     0.171 HD
BRANCH  16  19
ATOM     19  C   UNL d   1      -5.768   3.428   0.589  0.00  0.00     0.125 A 
ATOM     20  N   UNL d   1      -6.785   2.680   0.119  0.00  0.00    -0.256 N 
ATOM     21  O   UNL d   1      -7.942   3.277   0.583  0.00  0.00    -0.242 OA
ATOM     22  HN  UNL d   1      -6.715   1.844  -0.461  1.00  0.00     0.195 HD
ATOM     23  C   UNL d   1      -7.624   4.359   1.341  0.00  0.00     0.075 A 
ATOM     24  C   UNL d   1      -6.260   4.513   1.358  0.00  0.00     0.071 A 
ATOM     25  C   UNL d   1      -8.751   5.077   1.961  0.00  0.00     0.079 C 
ENDBRANCH  16  19
ENDBRANCH   1  15
TORSDOF 2
