REMARK  5 active torsions:
REMARK  status: ('A' for Active; 'I' for Inactive)
REMARK    1  A    between atoms: C_6  and  C_1 
REMARK    2  A    between atoms: C_7  and  C_2 
REMARK    3  A    between atoms: C_11  and  C_5 
REMARK       I    between atoms: N_9  and  C_6 
REMARK    4  A    between atoms: C_8  and  C_10 
REMARK    5  A    between atoms: C_13  and  N_9 
ROOT
ATOM      1  C   UNL d   1       1.109   0.689   0.097  0.00  0.00     0.073 A 
ATOM      2  C   UNL d   1      -0.186   1.161  -0.061  0.00  0.00     0.175 A 
ATOM      3  O   UNL d   1      -1.071   0.112  -0.013  0.00  0.00    -0.304 OA
ATOM      4  C   UNL d   1       0.968  -0.710   0.353  0.00  0.00     0.058 A 
ATOM      5  C   UNL d   1      -0.360  -1.028   0.222  0.00  0.00     0.087 A 
ENDROOT
BRANCH   1   6
ATOM      6  C   UNL d   1       2.394   1.372   0.085  0.00  0.00     0.259 C 
ATOM      7  N   UNL d   1       2.473   2.539  -0.652  0.00  0.00    -0.323 N 
ATOM      8  H   UNL d   1       1.617   2.943  -1.003  0.00  0.00     0.169 HD
ATOM      9  O   UNL d   1       3.333   0.862   0.693  0.00  0.00    -0.267 OA
BRANCH   7  10
ATOM     10  C   UNL d   1       3.621   3.349  -0.789  0.00  0.00     0.035 A 
ATOM     11  C   UNL d   1       4.907   2.919  -0.459  0.00  0.00     0.045 A 
ATOM     12  C   UNL d   1       5.992   3.805  -0.460  0.00  0.00     0.050 A 
ATOM     13  C   UNL d   1       5.783   5.132  -0.864  0.00  0.00     0.016 A 
ATOM     14  C   UNL d   1       4.516   5.551  -1.269  0.00  0.00     0.003 A 
ATOM     15  C   UNL d   1       3.440   4.663  -1.238  0.00  0.00     0.029 A 
BRANCH  12  16
ATOM     16  C   UNL d   1       7.352   3.356   0.016  0.00  0.00     0.417 C 
ATOM     17  F   UNL d   1       7.410   2.035   0.348  0.00  0.00    -0.166 F 
ATOM     18  F   UNL d   1       8.324   3.548  -0.916  0.00  0.00    -0.166 F 
ATOM     19  F   UNL d   1       7.756   4.035   1.125  0.00  0.00    -0.166 F 
ENDBRANCH  12  16
ENDBRANCH   7  10
ENDBRANCH   1   6
BRANCH   2  20
ATOM     20  C   UNL d   1      -0.800   2.499  -0.235  0.00  0.00     0.440 C 
ATOM     21  F   UNL d   1       0.119   3.497  -0.134  0.00  0.00    -0.164 F 
ATOM     22  F   UNL d   1      -1.366   2.642  -1.461  0.00  0.00    -0.164 F 
ATOM     23  F   UNL d   1      -1.760   2.760   0.686  0.00  0.00    -0.164 F 
ENDBRANCH   2  20
BRANCH   5  24
ATOM     24  C   UNL d   1      -1.103  -2.279   0.271  0.00  0.00    -0.002 A 
ATOM     25  C   UNL d   1      -2.495  -2.303   0.432  0.00  0.00     0.016 A 
ATOM     26  C   UNL d   1      -3.188  -3.515   0.495  0.00  0.00     0.024 A 
ATOM     27  C   UNL d   1      -2.491  -4.719   0.393  0.00  0.00     0.034 A 
ATOM     28  C   UNL d   1      -1.111  -4.717   0.219  0.00  0.00     0.024 A 
ATOM     29 CL   UNL d   1      -3.339  -6.211   0.487  0.00  0.00    -0.084 Cl
ATOM     30  C   UNL d   1      -0.422  -3.504   0.159  0.00  0.00     0.016 A 
ENDBRANCH   5  24
TORSDOF 5
