REMARK  10 active torsions:
REMARK  status: ('A' for Active; 'I' for Inactive)
REMARK    1  A    between atoms: C_7  and  C_1 
REMARK    2  A    between atoms: S_2  and  N_15 
REMARK    3  A    between atoms: C_9  and  S_2 
REMARK    4  A    between atoms: C_14  and  C_3 
REMARK    5  A    between atoms: C_19  and  N_4 
REMARK    6  A    between atoms: C_10  and  C_13 
REMARK    7  A    between atoms: C_11  and  C_12 
REMARK    8  A    between atoms: O_35  and  C_14 
REMARK    9  A    between atoms: N_15  and  C_32 
REMARK   10  A    between atoms: C_38  and  O_35 
ROOT
ATOM      1  C   UNL d   1       1.961   1.618   0.060  0.00  0.00     0.057 A 
ATOM      2  C   UNL d   1       4.200   3.296  -0.244  0.00  0.00     0.042 A 
ATOM      3  C   UNL d   1       2.692   1.634  -1.143  0.00  0.00     0.034 A 
ATOM      4  C   UNL d   1       2.318   2.530   1.057  0.00  0.00     0.034 A 
ATOM      5  C   UNL d   1       3.817   2.463  -1.291  0.00  0.00     0.032 A 
ATOM      6  C   UNL d   1       3.444   3.344   0.916  0.00  0.00     0.032 A 
ENDROOT
BRANCH   2   7
ATOM      7  N   UNL d   1       5.418   4.003  -0.280  0.00  0.00    -0.281 N 
ATOM      8  H   UNL d   1       6.274   3.565   0.052  0.00  0.00     0.179 HD
BRANCH   7   9
ATOM      9  S   UNL d   1       5.543   5.541  -0.904  0.00  0.00     0.263 S 
ATOM     10  O   UNL d   1       6.907   5.963  -0.677  0.00  0.00    -0.200 OA
ATOM     11  O   UNL d   1       4.963   5.559  -2.232  0.00  0.00    -0.200 OA
BRANCH   9  12
ATOM     12  C   UNL d   1       4.507   6.531   0.161  0.00  0.00     0.081 A 
ATOM     13  C   UNL d   1       5.023   7.071   1.346  0.00  0.00     0.041 A 
ATOM     14  C   UNL d   1       4.235   7.933   2.128  0.00  0.00     0.050 A 
ATOM     15  C   UNL d   1       2.936   8.254   1.687  0.00  0.00     0.032 A 
ATOM     16  C   UNL d   1       2.421   7.731   0.487  0.00  0.00     0.050 A 
ATOM     17  C   UNL d   1       3.214   6.856  -0.266  0.00  0.00     0.041 A 
BRANCH  14  18
ATOM     18  C   UNL d   1       4.756   8.542   3.412  0.00  0.00     0.417 C 
ATOM     19  F   UNL d   1       6.039   8.195   3.699  0.00  0.00    -0.166 F 
ATOM     20  F   UNL d   1       4.727   9.903   3.389  0.00  0.00    -0.166 F 
ATOM     21  F   UNL d   1       4.016   8.171   4.493  0.00  0.00    -0.166 F 
ENDBRANCH  14  18
BRANCH  16  22
ATOM     22  C   UNL d   1       1.051   8.151   0.003  0.00  0.00     0.417 C 
ATOM     23  F   UNL d   1       0.700   7.592  -1.186  0.00  0.00    -0.166 F 
ATOM     24  F   UNL d   1       0.067   7.818   0.882  0.00  0.00    -0.166 F 
ATOM     25  F   UNL d   1       0.960   9.497  -0.172  0.00  0.00    -0.166 F 
ENDBRANCH  16  22
ENDBRANCH   9  12
ENDBRANCH   7   9
ENDBRANCH   2   7
BRANCH   1  26
ATOM     26  N   UNL d   1       0.924   0.639   0.236  0.00  0.00    -0.251 N 
ATOM     27  C   UNL d   1       0.371   0.071   1.381  0.00  0.00     0.158 A 
ATOM     28  C   UNL d   1      -0.468  -0.953   0.951  0.00  0.00     0.089 A 
ATOM     29  C   UNL d   1      -0.444  -0.864  -0.447  0.00  0.00     0.127 A 
ATOM     30  N   UNL d   1       0.401   0.064  -0.884  0.00  0.00    -0.303 N 
ATOM     31  HN  UNL d   1       0.613   0.296  -1.854  1.00  0.00     0.186 HD
BRANCH  27  32
ATOM     32  C   UNL d   1       0.718   0.482   2.750  0.00  0.00     0.435 C 
ATOM     33  F   UNL d   1       0.195  -0.301   3.720  0.00  0.00    -0.165 F 
ATOM     34  F   UNL d   1       2.057   0.499   2.961  0.00  0.00    -0.165 F 
ATOM     35  F   UNL d   1       0.245   1.728   3.017  0.00  0.00    -0.165 F 
ENDBRANCH  27  32
BRANCH  28  36
ATOM     36  C   UNL d   1      -1.149  -1.954   1.749  0.00  0.00     0.297 C 
ATOM     37  O   UNL d   1      -0.719  -2.367   2.816  0.00  0.00    -0.259 OA
BRANCH  36  38
ATOM     38  O   UNL d   1      -2.247  -2.453   1.115  0.00  0.00    -0.318 OA
BRANCH  38  39
ATOM     39  C   UNL d   1      -2.764  -3.670   1.673  0.00  0.00     0.174 C 
ATOM     40  C   UNL d   1      -2.052  -4.830   1.002  0.00  0.00     0.034 C 
ENDBRANCH  38  39
ENDBRANCH  36  38
ENDBRANCH  28  36
ENDBRANCH   1  26
TORSDOF 10
