REMARK  6 active torsions:
REMARK  status: ('A' for Active; 'I' for Inactive)
REMARK    1  A    between atoms: S_8  and  C_2 
REMARK    2  A    between atoms: N_11  and  C_3 
REMARK    3  A    between atoms: C_12  and  S_8 
REMARK    4  A    between atoms: C_9  and  C_12 
REMARK    5  A    between atoms: O_13  and  C_9 
REMARK    6  A    between atoms: C_14  and  O_13 
ROOT
ATOM      1  S   UNL d   1       0.176  -1.165   0.007  0.00  0.00    -0.027 SA
ATOM      2  C   UNL d   1       1.619  -0.249  -0.093  0.00  0.00     0.130 A 
ATOM      3  C   UNL d   1      -0.677   0.322   0.055  0.00  0.00     0.159 A 
ATOM      4  N   UNL d   1       1.437   1.052  -0.099  0.00  0.00    -0.286 N 
ATOM      5  HN  UNL d   1       2.192   1.735  -0.162  1.00  0.00     0.188 HD
ATOM      6  N   UNL d   1       0.097   1.383  -0.011  0.00  0.00    -0.279 N 
ATOM      7  HN  UNL d   1      -0.252   2.341   0.000  1.00  0.00     0.189 HD
ENDROOT
BRANCH   2   8
ATOM      8  S   UNL d   1       3.193  -0.994  -0.175  0.00  0.00    -0.094 SA
BRANCH   8   9
ATOM      9  C   UNL d   1       4.272   0.468  -0.157  0.00  0.00     0.192 C 
BRANCH   9  10
ATOM     10  C   UNL d   1       5.715   0.027  -0.047  0.00  0.00     0.268 C 
ATOM     11  O   UNL d   1       6.213  -0.933  -0.624  0.00  0.00    -0.264 OA
BRANCH  10  12
ATOM     12  O   UNL d   1       6.391   0.859   0.798  0.00  0.00    -0.321 OA
BRANCH  12  13
ATOM     13  C   UNL d   1       7.708   0.431   1.176  0.00  0.00     0.174 C 
ATOM     14  C   UNL d   1       7.610  -0.327   2.488  0.00  0.00     0.034 C 
ENDBRANCH  12  13
ENDBRANCH  10  12
ENDBRANCH   9  10
ENDBRANCH   8   9
ENDBRANCH   2   8
BRANCH   3  15
ATOM     15  N   UNL d   1      -2.021   0.357   0.141  0.00  0.00    -0.379 N 
ATOM     16  H   UNL d   1      -2.542  -0.463  -0.139  0.00  0.00     0.158 HD
ATOM     17  H   UNL d   1      -2.463   1.238  -0.098  0.00  0.00     0.158 HD
ENDBRANCH   3  15
TORSDOF 6
