REMARK  4 active torsions:
REMARK  status: ('A' for Active; 'I' for Inactive)
REMARK    1  A    between atoms: C_6  and  N_1 
REMARK    2  A    between atoms: C_5  and  C_6 
REMARK       I    between atoms: N_17  and  C_5 
REMARK    3  A    between atoms: C_8  and  C_16 
REMARK    4  A    between atoms: N_9  and  N_17 
ROOT
ATOM      1  C   UNL d   1       2.552   2.905  -0.246  0.00  0.00     0.254 C 
ATOM      2  N   UNL d   1       3.510   2.930  -1.259  0.00  0.00    -0.269 N 
ATOM      3  O   UNL d   1       2.784   3.010   0.959  0.00  0.00    -0.270 OA
ATOM      4  H   UNL d   1       3.208   2.777  -2.221  0.00  0.00     0.190 HD
ENDROOT
BRANCH   1   5
ATOM      5  C   UNL d   1       1.128   2.672  -0.784  0.00  0.00     0.236 C 
BRANCH   5   6
ATOM      6  N   UNL d   1       0.749   1.266  -0.629  0.00  0.00    -0.307 N 
ATOM      7  C   UNL d   1       1.476   0.376  -1.429  0.00  0.00     0.234 C 
ATOM      8  C   UNL d   1       1.457  -1.073  -1.014  0.00  0.00     0.182 C 
ATOM      9  O   UNL d   1       2.208   0.763  -2.344  0.00  0.00    -0.272 OA
ATOM     10  S   UNL d   1      -0.211  -1.717  -1.072  0.00  0.00    -0.118 SA
ATOM     11  C   UNL d   1      -0.983  -0.444  -0.091  0.00  0.00     0.028 A 
ATOM     12  C   UNL d   1      -0.455   0.863   0.058  0.00  0.00     0.054 A 
ATOM     13  C   UNL d   1      -2.205  -0.800   0.507  0.00  0.00     0.021 A 
ATOM     14  C   UNL d   1      -1.195   1.765   0.841  0.00  0.00     0.031 A 
ATOM     15  C   UNL d   1      -2.420   1.403   1.424  0.00  0.00     0.002 A 
ATOM     16  C   UNL d   1      -2.925   0.124   1.260  0.00  0.00     0.002 A 
ENDBRANCH   5   6
ENDBRANCH   1   5
BRANCH   2  17
ATOM     17  N   UNL d   1       4.849   3.186  -1.131  0.00  0.00    -0.307 N 
ATOM     18  C   UNL d   1       5.459   2.827  -0.045  0.00  0.00     0.144 C 
ATOM     19  HN  UNL d   1       5.359   3.653  -1.881  1.00  0.00     0.186 HD
BRANCH  18  20
ATOM     20  C   UNL d   1       6.856   3.122   0.122  0.00  0.00     0.092 A 
ATOM     21  O   UNL d   1       7.487   2.650   1.240  0.00  0.00    -0.314 OA
ATOM     22  C   UNL d   1       8.785   3.057   1.175  0.00  0.00     0.050 A 
ATOM     23  C   UNL d   1       9.660   2.661   2.297  0.00  0.00     0.076 C 
ATOM     24  C   UNL d   1       8.998   3.788   0.026  0.00  0.00     0.035 A 
ATOM     25  C   UNL d   1       7.758   3.823  -0.655  0.00  0.00     0.041 A 
ENDBRANCH  18  20
ENDBRANCH   2  17
TORSDOF 4
