REMARK  4 active torsions:
REMARK  status: ('A' for Active; 'I' for Inactive)
REMARK    1  A    between atoms: N_2  and  C_1 
REMARK    2  A    between atoms: N_4  and  C_1 
REMARK    3  A    between atoms: C_3  and  N_2 
REMARK    4  A    between atoms: C_7  and  N_4 
ROOT
ATOM      1  C   UNL d   1       1.011   0.073   0.190  0.00  0.00     0.176 C 
ATOM      2  S   UNL d   1       0.460   1.608   0.600  0.00  0.00    -0.041 SA
ENDROOT
BRANCH   1   3
ATOM      3  N   UNL d   1       2.336  -0.240  -0.128  0.00  0.00    -0.333 N 
ATOM      4  H   UNL d   1       2.415  -0.842  -0.937  0.00  0.00     0.168 HD
BRANCH   3   5
ATOM      5  C   UNL d   1       3.501   0.457   0.270  0.00  0.00     0.040 A 
ATOM      6  C   UNL d   1       4.604   0.585  -0.595  0.00  0.00    -0.034 A 
ATOM      7  C   UNL d   1       5.775   1.208  -0.117  0.00  0.00     0.028 A 
ATOM      8  C   UNL d   1       4.615   0.128  -2.028  0.00  0.00     0.050 C 
ATOM      9  C   UNL d   1       5.844   1.698   1.187  0.00  0.00     0.011 A 
ATOM     10  C   UNL d   1       4.758   1.570   2.040  0.00  0.00     0.021 A 
ATOM     11 BR   UNL d   1       7.426   2.532   1.799  0.00  0.00    -0.051 Br
ATOM     12  C   UNL d   1       3.597   0.945   1.584  0.00  0.00     0.031 A 
ENDBRANCH   3   5
ENDBRANCH   1   3
BRANCH   1  13
ATOM     13  N   UNL d   1       0.236  -1.087   0.112  0.00  0.00    -0.333 N 
ATOM     14  H   UNL d   1       0.715  -1.901   0.479  0.00  0.00     0.168 HD
BRANCH  13  15
ATOM     15  C   UNL d   1      -1.175  -1.177   0.064  0.00  0.00     0.035 A 
ATOM     16  C   UNL d   1      -1.810  -2.213   0.756  0.00  0.00     0.041 A 
ATOM     17  C   UNL d   1      -3.216  -2.323   0.765  0.00  0.00    -0.024 A 
ATOM     18  C   UNL d   1      -3.881  -3.314   1.508  0.00  0.00     0.012 A 
ATOM     19  C   UNL d   1      -3.985  -1.400   0.019  0.00  0.00    -0.026 A 
ATOM     20  C   UNL d   1      -5.277  -3.387   1.517  0.00  0.00     0.001 A 
ATOM     21  C   UNL d   1      -6.027  -2.478   0.779  0.00  0.00     0.001 A 
ATOM     22  C   UNL d   1      -5.385  -1.491   0.031  0.00  0.00     0.012 A 
ATOM     23  C   UNL d   1      -3.335  -0.404  -0.719  0.00  0.00     0.014 A 
ATOM     24  C   UNL d   1      -1.942  -0.297  -0.697  0.00  0.00     0.030 A 
ENDBRANCH  13  15
ENDBRANCH   1  13
TORSDOF 4
