REMARK  4 active torsions:
REMARK  status: ('A' for Active; 'I' for Inactive)
REMARK    1  A    between atoms: C_11  and  C_1 
REMARK    2  A    between atoms: C_14  and  C_2 
REMARK       I    between atoms: N_17  and  C_11 
REMARK    3  A    between atoms: C_13  and  C_22 
REMARK    4  A    between atoms: C_22  and  N_17 
ROOT
ATOM      1  C   UNL d   1       0.024  -3.624   1.130  0.00  0.00     0.262 C 
ATOM      2  N   UNL d   1       0.774  -3.477  -0.018  0.00  0.00    -0.351 N 
ATOM      3  O   UNL d   1       0.559  -3.509   2.232  0.00  0.00    -0.267 OA
ATOM      4  H   UNL d   1       0.361  -3.641  -0.925  0.00  0.00     0.163 HD
ENDROOT
BRANCH   2   5
ATOM      5  C   UNL d   1       2.180  -3.131   0.028  0.00  0.00     0.180 C 
BRANCH   5   6
ATOM      6  C   UNL d   1       3.025  -4.363  -0.034  0.00  0.00     0.034 A 
ATOM      7  N   UNL d   1       3.375  -4.885  -1.276  0.00  0.00    -0.351 N 
ATOM      8  C   UNL d   1       4.168  -5.933  -1.135  0.00  0.00     0.091 A 
ATOM      9  HN  UNL d   1       3.063  -4.510  -2.172  1.00  0.00     0.166 HD
ATOM     10  S   UNL d   1       4.517  -6.353   0.499  0.00  0.00    -0.081 SA
ATOM     11  C   UNL d   1       3.558  -5.046   1.043  0.00  0.00     0.078 A 
BRANCH   8  12
ATOM     12  C   UNL d   1       4.694  -6.643  -2.283  0.00  0.00     0.038 A 
ATOM     13  S   UNL d   1       5.657  -8.063  -2.173  0.00  0.00    -0.099 SA
ATOM     14  C   UNL d   1       5.800  -8.197  -3.870  0.00  0.00     0.050 A 
ATOM     15  C   UNL d   1       5.135  -7.185  -4.523  0.00  0.00     0.008 A 
ATOM     16  C   UNL d   1       4.502  -6.293  -3.610  0.00  0.00     0.022 A 
ENDBRANCH   8  12
ENDBRANCH   5   6
ENDBRANCH   2   5
BRANCH   1  17
ATOM     17  C   UNL d   1      -1.391  -3.892   0.976  0.00  0.00     0.114 A 
ATOM     18  C   UNL d   1      -2.382  -4.069   1.939  0.00  0.00     0.046 A 
ATOM     19  N   UNL d   1      -3.658  -4.292   1.424  0.00  0.00    -0.298 N 
ATOM     20  C   UNL d   1      -2.260  -4.046   3.420  0.00  0.00     0.071 C 
ATOM     21  N   UNL d   1      -3.669  -4.288   0.105  0.00  0.00    -0.269 N 
ATOM     22  HN  UNL d   1      -4.487  -4.441   2.000  1.00  0.00     0.187 HD
ATOM     23  S   UNL d   1      -2.160  -4.021  -0.551  0.00  0.00     0.009 SA
ATOM     24  HN  UNL d   1      -4.510  -4.433  -0.454  1.00  0.00     0.195 HD
ENDBRANCH   1  17
TORSDOF 4
