REMARK  5 active torsions:
REMARK  status: ('A' for Active; 'I' for Inactive)
REMARK    1  A    between atoms: C_2  and  C_1 
REMARK    2  A    between atoms: C_15  and  N_3 
REMARK    3  A    between atoms: N_14  and  C_4 
REMARK    4  A    between atoms: C_13  and  C_10 
REMARK    5  A    between atoms: C_16  and  C_15 
ROOT
ATOM      1  C   UNL d   1       0.044   1.525  -0.162  0.00  0.00     0.044 A 
ATOM      2  C   UNL d   1       0.791   0.355  -0.140  0.00  0.00     0.082 A 
ATOM      3  C   UNL d   1      -1.355   1.204  -0.239  0.00  0.00     0.038 A 
ATOM      4  S   UNL d   1      -0.184  -1.045  -0.123  0.00  0.00    -0.071 SA
ATOM      5  C   UNL d   1      -1.639  -0.150  -0.213  0.00  0.00     0.018 A 
ENDROOT
BRANCH   1   6
ATOM      6  C   UNL d   1       0.637   2.852  -0.074  0.00  0.00     0.138 A 
ATOM      7  N   UNL d   1       0.135   3.987  -0.651  0.00  0.00    -0.303 N 
ATOM      8  C   UNL d   1       1.020   4.980  -0.288  0.00  0.00     0.194 A 
ATOM      9  S   UNL d   1       1.044   6.594  -0.665  0.00  0.00    -0.039 SA
ATOM     10  N   UNL d   1       1.982   4.374   0.501  0.00  0.00    -0.274 N 
ATOM     11  N   UNL d   1       1.733   3.040   0.612  0.00  0.00    -0.282 N 
ATOM     12  H   UNL d   1       2.775   4.819   0.946  0.00  0.00     0.189 HD
ATOM     13  HN  UNL d   1       2.280   2.343   1.118  1.00  0.00     0.188 HD
BRANCH   7  14
ATOM     14  C   UNL d   1      -0.989   4.147  -1.558  0.00  0.00     0.160 C 
BRANCH  14  15
ATOM     15  C   UNL d   1      -2.264   4.531  -0.849  0.00  0.00    -0.017 C 
ATOM     16  C   UNL d   1      -2.479   4.665   0.468  0.00  0.00     0.008 C 
ENDBRANCH  14  15
ENDBRANCH   7  14
ENDBRANCH   1   6
BRANCH   2  17
ATOM     17  N   UNL d   1       2.134   0.225  -0.145  0.00  0.00    -0.393 N 
ATOM     18  H   UNL d   1       2.736   1.031   0.015  0.00  0.00     0.156 HD
ATOM     19  H   UNL d   1       2.571  -0.683  -0.022  0.00  0.00     0.156 HD
ENDBRANCH   2  17
BRANCH   5  20
ATOM     20  C   UNL d   1      -2.956  -0.814  -0.219  0.00  0.00    -0.019 A 
ATOM     21  C   UNL d   1      -3.136  -2.122  -0.705  0.00  0.00     0.013 A 
ATOM     22  C   UNL d   1      -4.394  -2.730  -0.697  0.00  0.00     0.001 A 
ATOM     23  C   UNL d   1      -5.499  -2.039  -0.214  0.00  0.00     0.000 A 
ATOM     24  C   UNL d   1      -5.348  -0.741   0.266  0.00  0.00     0.001 A 
ATOM     25  C   UNL d   1      -4.090  -0.136   0.264  0.00  0.00     0.013 A 
ENDBRANCH   5  20
TORSDOF 5
