REMARK  8 active torsions:
REMARK  status: ('A' for Active; 'I' for Inactive)
REMARK    1  A    between atoms: N_4  and  C_1 
REMARK    2  A    between atoms: N_9  and  C_1 
REMARK    3  A    between atoms: C_2  and  N_3 
REMARK    4  A    between atoms: N_10  and  C_2 
REMARK    5  A    between atoms: N_3  and  C_8 
REMARK    6  A    between atoms: C_7  and  N_4 
REMARK    7  A    between atoms: C_14  and  N_9 
REMARK    8  A    between atoms: C_13  and  N_10 
ROOT
ATOM      1  N   UNL d   1       0.610  -2.571  -2.501  0.00  0.00    -0.329 N 
ATOM      2  HN  UNL d   1      -0.395  -2.575  -2.673  1.00  0.00     0.169 HD
ATOM      3  C   UNL d   1       1.128  -1.958  -1.407  0.00  0.00     0.108 A 
ATOM      4  C   UNL d   1       1.465  -3.178  -3.359  0.00  0.00     0.108 A 
ATOM      5  C   UNL d   1       2.834  -3.225  -3.149  0.00  0.00     0.049 A 
ATOM      6  C   UNL d   1       2.482  -1.995  -1.122  0.00  0.00     0.049 A 
ATOM      7  C   UNL d   1       3.345  -2.635  -2.007  0.00  0.00     0.007 A 
ENDROOT
BRANCH   3   8
ATOM      8  N   UNL d   1       0.157  -1.277  -0.654  0.00  0.00    -0.319 N 
ATOM      9  H   UNL d   1      -0.701  -1.228  -1.185  0.00  0.00     0.169 HD
BRANCH   8  10
ATOM     10  C   UNL d   1       0.174  -0.585   0.525  0.00  0.00     0.177 C 
ATOM     11  S   UNL d   1       1.446  -0.326   1.583  0.00  0.00    -0.040 SA
BRANCH  10  12
ATOM     12  N   UNL d   1      -0.988   0.053   0.884  0.00  0.00    -0.333 N 
ATOM     13  H   UNL d   1      -0.823   0.763   1.592  0.00  0.00     0.168 HD
BRANCH  12  14
ATOM     14  C   UNL d   1      -2.337  -0.150   0.545  0.00  0.00     0.034 A 
ATOM     15  C   UNL d   1      -2.836  -1.336  -0.002  0.00  0.00     0.032 A 
ATOM     16  C   UNL d   1      -4.202  -1.465  -0.273  0.00  0.00     0.044 A 
ATOM     17  C   UNL d   1      -5.066  -0.418   0.022  0.00  0.00     0.116 A 
ATOM     18  C   UNL d   1      -4.594   0.755   0.594  0.00  0.00     0.044 A 
ATOM     19  F   UNL d   1      -6.375  -0.549  -0.233  0.00  0.00    -0.206 F 
ATOM     20  C   UNL d   1      -3.230   0.885   0.865  0.00  0.00     0.032 A 
ENDBRANCH  12  14
ENDBRANCH  10  12
ENDBRANCH   8  10
ENDBRANCH   3   8
BRANCH   4  21
ATOM     21  N   UNL d   1       0.874  -3.908  -4.398  0.00  0.00    -0.319 N 
ATOM     22  H   UNL d   1      -0.125  -4.033  -4.304  0.00  0.00     0.169 HD
BRANCH  21  23
ATOM     23  C   UNL d   1       1.436  -4.285  -5.580  0.00  0.00     0.177 C 
ATOM     24  S   UNL d   1       2.323  -3.271  -6.580  0.00  0.00    -0.040 SA
BRANCH  23  25
ATOM     25  N   UNL d   1       1.166  -5.540  -6.047  0.00  0.00    -0.333 N 
ATOM     26  H   UNL d   1       1.429  -5.655  -7.021  0.00  0.00     0.168 HD
BRANCH  25  27
ATOM     27  C   UNL d   1       0.808  -6.726  -5.372  0.00  0.00     0.034 A 
ATOM     28  C   UNL d   1       0.751  -6.862  -3.982  0.00  0.00     0.032 A 
ATOM     29  C   UNL d   1       0.441  -8.096  -3.400  0.00  0.00     0.044 A 
ATOM     30  C   UNL d   1       0.196  -9.197  -4.209  0.00  0.00     0.116 A 
ATOM     31  C   UNL d   1       0.263  -9.090  -5.590  0.00  0.00     0.044 A 
ATOM     32  F   UNL d   1      -0.096 -10.378  -3.649  0.00  0.00    -0.206 F 
ATOM     33  C   UNL d   1       0.574  -7.857  -6.170  0.00  0.00     0.032 A 
ENDBRANCH  25  27
ENDBRANCH  23  25
ENDBRANCH  21  23
ENDBRANCH   4  21
TORSDOF 8
