REMARK  5 active torsions:
REMARK  status: ('A' for Active; 'I' for Inactive)
REMARK    1  A    between atoms: C_16  and  N_3 
REMARK    2  A    between atoms: C_17  and  N_5 
REMARK    3  A    between atoms: O_10  and  C_7 
REMARK    4  A    between atoms: C_11  and  O_10 
REMARK    5  A    between atoms: C_12  and  C_11 
ROOT
ATOM      1  C   UNL d   1       0.074  -0.518  -0.505  0.00  0.00     0.103 A 
ATOM      2  C   UNL d   1      -0.215   0.780  -0.157  0.00  0.00     0.103 A 
ATOM      3  N   UNL d   1       0.740   1.794  -0.013  0.00  0.00    -0.281 N 
ATOM      4  C   UNL d   1       2.124   1.407   0.003  0.00  0.00     0.194 C 
ATOM      5  N   UNL d   1       2.401   0.057  -0.427  0.00  0.00    -0.254 N 
ATOM      6  C   UNL d   1       1.430  -0.875  -0.850  0.00  0.00     0.270 C 
ATOM      7  C   UNL d   1      -1.107  -1.335  -0.545  0.00  0.00     0.125 A 
ATOM      8  S   UNL d   1      -1.897   1.016  -0.012  0.00  0.00    -0.057 SA
ATOM      9  C   UNL d   1      -2.247  -0.628  -0.238  0.00  0.00     0.122 A 
ATOM     10  C   UNL d   1      -3.569  -1.163  -0.146  0.00  0.00     0.110 C 
ATOM     11  S   UNL d   1       3.336   2.498   0.528  0.00  0.00    -0.039 SA
ATOM     12  N   UNL d   1      -4.638  -1.599  -0.049  0.00  0.00    -0.191 NA
ATOM     13  O   UNL d   1       1.652  -1.909  -1.475  0.00  0.00    -0.266 OA
ENDROOT
BRANCH   7  14
ATOM     14  O   UNL d   1      -1.212  -2.614  -0.967  0.00  0.00    -0.271 OA
BRANCH  14  15
ATOM     15  C   UNL d   1      -0.460  -3.599  -0.390  0.00  0.00     0.305 C 
ATOM     16  O   UNL d   1       0.230  -3.456   0.615  0.00  0.00    -0.258 OA
BRANCH  15  17
ATOM     17  C   UNL d   1      -0.633  -4.840  -1.135  0.00  0.00     0.080 A 
ATOM     18  S   UNL d   1      -1.874  -5.012  -2.317  0.00  0.00    -0.096 SA
ATOM     19  C   UNL d   1      -1.407  -6.608  -2.694  0.00  0.00     0.050 A 
ATOM     20  C   UNL d   1      -0.337  -7.019  -1.935  0.00  0.00     0.009 A 
ATOM     21  C   UNL d   1       0.103  -6.006  -1.026  0.00  0.00     0.025 A 
ENDBRANCH  15  17
ENDBRANCH  14  15
ENDBRANCH   7  14
BRANCH   3  22
ATOM     22  C   UNL d   1       0.325   3.180  -0.090  0.00  0.00     0.042 A 
ATOM     23  C   UNL d   1      -0.671   3.723   0.735  0.00  0.00     0.030 A 
ATOM     24  C   UNL d   1      -1.122   5.037   0.560  0.00  0.00     0.002 A 
ATOM     25  C   UNL d   1      -0.532   5.857  -0.397  0.00  0.00     0.000 A 
ATOM     26  C   UNL d   1       0.504   5.363  -1.182  0.00  0.00     0.002 A 
ATOM     27  C   UNL d   1       0.914   4.032  -1.043  0.00  0.00     0.030 A 
ENDBRANCH   3  22
BRANCH   5  28
ATOM     28  C   UNL d   1       3.767  -0.395  -0.558  0.00  0.00     0.045 A 
ATOM     29  C   UNL d   1       4.277  -0.771  -1.810  0.00  0.00     0.030 A 
ATOM     30  C   UNL d   1       5.608  -1.175  -1.942  0.00  0.00     0.002 A 
ATOM     31  C   UNL d   1       6.439  -1.218  -0.825  0.00  0.00     0.000 A 
ATOM     32  C   UNL d   1       5.935  -0.882   0.429  0.00  0.00     0.002 A 
ATOM     33  C   UNL d   1       4.602  -0.487   0.565  0.00  0.00     0.030 A 
ENDBRANCH   5  28
TORSDOF 5
