REMARK  3 active torsions:
REMARK  status: ('A' for Active; 'I' for Inactive)
REMARK    1  A    between atoms: C_9  and  C_2 
REMARK    2  A    between atoms: C_4  and  O_11 
REMARK    3  A    between atoms: O_11  and  C_19 
ROOT
ATOM      1  C   UNL d   1       0.867  -2.859   0.018  0.00  0.00    -0.009 A 
ATOM      2  C   UNL d   1       1.608  -3.512   1.009  0.00  0.00     0.016 A 
ATOM      3  C   UNL d   1       0.042  -3.604  -0.828  0.00  0.00     0.016 A 
ATOM      4  C   UNL d   1       0.722  -5.651   0.304  0.00  0.00     0.078 A 
ATOM      5  C   UNL d   1       1.543  -4.903   1.148  0.00  0.00     0.038 A 
ATOM      6  C   UNL d   1      -0.016  -4.997  -0.688  0.00  0.00     0.038 A 
ENDROOT
BRANCH   1   7
ATOM      7  C   UNL d   1       0.947  -1.376  -0.059  0.00  0.00     0.049 C 
ATOM      8  C   UNL d   1       1.020  -0.702  -1.355  0.00  0.00     0.005 A 
ATOM      9  C   UNL d   1       0.811   0.660  -1.404  0.00  0.00    -0.004 A 
ATOM     10  C   UNL d   1       1.302  -1.209  -2.664  0.00  0.00     0.022 A 
ATOM     11  S   UNL d   1       0.907   1.314  -2.964  0.00  0.00    -0.105 SA
ATOM     12  C   UNL d   1       0.509   1.465  -0.191  0.00  0.00     0.066 C 
ATOM     13  C   UNL d   1       1.260  -0.223  -3.630  0.00  0.00     0.051 A 
ATOM     14  C   UNL d   1       1.134   0.767   1.021  0.00  0.00     0.125 C 
ATOM     15  N   UNL d   1       0.960  -0.699   1.045  0.00  0.00    -0.388 N 
ATOM     16  HN  UNL d   1       0.849  -1.181   1.937  1.00  0.00     0.159 HD
ENDBRANCH   1   7
BRANCH   4  17
ATOM     17  O   UNL d   1       0.553  -7.006   0.338  0.00  0.00    -0.255 OA
BRANCH  17  18
ATOM     18  C   UNL d   1       1.028  -7.695   1.484  0.00  0.00     0.530 C 
ATOM     19  F   UNL d   1       0.514  -7.173   2.618  0.00  0.00    -0.144 F 
ATOM     20  F   UNL d   1       0.640  -8.987   1.402  0.00  0.00    -0.144 F 
ATOM     21  F   UNL d   1       2.376  -7.666   1.544  0.00  0.00    -0.144 F 
ENDBRANCH  17  18
ENDBRANCH   4  17
TORSDOF 3
