REMARK  4 active torsions:
REMARK  status: ('A' for Active; 'I' for Inactive)
REMARK    1  A    between atoms: C_4  and  C_3 
REMARK    2  A    between atoms: O_9  and  C_4 
REMARK    3  A    between atoms: C_6  and  C_10 
REMARK    4  A    between atoms: C_10  and  O_9 
ROOT
ATOM      1  C   UNL d   1      -3.533   1.435  -0.032  0.00  0.00     0.310 C 
ATOM      2  O   UNL d   1      -3.400   2.650   0.072  0.00  0.00    -0.258 OA
ENDROOT
BRANCH   1   3
ATOM      3  C   UNL d   1      -2.349   0.513  -0.045  0.00  0.00     0.108 A 
ATOM      4  N   UNL d   1      -2.553  -0.830  -0.054  0.00  0.00    -0.351 N 
ATOM      5  C   UNL d   1      -1.468  -1.636  -0.051  0.00  0.00     0.043 A 
ATOM      6  HN  UNL d   1      -3.496  -1.218  -0.064  1.00  0.00     0.166 HD
ATOM      7  C   UNL d   1      -0.145  -1.136  -0.048  0.00  0.00    -0.009 A 
ATOM      8  C   UNL d   1      -1.629  -3.017  -0.050  0.00  0.00     0.030 A 
ATOM      9  C   UNL d   1       0.032   0.250  -0.035  0.00  0.00     0.016 A 
ATOM     10  C   UNL d   1       0.957  -2.011  -0.059  0.00  0.00     0.013 A 
ATOM     11  C   UNL d   1      -1.080   1.085  -0.029  0.00  0.00     0.037 A 
ATOM     12  C   UNL d   1       0.759  -3.389  -0.067  0.00  0.00     0.001 A 
ATOM     13  C   UNL d   1      -0.535  -3.893  -0.059  0.00  0.00     0.002 A 
ENDBRANCH   1   3
BRANCH   1  14
ATOM     14  O   UNL d   1      -4.721   0.782  -0.139  0.00  0.00    -0.312 OA
BRANCH  14  15
ATOM     15  C   UNL d   1      -5.904   1.601   0.003  0.00  0.00     0.219 C 
BRANCH  15  16
ATOM     16  C   UNL d   1      -6.903   1.437  -1.130  0.00  0.00    -0.012 A 
ATOM     17  C   UNL d   1      -8.098   2.187  -1.150  0.00  0.00     0.044 A 
ATOM     18  C   UNL d   1      -9.019   2.062  -2.197  0.00  0.00     0.048 A 
ATOM     19 CL   UNL d   1      -8.494   3.299   0.117  0.00  0.00    -0.084 Cl
ATOM     20  C   UNL d   1      -8.756   1.179  -3.236  0.00  0.00     0.035 A 
ATOM     21  C   UNL d   1      -7.591   0.418  -3.236  0.00  0.00     0.024 A 
ATOM     22 CL   UNL d   1      -9.879   1.026  -4.533  0.00  0.00    -0.084 Cl
ATOM     23  C   UNL d   1      -6.672   0.545  -2.190  0.00  0.00     0.013 A 
ENDBRANCH  15  16
ENDBRANCH  14  15
ENDBRANCH   1  14
TORSDOF 4
