REMARK  2 active torsions:
REMARK  status: ('A' for Active; 'I' for Inactive)
REMARK    1  A    between atoms: C_16  and  N_12 
REMARK    2  A    between atoms: C_17  and  C_16 
ROOT
ATOM      1  C   UNL d   1      -0.983   0.676   0.007  0.00  0.00     0.160 A 
ATOM      2  C   UNL d   1      -0.943  -0.679  -0.062  0.00  0.00     0.162 A 
ATOM      3  N   UNL d   1       0.171   1.421   0.042  0.00  0.00    -0.287 N 
ATOM      4  N   UNL d   1       1.398  -0.635   0.002  0.00  0.00    -0.269 N 
ATOM      5  C   UNL d   1       1.410   0.772   0.040  0.00  0.00     0.332 A 
ATOM      6  C   UNL d   1       0.253  -1.437  -0.064  0.00  0.00     0.282 A 
ATOM      7  N   UNL d   1      -2.264   1.139   0.039  0.00  0.00    -0.174 N 
ATOM      8  HN  UNL d   1      -2.572   2.109   0.106  1.00  0.00     0.186 HD
ATOM      9  C   UNL d   1      -3.017   0.061  -0.035  0.00  0.00     0.680 A 
ATOM     10  N   UNL d   1      -2.247  -1.074  -0.122  0.00  0.00    -0.182 N 
ATOM     11  O   UNL d   1       2.465   1.413   0.072  0.00  0.00    -0.246 OA
ATOM     12  N   UNL d   1      -4.355  -0.040  -0.018  0.00  0.00    -0.222 N 
ATOM     13  O   UNL d   1       0.263  -2.660  -0.115  0.00  0.00    -0.265 OA
ATOM     14  C   UNL d   1       0.144   2.869   0.060  0.00  0.00     0.163 C 
ATOM     15  C   UNL d   1       2.667  -1.338   0.033  0.00  0.00     0.164 C 
ATOM     16  H   UNL d   1      -2.587  -2.024  -0.177  0.00  0.00     0.184 HD
ATOM     17  H   UNL d   1      -4.848  -0.921  -0.109  0.00  0.00     0.178 HD
ENDROOT
BRANCH  12  18
ATOM     18  C   UNL d   1      -5.156   1.049   0.516  0.00  0.00     0.176 C 
BRANCH  18  19
ATOM     19  C   UNL d   1      -6.065   0.527   1.609  0.00  0.00    -0.040 A 
ATOM     20  C   UNL d   1      -5.524  -0.065   2.763  0.00  0.00     0.009 A 
ATOM     21  C   UNL d   1      -6.356  -0.531   3.782  0.00  0.00     0.001 A 
ATOM     22  C   UNL d   1      -7.739  -0.403   3.665  0.00  0.00     0.000 A 
ATOM     23  C   UNL d   1      -8.289   0.188   2.529  0.00  0.00     0.001 A 
ATOM     24  C   UNL d   1      -7.458   0.650   1.506  0.00  0.00     0.009 A 
ENDBRANCH  18  19
ENDBRANCH  12  18
TORSDOF 2
