REMARK  4 active torsions:
REMARK  status: ('A' for Active; 'I' for Inactive)
REMARK    1  A    between atoms: N_2  and  C_1 
REMARK    2  A    between atoms: C_3  and  C_1 
REMARK    3  A    between atoms: C_7  and  N_2 
REMARK    4  A    between atoms: O_9  and  N_4 
ROOT
ATOM      1  C   UNL d   1       1.151  -0.027  -0.057  0.00  0.00     0.136 C 
ATOM      2  N   UNL d   1       2.434   0.064  -0.284  0.00  0.00    -0.252 N 
ATOM      3  HN  UNL d   1       2.840   0.643  -1.019  1.00  0.00     0.196 HD
ENDROOT
BRANCH   1   4
ATOM      4  N   UNL d   1       0.497  -0.686   0.968  0.00  0.00    -0.340 N 
ATOM      5  H   UNL d   1      -0.432  -1.041   0.782  0.00  0.00     0.167 HD
BRANCH   4   6
ATOM      6  C   UNL d   1       0.868  -0.775   2.325  0.00  0.00     0.033 A 
ATOM      7  C   UNL d   1       1.720   0.147   2.945  0.00  0.00     0.029 A 
ATOM      8  C   UNL d   1       2.150  -0.040   4.262  0.00  0.00     0.002 A 
ATOM      9  C   UNL d   1       1.735  -1.160   4.978  0.00  0.00     0.000 A 
ATOM     10  C   UNL d   1       0.877  -2.081   4.384  0.00  0.00     0.002 A 
ATOM     11  C   UNL d   1       0.444  -1.886   3.069  0.00  0.00     0.029 A 
ENDBRANCH   4   6
ENDBRANCH   1   4
BRANCH   1  12
ATOM     12  C   UNL d   1       0.279   0.624  -1.100  0.00  0.00     0.011 A 
ATOM     13  C   UNL d   1      -0.959   1.173  -0.752  0.00  0.00     0.039 A 
ATOM     14  C   UNL d   1      -1.750   1.762  -1.740  0.00  0.00     0.035 A 
ATOM     15 CL   UNL d   1      -3.273   2.442  -1.317  0.00  0.00    -0.084 Cl
ATOM     16  C   UNL d   1      -1.321   1.809  -3.067  0.00  0.00     0.024 A 
ATOM     17  C   UNL d   1      -0.084   1.267  -3.414  0.00  0.00     0.003 A 
ATOM     18  C   UNL d   1       0.715   0.677  -2.433  0.00  0.00     0.015 A 
ENDBRANCH   1  12
BRANCH   2  19
ATOM     19  O   UNL d   1       3.188  -0.721   0.594  0.00  0.00    -0.288 OA
ATOM     20  H   UNL d   1       4.103  -0.491   0.355  0.00  0.00     0.244 HD
ENDBRANCH   2  19
TORSDOF 4
