REMARK  3 active torsions:
REMARK  status: ('A' for Active; 'I' for Inactive)
REMARK    1  A    between atoms: C_3  and  C_1 
REMARK       I    between atoms: N_10  and  C_3 
REMARK    2  A    between atoms: C_12  and  N_10 
REMARK    3  A    between atoms: N_11  and  C_13 
ROOT
ATOM      1  C   UNL d   1      -0.597  -3.682  -1.628  0.00  0.00     0.258 C 
ATOM      2  N   UNL d   1      -0.210  -3.611  -0.305  0.00  0.00    -0.321 N 
ATOM      3  O   UNL d   1       0.087  -3.283  -2.577  0.00  0.00    -0.267 OA
ATOM      4  H   UNL d   1      -0.909  -3.699   0.428  0.00  0.00     0.169 HD
ENDROOT
BRANCH   2   5
ATOM      5  C   UNL d   1       1.045  -3.072   0.083  0.00  0.00     0.061 A 
ATOM      6  C   UNL d   1       1.166  -2.245   1.228  0.00  0.00     0.057 A 
ATOM      7  C   UNL d   1       2.461  -1.756   1.507  0.00  0.00     0.031 A 
ATOM      8  C   UNL d   1       3.583  -2.109   0.744  0.00  0.00     0.002 A 
ATOM      9  C   UNL d   1       3.444  -2.972  -0.329  0.00  0.00     0.002 A 
ATOM     10  C   UNL d   1       2.180  -3.437  -0.664  0.00  0.00     0.032 A 
BRANCH   6  11
ATOM     11  N   UNL d   1       0.083  -1.951   2.065  0.00  0.00    -0.375 N 
ATOM     12  C   UNL d   1       0.343  -1.438   3.429  0.00  0.00     0.149 C 
ATOM     13  C   UNL d   1      -0.885  -1.726   4.309  0.00  0.00     0.187 C 
ATOM     14  O   UNL d   1      -2.088  -1.164   3.754  0.00  0.00    -0.388 OA
ATOM     15  C   UNL d   1      -2.307  -1.656   2.419  0.00  0.00     0.187 C 
ATOM     16  C   UNL d   1      -1.122  -1.308   1.497  0.00  0.00     0.149 C 
ENDBRANCH   6  11
ENDBRANCH   2   5
BRANCH   1  17
ATOM     17  C   UNL d   1      -1.927  -4.219  -1.966  0.00  0.00     0.061 A 
ATOM     18  C   UNL d   1      -2.815  -4.835  -1.051  0.00  0.00     0.082 A 
ATOM     19  N   UNL d   1      -2.676  -4.960   0.282  0.00  0.00    -0.310 N 
ATOM     20  C   UNL d   1      -4.107  -5.451  -1.556  0.00  0.00     0.068 A 
ATOM     21  S   UNL d   1      -3.998  -5.808   0.826  0.00  0.00     0.068 SA
ATOM     22  HN  UNL d   1      -1.908  -4.602   0.850  1.00  0.00     0.176 HD
ATOM     23  N   UNL d   1      -4.836  -6.024  -0.588  0.00  0.00    -0.310 N 
ATOM     24  HN  UNL d   1      -5.732  -6.499  -0.700  1.00  0.00     0.176 HD
ATOM     25  C   UNL d   1      -4.461  -5.405  -2.928  0.00  0.00     0.032 A 
ATOM     26  C   UNL d   1      -3.565  -4.746  -3.780  0.00  0.00     0.003 A 
ATOM     27  C   UNL d   1      -2.358  -4.182  -3.318  0.00  0.00     0.019 A 
ENDBRANCH   1  17
TORSDOF 3
