REMARK  2 active torsions:
REMARK  status: ('A' for Active; 'I' for Inactive)
REMARK    1  A    between atoms: C_8  and  C_3 
REMARK    2  A    between atoms: C_10  and  C_7 
ROOT
ATOM      1  N   UNL d   1       1.559  -0.077   0.019  0.00  0.00    -0.331 N 
ATOM      2  HN  UNL d   1       2.505  -0.459   0.008  1.00  0.00     0.168 HD
ATOM      3  C   UNL d   1       1.189   1.163   0.013  0.00  0.00     0.162 A 
ATOM      4  C   UNL d   1       0.364  -0.752   0.045  0.00  0.00     0.111 A 
ATOM      5  O   UNL d   1      -0.138   1.423   0.047  0.00  0.00    -0.256 OA
ATOM      6  C   UNL d   1      -0.772   0.217   0.070  0.00  0.00     0.316 A 
ATOM      7  C   UNL d   1       0.278  -2.087   0.024  0.00  0.00     0.047 C 
ATOM      8  O   UNL d   1      -1.969   0.031   0.101  0.00  0.00    -0.257 OA
ENDROOT
BRANCH   7   9
ATOM      9  C   UNL d   1      -0.959  -2.866   0.009  0.00  0.00    -0.034 A 
ATOM     10  C   UNL d   1      -1.526  -3.250  -1.213  0.00  0.00     0.014 A 
ATOM     11  C   UNL d   1      -2.692  -4.017  -1.234  0.00  0.00     0.043 A 
ATOM     12  C   UNL d   1      -3.283  -4.396  -0.035  0.00  0.00     0.116 A 
ATOM     13  C   UNL d   1      -2.734  -4.020   1.186  0.00  0.00     0.043 A 
ATOM     14  F   UNL d   1      -4.397  -5.140  -0.055  0.00  0.00    -0.206 F 
ATOM     15  C   UNL d   1      -1.568  -3.252   1.210  0.00  0.00     0.014 A 
ENDBRANCH   7   9
BRANCH   3  16
ATOM     16  C   UNL d   1       2.061   2.346  -0.053  0.00  0.00     0.015 A 
ATOM     17  C   UNL d   1       3.447   2.163  -0.133  0.00  0.00     0.016 A 
ATOM     18  C   UNL d   1       4.293   3.268  -0.249  0.00  0.00     0.001 A 
ATOM     19  C   UNL d   1       3.758   4.556  -0.282  0.00  0.00     0.000 A 
ATOM     20  C   UNL d   1       2.379   4.743  -0.187  0.00  0.00     0.001 A 
ATOM     21  C   UNL d   1       1.530   3.641  -0.071  0.00  0.00     0.016 A 
ENDBRANCH   3  16
TORSDOF 2
