REMARK  7 active torsions:
REMARK  status: ('A' for Active; 'I' for Inactive)
REMARK    1  A    between atoms: N_3  and  S_1 
REMARK    2  A    between atoms: C_4  and  S_1 
REMARK    3  A    between atoms: C_5  and  C_2 
REMARK    4  A    between atoms: C_6  and  N_3 
REMARK    5  A    between atoms: O_10  and  C_7 
REMARK    6  A    between atoms: C_20  and  O_10 
REMARK    7  A    between atoms: C_13  and  C_14 
ROOT
ATOM      1  C   UNL d   1       0.926  -0.495   2.707  0.00  0.00     0.094 A 
ATOM      2  C   UNL d   1      -0.055  -0.685   3.693  0.00  0.00     0.175 A 
ATOM      3  N   UNL d   1       0.196  -1.310   4.871  0.00  0.00    -0.345 N 
ATOM      4  HN  UNL d   1      -0.528  -1.417   5.581  1.00  0.00     0.167 HD
ATOM      5  C   UNL d   1       2.209  -0.985   2.952  0.00  0.00     0.036 A 
ATOM      6  C   UNL d   1       1.444  -1.786   5.064  0.00  0.00     0.090 A 
ATOM      7  C   UNL d   1       2.470  -1.654   4.144  0.00  0.00     0.019 A 
ENDROOT
BRANCH   1   8
ATOM      8  N   UNL d   1       0.691   0.179   1.470  0.00  0.00    -0.276 N 
ATOM      9  H   UNL d   1      -0.180  -0.039   0.983  0.00  0.00     0.179 HD
BRANCH   8  10
ATOM     10  S   UNL d   1       1.015   1.831   1.378  0.00  0.00     0.264 S 
ATOM     11  O   UNL d   1       0.927   2.398   2.703  0.00  0.00    -0.200 OA
ATOM     12  O   UNL d   1       0.232   2.368   0.284  0.00  0.00    -0.200 OA
BRANCH  10  13
ATOM     13  C   UNL d   1       2.719   1.924   0.839  0.00  0.00     0.094 A 
ATOM     14  C   UNL d   1       3.159   1.406  -0.394  0.00  0.00     0.071 A 
ATOM     15  C   UNL d   1       4.500   1.656  -0.774  0.00  0.00     0.018 A 
ATOM     16  C   UNL d   1       5.370   2.392   0.032  0.00  0.00     0.001 A 
ATOM     17  C   UNL d   1       4.921   2.890   1.249  0.00  0.00     0.002 A 
ATOM     18  C   UNL d   1       3.604   2.657   1.651  0.00  0.00     0.026 A 
BRANCH  14  19
ATOM     19  C   UNL d   1       2.332   0.611  -1.377  0.00  0.00     0.419 C 
ATOM     20  F   UNL d   1       1.075   0.272  -1.007  0.00  0.00    -0.166 F 
ATOM     21  F   UNL d   1       2.208   1.252  -2.573  0.00  0.00    -0.166 F 
ATOM     22  F   UNL d   1       2.941  -0.577  -1.670  0.00  0.00    -0.166 F 
ENDBRANCH  14  19
ENDBRANCH  10  13
ENDBRANCH   8  10
ENDBRANCH   1   8
BRANCH   2  23
ATOM     23  O   UNL d   1      -1.343  -0.208   3.450  0.00  0.00    -0.292 OA
BRANCH  23  24
ATOM     24  C   UNL d   1      -2.401  -0.830   4.086  0.00  0.00     0.077 A 
ATOM     25  C   UNL d   1      -3.438  -0.027   4.556  0.00  0.00     0.038 A 
ATOM     26  C   UNL d   1      -4.582  -0.606   5.137  0.00  0.00     0.011 A 
ATOM     27  C   UNL d   1      -4.728  -2.004   5.253  0.00  0.00    -0.050 A 
ATOM     28  C   UNL d   1      -3.666  -2.790   4.773  0.00  0.00     0.011 A 
ATOM     29  C   UNL d   1      -2.529  -2.215   4.185  0.00  0.00     0.038 A 
BRANCH  27  30
ATOM     30  C   UNL d   1      -6.009  -2.621   5.852  0.00  0.00    -0.024 C 
ATOM     31  C   UNL d   1      -5.997  -4.168   5.885  0.00  0.00     0.019 C 
ATOM     32  C   UNL d   1      -6.213  -2.142   7.306  0.00  0.00     0.019 C 
ATOM     33  C   UNL d   1      -7.236  -2.203   5.013  0.00  0.00     0.019 C 
ENDBRANCH  27  30
ENDBRANCH  23  24
ENDBRANCH   2  23
TORSDOF 7
