REMARK  5 active torsions:
REMARK  status: ('A' for Active; 'I' for Inactive)
REMARK    1  A    between atoms: C_9  and  C_1 
REMARK    2  A    between atoms: N_17  and  C_3 
REMARK    3  A    between atoms: C_12  and  C_6 
REMARK    4  A    between atoms: C_15  and  C_9 
REMARK    5  A    between atoms: C_13  and  C_10 
ROOT
ATOM      1  C   UNL d   1       2.394   0.131   0.017  0.00  0.00     0.155 A 
ATOM      2  C   UNL d   1       0.278   0.939   0.001  0.00  0.00     0.058 A 
ATOM      3  C   UNL d   1       1.655   1.294   0.054  0.00  0.00     0.080 A 
ATOM      4  C   UNL d   1       0.272  -0.457  -0.057  0.00  0.00     0.162 A 
ATOM      5  O   UNL d   1       1.548  -0.941  -0.044  0.00  0.00    -0.286 OA
ATOM      6  C   UNL d   1      -0.981   1.575   0.012  0.00  0.00     0.017 A 
ATOM      7  N   UNL d   1      -0.798  -1.273  -0.108  0.00  0.00    -0.335 N 
ATOM      8  HN  UNL d   1      -0.719  -2.289  -0.134  1.00  0.00     0.168 HD
ATOM      9  C   UNL d   1      -1.985  -0.627  -0.120  0.00  0.00     0.052 A 
ATOM     10  C   UNL d   1      -2.118   0.758  -0.045  0.00  0.00     0.046 A 
ENDROOT
BRANCH   1  11
ATOM     11  C   UNL d   1       3.830  -0.056  -0.006  0.00  0.00     0.218 C 
ATOM     12  O   UNL d   1       4.600   0.791  -0.460  0.00  0.00    -0.284 OA
BRANCH  11  13
ATOM     13  C   UNL d   1       4.438  -1.283   0.580  0.00  0.00     0.017 A 
ATOM     14  C   UNL d   1       3.834  -1.978   1.639  0.00  0.00     0.018 A 
ATOM     15  C   UNL d   1       4.474  -3.083   2.203  0.00  0.00     0.043 A 
ATOM     16  C   UNL d   1       5.714  -3.486   1.716  0.00  0.00     0.116 A 
ATOM     17  C   UNL d   1       6.332  -2.801   0.677  0.00  0.00     0.043 A 
ATOM     18  F   UNL d   1       6.326  -4.541   2.267  0.00  0.00    -0.206 F 
ATOM     19  C   UNL d   1       5.697  -1.694   0.110  0.00  0.00     0.018 A 
ENDBRANCH  11  13
ENDBRANCH   1  11
BRANCH   3  20
ATOM     20  N   UNL d   1       2.180   2.532   0.142  0.00  0.00    -0.396 N 
ATOM     21  H   UNL d   1       1.597   3.336  -0.090  0.00  0.00     0.156 HD
ATOM     22  H   UNL d   1       3.163   2.680  -0.099  0.00  0.00     0.156 HD
ENDBRANCH   3  20
BRANCH   6  23
ATOM     23  C   UNL d   1      -1.117   3.019   0.119  0.00  0.00     0.086 A 
ATOM     24  O   UNL d   1      -0.162   3.787  -0.486  0.00  0.00    -0.322 OA
ATOM     25  C   UNL d   1      -0.483   5.088  -0.264  0.00  0.00     0.142 A 
ATOM     26  C   UNL d   1      -1.649   5.177   0.456  0.00  0.00     0.027 A 
ATOM     27  C   UNL d   1      -2.069   3.845   0.689  0.00  0.00     0.040 A 
ENDBRANCH   6  23
BRANCH   9  28
ATOM     28  C   UNL d   1      -3.158  -1.521  -0.191  0.00  0.00     0.031 A 
ATOM     29  S   UNL d   1      -4.635  -0.998  -0.910  0.00  0.00    -0.100 SA
ATOM     30  C   UNL d   1      -5.412  -2.485  -0.595  0.00  0.00     0.050 A 
ATOM     31  C   UNL d   1      -4.573  -3.382   0.023  0.00  0.00     0.008 A 
ATOM     32  C   UNL d   1      -3.275  -2.833   0.242  0.00  0.00     0.021 A 
ENDBRANCH   9  28
TORSDOF 5
