REMARK  7 active torsions:
REMARK  status: ('A' for Active; 'I' for Inactive)
REMARK    1  A    between atoms: C_2  and  S_1 
REMARK    2  A    between atoms: C_4  and  S_1 
REMARK    3  A    between atoms: C_3  and  C_2 
REMARK    4  A    between atoms: C_6  and  C_3 
REMARK    5  A    between atoms: O_15  and  C_6 
REMARK    6  A    between atoms: N_10  and  O_15 
REMARK    7  A    between atoms: C_19  and  C_16 
ROOT
ATOM      1  N   UNL d   1     -10.768  -4.763  -2.633  0.00  0.00    -0.191 NA
ATOM      2  C   UNL d   1      -9.672  -4.383  -2.710  0.00  0.00     0.099 C 
ATOM      3  C   UNL d   1      -8.324  -3.908  -2.808  0.00  0.00     0.044 A 
ATOM      4  C   UNL d   1      -5.703  -2.952  -3.012  0.00  0.00    -0.019 A 
ATOM      5  C   UNL d   1      -7.795  -3.095  -1.800  0.00  0.00     0.023 A 
ATOM      6  C   UNL d   1      -7.534  -4.246  -3.916  0.00  0.00     0.023 A 
ATOM      7  C   UNL d   1      -6.486  -2.622  -1.900  0.00  0.00     0.014 A 
ATOM      8  C   UNL d   1      -6.224  -3.765  -4.022  0.00  0.00     0.014 A 
ENDROOT
BRANCH   4   9
ATOM      9  C   UNL d   1      -4.343  -2.391  -3.151  0.00  0.00     0.126 C 
ATOM     10  N   UNL d   1      -3.796  -1.736  -2.180  0.00  0.00    -0.268 N 
ATOM     11  HN  UNL d   1      -4.193  -1.641  -1.245  1.00  0.00     0.194 HD
BRANCH  10  12
ATOM     12  O   UNL d   1      -2.577  -1.176  -2.596  0.00  0.00    -0.200 OA
BRANCH  12  13
ATOM     13  C   UNL d   1      -1.826  -0.894  -1.485  0.00  0.00     0.282 C 
ATOM     14  O   UNL d   1      -1.661  -1.625  -0.515  0.00  0.00    -0.263 OA
BRANCH  13  15
ATOM     15  C   UNL d   1      -1.221   0.478  -1.598  0.00  0.00     0.133 C 
BRANCH  15  16
ATOM     16  C   UNL d   1       0.298   0.434  -1.485  0.00  0.00     0.118 C 
ATOM     17  C   UNL d   1       0.919  -0.306  -2.674  0.00  0.00     0.027 C 
BRANCH  16  18
ATOM     18  S   UNL d   1       0.977   2.098  -1.416  0.00  0.00     0.179 S 
ATOM     19  O   UNL d   1       0.471   2.825  -2.565  0.00  0.00    -0.222 OA
ATOM     20  O   UNL d   1       2.403   2.003  -1.169  0.00  0.00    -0.222 OA
BRANCH  18  21
ATOM     21  C   UNL d   1       0.282   2.857   0.038  0.00  0.00     0.059 A 
ATOM     22  C   UNL d   1       0.560   2.315   1.296  0.00  0.00     0.025 A 
ATOM     23  C   UNL d   1       0.041   2.932   2.438  0.00  0.00     0.025 A 
ATOM     24  C   UNL d   1      -0.737   4.085   2.315  0.00  0.00     0.034 A 
ATOM     25  C   UNL d   1      -1.000   4.631   1.059  0.00  0.00     0.025 A 
ATOM     26 CL   UNL d   1      -1.366   4.844   3.725  0.00  0.00    -0.084 Cl
ATOM     27  C   UNL d   1      -0.489   4.018  -0.087  0.00  0.00     0.025 A 
ENDBRANCH  18  21
ENDBRANCH  16  18
ENDBRANCH  15  16
ENDBRANCH  13  15
ENDBRANCH  12  13
ENDBRANCH  10  12
ENDBRANCH   4   9
TORSDOF 7
