REMARK  6 active torsions:
REMARK  status: ('A' for Active; 'I' for Inactive)
REMARK    1  A    between atoms: C_5  and  S_1 
REMARK    2  A    between atoms: N_7  and  S_1 
REMARK    3  A    between atoms: S_2  and  C_8 
REMARK    4  A    between atoms: N_14  and  S_2 
REMARK    5  A    between atoms: C_20  and  N_7 
REMARK    6  A    between atoms: C_21  and  C_20 
ROOT
ATOM      1  N   UNL d   1       0.384  -0.899   1.185  0.00  0.00    -0.211 NA
ATOM      2  H   UNL d   1      -0.579  -1.165   0.977  0.00  0.00     0.140 HD
ENDROOT
BRANCH   1   3
ATOM      3  S   UNL d   1       1.065  -0.002  -0.080  0.00  0.00     0.241 S 
ATOM      4  O   UNL d   1       0.401   1.282  -0.083  0.00  0.00    -0.206 OA
ATOM      5  O   UNL d   1       2.504  -0.117  -0.011  0.00  0.00    -0.206 OA
BRANCH   3   6
ATOM      6  C   UNL d   1       0.512  -0.883  -1.525  0.00  0.00     0.076 A 
ATOM      7  C   UNL d   1      -0.642  -0.436  -2.184  0.00  0.00     0.051 A 
ATOM      8  C   UNL d   1      -1.050  -1.001  -3.401  0.00  0.00     0.045 A 
ATOM      9  N   UNL d   1      -2.164  -0.494  -4.111  0.00  0.00    -0.283 NA
ATOM     10  C   UNL d   1      -0.316  -2.116  -3.869  0.00  0.00     0.090 A 
ATOM     11  C   UNL d   1      -2.272  -1.077  -5.460  0.00  0.00     0.122 C 
ATOM     12  C   UNL d   1      -2.350   0.960  -4.081  0.00  0.00     0.116 C 
ATOM     13  C   UNL d   1      -1.997  -2.573  -5.410  0.00  0.00     0.190 C 
ATOM     14  O   UNL d   1      -0.648  -2.825  -5.003  0.00  0.00    -0.348 OA
ATOM     15  C   UNL d   1       0.847  -2.551  -3.221  0.00  0.00     0.040 A 
ATOM     16  C   UNL d   1       1.279  -1.919  -2.058  0.00  0.00     0.027 A 
ENDBRANCH   3   6
ENDBRANCH   1   3
BRANCH   1  17
ATOM     17  C   UNL d   1       1.202  -2.022   1.663  0.00  0.00     0.143 C 
BRANCH  17  18
ATOM     18  C   UNL d   1       0.546  -2.834   2.758  0.00  0.00    -0.044 A 
ATOM     19  C   UNL d   1       0.930  -4.176   2.913  0.00  0.00     0.010 A 
ATOM     20  C   UNL d   1       0.404  -4.954   3.942  0.00  0.00     0.025 A 
ATOM     21  C   UNL d   1      -0.496  -4.381   4.842  0.00  0.00     0.074 A 
ATOM     22  C   UNL d   1      -0.894  -3.050   4.708  0.00  0.00     0.025 A 
ATOM     23  C   UNL d   1      -0.359  -2.275   3.675  0.00  0.00     0.010 A 
BRANCH  21  24
ATOM     24  S   UNL d   1      -1.070  -5.342   6.209  0.00  0.00     0.239 S 
ATOM     25  O   UNL d   1      -2.309  -4.784   6.700  0.00  0.00    -0.206 OA
ATOM     26  O   UNL d   1      -0.907  -6.742   5.909  0.00  0.00    -0.206 OA
BRANCH  24  27
ATOM     27  N   UNL d   1       0.107  -4.963   7.343  0.00  0.00    -0.225 NA
ATOM     28  H   UNL d   1      -0.303  -4.481   8.142  0.00  0.00     0.136 HD
ATOM     29  H   UNL d   1       0.668  -5.783   7.569  0.00  0.00     0.136 HD
ENDBRANCH  24  27
ENDBRANCH  21  24
ENDBRANCH  17  18
ENDBRANCH   1  17
TORSDOF 6
