REMARK  3 active torsions:
REMARK  status: ('A' for Active; 'I' for Inactive)
REMARK    1  A    between atoms: C_7  and  C_1 
REMARK    2  A    between atoms: C_8  and  C_2 
REMARK    3  A    between atoms: O_15  and  C_7 
ROOT
ATOM      1  C   UNL d   1       2.109   0.698   0.100  0.00  0.00     0.067 C 
ATOM      2  C   UNL d   1       1.166   1.875  -0.006  0.00  0.00     0.165 C 
ATOM      3  C   UNL d   1       1.663  -0.573   0.012  0.00  0.00     0.022 C 
ATOM      4  C   UNL d   1      -0.646   0.180  -0.075  0.00  0.00     0.172 C 
ATOM      5  N   UNL d   1       0.306  -0.785  -0.135  0.00  0.00    -0.337 N 
ATOM      6  N   UNL d   1      -0.223   1.452   0.108  0.00  0.00    -0.353 N 
ATOM      7  S   UNL d   1      -2.262  -0.190  -0.176  0.00  0.00    -0.041 SA
ATOM      8  C   UNL d   1       2.475  -1.841   0.038  0.00  0.00     0.069 C 
ATOM      9  H   UNL d   1      -0.037  -1.738  -0.220  0.00  0.00     0.168 HD
ATOM     10  H   UNL d   1      -0.940   2.167   0.115  0.00  0.00     0.163 HD
ENDROOT
BRANCH   2  11
ATOM     11  C   UNL d   1       1.349   2.974   1.017  0.00  0.00     0.010 A 
ATOM     12  S   UNL d   1       1.650   4.587   0.505  0.00  0.00    -0.104 SA
ATOM     13  C   UNL d   1       1.913   5.114   2.108  0.00  0.00     0.050 A 
ATOM     14  C   UNL d   1       1.691   4.111   3.025  0.00  0.00     0.008 A 
ATOM     15  C   UNL d   1       1.343   2.881   2.397  0.00  0.00     0.017 A 
ENDBRANCH   2  11
BRANCH   1  16
ATOM     16  C   UNL d   1       3.546   0.999   0.321  0.00  0.00     0.293 C 
ATOM     17  O   UNL d   1       4.310   0.294   0.956  0.00  0.00    -0.259 OA
BRANCH  16  18
ATOM     18  O   UNL d   1       3.879   2.183  -0.256  0.00  0.00    -0.323 OA
ATOM     19  C   UNL d   1       5.190   2.664   0.063  0.00  0.00     0.213 C 
ENDBRANCH  16  18
ENDBRANCH   1  16
TORSDOF 3
