REMARK  7 active torsions:
REMARK  status: ('A' for Active; 'I' for Inactive)
REMARK    1  A    between atoms: C_2  and  C_1 
REMARK    2  A    between atoms: C_4  and  C_12 
REMARK    3  A    between atoms: C_7  and  N_9 
REMARK    4  A    between atoms: N_14  and  C_7 
REMARK    5  A    between atoms: N_9  and  C_8 
REMARK    6  A    between atoms: C_20  and  N_14 
REMARK    7  A    between atoms: C_21  and  C_20 
ROOT
ATOM      1  N   UNL d   1       2.713  -2.655   1.795  0.00  0.00    -0.363 N 
ATOM      2  H   UNL d   1       3.115  -3.409   1.250  0.00  0.00     0.162 HD
ENDROOT
BRANCH   1   3
ATOM      3  C   UNL d   1       2.073  -1.711   1.010  0.00  0.00     0.172 C 
ATOM      4  S   UNL d   1       1.917  -2.032  -0.617  0.00  0.00    -0.041 SA
BRANCH   3   5
ATOM      5  N   UNL d   1       1.632  -0.619   1.724  0.00  0.00    -0.333 N 
ATOM      6  H   UNL d   1       1.322  -0.883   2.653  0.00  0.00     0.168 HD
BRANCH   5   7
ATOM      7  C   UNL d   1       1.487   0.753   1.405  0.00  0.00     0.049 A 
ATOM      8  C   UNL d   1       0.976   1.638   2.384  0.00  0.00     0.074 A 
ATOM      9  C   UNL d   1       0.898   3.021   2.104  0.00  0.00     0.018 A 
ATOM     10  C   UNL d   1       1.321   3.529   0.881  0.00  0.00     0.001 A 
ATOM     11  C   UNL d   1       1.835   2.664  -0.074  0.00  0.00     0.002 A 
ATOM     12  C   UNL d   1       1.925   1.293   0.190  0.00  0.00     0.030 A 
BRANCH   8  13
ATOM     13  C   UNL d   1       0.521   1.209   3.758  0.00  0.00     0.419 C 
ATOM     14  F   UNL d   1       0.688  -0.121   4.017  0.00  0.00    -0.166 F 
ATOM     15  F   UNL d   1      -0.798   1.464   3.980  0.00  0.00    -0.166 F 
ATOM     16  F   UNL d   1       1.196   1.854   4.752  0.00  0.00    -0.166 F 
ENDBRANCH   8  13
ENDBRANCH   5   7
ENDBRANCH   3   5
ENDBRANCH   1   3
BRANCH   1  17
ATOM     17  C   UNL d   1       3.437  -2.278   2.995  0.00  0.00     0.160 C 
BRANCH  17  18
ATOM     18  C   UNL d   1       4.113  -3.386   3.750  0.00  0.00    -0.041 A 
ATOM     19  C   UNL d   1       5.249  -3.054   4.503  0.00  0.00     0.010 A 
ATOM     20  C   UNL d   1       5.845  -3.978   5.359  0.00  0.00     0.014 A 
ATOM     21  C   UNL d   1       5.317  -5.266   5.489  0.00  0.00    -0.008 A 
ATOM     22  C   UNL d   1       4.199  -5.615   4.716  0.00  0.00     0.014 A 
ATOM     23  C   UNL d   1       3.593  -4.680   3.863  0.00  0.00     0.010 A 
BRANCH  21  24
ATOM     24  C   UNL d   1       5.904  -6.225   6.415  0.00  0.00     0.063 A 
ATOM     25  N   UNL d   1       5.860  -7.592   6.170  0.00  0.00    -0.292 N 
ATOM     26  N   UNL d   1       6.459  -8.285   7.125  0.00  0.00    -0.061 NA
ATOM     27  HN  UNL d   1       5.419  -8.012   5.352  1.00  0.00     0.183 HD
ATOM     28  S   UNL d   1       7.066  -7.320   8.348  0.00  0.00    -0.010 SA
ATOM     29  C   UNL d   1       6.524  -5.872   7.604  0.00  0.00     0.096 A 
ENDBRANCH  21  24
ENDBRANCH  17  18
ENDBRANCH   1  17
TORSDOF 7
