REMARK  6 active torsions:
REMARK  status: ('A' for Active; 'I' for Inactive)
REMARK    1  A    between atoms: N_2  and  C_1 
REMARK    2  A    between atoms: N_11  and  C_1 
REMARK    3  A    between atoms: C_6  and  N_2 
REMARK    4  A    between atoms: C_7  and  N_2 
REMARK    5  A    between atoms: C_3  and  C_6 
REMARK    6  A    between atoms: C_12  and  C_7 
ROOT
ATOM      1  N   UNL d   1       0.487   0.964   0.669  0.00  0.00    -0.349 N 
ENDROOT
BRANCH   1   2
ATOM      2  C   UNL d   1       1.361   0.388  -0.273  0.00  0.00     0.170 C 
ATOM      3  S   UNL d   1       0.914  -0.766  -1.416  0.00  0.00    -0.041 SA
BRANCH   2   4
ATOM      4  N   UNL d   1       2.652   0.877  -0.209  0.00  0.00    -0.371 N 
ATOM      5  C   UNL d   1       3.679   0.768  -1.228  0.00  0.00     0.148 C 
ATOM      6  H   UNL d   1       2.989   1.150   0.703  0.00  0.00     0.161 HD
ENDBRANCH   2   4
ENDBRANCH   1   2
BRANCH   1   7
ATOM      7  C   UNL d   1      -0.980   0.815   0.561  0.00  0.00     0.171 C 
BRANCH   7   8
ATOM      8  C   UNL d   1      -1.552   2.019  -0.153  0.00  0.00     0.000 A 
ATOM      9  S   UNL d   1      -2.649   3.063   0.659  0.00  0.00    -0.105 SA
ATOM     10  C   UNL d   1      -2.729   4.128  -0.675  0.00  0.00     0.050 A 
ATOM     11  C   UNL d   1      -1.981   3.682  -1.738  0.00  0.00     0.008 A 
ATOM     12  C   UNL d   1      -1.311   2.459  -1.442  0.00  0.00     0.017 A 
ENDBRANCH   7   8
ENDBRANCH   1   7
BRANCH   1  13
ATOM     13  C   UNL d   1       0.916   1.966   1.661  0.00  0.00     0.164 C 
BRANCH  13  14
ATOM     14  C   UNL d   1       1.397   1.416   2.990  0.00  0.00    -0.040 A 
ATOM     15  C   UNL d   1       1.862   0.106   3.173  0.00  0.00     0.009 A 
ATOM     16  C   UNL d   1       2.351  -0.307   4.417  0.00  0.00     0.001 A 
ATOM     17  C   UNL d   1       2.380   0.576   5.491  0.00  0.00     0.000 A 
ATOM     18  C   UNL d   1       1.922   1.879   5.329  0.00  0.00     0.001 A 
ATOM     19  C   UNL d   1       1.437   2.295   4.088  0.00  0.00     0.009 A 
ENDBRANCH  13  14
ENDBRANCH   1  13
TORSDOF 6
