REMARK  4 active torsions:
REMARK  status: ('A' for Active; 'I' for Inactive)
REMARK    1  A    between atoms: N_11  and  N_1 
REMARK    2  A    between atoms: C_6  and  C_16 
REMARK    3  A    between atoms: C_20  and  N_9 
REMARK    4  A    between atoms: C_19  and  C_10 
ROOT
ATOM      1  N   UNL d   1       4.637  -5.170  -0.621  0.00  0.00    -0.292 N 
ATOM      2  HN  UNL d   1       5.105  -5.933  -1.109  1.00  0.00     0.187 HD
ATOM      3  C   UNL d   1       3.140  -3.552  -0.042  0.00  0.00     0.027 A 
ATOM      4  N   UNL d   1       5.133  -4.429   0.397  0.00  0.00    -0.266 N 
ATOM      5  C   UNL d   1       3.404  -4.696  -0.856  0.00  0.00     0.072 A 
ATOM      6  C   UNL d   1       4.250  -3.442   0.771  0.00  0.00     0.132 A 
ENDROOT
BRANCH   3   7
ATOM      7  C   UNL d   1       1.998  -2.666   0.003  0.00  0.00     0.123 C 
ATOM      8  N   UNL d   1       1.269  -2.556  -1.057  0.00  0.00    -0.300 N 
ATOM      9  HN  UNL d   1       1.545  -3.032  -1.916  1.00  0.00     0.186 HD
BRANCH   8  10
ATOM     10  N   UNL d   1       0.133  -1.807  -1.031  0.00  0.00    -0.210 N 
ATOM     11  C   UNL d   1      -0.410  -1.206  -2.145  0.00  0.00     0.161 A 
ATOM     12  N   UNL d   1      -1.565  -0.632  -1.917  0.00  0.00    -0.281 N 
ATOM     13  C   UNL d   1       0.226  -1.206  -3.444  0.00  0.00     0.052 A 
ATOM     14  N   UNL d   1      -1.832  -0.889  -0.601  0.00  0.00    -0.273 N 
ATOM     15  HN  UNL d   1      -2.139  -0.107  -2.577  1.00  0.00     0.188 HD
ATOM     16  C   UNL d   1      -0.827  -1.674  -0.041  0.00  0.00     0.214 A 
ATOM     17  H   UNL d   1      -2.720  -0.643  -0.178  0.00  0.00     0.189 HD
ATOM     18  S   UNL d   1      -0.945  -2.303   1.491  0.00  0.00    -0.037 SA
ATOM     19  S   UNL d   1       0.028   0.161  -4.467  0.00  0.00    -0.098 SA
ATOM     20  C   UNL d   1       0.995  -2.175  -4.062  0.00  0.00     0.023 A 
ATOM     21  C   UNL d   1       0.984  -0.531  -5.701  0.00  0.00     0.050 A 
ATOM     22  C   UNL d   1       1.430  -1.787  -5.365  0.00  0.00     0.009 A 
ENDBRANCH   8  10
ENDBRANCH   3   7
BRANCH   5  23
ATOM     23  C   UNL d   1       2.528  -5.359  -1.828  0.00  0.00    -0.007 A 
ATOM     24  C   UNL d   1       1.149  -5.462  -1.598  0.00  0.00     0.014 A 
ATOM     25  C   UNL d   1       0.301  -6.019  -2.556  0.00  0.00     0.007 A 
ATOM     26  C   UNL d   1       0.822  -6.538  -3.743  0.00  0.00    -0.062 A 
ATOM     27  C   UNL d   1       2.204  -6.493  -3.955  0.00  0.00     0.007 A 
ATOM     28  C   UNL d   1      -0.107  -7.122  -4.764  0.00  0.00     0.048 C 
ATOM     29  C   UNL d   1       3.050  -5.906  -3.006  0.00  0.00     0.014 A 
ENDBRANCH   5  23
BRANCH   4  30
ATOM     30  C   UNL d   1       6.408  -4.725   0.955  0.00  0.00     0.056 A 
ATOM     31  C   UNL d   1       6.901  -4.022   2.067  0.00  0.00     0.031 A 
ATOM     32  C   UNL d   1       8.144  -4.357   2.612  0.00  0.00     0.002 A 
ATOM     33  C   UNL d   1       8.906  -5.383   2.055  0.00  0.00     0.000 A 
ATOM     34  C   UNL d   1       8.430  -6.078   0.945  0.00  0.00     0.002 A 
ATOM     35  C   UNL d   1       7.186  -5.752   0.397  0.00  0.00     0.031 A 
ENDBRANCH   4  30
TORSDOF 4
