REMARK  2 active torsions:
REMARK  status: ('A' for Active; 'I' for Inactive)
REMARK    1  A    between atoms: C_3  and  C_1 
REMARK       I    between atoms: N_11  and  C_3 
REMARK    2  A    between atoms: C_4  and  N_11 
ROOT
ATOM      1  C   UNL d   1      -1.262  -1.340  -0.375  0.00  0.00     0.061 A 
ATOM      2  C   UNL d   1      -0.163  -0.520  -0.019  0.00  0.00     0.082 A 
ATOM      3  S   UNL d   1       1.971   0.483   0.539  0.00  0.00     0.068 SA
ATOM      4  N   UNL d   1       1.109  -0.895   0.202  0.00  0.00    -0.310 N 
ATOM      5  HN  UNL d   1       1.476  -1.846   0.169  1.00  0.00     0.176 HD
ATOM      6  C   UNL d   1      -0.360   0.973   0.149  0.00  0.00     0.068 A 
ATOM      7  N   UNL d   1       0.769   1.626   0.460  0.00  0.00    -0.310 N 
ATOM      8  HN  UNL d   1       0.871   2.628   0.617  1.00  0.00     0.176 HD
ATOM      9  C   UNL d   1      -2.511  -0.686  -0.525  0.00  0.00     0.019 A 
ATOM     10  C   UNL d   1      -2.689   0.703  -0.350  0.00  0.00     0.003 A 
ATOM     11  C   UNL d   1      -1.632   1.569  -0.022  0.00  0.00     0.032 A 
ENDROOT
BRANCH   1  12
ATOM     12  C   UNL d   1      -1.165  -2.788  -0.630  0.00  0.00     0.259 C 
ATOM     13  N   UNL d   1      -0.175  -3.473   0.029  0.00  0.00    -0.308 N 
ATOM     14  H   UNL d   1       0.387  -3.024   0.740  0.00  0.00     0.170 HD
ATOM     15  O   UNL d   1      -2.027  -3.291  -1.350  0.00  0.00    -0.267 OA
BRANCH  13  16
ATOM     16  C   UNL d   1      -0.070  -4.844   0.000  0.00  0.00     0.124 C 
ATOM     17  N   UNL d   1       0.493  -5.488   1.026  0.00  0.00    -0.284 N 
ATOM     18  N   UNL d   1       0.231  -6.784   0.767  0.00  0.00    -0.306 N 
ATOM     19  HN  UNL d   1       1.002  -5.093   1.816  1.00  0.00     0.188 HD
ATOM     20  C   UNL d   1       0.365  -7.771   1.810  0.00  0.00     0.177 C 
ATOM     21  C   UNL d   1      -0.289  -6.998  -0.474  0.00  0.00     0.113 C 
ATOM     22  C   UNL d   1      -0.525  -5.747  -0.989  0.00  0.00     0.068 C 
ENDBRANCH  13  16
ENDBRANCH   1  12
TORSDOF 2
