REMARK  6 active torsions:
REMARK  status: ('A' for Active; 'I' for Inactive)
REMARK    1  A    between atoms: C_11  and  N_1 
REMARK    2  A    between atoms: C_2  and  O_14 
REMARK       I    between atoms: C_5  and  N_10 
REMARK    3  A    between atoms: C_13  and  C_5 
REMARK    4  A    between atoms: C_6  and  C_12 
REMARK       I    between atoms: N_9  and  C_6 
REMARK    5  A    between atoms: N_10  and  N_9 
REMARK    6  A    between atoms: O_14  and  C_26 
ROOT
ATOM      1  C   UNL d   1       5.789  -3.735  -0.168  0.00  0.00     0.270 C 
ATOM      2  N   UNL d   1       6.828  -3.424   0.692  0.00  0.00    -0.263 N 
ATOM      3  O   UNL d   1       5.881  -4.660  -0.968  0.00  0.00    -0.266 OA
ATOM      4  H   UNL d   1       6.819  -2.688   1.393  0.00  0.00     0.190 HD
ENDROOT
BRANCH   2   5
ATOM      5  N   UNL d   1       7.942  -4.272   0.713  0.00  0.00    -0.263 N 
ATOM      6  C   UNL d   1       8.822  -4.157   1.770  0.00  0.00     0.270 C 
ATOM      7  O   UNL d   1       8.709  -3.264   2.611  0.00  0.00    -0.266 OA
ATOM      8  H   UNL d   1       7.971  -4.981  -0.014  0.00  0.00     0.190 HD
BRANCH   6   9
ATOM      9  C   UNL d   1       9.934  -5.152   1.867  0.00  0.00     0.033 A 
ATOM     10  C   UNL d   1       9.986  -6.336   1.118  0.00  0.00     0.020 A 
ATOM     11  C   UNL d   1      11.054  -7.238   1.274  0.00  0.00     0.038 A 
ATOM     12  C   UNL d   1      12.091  -6.954   2.162  0.00  0.00     0.078 A 
ATOM     13  C   UNL d   1      12.021  -5.792   2.931  0.00  0.00     0.038 A 
ATOM     14  C   UNL d   1      10.958  -4.896   2.786  0.00  0.00     0.020 A 
BRANCH  12  15
ATOM     15  O   UNL d   1      13.201  -7.708   2.396  0.00  0.00    -0.255 OA
BRANCH  15  16
ATOM     16  C   UNL d   1      13.607  -8.677   1.444  0.00  0.00     0.530 C 
ATOM     17  F   UNL d   1      13.259  -8.357   0.179  0.00  0.00    -0.144 F 
ATOM     18  F   UNL d   1      14.956  -8.773   1.486  0.00  0.00    -0.144 F 
ATOM     19  F   UNL d   1      13.087  -9.882   1.758  0.00  0.00    -0.144 F 
ENDBRANCH  15  16
ENDBRANCH  12  15
ENDBRANCH   6   9
ENDBRANCH   2   5
BRANCH   1  20
ATOM     20  C   UNL d   1       4.545  -2.913  -0.090  0.00  0.00     0.033 A 
ATOM     21  C   UNL d   1       4.268  -2.032   0.959  0.00  0.00     0.019 A 
ATOM     22  C   UNL d   1       3.065  -1.308   0.980  0.00  0.00     0.031 A 
ATOM     23  C   UNL d   1       2.129  -1.431  -0.057  0.00  0.00     0.039 A 
ATOM     24  C   UNL d   1       2.404  -2.317  -1.104  0.00  0.00     0.031 A 
ATOM     25  C   UNL d   1       3.596  -3.057  -1.113  0.00  0.00     0.019 A 
BRANCH  23  26
ATOM     26  N   UNL d   1       0.922  -0.654  -0.045  0.00  0.00    -0.320 N 
ATOM     27  C   UNL d   1      -0.344  -1.057  -0.491  0.00  0.00     0.013 A 
ATOM     28  C   UNL d   1      -1.225  -0.006  -0.320  0.00  0.00     0.027 A 
ATOM     29  C   UNL d   1      -0.723  -2.414  -0.982  0.00  0.00     0.068 C 
ATOM     30  C   UNL d   1      -0.524   1.056   0.261  0.00  0.00     0.027 A 
ATOM     31  C   UNL d   1       0.793   0.666   0.411  0.00  0.00     0.013 A 
ATOM     32  C   UNL d   1       1.898   1.547   0.890  0.00  0.00     0.068 C 
ENDBRANCH  23  26
ENDBRANCH   1  20
TORSDOF 6
