REMARK  2 active torsions:
REMARK  status: ('A' for Active; 'I' for Inactive)
REMARK    1  A    between atoms: C_7  and  N_1 
REMARK    2  A    between atoms: S_12  and  C_2 
ROOT
ATOM      1  C   UNL d   1      -0.428  -2.661  -0.017  0.00  0.00     0.068 A 
ATOM      2  C   UNL d   1      -1.013  -3.316  -1.129  0.00  0.00    -0.033 A 
ATOM      3  C   UNL d   1      -0.077  -3.418   1.134  0.00  0.00    -0.033 A 
ATOM      4  C   UNL d   1      -1.252  -4.703  -1.052  0.00  0.00     0.015 A 
ATOM      5  C   UNL d   1      -0.285  -4.812   1.142  0.00  0.00     0.015 A 
ATOM      6  C   UNL d   1      -0.861  -5.462   0.056  0.00  0.00    -0.061 A 
ATOM      7  C   UNL d   1       0.521  -2.832   2.391  0.00  0.00     0.050 C 
ATOM      8  C   UNL d   1      -1.352  -2.684  -2.454  0.00  0.00     0.050 C 
ATOM      9  C   UNL d   1      -1.054  -6.950   0.056  0.00  0.00     0.048 C 
ENDROOT
BRANCH   1  10
ATOM     10  N   UNL d   1      -0.068  -1.285  -0.061  0.00  0.00    -0.218 N 
ATOM     11  C   UNL d   1      -0.729  -0.141  -0.485  0.00  0.00     0.177 A 
ATOM     12  N   UNL d   1       0.095   0.884  -0.425  0.00  0.00    -0.264 N 
ATOM     13  N   UNL d   1       1.273   0.397   0.064  0.00  0.00    -0.006 NA
ATOM     14  HN  UNL d   1      -0.106   1.848  -0.691  1.00  0.00     0.186 HD
ATOM     15  N   UNL d   1       1.185  -0.901   0.312  0.00  0.00     0.001 NA
BRANCH  11  16
ATOM     16  S   UNL d   1      -2.414  -0.010  -0.864  0.00  0.00    -0.096 SA
ATOM     17  C   UNL d   1      -2.394   1.481  -1.893  0.00  0.00     0.099 C 
ENDBRANCH  11  16
ENDBRANCH   1  10
TORSDOF 2
