REMARK  7 active torsions:
REMARK  status: ('A' for Active; 'I' for Inactive)
REMARK    1  A    between atoms: C_2  and  S_1 
REMARK    2  A    between atoms: N_3  and  S_1 
REMARK    3  A    between atoms: C_16  and  N_3 
REMARK    4  A    between atoms: C_8  and  C_11 
REMARK    5  A    between atoms: C_15  and  C_8 
REMARK    6  A    between atoms: O_10  and  C_9 
REMARK    7  A    between atoms: C_11  and  O_10 
ROOT
ATOM      1  C   UNL d   1       0.425   0.751   1.411  0.00  0.00     0.081 A 
ATOM      2  C   UNL d   1       0.584   2.116   1.657  0.00  0.00     0.052 A 
ATOM      3  C   UNL d   1       0.160   2.647   2.881  0.00  0.00     0.068 A 
ATOM      4  C   UNL d   1      -0.419   1.822   3.863  0.00  0.00     0.091 A 
ATOM      5  C   UNL d   1      -0.100  -0.090   2.396  0.00  0.00     0.028 A 
ATOM      6  C   UNL d   1      -0.513   0.445   3.616  0.00  0.00     0.040 A 
ATOM      7 CL   UNL d   1       0.355   4.344   3.139  0.00  0.00    -0.081 Cl
ENDROOT
BRANCH   1   8
ATOM      8  S   UNL d   1       0.969   0.052  -0.134  0.00  0.00     0.263 S 
ATOM      9  O   UNL d   1       1.239  -1.350   0.105  0.00  0.00    -0.200 OA
ATOM     10  O   UNL d   1       1.982   0.925  -0.686  0.00  0.00    -0.200 OA
BRANCH   8  11
ATOM     11  N   UNL d   1      -0.400   0.105  -1.090  0.00  0.00    -0.281 N 
ATOM     12  H   UNL d   1      -0.882  -0.771  -1.270  0.00  0.00     0.179 HD
BRANCH  11  13
ATOM     13  C   UNL d   1      -0.986   1.334  -1.468  0.00  0.00     0.042 A 
ATOM     14  C   UNL d   1      -0.507   2.018  -2.583  0.00  0.00     0.030 A 
ATOM     15  C   UNL d   1      -1.110   3.215  -2.972  0.00  0.00     0.002 A 
ATOM     16  C   UNL d   1      -2.183   3.726  -2.241  0.00  0.00     0.000 A 
ATOM     17  C   UNL d   1      -2.662   3.036  -1.127  0.00  0.00     0.002 A 
ATOM     18  C   UNL d   1      -2.070   1.831  -0.746  0.00  0.00     0.030 A 
ENDBRANCH  11  13
ENDBRANCH   8  11
ENDBRANCH   1   8
BRANCH   4  19
ATOM     19  O   UNL d   1      -0.847   2.411   5.030  0.00  0.00    -0.342 OA
BRANCH  19  20
ATOM     20  C   UNL d   1      -1.837   1.693   5.753  0.00  0.00     0.259 C 
BRANCH  20  21
ATOM     21  C   UNL d   1      -2.598   2.567   6.740  0.00  0.00     0.183 C 
ATOM     22  O   UNL d   1      -3.808   2.757   6.608  0.00  0.00    -0.290 OA
BRANCH  21  23
ATOM     23  C   UNL d   1      -1.893   3.140   7.926  0.00  0.00     0.012 A 
ATOM     24  C   UNL d   1      -0.538   2.909   8.187  0.00  0.00     0.015 A 
ATOM     25  C   UNL d   1       0.060   3.460   9.325  0.00  0.00     0.001 A 
ATOM     26  C   UNL d   1      -0.689   4.241  10.206  0.00  0.00     0.000 A 
ATOM     27  C   UNL d   1      -2.040   4.471   9.956  0.00  0.00     0.001 A 
ATOM     28  C   UNL d   1      -2.640   3.921   8.822  0.00  0.00     0.015 A 
ENDBRANCH  21  23
ENDBRANCH  20  21
ENDBRANCH  19  20
ENDBRANCH   4  19
TORSDOF 7
